data_PCOD9394000
_publ_section_title
;
Structure prediction by ZEFSAII (Michael W. Deem and Ramdas Pophale) SiO2 
 PCOD9394000
Probable space group: P C C M
;
_chemical_formula_sum "Si O2"
_cell_formula_units_Z 64
_cell_length_a 9.148592
_cell_length_b 20.072072
_cell_length_c 17.873379
_cell_angle_alpha 90.000000
_cell_angle_beta 90.000000
_cell_angle_gamma 90.000000
_cell_volume 3282.109986
_symmetry_space_group_name_H-M "P C C M"
_symmetry_group_IT_number 49
_symmetry_cell_setting 'orthorhombic'
loop_
_space_group_symop_operation_xyz
x,y,z
-x,-y,z
x,-y,1/2-z
-x,y,1/2-z
-x,-y,-z
x,y,-z
-x,y,1/2+z
x,-y,1/2+z
loop_
_atom_site_type_symbol
_atom_site_label
_atom_site_fract_x
_atom_site_fract_y
_atom_site_fract_z
Si Si1 0.391426 0.362640 0.323722
Si Si2 0.286970 0.756631 0.085442
Si Si3 0.838703 0.486230 0.835928
Si Si4 0.494488 0.113533 0.414827
Si Si5 0.218064 0.052065 0.644204
Si Si6 0.772941 0.098928 0.312629
Si Si7 0.605475 0.564762 0.918792
Si Si8 0.995752 0.155294 0.084077
O O1 0.500000 0.367876 0.250000
O O2 0.321634 0.292400 0.345955
O O3 0.260519 0.417917 0.335336
O O4 0.507118 0.376593 0.389273
O O5 0.400708 0.818070 0.087914
O O6 0.123722 0.786456 0.092544
O O7 0.297194 0.727658 0.000000
O O8 0.857072 0.500000 0.750000
O O9 0.735111 0.543960 0.866158
O O10 0.000000 0.500000 0.871260
O O11 0.550802 0.105567 0.500000
O O12 0.374841 0.057496 0.395203
O O13 0.617932 0.112915 0.351531
O O14 0.227186 0.093493 0.722755
O O15 0.100685 0.088346 0.592706
O O16 0.183335 0.976020 0.662352
O O17 0.886019 0.150059 0.350202
O O18 0.500000 0.500000 0.920804
O O19 0.664681 0.578279 0.000000
O O20 0.059298 0.158714 0.000000
#
# Coordination Sequence:
#
# PCOD9394000 Si02
#       8
#     8   8   8   8   8   8   8   8
#     4  11  20  35  63  89 110 154 198 233 281 342
#     4   9  21  40  57  78 113 152 194 240 285 337
#     4  10  20  36  59  87 125 151 177 235 290 342
#     4  10  21  37  57  80 110 149 191 242 293 341
#     4  10  21  35  53  81 116 147 182 240 304 359
#     4  11  21  34  56  84 111 145 190 241 301 356
#     4   9  18  32  55  87 117 151 191 229 274 333
#     4  10  21  37  56  78 109 152 194 240 291 345
#
# _framework density 19.499649999999999
#
# number of rings (size 3 to 8) (size 9 to 14) (size 15 to 20)
#    0.000    2.000    1.250    3.375    0.000    7.750 
#    0.000    1.250   11.000    1.500    0.000    0.000 
#    0.000    0.000    0.000    0.000    0.000    0.000 
#
# Total GULP energy -356323.997091 kJ/mol
# GULP energy per Si atom -5567.562455 kJ/mol
# Density = 1.945527 g / cm^3
# Si number density = 19.499650 Si / 1000 Ang^3
#
#
#
# Elastic Constant Matrix: (Units=GPa)
#
#
# Indices 1 2 3 4 5 6 
#
# 1 87.1657 9.7496 21.9406 0.0000 0.0000 0.0000
# 2 9.7496 42.5822 12.6882 0.0000 0.0000 0.0000
# 3 21.9406 12.6882 77.6905 0.0000 0.0000 0.0000
# 4 0.0000 0.0000 0.0000 10.8720 0.0000 0.0000
# 5 0.0000 0.0000 0.0000 0.0000 39.7149 0.0000
# 6 0.0000 0.0000 0.0000 0.0000 0.0000 19.5890
#
#
#
# Elastic Compliance Matrix: (Units=1/GPa)
#
#
# Indices 1 2 3 4 5 6 
#
# 1 0.012495 -0.001902 -0.003218 0.000000 0.000000 0.000000
# 2 -0.001902 0.024975 -0.003542 0.000000 0.000000 0.000000
# 3 -0.003218 -0.003542 0.014359 0.000000 0.000000 0.000000
# 4 0.000000 0.000000 0.000000 0.091979 0.000000 0.000000
# 5 0.000000 0.000000 0.000000 0.000000 0.025179 0.000000
# 6 0.000000 0.000000 0.000000 0.000000 0.000000 0.051049
#
#
# Mechanical properties :
#
#
# Convention : Reuss Voigt Hill
#
# Bulk Modulus (GPa) = 28.98114 32.91058 30.94586
# Shear Modulus (GPa) = 20.09146 24.90583 22.49865
#
# Velocity S-wave (km/s) = 3.21339 3.57773 3.40044
# Velocity P-wave (km/s) = 5.35373 5.82933 5.59659
#
# Compressibility (1/GPa) = 0.03450520
#
# Stress axis : x y z
#
# Youngs Moduli (GPa) = 80.03082 40.04041 69.64345
#
# Poissons Ratio (x) = 0.07616 0.22412
# Poissons Ratio (y) = 0.15222 0.24665
# Poissons Ratio (z) = 0.25755 0.14181
#
# Static dielectric constant tensor:
#      x y z
#    x 1.726200 0.000000 0.000000 
#    y 0.000000 1.694230 0.000000 
#    z 0.000000 0.000000 1.683070 
# 
# From -- ./inp_files/16548.got.cif
#   From: 2010.05.17/outbox.cif.g08.bks.cpg/sg49_9_cif.got.tgz:16548.got - 2010.06.03 21:02:19.
