data_PCOD9394611
_publ_section_title
;
Structure prediction by ZEFSAII (Michael W. Deem and Ramdas Pophale) SiO2 
 PCOD9394611
Probable space group: P C C M
;
_chemical_formula_sum "Si O2"
_cell_formula_units_Z 32
_cell_length_a 7.060508
_cell_length_b 14.475430
_cell_length_c 15.627849
_cell_angle_alpha 90.000000
_cell_angle_beta 90.000000
_cell_angle_gamma 90.000000
_cell_volume 1597.226949
_symmetry_space_group_name_H-M "P C C M"
_symmetry_group_IT_number 49
_symmetry_cell_setting 'orthorhombic'
loop_
_space_group_symop_operation_xyz
x,y,z
-x,-y,z
x,-y,1/2-z
-x,y,1/2-z
-x,-y,-z
x,y,-z
-x,y,1/2+z
x,-y,1/2+z
loop_
_atom_site_type_symbol
_atom_site_label
_atom_site_fract_x
_atom_site_fract_y
_atom_site_fract_z
Si Si1 0.478729 0.890025 0.500000
Si Si2 0.122327 0.791647 0.000000
Si Si3 0.000000 0.000000 0.250000
Si Si4 0.030936 0.608065 0.500000
Si Si5 0.500000 0.500000 0.250000
Si Si6 0.180812 0.639473 0.310935
Si Si7 0.816665 0.159903 0.356076
O O1 0.682043 0.843391 0.500000
O O2 0.359971 0.857797 0.417679
O O3 0.500000 0.000000 0.500000
O O4 0.996926 0.819542 0.917737
O O5 0.143708 0.680223 0.000000
O O6 0.868892 0.931548 0.195361
O O7 0.134936 0.630186 0.411482
O O8 0.000000 0.500000 0.500000
O O9 0.354930 0.570770 0.295541
O O10 0.218299 0.749022 0.298610
O O11 0.000000 0.615640 0.250000
#
# Coordination Sequence:
#
# PCOD9394611 Si02
#       7
#     4   4   2   4   2   8   8
#     4  11  22  41  63  98 132 167 228 281 338 404
#     4   9  21  42  65  87 130 169 212 282 325 398
#     4  12  20  42  66  86 132 180 216 264 334 400
#     4  10  21  39  71  97 127 178 224 269 346 411
#     4  12  26  42  72  96 144 182 218 298 360 400
#     4  11  24  46  66 100 138 178 231 287 341 418
#     4  10  23  41  66  92 127 179 222 268 339 403
#
# _framework density 20.034725000000002
#
# number of rings (size 3 to 8) (size 9 to 14) (size 15 to 20)
#    0.000    1.500    1.250    4.125    0.000    8.500 
#    4.500    2.500    0.000    0.000    0.000    0.000 
#    0.000    0.000    0.000    0.000    0.000    0.000 
#
# Total GULP energy -178622.300821 kJ/mol
# GULP energy per Si atom -5581.946901 kJ/mol
# Density = 1.998913 g / cm^3
# Si number density = 20.034725 Si / 1000 Ang^3
#
#
#
# Elastic Constant Matrix: (Units=GPa)
#
#
# Indices 1 2 3 4 5 6 
#
# 1 147.3824 80.1209 46.3510 0.0000 0.0000 0.0000
# 2 80.1209 205.8152 46.0786 0.0000 0.0000 0.0000
# 3 46.3510 46.0786 91.5895 0.0000 0.0000 0.0000
# 4 0.0000 0.0000 0.0000 33.1324 0.0000 0.0000
# 5 0.0000 0.0000 0.0000 0.0000 5.7249 0.0000
# 6 0.0000 0.0000 0.0000 0.0000 0.0000 39.7537
#
#
#
# Elastic Compliance Matrix: (Units=1/GPa)
#
#
# Indices 1 2 3 4 5 6 
#
# 1 0.009411 -0.002927 -0.003290 0.000000 0.000000 0.000000
# 2 -0.002927 0.006386 -0.001731 0.000000 0.000000 0.000000
# 3 -0.003290 -0.001731 0.013454 0.000000 0.000000 0.000000
# 4 0.000000 0.000000 0.000000 0.030182 0.000000 0.000000
# 5 0.000000 0.000000 0.000000 0.000000 0.174677 0.000000
# 6 0.000000 0.000000 0.000000 0.000000 0.000000 0.025155
#
#
# Mechanical properties :
#
#
# Convention : Reuss Voigt Hill
#
# Bulk Modulus (GPa) = 74.88289 87.76536 81.32412
# Shear Modulus (GPa) = 17.88184 33.87130 25.87657
#
# Velocity S-wave (km/s) = 2.99079 4.11619 3.59776
# Velocity P-wave (km/s) = 7.02738 8.15429 7.61172
#
# Compressibility (1/GPa) = 0.01335419
#
# Stress axis : x y z
#
# Youngs Moduli (GPa) = 106.25910 156.59774 74.32521
#
# Poissons Ratio (x) = 0.45835 0.24454
# Poissons Ratio (y) = 0.31102 0.12869
# Poissons Ratio (z) = 0.34960 0.27114
#
# Static dielectric constant tensor:
#      x y z
#    x 1.674310 0.000000 0.000000 
#    y 0.000000 1.717910 0.000000 
#    z 0.000000 0.000000 1.697540 
# 
# From -- ./inp_files/15200.got.cif
#   From: 2010.05.17/outbox.cif.g08.bks.cpg/sg49_8_cif.got.tgz:15200.got - 2010.06.03 21:02:19.
