data_PCOD9394137
_publ_section_title
;
Structure prediction by ZEFSAII (Michael W. Deem and Ramdas Pophale) SiO2 
 PCOD9394137
Probable space group: P C C M
;
_chemical_formula_sum "Si O2"
_cell_formula_units_Z 64
_cell_length_a 20.311352
_cell_length_b 5.807605
_cell_length_c 27.114935
_cell_angle_alpha 90.000000
_cell_angle_beta 90.000000
_cell_angle_gamma 90.000000
_cell_volume 3198.486123
_symmetry_space_group_name_H-M "P C C M"
_symmetry_group_IT_number 49
_symmetry_cell_setting 'orthorhombic'
loop_
_space_group_symop_operation_xyz
x,y,z
-x,-y,z
x,-y,1/2-z
-x,y,1/2-z
-x,-y,-z
x,y,-z
-x,y,1/2+z
x,-y,1/2+z
loop_
_atom_site_type_symbol
_atom_site_label
_atom_site_fract_x
_atom_site_fract_y
_atom_site_fract_z
Si Si1 0.171696 0.822813 0.294947
Si Si2 0.943602 0.697860 0.053719
Si Si3 0.242551 0.866450 0.866953
Si Si4 0.325384 0.246096 0.094809
Si Si5 0.201202 0.520812 0.945745
Si Si6 0.299171 0.512438 0.302317
Si Si7 0.527322 0.250779 0.441430
Si Si8 0.033108 0.243536 0.165666
O O1 0.231482 0.646476 0.290453
O O2 0.100305 0.722040 0.303971
O O3 0.170678 0.000000 0.250000
O O4 0.191900 0.954686 0.344696
O O5 0.868766 0.604667 0.055059
O O6 0.953473 0.805713 0.107485
O O7 0.000000 0.500000 0.051968
O O8 0.948259 0.821306 0.000000
O O9 0.202375 0.698153 0.901368
O O10 0.277977 0.735433 0.822350
O O11 0.299803 0.987924 0.897631
O O12 0.265750 0.367774 0.065466
O O13 0.329638 0.359364 0.149891
O O14 0.394789 0.256828 0.068498
O O15 0.208414 0.627915 0.000000
O O16 0.336404 0.500000 0.250000
O O17 0.500000 0.500000 0.422252
O O18 0.513505 0.250127 0.500000
O O19 0.500000 0.000000 0.422497
O O20 0.000000 0.500000 0.168410
O O21 0.000000 0.000000 0.183558
#
# Coordination Sequence:
#
# PCOD9394137 Si02
#       8
#     8   8   8   8   8   8   8   8
#     4  11  23  40  62  87 119 161 210 274 337 401
#     4   9  19  38  61  87 120 166 215 263 325 397
#     4  10  21  36  63  93 123 164 209 266 329 392
#     4  10  22  37  61  96 131 167 218 270 327 382
#     4  10  21  37  59  90 129 166 213 268 328 390
#     4  10  20  37  63  92 120 160 212 267 327 388
#     4  10  23  42  67  99 138 184 225 261 316 389
#     4  11  26  42  63  87 120 158 210 268 328 399
#
# _framework density 20.009464999999999
#
# number of rings (size 3 to 8) (size 9 to 14) (size 15 to 20)
#    0.000    1.875    1.250    2.625    8.750    1.500 
#    0.000    1.250    0.000    0.375    0.000    0.000 
#    0.000    0.000    0.000    0.000    0.000    0.000 
#
# Total GULP energy -356591.864109 kJ/mol
# GULP energy per Si atom -5571.747877 kJ/mol
# Density = 1.996392 g / cm^3
# Si number density = 20.009465 Si / 1000 Ang^3
#
#
#
# Elastic Constant Matrix: (Units=GPa)
#
#
# Indices 1 2 3 4 5 6 
#
# 1 87.7307 36.9707 -8.5980 0.0000 0.0000 0.0000
# 2 36.9707 81.8763 -1.7084 0.0000 0.0000 0.0000
# 3 -8.5980 -1.7084 24.8716 0.0000 0.0000 0.0000
# 4 0.0000 0.0000 0.0000 11.7570 0.0000 0.0000
# 5 0.0000 0.0000 0.0000 0.0000 17.3674 0.0000
# 6 0.0000 0.0000 0.0000 0.0000 0.0000 8.1348
#
#
#
# Elastic Compliance Matrix: (Units=1/GPa)
#
#
# Indices 1 2 3 4 5 6 
#
# 1 0.014584 -0.006489 0.004596 0.000000 0.000000 0.000000
# 2 -0.006489 0.015119 -0.001205 0.000000 0.000000 0.000000
# 3 0.004596 -0.001205 0.041712 0.000000 0.000000 0.000000
# 4 0.000000 0.000000 0.000000 0.085056 0.000000 0.000000
# 5 0.000000 0.000000 0.000000 0.000000 0.057579 0.000000
# 6 0.000000 0.000000 0.000000 0.000000 0.000000 0.122929
#
#
# Mechanical properties :
#
#
# Convention : Reuss Voigt Hill
#
# Bulk Modulus (GPa) = 15.33320 27.53415 21.43367
# Shear Modulus (GPa) = 13.70184 18.63944 16.17064
#
# Velocity S-wave (km/s) = 2.61965 3.05541 2.84588
# Velocity P-wave (km/s) = 4.10240 5.12229 4.64045
#
# Compressibility (1/GPa) = 0.06521796
#
# Stress axis : x y z
#
# Youngs Moduli (GPa) = 68.57039 66.14380 23.97363
#
# Poissons Ratio (x) = 0.42922 -0.11018
# Poissons Ratio (y) = 0.44497 0.02888
# Poissons Ratio (z) = -0.31513 0.07969
#
# Static dielectric constant tensor:
#      x y z
#    x 1.687180 0.000000 0.000000 
#    y 0.000000 1.782560 0.000000 
#    z 0.000000 0.000000 1.739540 
# 
# From -- ./inp_files/26898.got.cif
#   From: 2010.05.17/outbox.cif.g08.bks.cpg/sg49_14_cif.got.tgz:26898.got - 2010.06.03 21:02:19.
