data_PCOD9394287
_publ_section_title
;
Structure prediction by ZEFSAII (Michael W. Deem and Ramdas Pophale) SiO2 
 PCOD9394287
Probable space group: P C C M
;
_chemical_formula_sum "Si O2"
_cell_formula_units_Z 58
_cell_length_a 15.432802
_cell_length_b 23.665628
_cell_length_c 9.800247
_cell_angle_alpha 90.000000
_cell_angle_beta 90.000000
_cell_angle_gamma 90.000000
_cell_volume 3579.314332
_symmetry_space_group_name_H-M "P C C M"
_symmetry_group_IT_number 49
_symmetry_cell_setting 'orthorhombic'
loop_
_space_group_symop_operation_xyz
x,y,z
-x,-y,z
x,-y,1/2-z
-x,y,1/2-z
-x,-y,-z
x,y,-z
-x,y,1/2+z
x,-y,1/2+z
loop_
_atom_site_type_symbol
_atom_site_label
_atom_site_fract_x
_atom_site_fract_y
_atom_site_fract_z
Si Si1 0.500000 0.500000 0.250000
Si Si2 0.670996 0.550204 0.656969
Si Si3 0.584077 0.239514 0.837883
Si Si4 0.915234 0.721351 0.337499
Si Si5 0.769108 0.054516 0.837125
Si Si6 0.267777 0.326500 0.665577
Si Si7 0.916537 0.854799 0.660275
Si Si8 0.583098 0.894601 0.660682
O O1 0.432916 0.460734 0.332720
O O2 0.708337 0.500000 0.750000
O O3 0.697372 0.544358 0.500000
O O4 0.697842 0.612008 0.707551
O O5 0.500000 0.254811 0.750000
O O6 0.665477 0.277334 0.793975
O O7 0.599852 0.172566 0.819487
O O8 0.568986 0.248746 0.000000
O O9 0.929692 0.712415 0.500000
O O10 0.829988 0.687463 0.292296
O O11 0.896977 0.788388 0.318782
O O12 0.000000 0.707253 0.250000
O O13 0.834656 0.105945 0.807973
O O14 0.670821 0.072718 0.803765
O O15 0.793439 0.000000 0.750000
O O16 0.773132 0.043438 0.000000
O O17 0.267251 0.325971 0.500000
O O18 0.936904 0.862063 0.500000
O O19 0.000000 0.869651 0.750000
O O20 0.500000 0.910745 0.750000
O O21 0.564898 0.903163 0.500000
#
# Coordination Sequence:
#
# PCOD9394287 Si02
#       8
#     2   8   8   8   8   8   8   8
#     4   8  18  28  46  64  96 128 170 196 228 264
#     4   9  18  30  46  67  95 129 164 197 232 272
#     4   9  17  29  47  70  96 124 155 190 236 286
#     4   9  17  32  54  75  97 123 156 195 240 288
#     4  10  21  35  50  69  94 124 160 195 234 280
#     4   9  17  30  49  72  97 129 161 193 237 291
#     4   9  18  33  53  75  97 124 153 189 236 290
#     4   9  18  33  50  68  92 123 157 196 237 283
#
# _framework density 16.204221
#
# number of rings (size 3 to 8) (size 9 to 14) (size 15 to 20)
#    0.414    2.483    0.000    1.034    0.966    4.966 
#    0.000    4.828    0.000    7.034    0.000    2.897 
#    0.000    0.000    0.000    0.000    0.000    0.000 
#
# Total GULP energy -322955.851245 kJ/mol
# GULP energy per Si atom -5568.204332 kJ/mol
# Density = 1.616734 g / cm^3
# Si number density = 16.204221 Si / 1000 Ang^3
#
#
#
# Elastic Constant Matrix: (Units=GPa)
#
#
# Indices 1 2 3 4 5 6 
#
# 1 99.3303 44.6612 30.4297 0.0000 0.0000 0.0000
# 2 44.6612 45.8006 23.8602 0.0000 0.0000 0.0000
# 3 30.4297 23.8602 28.7209 0.0000 0.0000 0.0000
# 4 0.0000 0.0000 0.0000 36.6889 0.0000 0.0000
# 5 0.0000 0.0000 0.0000 0.0000 27.9483 0.0000
# 6 0.0000 0.0000 0.0000 0.0000 0.0000 7.5902
#
#
#
# Elastic Compliance Matrix: (Units=1/GPa)
#
#
# Indices 1 2 3 4 5 6 
#
# 1 0.019000 -0.014175 -0.008355 0.000000 0.000000 0.000000
# 2 -0.014175 0.049069 -0.025746 0.000000 0.000000 0.000000
# 3 -0.008355 -0.025746 0.065058 0.000000 0.000000 0.000000
# 4 0.000000 0.000000 0.000000 0.027256 0.000000 0.000000
# 5 0.000000 0.000000 0.000000 0.000000 0.035780 0.000000
# 6 0.000000 0.000000 0.000000 0.000000 0.000000 0.131748
#
#
# Mechanical properties :
#
#
# Convention : Reuss Voigt Hill
#
# Bulk Modulus (GPa) = 27.34036 41.30601 34.32319
# Shear Modulus (GPa) = 11.45066 19.43886 15.44476
#
# Velocity S-wave (km/s) = 2.66117 3.46731 3.09063
# Velocity P-wave (km/s) = 5.13336 6.44793 5.82783
#
# Compressibility (1/GPa) = 0.03657597
#
# Stress axis : x y z
#
# Youngs Moduli (GPa) = 52.63064 20.37948 15.37085
#
# Poissons Ratio (x) = 0.28888 0.12842
# Poissons Ratio (y) = 0.74605 0.39574
# Poissons Ratio (z) = 0.43970 0.52469
#
# Static dielectric constant tensor:
#      x y z
#    x 1.526560 0.000000 0.000000 
#    y 0.000000 1.539470 0.000000 
#    z 0.000000 0.000000 1.539250 
# 
# From -- ./inp_files/4274.got.cif
#   From: 2010.05.17/outbox.cif.g08.bks.cpg/sg49_3_cif.got.tgz:4274.got - 2010.06.03 21:02:19.
