data_PCOD9394697
_publ_section_title
;
Structure prediction by ZEFSAII (Michael W. Deem and Ramdas Pophale) SiO2 
 PCOD9394697
Probable space group: P C C M
;
_chemical_formula_sum "Si O2"
_cell_formula_units_Z 34
_cell_length_a 9.693022
_cell_length_b 21.202761
_cell_length_c 9.020514
_cell_angle_alpha 90.000000
_cell_angle_beta 90.000000
_cell_angle_gamma 90.000000
_cell_volume 1853.885473
_symmetry_space_group_name_H-M "P C C M"
_symmetry_group_IT_number 49
_symmetry_cell_setting 'orthorhombic'
loop_
_space_group_symop_operation_xyz
x,y,z
-x,-y,z
x,-y,1/2-z
-x,y,1/2-z
-x,-y,-z
x,y,-z
-x,y,1/2+z
x,-y,1/2+z
loop_
_atom_site_type_symbol
_atom_site_label
_atom_site_fract_x
_atom_site_fract_y
_atom_site_fract_z
Si Si1 0.500000 0.500000 0.250000
Si Si2 0.349943 0.168813 0.322404
Si Si3 0.854861 0.286407 0.825303
Si Si4 0.367588 0.624760 0.832395
Si Si5 0.144894 0.069694 0.179991
O O1 0.601135 0.450124 0.170355
O O2 0.500000 0.176607 0.250000
O O3 0.360437 0.157101 0.500000
O O4 0.254682 0.230548 0.301435
O O5 0.268381 0.112890 0.239240
O O6 0.776241 0.349950 0.770933
O O7 0.000000 0.274815 0.750000
O O8 0.882736 0.291520 0.000000
O O9 0.500000 0.652620 0.750000
O O10 0.373495 0.647025 0.000000
O O11 0.000000 0.094038 0.250000
O O12 0.161737 0.000000 0.250000
O O13 0.137769 0.067762 0.000000
#
# Coordination Sequence:
#
# PCOD9394697 Si02
#       5
#     2   8   8   8   8
#     4   8  18  32  60  80 118 140 190 224 282 324
#     4  11  23  39  59  85 116 150 193 241 291 346
#     4  10  22  38  56  82 114 148 189 234 284 341
#     4   9  18  33  55  82 109 142 185 227 273 330
#     4  11  22  39  62  88 119 155 196 238 288 344
#
# _framework density 18.339859000000001
#
# number of rings (size 3 to 8) (size 9 to 14) (size 15 to 20)
#    0.706    1.176    0.000    5.294    0.000    5.176 
#    0.000    2.941    0.000    2.824    0.000    0.000 
#    0.000    0.000    0.000    0.000    0.000    0.000 
#
# Total GULP energy -189341.924771 kJ/mol
# GULP energy per Si atom -5568.880140 kJ/mol
# Density = 1.829812 g / cm^3
# Si number density = 18.339859 Si / 1000 Ang^3
#
#
#
# Elastic Constant Matrix: (Units=GPa)
#
#
# Indices 1 2 3 4 5 6 
#
# 1 169.1082 58.5988 77.7842 0.0000 0.0000 0.0000
# 2 58.5988 73.0977 42.7065 0.0000 0.0000 0.0000
# 3 77.7842 42.7065 126.2139 0.0000 0.0000 0.0000
# 4 0.0000 0.0000 0.0000 22.6095 0.0000 0.0000
# 5 0.0000 0.0000 0.0000 0.0000 34.3682 0.0000
# 6 0.0000 0.0000 0.0000 0.0000 0.0000 26.3556
#
#
#
# Elastic Compliance Matrix: (Units=1/GPa)
#
#
# Indices 1 2 3 4 5 6 
#
# 1 0.009671 -0.005323 -0.004159 0.000000 0.000000 0.000000
# 2 -0.005323 0.019981 -0.003480 0.000000 0.000000 0.000000
# 3 -0.004159 -0.003480 0.011664 0.000000 0.000000 0.000000
# 4 0.000000 0.000000 0.000000 0.044229 0.000000 0.000000
# 5 0.000000 0.000000 0.000000 0.000000 0.029097 0.000000
# 6 0.000000 0.000000 0.000000 0.000000 0.000000 0.037943
#
#
# Mechanical properties :
#
#
# Convention : Reuss Voigt Hill
#
# Bulk Modulus (GPa) = 64.97292 80.73318 72.85305
# Shear Modulus (GPa) = 27.22743 29.28869 28.25806
#
# Velocity S-wave (km/s) = 3.85724 4.00058 3.92956
# Velocity P-wave (km/s) = 7.43920 8.09047 7.77166
#
# Compressibility (1/GPa) = 0.01539103
#
# Stress axis : x y z
#
# Youngs Moduli (GPa) = 103.40435 50.04828 85.73513
#
# Poissons Ratio (x) = 0.26639 0.35657
# Poissons Ratio (y) = 0.55040 0.29840
# Poissons Ratio (z) = 0.43005 0.17419
#
# Static dielectric constant tensor:
#      x y z
#    x 1.631270 0.000000 0.000000 
#    y 0.000000 1.674030 0.000000 
#    z 0.000000 0.000000 1.631370 
# 
# From -- ./inp_files/1541.got.cif
#   From: 2010.05.17/outbox.cif.g08.bks.cpg/sg49_1_cif.got.tgz:1541.got - 2010.06.03 21:02:19.
