data_PCOD9394074
_publ_section_title
;
Structure prediction by ZEFSAII (Michael W. Deem and Ramdas Pophale) SiO2 
 PCOD9394074
Probable space group: P C C M
;
_chemical_formula_sum "Si O2"
_cell_formula_units_Z 38
_cell_length_a 6.348118
_cell_length_b 16.923329
_cell_length_c 19.063150
_cell_angle_alpha 90.000000
_cell_angle_beta 90.000000
_cell_angle_gamma 90.000000
_cell_volume 2047.978785
_symmetry_space_group_name_H-M "P C C M"
_symmetry_group_IT_number 49
_symmetry_cell_setting 'orthorhombic'
loop_
_space_group_symop_operation_xyz
x,y,z
-x,-y,z
x,-y,1/2-z
-x,y,1/2-z
-x,-y,-z
x,y,-z
-x,y,1/2+z
x,-y,1/2+z
loop_
_atom_site_type_symbol
_atom_site_label
_atom_site_fract_x
_atom_site_fract_y
_atom_site_fract_z
Si Si1 0.133727 0.889952 0.322088
Si Si2 0.455430 0.250987 0.832897
Si Si3 0.617971 0.425196 0.674999
Si Si4 0.756521 0.142088 0.079956
Si Si5 0.000000 0.500000 0.250000
Si Si6 0.500000 0.000000 0.367631
O O1 0.259935 0.808863 0.335514
O O2 0.000000 0.890029 0.250000
O O3 0.966621 0.892157 0.384785
O O4 0.309771 0.958948 0.324217
O O5 0.500000 0.254163 0.750000
O O6 0.403617 0.339337 0.859073
O O7 0.651876 0.211769 0.873585
O O8 0.500000 0.500000 0.639326
O O9 0.500000 0.418126 0.750000
O O10 0.852550 0.448237 0.698947
O O11 0.592576 0.070233 0.086147
O O12 0.788271 0.166288 0.000000
#
# Coordination Sequence:
#
# PCOD9394074 Si02
#       6
#     8   8   8   8   2   4
#     4  11  23  38  59  88 115 154 194 242 296 345
#     4  10  20  37  59  85 118 150 193 241 290 346
#     4   8  16  28  50  82 116 149 187 233 288 341
#     4  11  24  41  60  83 114 154 196 242 297 348
#     4   8  14  24  44  82 118 148 180 228 296 340
#     4  10  25  41  58  82 118 148 202 242 290 348
#
# _framework density 18.554880000000001
#
# number of rings (size 3 to 8) (size 9 to 14) (size 15 to 20)
#    0.000    2.316    2.105    0.947    1.474    9.263 
#    0.000    0.000    0.000    0.632    0.000    2.211 
#    0.000    0.000    0.000    0.000    0.000    0.000 
#
# Total GULP energy -211763.864971 kJ/mol
# GULP energy per Si atom -5572.733289 kJ/mol
# Density = 1.851265 g / cm^3
# Si number density = 18.554880 Si / 1000 Ang^3
#
#
#
# Elastic Constant Matrix: (Units=GPa)
#
#
# Indices 1 2 3 4 5 6 
#
# 1 115.0507 45.4887 37.0968 0.0000 0.0000 0.0000
# 2 45.4887 142.5452 22.7736 0.0000 0.0000 0.0000
# 3 37.0968 22.7736 88.4073 0.0000 0.0000 0.0000
# 4 0.0000 0.0000 0.0000 -0.3550 0.0000 0.0000
# 5 0.0000 0.0000 0.0000 0.0000 13.5307 0.0000
# 6 0.0000 0.0000 0.0000 0.0000 0.0000 -26.9560
#
#
#
# Elastic Compliance Matrix: (Units=1/GPa)
#
#
# Indices 1 2 3 4 5 6 
#
# 1 0.011106 -0.002920 -0.003908 0.000000 0.000000 0.000000
# 2 -0.002920 0.008084 -0.000857 0.000000 0.000000 0.000000
# 3 -0.003908 -0.000857 0.013172 0.000000 0.000000 0.000000
# 4 0.000000 0.000000 0.000000 -2.816700 0.000000 0.000000
# 5 0.000000 0.000000 0.000000 0.000000 0.073906 0.000000
# 6 0.000000 0.000000 0.000000 0.000000 0.000000 -0.037097
#
#
# Mechanical properties :
#
#
# Convention : Reuss Voigt Hill
#
# Bulk Modulus (GPa) = 58.85168 61.85792 60.35480
# Shear Modulus (GPa) = -1.83386 13.28685 5.72650
#
# Velocity S-wave (km/s) = -0.99523 2.67888 1.75868
# Velocity P-wave (km/s) = 5.51959 6.55581 6.05989
#
# Compressibility (1/GPa) = 0.01699187
#
# Stress axis : x y z
#
# Youngs Moduli (GPa) = 90.03778 123.70025 75.91830
#
# Poissons Ratio (x) = 0.36119 0.29671
# Poissons Ratio (y) = 0.26290 0.06508
# Poissons Ratio (z) = 0.35189 0.10604
#
# Static dielectric constant tensor:
#      x y z
#    x 1.681910 0.000000 0.000000 
#    y 0.000000 1.716160 0.000000 
#    z 0.000000 0.000000 1.622940 
# 
# From -- ./inp_files/15283.got.cif
#   From: 2010.05.17/outbox.cif.g08.bks.cpg/sg49_8_cif.got.tgz:15283.got - 2010.06.03 21:02:19.
