data_PCOD9394678
_publ_section_title
;
Structure prediction by ZEFSAII (Michael W. Deem and Ramdas Pophale) SiO2 
 PCOD9394678
Probable space group: P C C M
;
_chemical_formula_sum "Si O2"
_cell_formula_units_Z 56
_cell_length_a 14.181992
_cell_length_b 9.589830
_cell_length_c 21.609892
_cell_angle_alpha 90.000000
_cell_angle_beta 90.000000
_cell_angle_gamma 90.000000
_cell_volume 2939.007815
_symmetry_space_group_name_H-M "P C C M"
_symmetry_group_IT_number 49
_symmetry_cell_setting 'orthorhombic'
loop_
_space_group_symop_operation_xyz
x,y,z
-x,-y,z
x,-y,1/2-z
-x,y,1/2-z
-x,-y,-z
x,y,-z
-x,y,1/2+z
x,-y,1/2+z
loop_
_atom_site_type_symbol
_atom_site_label
_atom_site_fract_x
_atom_site_fract_y
_atom_site_fract_z
Si Si1 0.391495 0.663339 0.130279
Si Si2 0.391495 0.663339 0.630279
Si Si3 0.113685 0.837074 0.180502
Si Si4 0.201525 0.665289 0.068645
Si Si5 0.201525 0.334711 0.931355
Si Si6 0.614419 0.158260 0.250000
Si Si7 0.886315 0.837074 0.180502
O O1 0.500000 0.695644 0.113304
O O2 0.388970 0.500000 0.148867
O O3 0.314258 0.682234 0.077324
O O4 0.361307 0.757791 0.188221
O O5 0.314258 0.682234 0.577324
O O6 0.361307 0.757791 0.688221
O O7 0.153720 0.746530 0.124756
O O8 0.144503 0.793178 0.250000
O O9 0.000000 0.828722 0.179469
O O10 0.139079 0.000000 0.172705
O O11 0.181371 0.500000 0.073892
O O12 0.172495 0.712200 0.000000
O O13 0.153720 0.253470 0.875244
O O14 0.172495 0.287801 0.000000
O O15 0.500000 0.153331 0.250000
O O16 0.649810 0.000000 0.250000
#
# Coordination Sequence:
#
# PCOD9394678 Si02
#       7
#     8   8   8   8   8   8   8
#     4   9  18  33  52  74 106 148 188 224 266 319
#     4   9  18  33  52  74 106 148 188 224 266 319
#     4   9  20  40  63  85 109 140 181 227 276 333
#     4  10  22  37  54  82 116 148 185 228 274 324
#     4  10  22  37  54  82 116 148 185 228 274 324
#     4   9  17  29  47  73 102 133 176 229 277 316
#     4   9  20  40  63  85 109 140 181 227 276 333
#
# _framework density 19.054048000000002
#
# number of rings (size 3 to 8) (size 9 to 14) (size 15 to 20)
#    0.000    2.714    0.000    1.286    2.000    5.714 
#    0.000    7.143    0.000    0.000    0.000    6.000 
#    0.000    0.000    0.000    0.000    0.000    0.000 
#
# Total GULP energy -312402.470875 kJ/mol
# GULP energy per Si atom -5578.615551 kJ/mol
# Density = 1.901068 g / cm^3
# Si number density = 19.054048 Si / 1000 Ang^3
#
#
#
# Elastic Constant Matrix: (Units=GPa)
#
#
# Indices 1 2 3 4 5 6 
#
# 1 53.6032 31.1202 47.4548 0.0000 0.0000 0.0000
# 2 31.1202 58.7034 74.9174 0.0000 0.0000 0.0000
# 3 47.4548 74.9174 174.2930 0.0000 0.0000 0.0000
# 4 0.0000 0.0000 0.0000 21.3172 0.0000 0.0000
# 5 0.0000 0.0000 0.0000 0.0000 15.4133 0.0000
# 6 0.0000 0.0000 0.0000 0.0000 0.0000 20.1333
#
#
#
# Elastic Compliance Matrix: (Units=1/GPa)
#
#
# Indices 1 2 3 4 5 6 
#
# 1 0.027515 -0.011132 -0.002706 0.000000 0.000000 0.000000
# 2 -0.011132 0.042238 -0.015125 0.000000 0.000000 0.000000
# 3 -0.002706 -0.015125 0.012975 0.000000 0.000000 0.000000
# 4 0.000000 0.000000 0.000000 0.046910 0.000000 0.000000
# 5 0.000000 0.000000 0.000000 0.000000 0.064879 0.000000
# 6 0.000000 0.000000 0.000000 0.000000 0.000000 0.049669
#
#
# Mechanical properties :
#
#
# Convention : Reuss Voigt Hill
#
# Bulk Modulus (GPa) = 40.31967 65.95380 53.13674
# Shear Modulus (GPa) = 16.10925 20.24657 18.17791
#
# Velocity S-wave (km/s) = 2.91082 3.26327 3.09207
# Velocity P-wave (km/s) = 5.70121 6.99198 6.37932
#
# Compressibility (1/GPa) = 0.02480179
#
# Stress axis : x y z
#
# Youngs Moduli (GPa) = 36.34436 23.67518 77.06919
#
# Poissons Ratio (x) = 0.26356 0.20857
# Poissons Ratio (y) = 0.40460 1.16563
# Poissons Ratio (z) = 0.09836 0.35808
#
# Static dielectric constant tensor:
#      x y z
#    x 1.706760 0.000000 0.000000 
#    y 0.000000 1.636480 0.000000 
#    z 0.000000 0.000000 1.633880 
# 
# From -- ./inp_files/20833.got.cif
#   From: 2010.05.17/outbox.cif.g08.bks.cpg/sg49_11_cif.got.tgz:20833.got - 2010.06.03 21:02:19.
