data_PCOD9394671
_publ_section_title
;
Structure prediction by ZEFSAII (Michael W. Deem and Ramdas Pophale) SiO2 
 PCOD9394671
Probable space group: P C C M
;
_chemical_formula_sum "Si O2"
_cell_formula_units_Z 28
_cell_length_a 11.117911
_cell_length_b 4.724654
_cell_length_c 19.617012
_cell_angle_alpha 90.000000
_cell_angle_beta 90.000000
_cell_angle_gamma 90.000000
_cell_volume 1030.447952
_symmetry_space_group_name_H-M "P C C M"
_symmetry_group_IT_number 49
_symmetry_cell_setting 'orthorhombic'
loop_
_space_group_symop_operation_xyz
x,y,z
-x,-y,z
x,-y,1/2-z
-x,y,1/2-z
-x,-y,-z
x,y,-z
-x,y,1/2+z
x,-y,1/2+z
loop_
_atom_site_type_symbol
_atom_site_label
_atom_site_fract_x
_atom_site_fract_y
_atom_site_fract_z
Si Si1 0.500000 0.500000 0.750000
Si Si2 0.860310 0.066814 0.000000
Si Si3 0.000000 0.000000 0.750000
Si Si4 0.616091 0.275743 0.500000
Si Si5 0.664512 0.152498 0.348819
Si Si6 0.823478 0.667843 0.649113
O O1 0.423078 0.701769 0.702200
O O2 0.840555 0.242032 0.929950
O O3 0.766859 0.800917 0.000000
O O4 0.000000 0.000000 0.000000
O O5 0.076651 0.794033 0.800484
O O6 0.500000 0.500000 0.500000
O O7 0.606218 0.165178 0.423464
O O8 0.702794 0.837472 0.331670
O O9 0.788838 0.339590 0.346862
#
# Coordination Sequence:
#
# PCOD9394671 Si02
#       6
#     2   4   2   4   8   8
#     4  12  24  44  68  96 140 176 232 274 358 416
#     4  10  21  46  70 103 137 183 236 296 352 425
#     4  12  24  44  68  96 140 176 232 274 358 416
#     4  10  21  46  70 103 137 183 236 296 352 425
#     4  11  25  44  67  99 135 178 229 287 346 417
#     4  11  25  44  67  99 135 178 229 287 346 417
#
# _framework density 27.172650000000001
#
# number of rings (size 3 to 8) (size 9 to 14) (size 15 to 20)
#    0.000    1.143    2.857    2.571    0.000    4.571 
#    0.000    5.714    0.000    0.000    0.000    0.000 
#    0.000    0.000    0.000    0.000    0.000    0.000 
#
# Total GULP energy -156490.136434 kJ/mol
# GULP energy per Si atom -5588.933444 kJ/mol
# Density = 2.711080 g / cm^3
# Si number density = 27.172650 Si / 1000 Ang^3
#
#
#
# Elastic Constant Matrix: (Units=GPa)
#
#
# Indices 1 2 3 4 5 6 
#
# 1 162.4904 46.9834 70.8258 0.0000 0.0000 0.0000
# 2 46.9834 114.3118 33.4733 0.0000 0.0000 0.0000
# 3 70.8258 33.4733 207.8423 0.0000 0.0000 0.0000
# 4 0.0000 0.0000 0.0000 14.2246 0.0000 0.0000
# 5 0.0000 0.0000 0.0000 0.0000 295.2897 0.0000
# 6 0.0000 0.0000 0.0000 0.0000 0.0000 40.9535
#
#
#
# Elastic Compliance Matrix: (Units=1/GPa)
#
#
# Indices 1 2 3 4 5 6 
#
# 1 0.007890 -0.002577 -0.002274 0.000000 0.000000 0.000000
# 2 -0.002577 0.010023 -0.000736 0.000000 0.000000 0.000000
# 3 -0.002274 -0.000736 0.005705 0.000000 0.000000 0.000000
# 4 0.000000 0.000000 0.000000 0.070301 0.000000 0.000000
# 5 0.000000 0.000000 0.000000 0.000000 0.003387 0.000000
# 6 0.000000 0.000000 0.000000 0.000000 0.000000 0.024418
#
#
# Mechanical properties :
#
#
# Convention : Reuss Voigt Hill
#
# Bulk Modulus (GPa) = 80.35964 87.46773 83.91368
# Shear Modulus (GPa) = 36.48437 92.31771 64.40104
#
# Velocity S-wave (km/s) = 3.66824 5.83509 4.87362
# Velocity P-wave (km/s) = 6.89777 8.81233 7.91317
#
# Compressibility (1/GPa) = 0.01244406
#
# Stress axis : x y z
#
# Youngs Moduli (GPa) = 126.73492 99.77270 175.29466
#
# Poissons Ratio (x) = 0.25714 0.39858
# Poissons Ratio (y) = 0.32663 0.12901
# Poissons Ratio (z) = 0.28816 0.07343
#
# Static dielectric constant tensor:
#      x y z
#    x 2.119030 0.000000 0.000000 
#    y 0.000000 2.480000 0.000000 
#    z 0.000000 0.000000 2.072190 
# 
# From -- ./inp_files/20156.got.cif
#   From: 2010.05.17/outbox.cif.g08.bks.cpg/sg49_11_cif.got.tgz:20156.got - 2010.06.03 21:02:19.
