data_PCOD9394491
_publ_section_title
;
Structure prediction by ZEFSAII (Michael W. Deem and Ramdas Pophale) SiO2 
 PCOD9394491
Probable space group: P C C M
;
_chemical_formula_sum "Si O2"
_cell_formula_units_Z 58
_cell_length_a 22.210971
_cell_length_b 16.139186
_cell_length_c 8.075549
_cell_angle_alpha 90.000000
_cell_angle_beta 90.000000
_cell_angle_gamma 90.000000
_cell_volume 2894.817760
_symmetry_space_group_name_H-M "P C C M"
_symmetry_group_IT_number 49
_symmetry_cell_setting 'orthorhombic'
loop_
_space_group_symop_operation_xyz
x,y,z
-x,-y,z
x,-y,1/2-z
-x,y,1/2-z
-x,-y,-z
x,y,-z
-x,y,1/2+z
x,-y,1/2+z
loop_
_atom_site_type_symbol
_atom_site_label
_atom_site_fract_x
_atom_site_fract_y
_atom_site_fract_z
Si Si1 0.769794 0.093293 0.800615
Si Si2 0.311222 0.593106 0.200018
Si Si3 0.430565 0.907826 0.303656
Si Si4 0.667817 0.222190 0.802579
Si Si5 0.907317 0.117813 0.308590
Si Si6 0.826508 0.409639 0.801628
Si Si7 0.000000 0.000000 0.250000
Si Si8 0.936067 0.701657 0.300831
O O1 0.724751 0.166565 0.741107
O O2 0.837229 0.107289 0.733559
O O3 0.750157 0.000000 0.750000
O O4 0.771761 0.096318 0.000000
O O5 0.332978 0.500000 0.250000
O O6 0.338645 0.682070 0.256922
O O7 0.241739 0.600473 0.259355
O O8 0.313136 0.592317 0.000000
O O9 0.500000 0.899536 0.250000
O O10 0.427058 0.903793 0.500000
O O11 0.389860 0.834941 0.230995
O O12 0.409980 0.000000 0.250000
O O13 0.676532 0.228639 0.000000
O O14 0.929159 0.210402 0.284891
O O15 0.917670 0.907395 0.000000
O O16 0.950033 0.064983 0.187838
O O17 0.846800 0.500000 0.750000
O O18 0.877087 0.347299 0.744196
O O19 0.823126 0.403034 0.000000
O O20 0.934222 0.710156 0.500000
O O21 0.000000 0.663354 0.250000
#
# Coordination Sequence:
#
# PCOD9394491 Si02
#       8
#     8   8   8   8   8   8   2   8
#     4  11  23  38  57  82 116 151 189 238 292 348
#     4   9  18  35  58  83 112 147 189 236 290 345
#     4  11  22  38  62  92 128 169 210 248 286 338
#     4  10  21  38  60  88 123 161 197 242 295 345
#     4  12  25  40  59  79 104 141 187 234 286 346
#     4   9  19  36  57  80 106 140 177 223 278 338
#     4  12  26  40  60  78 100 136 184 232 286 340
#     4  11  23  38  55  76 104 134 174 224 280 340
#
# _framework density 20.035803000000001
#
# number of rings (size 3 to 8) (size 9 to 14) (size 15 to 20)
#    0.000    1.517    1.379    4.345    0.000    7.448 
#    0.000    4.138    0.000    0.414    0.000    2.897 
#    0.000    0.000    0.000    0.000    0.000    0.000 
#
# Total GULP energy -323403.809528 kJ/mol
# GULP energy per Si atom -5575.927750 kJ/mol
# Density = 1.999020 g / cm^3
# Si number density = 20.035803 Si / 1000 Ang^3
#
#
#
# Elastic Constant Matrix: (Units=GPa)
#
#
# Indices 1 2 3 4 5 6 
#
# 1 78.6730 58.8165 2.7972 0.0000 0.0000 0.0000
# 2 58.8165 159.3942 15.2682 0.0000 0.0000 0.0000
# 3 2.7972 15.2682 48.4664 0.0000 0.0000 0.0000
# 4 0.0000 0.0000 0.0000 28.9290 0.0000 0.0000
# 5 0.0000 0.0000 0.0000 0.0000 18.3470 0.0000
# 6 0.0000 0.0000 0.0000 0.0000 0.0000 359.4901
#
#
#
# Elastic Compliance Matrix: (Units=1/GPa)
#
#
# Indices 1 2 3 4 5 6 
#
# 1 0.017606 -0.006598 0.001063 0.000000 0.000000 0.000000
# 2 -0.006598 0.008942 -0.002436 0.000000 0.000000 0.000000
# 3 0.001063 -0.002436 0.021339 0.000000 0.000000 0.000000
# 4 0.000000 0.000000 0.000000 0.034567 0.000000 0.000000
# 5 0.000000 0.000000 0.000000 0.000000 0.054505 0.000000
# 6 0.000000 0.000000 0.000000 0.000000 0.000000 0.002782
#
#
# Mechanical properties :
#
#
# Convention : Reuss Voigt Hill
#
# Bulk Modulus (GPa) = 31.30578 48.92194 40.11386
# Shear Modulus (GPa) = 30.06026 95.33001 62.69514
#
# Velocity S-wave (km/s) = 3.87761 6.90530 5.59995
# Velocity P-wave (km/s) = 5.97550 9.38338 7.86621
#
# Compressibility (1/GPa) = 0.03194299
#
# Stress axis : x y z
#
# Youngs Moduli (GPa) = 56.79845 111.83260 46.86266
#
# Poissons Ratio (x) = 0.73792 -0.04979
# Poissons Ratio (y) = 0.37478 0.11416
# Poissons Ratio (z) = -0.06035 0.27244
#
# Static dielectric constant tensor:
#      x y z
#    x 1.695480 0.000000 0.000000 
#    y 0.000000 2.800230 0.000000 
#    z 0.000000 0.000000 1.777320 
# 
# From -- ./inp_files/6440.got.cif
#   From: 2010.05.17/outbox.cif.g08.bks.cpg/sg49_4_cif.got.tgz:6440.got - 2010.06.03 21:02:19.
