data_PCOD9394363
_publ_section_title
;
Structure prediction by ZEFSAII (Michael W. Deem and Ramdas Pophale) SiO2 
 PCOD9394363
Probable space group: P C C M
;
_chemical_formula_sum "Si O2"
_cell_formula_units_Z 48
_cell_length_a 24.882810
_cell_length_b 13.895923
_cell_length_c 8.722772
_cell_angle_alpha 90.000000
_cell_angle_beta 90.000000
_cell_angle_gamma 90.000000
_cell_volume 3016.069488
_symmetry_space_group_name_H-M "P C C M"
_symmetry_group_IT_number 49
_symmetry_cell_setting 'orthorhombic'
loop_
_space_group_symop_operation_xyz
x,y,z
-x,-y,z
x,-y,1/2-z
-x,y,1/2-z
-x,-y,-z
x,y,-z
-x,y,1/2+z
x,-y,1/2+z
loop_
_atom_site_type_symbol
_atom_site_label
_atom_site_fract_x
_atom_site_fract_y
_atom_site_fract_z
Si Si1 0.110764 0.396503 0.316559
Si Si2 0.057880 0.803222 0.184395
Si Si3 0.835939 0.103069 0.317138
Si Si4 0.327441 0.607671 0.184718
Si Si5 0.218965 0.711212 0.185585
Si Si6 0.554316 0.608614 0.316475
O O1 0.096768 0.500000 0.250000
O O2 0.109152 0.403021 0.500000
O O3 0.072761 0.307234 0.271095
O O4 0.171267 0.363532 0.272363
O O5 0.105373 0.868319 0.251854
O O6 0.000000 0.829150 0.250000
O O7 0.058677 0.809596 0.000000
O O8 0.837571 0.100431 0.500000
O O9 0.796754 0.187569 0.259400
O O10 0.820266 0.000000 0.250000
O O11 0.322398 0.500000 0.250000
O O12 0.276753 0.671057 0.233631
O O13 0.386667 0.648374 0.225381
O O14 0.325725 0.600713 0.000000
O O15 0.217652 0.720998 0.000000
O O16 0.555550 0.500000 0.250000
O O17 0.500000 0.654970 0.250000
O O18 0.549893 0.604574 0.500000
#
# Coordination Sequence:
#
# PCOD9394363 Si02
#       6
#     8   8   8   8   8   8
#     4   9  18  30  46  66  92 123 153 184 221 261
#     4  10  21  37  53  73  97 121 151 188 224 265
#     4  11  22  37  56  75  93 117 145 180 227 278
#     4   9  17  27  42  64  93 127 162 196 232 269
#     4   9  18  33  48  67  94 121 151 191 230 271
#     4   9  15  23  35  54  82 121 162 198 231 264
#
# _framework density 15.914752
#
# number of rings (size 3 to 8) (size 9 to 14) (size 15 to 20)
#    0.000    2.500    0.000    4.500    0.000    5.333 
#    0.000    3.333    0.000    0.000    0.000    0.000 
#    0.000    0.667    0.000    7.667    0.000    2.333 
#
# Total GULP energy -267579.715587 kJ/mol
# GULP energy per Si atom -5574.577408 kJ/mol
# Density = 1.587853 g / cm^3
# Si number density = 15.914752 Si / 1000 Ang^3
#
#
#
# Elastic Constant Matrix: (Units=GPa)
#
#
# Indices 1 2 3 4 5 6 
#
# 1 122.1989 20.5396 28.4793 0.0000 0.0000 0.0000
# 2 20.5396 58.3090 17.4510 0.0000 0.0000 0.0000
# 3 28.4793 17.4510 45.8510 0.0000 0.0000 0.0000
# 4 0.0000 0.0000 0.0000 21.7444 0.0000 0.0000
# 5 0.0000 0.0000 0.0000 0.0000 26.2267 0.0000
# 6 0.0000 0.0000 0.0000 0.0000 0.0000 9.4493
#
#
#
# Elastic Compliance Matrix: (Units=1/GPa)
#
#
# Indices 1 2 3 4 5 6 
#
# 1 0.009738 -0.001828 -0.005353 0.000000 0.000000 0.000000
# 2 -0.001828 0.019698 -0.006361 0.000000 0.000000 0.000000
# 3 -0.005353 -0.006361 0.027556 0.000000 0.000000 0.000000
# 4 0.000000 0.000000 0.000000 0.045989 0.000000 0.000000
# 5 0.000000 0.000000 0.000000 0.000000 0.038129 0.000000
# 6 0.000000 0.000000 0.000000 0.000000 0.000000 0.105827
#
#
# Mechanical properties :
#
#
# Convention : Reuss Voigt Hill
#
# Bulk Modulus (GPa) = 33.43732 39.92209 36.67971
# Shear Modulus (GPa) = 17.60619 22.14337 19.87478
#
# Velocity S-wave (km/s) = 3.32969 3.73416 3.53771
# Velocity P-wave (km/s) = 5.98651 6.61297 6.30752
#
# Compressibility (1/GPa) = 0.02990670
#
# Stress axis : x y z
#
# Youngs Moduli (GPa) = 102.68843 50.76680 36.29013
#
# Poissons Ratio (x) = 0.09282 0.19425
# Poissons Ratio (y) = 0.18775 0.23086
# Poissons Ratio (z) = 0.54967 0.32295
#
# Static dielectric constant tensor:
#      x y z
#    x 1.567810 0.000000 0.000000 
#    y 0.000000 1.504920 0.000000 
#    z 0.000000 0.000000 1.532370 
# 
# From -- ./inp_files/2881.got.cif
#   From: 2010.05.17/outbox.cif.g08.bks.cpg/sg49_2_cif.got.tgz:2881.got - 2010.06.03 21:02:19.
