data_PCOD9394556
_publ_section_title
;
Structure prediction by ZEFSAII (Michael W. Deem and Ramdas Pophale) SiO2 
 PCOD9394556
Probable space group: P C C M
;
_chemical_formula_sum "Si O2"
_cell_formula_units_Z 48
_cell_length_a 9.772328
_cell_length_b 28.122671
_cell_length_c 9.163754
_cell_angle_alpha 90.000000
_cell_angle_beta 90.000000
_cell_angle_gamma 90.000000
_cell_volume 2518.419211
_symmetry_space_group_name_H-M "P C C M"
_symmetry_group_IT_number 49
_symmetry_cell_setting 'orthorhombic'
loop_
_space_group_symop_operation_xyz
x,y,z
-x,-y,z
x,-y,1/2-z
-x,y,1/2-z
-x,-y,-z
x,y,-z
-x,y,1/2+z
x,-y,1/2+z
loop_
_atom_site_type_symbol
_atom_site_label
_atom_site_fract_x
_atom_site_fract_y
_atom_site_fract_z
Si Si1 0.000000 0.112469 0.750000
Si Si2 0.406564 0.953806 0.500000
Si Si3 0.149741 0.271208 0.174783
Si Si4 0.648827 0.545249 0.673179
Si Si5 0.500000 0.116770 0.250000
Si Si6 0.349602 0.346874 0.674981
Si Si7 0.900216 0.955533 0.000000
Si Si8 0.243178 0.180439 0.337268
O O1 0.926158 0.078199 0.636805
O O2 0.886198 0.145361 0.824503
O O3 0.433783 0.918871 0.365764
O O4 0.253651 0.972856 0.500000
O O5 0.500000 0.000000 0.500000
O O6 0.245283 0.311539 0.246051
O O7 0.220269 0.221165 0.217963
O O8 0.000000 0.271880 0.250000
O O9 0.138524 0.276051 0.000000
O O10 0.719923 0.500000 0.750000
O O11 0.500000 0.547690 0.750000
O O12 0.635910 0.536648 0.500000
O O13 0.703427 0.598659 0.693049
O O14 0.380514 0.150266 0.312764
O O15 0.500000 0.342793 0.750000
O O16 0.360989 0.337949 0.500000
O O17 0.000000 0.000000 0.000000
O O18 0.245248 0.201872 0.500000
#
# Coordination Sequence:
#
# PCOD9394556 Si02
#       8
#     4   4   8   8   4   8   4   8
#     4  12  25  44  70  96 126 160 209 258 308 366
#     4  12  28  46  68  98 134 168 208 254 315 378
#     4  12  27  44  68  95 128 169 213 267 328 391
#     4   9  16  27  50  83 122 168 215 269 323 380
#     4  12  27  46  70  96 130 168 203 258 314 374
#     4  10  21  39  61  92 133 173 221 273 328 387
#     4  12  28  44  70  98 130 166 210 256 305 372
#     4  12  26  45  70  96 125 165 211 261 317 379
#
# _framework density 19.059574999999999
#
# number of rings (size 3 to 8) (size 9 to 14) (size 15 to 20)
#    0.000    0.833    4.167    3.500    5.833    3.333 
#    0.000    0.000    0.000    0.500    0.000    3.500 
#    0.000    0.000    0.000    0.000    0.000    0.000 
#
# Total GULP energy -268127.154707 kJ/mol
# GULP energy per Si atom -5585.982390 kJ/mol
# Density = 1.901619 g / cm^3
# Si number density = 19.059575 Si / 1000 Ang^3
#
#
#
# Elastic Constant Matrix: (Units=GPa)
#
#
# Indices 1 2 3 4 5 6 
#
# 1 113.8037 49.8481 33.7590 0.0000 0.0000 0.0000
# 2 49.8481 125.8765 48.4833 0.0000 0.0000 0.0000
# 3 33.7590 48.4833 142.3658 0.0000 0.0000 0.0000
# 4 0.0000 0.0000 0.0000 48.0709 0.0000 0.0000
# 5 0.0000 0.0000 0.0000 0.0000 21.1724 0.0000
# 6 0.0000 0.0000 0.0000 0.0000 0.0000 21.1848
#
#
#
# Elastic Compliance Matrix: (Units=1/GPa)
#
#
# Indices 1 2 3 4 5 6 
#
# 1 0.010828 -0.003797 -0.001275 0.000000 0.000000 0.000000
# 2 -0.003797 0.010475 -0.002667 0.000000 0.000000 0.000000
# 3 -0.001275 -0.002667 0.008235 0.000000 0.000000 0.000000
# 4 0.000000 0.000000 0.000000 0.020803 0.000000 0.000000
# 5 0.000000 0.000000 0.000000 0.000000 0.047231 0.000000
# 6 0.000000 0.000000 0.000000 0.000000 0.000000 0.047204
#
#
# Mechanical properties :
#
#
# Convention : Reuss Voigt Hill
#
# Bulk Modulus (GPa) = 71.11970 71.80297 71.46134
# Shear Modulus (GPa) = 30.31404 34.74935 32.53170
#
# Velocity S-wave (km/s) = 3.99242 4.27452 4.13588
# Velocity P-wave (km/s) = 7.65820 7.88142 7.77061
#
# Compressibility (1/GPa) = 0.01406080
#
# Stress axis : x y z
#
# Youngs Moduli (GPa) = 92.34976 95.46323 121.43828
#
# Poissons Ratio (x) = 0.36249 0.15478
# Poissons Ratio (y) = 0.35067 0.32387
# Poissons Ratio (z) = 0.11771 0.25460
#
# Static dielectric constant tensor:
#      x y z
#    x 1.607630 0.000000 0.000000 
#    y 0.000000 1.672610 0.000000 
#    z 0.000000 0.000000 1.689500 
# 
# From -- ./inp_files/2190.got.cif
#   From: 2010.05.17/outbox.cif.g08.bks.cpg/sg49_2_cif.got.tgz:2190.got - 2010.06.03 21:02:19.
