data_PCOD9394670
_publ_section_title
;
Structure prediction by ZEFSAII (Michael W. Deem and Ramdas Pophale) SiO2 
 PCOD9394670
Probable space group: P C C M
;
_chemical_formula_sum "Si O2"
_cell_formula_units_Z 34
_cell_length_a 5.916719
_cell_length_b 11.885034
_cell_length_c 21.119451
_cell_angle_alpha 90.000000
_cell_angle_beta 90.000000
_cell_angle_gamma 90.000000
_cell_volume 1485.128379
_symmetry_space_group_name_H-M "P C C M"
_symmetry_group_IT_number 49
_symmetry_cell_setting 'orthorhombic'
loop_
_space_group_symop_operation_xyz
x,y,z
-x,-y,z
x,-y,1/2-z
-x,y,1/2-z
-x,-y,-z
x,y,-z
-x,y,1/2+z
x,-y,1/2+z
loop_
_atom_site_type_symbol
_atom_site_label
_atom_site_fract_x
_atom_site_fract_y
_atom_site_fract_z
Si Si1 0.636381 0.114779 0.318769
Si Si2 0.336876 0.797941 0.069758
Si Si3 0.149574 0.608002 0.851048
Si Si4 0.000000 0.000000 0.901817
Si Si5 0.500000 0.500000 0.750000
Si Si6 0.000000 0.226770 0.250000
O O1 0.498693 0.187443 0.369519
O O2 0.757147 0.163368 0.255511
O O3 0.500000 0.000000 0.311820
O O4 0.857001 0.079284 0.357170
O O5 0.222678 0.678934 0.087519
O O6 0.172584 0.908938 0.067451
O O7 0.446579 0.793372 0.000000
O O8 0.341904 0.570460 0.799259
O O9 0.999532 0.694683 0.810908
O O10 0.000000 0.500000 0.866780
#
# Coordination Sequence:
#
# PCOD9394670 Si02
#       6
#     8   8   8   4   2   4
#     4  10  24  44  68 106 142 184 226 288 357 414
#     4  11  25  45  70 104 141 186 238 285 347 421
#     4  12  25  44  72 101 133 186 234 292 353 412
#     4  10  21  45  70 104 136 187 231 278 352 418
#     4  12  22  44  74  98 138 168 242 298 356 428
#     4  12  21  49  70 102 144 181 237 286 354 426
#
# _framework density 22.893646
#
# number of rings (size 3 to 8) (size 9 to 14) (size 15 to 20)
#    0.000    0.941    4.706    1.765    0.000    6.118 
#    4.235    0.588    0.000    0.000    0.000    0.000 
#    0.000    0.000    0.000    0.000    0.000    0.000 
#
# Total GULP energy -189586.616045 kJ/mol
# GULP energy per Si atom -5576.076943 kJ/mol
# Density = 2.284154 g / cm^3
# Si number density = 22.893646 Si / 1000 Ang^3
#
#
#
# Elastic Constant Matrix: (Units=GPa)
#
#
# Indices 1 2 3 4 5 6 
#
# 1 62.0070 36.9178 17.4446 0.0000 0.0000 0.0000
# 2 36.9178 140.2330 33.1902 0.0000 0.0000 0.0000
# 3 17.4446 33.1902 122.6526 0.0000 0.0000 0.0000
# 4 0.0000 0.0000 0.0000 62.7964 0.0000 0.0000
# 5 0.0000 0.0000 0.0000 0.0000 11.4453 0.0000
# 6 0.0000 0.0000 0.0000 0.0000 0.0000 42.2282
#
#
#
# Elastic Compliance Matrix: (Units=1/GPa)
#
#
# Indices 1 2 3 4 5 6 
#
# 1 0.019369 -0.004752 -0.001469 0.000000 0.000000 0.000000
# 2 -0.004752 0.008785 -0.001701 0.000000 0.000000 0.000000
# 3 -0.001469 -0.001701 0.008822 0.000000 0.000000 0.000000
# 4 0.000000 0.000000 0.000000 0.015924 0.000000 0.000000
# 5 0.000000 0.000000 0.000000 0.000000 0.087372 0.000000
# 6 0.000000 0.000000 0.000000 0.000000 0.000000 0.023681
#
#
# Mechanical properties :
#
#
# Convention : Reuss Voigt Hill
#
# Bulk Modulus (GPa) = 47.32032 55.55533 51.43783
# Shear Modulus (GPa) = 26.76060 39.11665 32.93863
#
# Velocity S-wave (km/s) = 3.42264 4.13804 3.79722
# Velocity P-wave (km/s) = 6.02775 6.86662 6.46082
#
# Compressibility (1/GPa) = 0.02113257
#
# Stress axis : x y z
#
# Youngs Moduli (GPa) = 51.62763 113.83624 113.34735
#
# Poissons Ratio (x) = 0.54089 0.16652
# Poissons Ratio (y) = 0.24531 0.19284
# Poissons Ratio (z) = 0.07585 0.19367
#
# Static dielectric constant tensor:
#      x y z
#    x 1.960250 0.000000 0.000000 
#    y 0.000000 1.844200 0.000000 
#    z 0.000000 0.000000 1.921170 
# 
# From -- ./inp_files/21657.got.cif
#   From: 2010.05.17/outbox.cif.g08.bks.cpg/sg49_11_cif.got.tgz:21657.got - 2010.06.03 21:02:19.
