data_PCOD9394509
_publ_section_title
;
Structure prediction by ZEFSAII (Michael W. Deem and Ramdas Pophale) SiO2 
 PCOD9394509
Probable space group: P C C M
;
_chemical_formula_sum "Si O2"
_cell_formula_units_Z 64
_cell_length_a 17.096129
_cell_length_b 12.240609
_cell_length_c 15.093327
_cell_angle_alpha 90.000000
_cell_angle_beta 90.000000
_cell_angle_gamma 90.000000
_cell_volume 3158.535722
_symmetry_space_group_name_H-M "P C C M"
_symmetry_group_IT_number 49
_symmetry_cell_setting 'orthorhombic'
loop_
_space_group_symop_operation_xyz
x,y,z
-x,-y,z
x,-y,1/2-z
-x,y,1/2-z
-x,-y,-z
x,y,-z
-x,y,1/2+z
x,-y,1/2+z
loop_
_atom_site_type_symbol
_atom_site_label
_atom_site_fract_x
_atom_site_fract_y
_atom_site_fract_z
Si Si1 0.515882 0.695198 0.396802
Si Si2 0.986707 0.125677 0.144364
Si Si3 0.187557 0.206217 0.400681
Si Si4 0.430405 0.071737 0.896753
Si Si5 0.854321 0.227070 0.596361
Si Si6 0.782745 0.368760 0.258935
Si Si7 0.254298 0.977997 0.350619
Si Si8 0.611337 0.374419 0.271736
O O1 0.538679 0.673031 0.500000
O O2 0.469378 0.809541 0.395600
O O3 0.448651 0.621239 0.353280
O O4 0.580415 0.687463 0.317557
O O5 0.900319 0.165089 0.120226
O O6 0.000000 0.133413 0.250000
O O7 0.055608 0.192828 0.099459
O O8 0.000000 0.000000 0.118767
O O9 0.192244 0.248844 0.500000
O O10 0.209135 0.301419 0.332128
O O11 0.240842 0.096616 0.394480
O O12 0.500000 0.000000 0.856456
O O13 0.345018 0.058684 0.854947
O O14 0.419303 0.038737 0.000000
O O15 0.832260 0.270369 0.500000
O O16 0.841724 0.316078 0.671862
O O17 0.801425 0.118373 0.613495
O O18 0.790747 0.500000 0.250000
O O19 0.697091 0.334560 0.295870
O O20 0.230161 0.000000 0.250000
O O21 0.621940 0.500000 0.250000
#
# Coordination Sequence:
#
# PCOD9394509 Si02
#       8
#     8   8   8   8   8   8   8   8
#     4  10  21  38  62  90 122 161 207 265 331 387
#     4  11  21  40  68 104 138 168 214 265 326 401
#     4  12  25  42  68 100 135 174 218 274 334 398
#     4  10  23  38  54  85 126 167 209 253 309 393
#     4  12  24  42  69 100 135 172 212 271 341 401
#     4  11  26  47  66  93 131 177 232 280 327 393
#     4  12  23  39  63  97 134 173 216 267 336 399
#     4  10  23  41  63  89 119 160 219 279 324 373
#
# _framework density 20.262554000000002
#
# number of rings (size 3 to 8) (size 9 to 14) (size 15 to 20)
#    0.000    1.000    3.750    3.000    1.750    5.250 
#    0.000    3.750    0.000    1.500    0.000    0.000 
#    0.000    0.000    0.000    0.000    0.000    0.000 
#
# Total GULP energy -357162.706069 kJ/mol
# GULP energy per Si atom -5580.667282 kJ/mol
# Density = 2.021644 g / cm^3
# Si number density = 20.262554 Si / 1000 Ang^3
#
#
#
# Elastic Constant Matrix: (Units=GPa)
#
#
# Indices 1 2 3 4 5 6 
#
# 1 70.7999 16.5917 -18.7188 0.0000 0.0000 0.0000
# 2 16.5917 81.2087 20.0568 0.0000 0.0000 0.0000
# 3 -18.7188 20.0568 94.2022 0.0000 0.0000 0.0000
# 4 0.0000 0.0000 0.0000 7.1750 0.0000 0.0000
# 5 0.0000 0.0000 0.0000 0.0000 7.8154 0.0000
# 6 0.0000 0.0000 0.0000 0.0000 0.0000 29.3570
#
#
#
# Elastic Compliance Matrix: (Units=1/GPa)
#
#
# Indices 1 2 3 4 5 6 
#
# 1 0.016240 -0.004343 0.004152 0.000000 0.000000 0.000000
# 2 -0.004343 0.014159 -0.003878 0.000000 0.000000 0.000000
# 3 0.004152 -0.003878 0.012266 0.000000 0.000000 0.000000
# 4 0.000000 0.000000 0.000000 0.139372 0.000000 0.000000
# 5 0.000000 0.000000 0.000000 0.000000 0.127952 0.000000
# 6 0.000000 0.000000 0.000000 0.000000 0.000000 0.034063
#
#
# Mechanical properties :
#
#
# Convention : Reuss Voigt Hill
#
# Bulk Modulus (GPa) = 28.96338 31.34115 30.15227
# Shear Modulus (GPa) = 13.74759 24.08823 18.91791
#
# Velocity S-wave (km/s) = 2.60758 3.45165 3.05887
# Velocity P-wave (km/s) = 4.83643 5.60234 5.23341
#
# Compressibility (1/GPa) = 0.03452636
#
# Stress axis : x y z
#
# Youngs Moduli (GPa) = 61.57697 70.62625 81.52573
#
# Poissons Ratio (x) = 0.30675 -0.33847
# Poissons Ratio (y) = 0.26745 0.31613
# Poissons Ratio (z) = -0.25565 0.27387
#
# Static dielectric constant tensor:
#      x y z
#    x 1.855960 0.000000 0.000000 
#    y 0.000000 1.611700 0.000000 
#    z 0.000000 0.000000 1.766310 
# 
# From -- ./inp_files/14189.got.cif
#   From: 2010.05.17/outbox.cif.g08.bks.cpg/sg49_8_cif.got.tgz:14189.got - 2010.06.03 21:02:19.
