data_PCOD9394786
_publ_section_title
;
Structure prediction by ZEFSAII (Michael W. Deem and Ramdas Pophale) SiO2 
 PCOD9394786
Probable space group: P C C M
;
_chemical_formula_sum "Si O2"
_cell_formula_units_Z 32
_cell_length_a 10.138160
_cell_length_b 9.196174
_cell_length_c 14.351668
_cell_angle_alpha 90.000000
_cell_angle_beta 90.000000
_cell_angle_gamma 90.000000
_cell_volume 1338.038778
_symmetry_space_group_name_H-M "P C C M"
_symmetry_group_IT_number 49
_symmetry_cell_setting 'orthorhombic'
loop_
_space_group_symop_operation_xyz
x,y,z
-x,-y,z
x,-y,1/2-z
-x,y,1/2-z
-x,-y,-z
x,y,-z
-x,y,1/2+z
x,-y,1/2+z
loop_
_atom_site_type_symbol
_atom_site_label
_atom_site_fract_x
_atom_site_fract_y
_atom_site_fract_z
Si Si1 0.895572 0.610827 0.604483
Si Si2 0.403161 0.110155 0.841786
Si Si3 0.637951 0.444370 0.642357
Si Si4 0.855693 0.933852 0.387356
O O1 0.947620 0.645337 0.500000
O O2 0.762265 0.520931 0.598242
O O3 0.000000 0.500000 0.648375
O O4 0.862334 0.766957 0.647965
O O5 0.500000 0.137090 0.750000
O O6 0.364876 0.271785 0.870383
O O7 0.264483 0.023877 0.843545
O O8 0.500000 0.000000 0.896699
O O9 0.500000 0.500000 0.604745
O O10 0.644132 0.500000 0.750000
O O11 0.833845 0.934578 0.500000
O O12 0.000000 0.000000 0.369618
#
# Coordination Sequence:
#
# PCOD9394786 Si02
#       4
#     8   8   8   8
#     4  10  22  41  66  96 131 169 212 266 324 382
#     4  11  23  40  65  94 131 174 215 269 325 389
#     4  11  22  40  63  90 129 170 215 265 316 382
#     4  10  22  42  69 100 133 172 218 269 328 391
#
# _framework density 23.915599
#
# number of rings (size 3 to 8) (size 9 to 14) (size 15 to 20)
#    0.000    1.500    2.500    3.000    3.500    4.500 
#    0.000    2.500    0.000    0.000    0.000    0.000 
#    0.000    0.000    0.000    0.000    0.000    0.000 
#
# Total GULP energy -178543.791050 kJ/mol
# GULP energy per Si atom -5579.493470 kJ/mol
# Density = 2.386117 g / cm^3
# Si number density = 23.915599 Si / 1000 Ang^3
#
#
#
# Elastic Constant Matrix: (Units=GPa)
#
#
# Indices 1 2 3 4 5 6 
#
# 1 232.2116 121.8445 21.8781 0.0000 0.0000 0.0000
# 2 121.8445 294.5727 12.7779 0.0000 0.0000 0.0000
# 3 21.8781 12.7779 92.5038 0.0000 0.0000 0.0000
# 4 0.0000 0.0000 0.0000 -1.4924 0.0000 0.0000
# 5 0.0000 0.0000 0.0000 0.0000 8.9863 0.0000
# 6 0.0000 0.0000 0.0000 0.0000 0.0000 59.2575
#
#
#
# Elastic Compliance Matrix: (Units=1/GPa)
#
#
# Indices 1 2 3 4 5 6 
#
# 1 0.005592 -0.002269 -0.001009 0.000000 0.000000 0.000000
# 2 -0.002269 0.004336 -0.000062 0.000000 0.000000 0.000000
# 3 -0.001009 -0.000062 0.011058 0.000000 0.000000 0.000000
# 4 0.000000 0.000000 0.000000 -0.670076 0.000000 0.000000
# 5 0.000000 0.000000 0.000000 0.000000 0.111281 0.000000
# 6 0.000000 0.000000 0.000000 0.000000 0.000000 0.016875
#
#
# Mechanical properties :
#
#
# Convention : Reuss Voigt Hill
#
# Bulk Modulus (GPa) = 69.90793 103.58767 86.74780
# Shear Modulus (GPa) = -9.81385 44.20280 17.19448
#
# Velocity S-wave (km/s) = -2.02792 4.30383 2.68426
# Velocity P-wave (km/s) = 4.87968 8.25258 6.77925
#
# Compressibility (1/GPa) = 0.01430453
#
# Stress axis : x y z
#
# Youngs Moduli (GPa) = 178.81859 230.62059 90.43522
#
# Poissons Ratio (x) = 0.52336 0.09126
# Poissons Ratio (y) = 0.40580 0.00563
# Poissons Ratio (z) = 0.18045 0.01435
#
# Static dielectric constant tensor:
#      x y z
#    x 1.851970 0.000000 0.000000 
#    y 0.000000 1.909950 0.000000 
#    z 0.000000 0.000000 2.110740 
# 
# From -- ./inp_files/19310.got.cif
#   From: 2010.05.17/outbox.cif.g08.bks.cpg/sg49_10_cif.got.tgz:19310.got - 2010.06.03 21:02:19.
