data_PCOD9394196
_publ_section_title
;
Structure prediction by ZEFSAII (Michael W. Deem and Ramdas Pophale) SiO2 
 PCOD9394196
Probable space group: P C C M
;
_chemical_formula_sum "Si O2"
_cell_formula_units_Z 32
_cell_length_a 10.659666
_cell_length_b 8.690046
_cell_length_c 15.087480
_cell_angle_alpha 90.000000
_cell_angle_beta 90.000000
_cell_angle_gamma 90.000000
_cell_volume 1397.598352
_symmetry_space_group_name_H-M "P C C M"
_symmetry_group_IT_number 49
_symmetry_cell_setting 'orthorhombic'
loop_
_space_group_symop_operation_xyz
x,y,z
-x,-y,z
x,-y,1/2-z
-x,y,1/2-z
-x,-y,-z
x,y,-z
-x,y,1/2+z
x,-y,1/2+z
loop_
_atom_site_type_symbol
_atom_site_label
_atom_site_fract_x
_atom_site_fract_y
_atom_site_fract_z
Si Si1 0.756462 0.683419 0.097787
Si Si2 0.256962 0.824969 0.778550
Si Si3 0.390531 0.387237 0.398125
Si Si4 0.959975 0.676840 0.603494
O O1 0.700863 0.743954 0.187882
O O2 0.732649 0.498961 0.103622
O O3 0.898865 0.744716 0.102190
O O4 0.707107 0.726164 0.000000
O O5 0.361967 0.769084 0.847868
O O6 0.129607 0.758556 0.825144
O O7 0.243165 0.000000 0.750000
O O8 0.500000 0.500000 0.364209
O O9 0.418985 0.354324 0.500000
O O10 0.915637 0.687681 0.500000
O O11 0.000000 0.500000 0.624420
#
# Coordination Sequence:
#
# PCOD9394196 Si02
#       4
#     8   8   8   8
#     4  10  22  39  62  94 133 184 237 283 338 419
#     4  12  25  39  64 103 144 177 221 294 368 431
#     4  10  22  44  72  98 128 178 243 299 348 415
#     4  10  20  38  66  97 135 184 236 284 341 418
#
# _framework density 22.896422000000001
#
# number of rings (size 3 to 8) (size 9 to 14) (size 15 to 20)
#    0.000    1.500    2.500    2.250    0.000    7.000 
#    0.000    5.000    0.000    4.500    0.000    0.000 
#    0.000    0.000    0.000    0.000    0.000    0.000 
#
# Total GULP energy -178343.746620 kJ/mol
# GULP energy per Si atom -5573.242082 kJ/mol
# Density = 2.284431 g / cm^3
# Si number density = 22.896422 Si / 1000 Ang^3
#
#
#
# Elastic Constant Matrix: (Units=GPa)
#
#
# Indices 1 2 3 4 5 6 
#
# 1 108.3686 39.9508 33.9273 0.0000 0.0000 0.0000
# 2 39.9508 115.2611 82.5293 0.0000 0.0000 0.0000
# 3 33.9273 82.5293 150.9103 0.0000 0.0000 0.0000
# 4 0.0000 0.0000 0.0000 -456.2978 0.0000 0.0000
# 5 0.0000 0.0000 0.0000 0.0000 7.0563 0.0000
# 6 0.0000 0.0000 0.0000 0.0000 0.0000 21.4462
#
#
#
# Elastic Compliance Matrix: (Units=1/GPa)
#
#
# Indices 1 2 3 4 5 6 
#
# 1 0.010614 -0.003239 -0.000615 0.000000 0.000000 0.000000
# 2 -0.003239 0.015248 -0.007611 0.000000 0.000000 0.000000
# 3 -0.000615 -0.007611 0.010927 0.000000 0.000000 0.000000
# 4 0.000000 0.000000 0.000000 -0.002192 0.000000 0.000000
# 5 0.000000 0.000000 0.000000 0.000000 0.141717 0.000000
# 6 0.000000 0.000000 0.000000 0.000000 0.000000 0.046628
#
#
# Mechanical properties :
#
#
# Convention : Reuss Voigt Hill
#
# Bulk Modulus (GPa) = 72.14874 76.37274 74.26074
# Shear Modulus (GPa) = 19.96074 -71.01688 -25.52807
#
# Velocity S-wave (km/s) = 2.95580 -5.57530 -3.34269
# Velocity P-wave (km/s) = 6.57483 2.83144 4.19591
#
# Compressibility (1/GPa) = 0.01386026
#
# Stress axis : x y z
#
# Youngs Moduli (GPa) = 94.21277 65.58324 91.51802
#
# Poissons Ratio (x) = 0.21239 0.05630
# Poissons Ratio (y) = 0.30511 0.69651
# Poissons Ratio (z) = 0.05796 0.49913
#
# Static dielectric constant tensor:
#      x y z
#    x 2.043720 0.000000 0.000000 
#    y 0.000000 1.881730 0.000000 
#    z 0.000000 0.000000 1.853070 
# 
# From -- ./inp_files/11192.got.cif
#   From: 2010.05.17/outbox.cif.g08.bks.cpg/sg49_6_cif.got.tgz:11192.got - 2010.06.03 21:02:19.
