data_PCOD9394301
_publ_section_title
;
Structure prediction by ZEFSAII (Michael W. Deem and Ramdas Pophale) SiO2 
 PCOD9394301
Probable space group: P C C M
;
_chemical_formula_sum "Si O2"
_cell_formula_units_Z 48
_cell_length_a 11.717180
_cell_length_b 11.388494
_cell_length_c 17.015682
_cell_angle_alpha 90.000000
_cell_angle_beta 90.000000
_cell_angle_gamma 90.000000
_cell_volume 2270.590202
_symmetry_space_group_name_H-M "P C C M"
_symmetry_group_IT_number 49
_symmetry_cell_setting 'orthorhombic'
loop_
_space_group_symop_operation_xyz
x,y,z
-x,-y,z
x,-y,1/2-z
-x,y,1/2-z
-x,-y,-z
x,y,-z
-x,y,1/2+z
x,-y,1/2+z
loop_
_atom_site_type_symbol
_atom_site_label
_atom_site_fract_x
_atom_site_fract_y
_atom_site_fract_z
Si Si1 0.753171 0.305365 0.094104
Si Si2 0.272729 0.241248 0.130707
Si Si3 0.215002 0.883725 0.789872
Si Si4 0.363553 0.997185 0.084123
Si Si5 0.493572 0.360709 0.344031
Si Si6 0.123676 0.460866 0.905740
O O1 0.826308 0.206003 0.141202
O O2 0.619464 0.303732 0.118258
O O3 0.792304 0.435281 0.120776
O O4 0.768289 0.297902 0.000000
O O5 0.251725 0.199526 0.219491
O O6 0.295693 0.120540 0.084773
O O7 0.391699 0.307896 0.120616
O O8 0.171680 0.332063 0.112586
O O9 0.155309 0.000000 0.750000
O O10 0.321230 0.938782 0.836321
O O11 0.500000 0.000000 0.087136
O O12 0.334725 0.938624 0.000000
O O13 0.500000 0.500000 0.357504
O O14 0.500000 0.340207 0.250000
O O15 0.000000 0.500000 0.874871
O O16 0.118690 0.465543 0.000000
#
# Coordination Sequence:
#
# PCOD9394301 Si02
#       6
#     8   8   8   8   8   8
#     4  11  22  38  62  91 124 161 206 254 314 386
#     4  11  21  36  62  90 125 168 213 252 318 388
#     4  10  22  37  57  84 120 165 206 256 310 368
#     4  10  21  35  55  87 128 171 216 260 310 387
#     4  11  21  34  56  86 132 169 195 239 312 391
#     4  10  23  43  65  91 124 162 208 265 326 386
#
# _framework density 21.139876999999998
#
# number of rings (size 3 to 8) (size 9 to 14) (size 15 to 20)
#    0.000    1.500    3.333    2.000    0.000    6.000 
#    0.000    1.667    0.000    7.000    0.000   15.167 
#    0.000    0.000    0.000    0.000    0.000    0.000 
#
# Total GULP energy -267388.202777 kJ/mol
# GULP energy per Si atom -5570.587558 kJ/mol
# Density = 2.109176 g / cm^3
# Si number density = 21.139877 Si / 1000 Ang^3
#
#
#
# Elastic Constant Matrix: (Units=GPa)
#
#
# Indices 1 2 3 4 5 6 
#
# 1 73.5914 36.2251 6.8327 0.0000 0.0000 0.0000
# 2 36.2251 121.1159 25.9062 0.0000 0.0000 0.0000
# 3 6.8327 25.9062 92.5842 0.0000 0.0000 0.0000
# 4 0.0000 0.0000 0.0000 35.8979 0.0000 0.0000
# 5 0.0000 0.0000 0.0000 0.0000 -2.4004 0.0000
# 6 0.0000 0.0000 0.0000 0.0000 0.0000 10.2975
#
#
#
# Elastic Compliance Matrix: (Units=1/GPa)
#
#
# Indices 1 2 3 4 5 6 
#
# 1 0.015937 -0.004803 0.000168 0.000000 0.000000 0.000000
# 2 -0.004803 0.010229 -0.002508 0.000000 0.000000 0.000000
# 3 0.000168 -0.002508 0.011490 0.000000 0.000000 0.000000
# 4 0.000000 0.000000 0.000000 0.027857 0.000000 0.000000
# 5 0.000000 0.000000 0.000000 0.000000 -0.416598 0.000000
# 6 0.000000 0.000000 0.000000 0.000000 0.000000 0.097111
#
#
# Mechanical properties :
#
#
# Convention : Reuss Voigt Hill
#
# Bulk Modulus (GPa) = 42.78767 47.24661 45.01714
# Shear Modulus (GPa) = -21.56122 23.31418 0.87648
#
# Velocity S-wave (km/s) = -3.19710 3.32453 0.64460
# Velocity P-wave (km/s) = 2.57984 6.09382 4.67922
#
# Compressibility (1/GPa) = 0.02337122
#
# Stress axis : x y z
#
# Youngs Moduli (GPa) = 62.74706 97.75753 87.02961
#
# Poissons Ratio (x) = 0.46948 -0.01459
# Poissons Ratio (y) = 0.30134 0.21826
# Poissons Ratio (z) = -0.01052 0.24516
#
# Static dielectric constant tensor:
#      x y z
#    x 1.740490 0.000000 0.000000 
#    y 0.000000 1.874360 0.000000 
#    z 0.000000 0.000000 1.769440 
# 
# From -- ./inp_files/17113.got.cif
#   From: 2010.05.17/outbox.cif.g08.bks.cpg/sg49_9_cif.got.tgz:17113.got - 2010.06.03 21:02:19.
