data_PCOD9394083
_publ_section_title
;
Structure prediction by ZEFSAII (Michael W. Deem and Ramdas Pophale) SiO2 
 PCOD9394083
Probable space group: P C C M
;
_chemical_formula_sum "Si O2"
_cell_formula_units_Z 60
_cell_length_a 23.490071
_cell_length_b 5.225998
_cell_length_c 26.211736
_cell_angle_alpha 90.000000
_cell_angle_beta 90.000000
_cell_angle_gamma 90.000000
_cell_volume 3217.728179
_symmetry_space_group_name_H-M "P C C M"
_symmetry_group_IT_number 49
_symmetry_cell_setting 'orthorhombic'
loop_
_space_group_symop_operation_xyz
x,y,z
-x,-y,z
x,-y,1/2-z
-x,y,1/2-z
-x,-y,-z
x,y,-z
-x,y,1/2+z
x,-y,1/2+z
loop_
_atom_site_type_symbol
_atom_site_label
_atom_site_fract_x
_atom_site_fract_y
_atom_site_fract_z
Si Si1 0.112901 0.474130 0.560762
Si Si2 0.500000 0.000000 0.631865
Si Si3 0.652377 0.559974 0.361128
Si Si4 0.438663 0.638542 0.941955
Si Si5 0.065883 0.968213 0.385031
Si Si6 0.830601 0.010028 0.689277
Si Si7 0.783587 0.505910 0.635114
Si Si8 0.606796 0.080192 0.691400
O O1 0.114441 0.478559 0.500000
O O2 0.076547 0.709814 0.583077
O O3 0.175564 0.504106 0.585740
O O4 0.086817 0.209297 0.581460
O O5 0.455626 0.123732 0.592825
O O6 0.543264 0.143870 0.669676
O O7 0.610912 0.504925 0.409520
O O8 0.717797 0.549272 0.377269
O O9 0.642067 0.335414 0.320143
O O10 0.634965 0.834235 0.337028
O O11 0.500000 0.500000 0.943517
O O12 0.421697 0.693667 0.000000
O O13 0.106850 0.959048 0.335739
O O14 0.000000 0.000000 0.371985
O O15 0.794209 0.247222 0.667221
O O16 0.832066 0.000000 0.750000
O O17 0.804854 0.746362 0.668207
O O18 0.603164 0.000000 0.750000
#
# Coordination Sequence:
#
# PCOD9394083 Si02
#       8
#     8   4   8   8   8   8   8   8
#     4  10  21  37  57  81 114 154 189 230 282 329
#     4  10  20  38  56  80 114 144 180 226 276 342
#     4  11  23  39  57  86 113 143 189 236 279 336
#     4  10  20  37  60  82 110 146 183 228 284 339
#     4  10  21  36  56  87 118 147 189 233 275 331
#     4  10  21  38  60  83 112 153 189 230 282 327
#     4  10  22  38  57  81 114 146 190 238 277 332
#     4  11  23  37  57  82 111 145 181 224 281 337
#
# _framework density 18.646695000000001
#
# number of rings (size 3 to 8) (size 9 to 14) (size 15 to 20)
#    0.000    1.733    1.333    2.800    0.000    5.600 
#    0.000    1.333    0.000    9.600    0.000    0.000 
#    0.000    0.000    0.000    0.000    0.000    0.000 
#
# Total GULP energy -334614.726665 kJ/mol
# GULP energy per Si atom -5576.912111 kJ/mol
# Density = 1.860425 g / cm^3
# Si number density = 18.646695 Si / 1000 Ang^3
#
#
#
# Elastic Constant Matrix: (Units=GPa)
#
#
# Indices 1 2 3 4 5 6 
#
# 1 197.9576 -9.4121 -179.3261 0.0000 0.0000 0.0000
# 2 -9.4121 68.2213 0.5422 0.0000 0.0000 0.0000
# 3 -179.3261 0.5422 572.5934 0.0000 0.0000 0.0000
# 4 0.0000 0.0000 0.0000 11.2326 0.0000 0.0000
# 5 0.0000 0.0000 0.0000 0.0000 4.4546 0.0000
# 6 0.0000 0.0000 0.0000 0.0000 0.0000 14.5687
#
#
#
# Elastic Compliance Matrix: (Units=1/GPa)
#
#
# Indices 1 2 3 4 5 6 
#
# 1 0.007115 0.000964 0.002227 0.000000 0.000000 0.000000
# 2 0.000964 0.014789 0.000288 0.000000 0.000000 0.000000
# 3 0.002227 0.000288 0.002444 0.000000 0.000000 0.000000
# 4 0.000000 0.000000 0.000000 0.089027 0.000000 0.000000
# 5 0.000000 0.000000 0.000000 0.000000 0.224486 0.000000
# 6 0.000000 0.000000 0.000000 0.000000 0.000000 0.068640
#
#
# Mechanical properties :
#
#
# Convention : Reuss Voigt Hill
#
# Bulk Modulus (GPa) = 31.94233 51.37559 41.65896
# Shear Modulus (GPa) = 12.19579 74.51574 43.35577
#
# Velocity S-wave (km/s) = 2.56021 6.32840 4.82718
# Velocity P-wave (km/s) = 5.08989 9.00056 7.31154
#
# Compressibility (1/GPa) = 0.03130642
#
# Stress axis : x y z
#
# Youngs Moduli (GPa) = 140.54374 67.61834 409.20466
#
# Poissons Ratio (x) = -0.06518 -0.91148
# Poissons Ratio (y) = -0.13548 -0.11780
# Poissons Ratio (z) = -0.31305 -0.01947
#
# Static dielectric constant tensor:
#      x y z
#    x 1.657870 0.000000 0.000000 
#    y 0.000000 1.642780 0.000000 
#    z 0.000000 0.000000 1.621300 
# 
# From -- ./inp_files/23397.got.cif
#   From: 2010.05.17/outbox.cif.g08.bks.cpg/sg49_12_cif.got.tgz:23397.got - 2010.06.03 21:02:19.
