data_PCOD9394557
_publ_section_title
;
Structure prediction by ZEFSAII (Michael W. Deem and Ramdas Pophale) SiO2 
 PCOD9394557
Probable space group: P C C M
;
_chemical_formula_sum "Si O2"
_cell_formula_units_Z 28
_cell_length_a 5.012467
_cell_length_b 12.208285
_cell_length_c 18.874670
_cell_angle_alpha 90.000000
_cell_angle_beta 90.000000
_cell_angle_gamma 90.000000
_cell_volume 1155.009491
_symmetry_space_group_name_H-M "P C C M"
_symmetry_group_IT_number 49
_symmetry_cell_setting 'orthorhombic'
loop_
_space_group_symop_operation_xyz
x,y,z
-x,-y,z
x,-y,1/2-z
-x,y,1/2-z
-x,-y,-z
x,y,-z
-x,y,1/2+z
x,-y,1/2+z
loop_
_atom_site_type_symbol
_atom_site_label
_atom_site_fract_x
_atom_site_fract_y
_atom_site_fract_z
Si Si1 0.500302 0.368052 0.417737
Si Si2 0.249619 0.081055 0.156696
Si Si3 0.011407 0.695123 0.674331
Si Si4 0.252705 0.078608 0.000000
O O1 0.500000 0.500000 0.419456
O O2 0.469334 0.329603 0.500000
O O3 0.788438 0.352173 0.383089
O O4 0.275459 0.310512 0.366490
O O5 0.168437 0.190877 0.196477
O O6 0.500000 0.000000 0.170797
O O7 0.265044 0.129928 0.076746
O O8 0.000000 0.000000 0.161319
O O9 0.000000 0.635006 0.750000
O O10 0.500000 0.000000 0.000000
O O11 0.000000 0.000000 0.000000
#
# Coordination Sequence:
#
# PCOD9394557 Si02
#       4
#     8   8   8   4
#     4  11  26  48  74 103 138 184 238 300 368 436
#     4  10  21  39  61  96 137 181 225 278 335 408
#     4  12  26  44  71 107 143 187 238 293 363 432
#     4   8  16  30  52  82 117 158 215 262 314 370
#
# _framework density 24.242222999999999
#
# number of rings (size 3 to 8) (size 9 to 14) (size 15 to 20)
#    0.000    1.429    0.000    4.286    4.000    6.286 
#    5.143    1.429    0.000    0.000    0.000    0.000 
#    0.000    0.000    0.000    0.000    0.000    0.000 
#
# Total GULP energy -155955.300235 kJ/mol
# GULP energy per Si atom -5569.832151 kJ/mol
# Density = 2.418705 g / cm^3
# Si number density = 24.242223 Si / 1000 Ang^3
#
#
#
# Elastic Constant Matrix: (Units=GPa)
#
#
# Indices 1 2 3 4 5 6 
#
# 1 166.1238 0.5814 27.6725 0.0000 0.0000 0.0000
# 2 0.5814 79.8718 -2.5296 0.0000 0.0000 0.0000
# 3 27.6725 -2.5296 150.5286 0.0000 0.0000 0.0000
# 4 0.0000 0.0000 0.0000 -18.1630 0.0000 0.0000
# 5 0.0000 0.0000 0.0000 0.0000 78.4834 0.0000
# 6 0.0000 0.0000 0.0000 0.0000 0.0000 24.3191
#
#
#
# Elastic Compliance Matrix: (Units=1/GPa)
#
#
# Indices 1 2 3 4 5 6 
#
# 1 0.006210 -0.000081 -0.001143 0.000000 0.000000 0.000000
# 2 -0.000081 0.012528 0.000225 0.000000 0.000000 0.000000
# 3 -0.001143 0.000225 0.006857 0.000000 0.000000 0.000000
# 4 0.000000 0.000000 0.000000 -0.055057 0.000000 0.000000
# 5 0.000000 0.000000 0.000000 0.000000 0.012742 0.000000
# 6 0.000000 0.000000 0.000000 0.000000 0.000000 0.041120
#
#
# Mechanical properties :
#
#
# Convention : Reuss Voigt Hill
#
# Bulk Modulus (GPa) = 42.37763 49.77476 46.07620
# Shear Modulus (GPa) = 145.92740 41.64788 93.78764
#
# Velocity S-wave (km/s) = 7.76700 4.14936 6.22669
# Velocity P-wave (km/s) = 9.89716 6.59796 8.41091
#
# Compressibility (1/GPa) = 0.02359736
#
# Stress axis : x y z
#
# Youngs Moduli (GPa) = 161.02293 79.82251 145.83260
#
# Poissons Ratio (x) = 0.00650 0.16669
# Poissons Ratio (y) = 0.01311 -0.03288
# Poissons Ratio (z) = 0.18406 -0.01800
#
# Static dielectric constant tensor:
#      x y z
#    x 1.879060 0.000000 0.000000 
#    y 0.000000 1.957720 0.000000 
#    z 0.000000 0.000000 1.703490 
# 
# From -- ./inp_files/18644.got.cif
#   From: 2010.05.17/outbox.cif.g08.bks.cpg/sg49_10_cif.got.tgz:18644.got - 2010.06.03 21:02:19.
