data_PCOD9394304
_publ_section_title
;
Structure prediction by ZEFSAII (Michael W. Deem and Ramdas Pophale) SiO2 
 PCOD9394304
Probable space group: P C C M
;
_chemical_formula_sum "Si O2"
_cell_formula_units_Z 64
_cell_length_a 25.318497
_cell_length_b 15.021779
_cell_length_c 9.169794
_cell_angle_alpha 90.000000
_cell_angle_beta 90.000000
_cell_angle_gamma 90.000000
_cell_volume 3487.537358
_symmetry_space_group_name_H-M "P C C M"
_symmetry_group_IT_number 49
_symmetry_cell_setting 'orthorhombic'
loop_
_space_group_symop_operation_xyz
x,y,z
-x,-y,z
x,-y,1/2-z
-x,y,1/2-z
-x,-y,-z
x,y,-z
-x,y,1/2+z
x,-y,1/2+z
loop_
_atom_site_type_symbol
_atom_site_label
_atom_site_fract_x
_atom_site_fract_y
_atom_site_fract_z
Si Si1 0.723272 0.605188 0.719030
Si Si2 0.143120 0.214632 0.675830
Si Si3 0.643783 0.096245 0.674684
Si Si4 0.396760 0.407882 0.336846
Si Si5 0.443943 0.220731 0.322518
Si Si6 0.054031 0.097405 0.177036
Si Si7 0.250486 0.209784 0.837023
Si Si8 0.844251 0.410854 0.159946
O O1 0.719305 0.500000 0.750000
O O2 0.665056 0.621482 0.655829
O O3 0.730614 0.686761 0.831145
O O4 0.781085 0.607004 0.646850
O O5 0.137375 0.205989 0.500000
O O6 0.103030 0.154456 0.765528
O O7 0.203317 0.194766 0.723502
O O8 0.133596 0.318126 0.718586
O O9 0.633664 0.089445 0.500000
O O10 0.599326 0.154729 0.754813
O O11 0.699382 0.147784 0.692749
O O12 0.646098 0.000000 0.750000
O O13 0.401423 0.500000 0.250000
O O14 0.415321 0.426217 0.500000
O O15 0.427985 0.322152 0.280038
O O16 0.500000 0.199819 0.250000
O O17 0.444792 0.215160 0.500000
O O18 0.000000 0.133970 0.250000
O O19 0.059933 0.000000 0.250000
O O20 0.050793 0.092933 0.000000
O O21 0.230445 0.191497 0.000000
O O22 0.851680 0.500000 0.250000
O O23 0.866348 0.425663 0.000000
#
# Coordination Sequence:
#
# PCOD9394304 Si02
#       8
#     8   8   8   8   8   8   8   8
#     4   9  17  30  50  81 114 148 189 228 278 330
#     4  10  21  36  56  86 123 161 200 243 290 342
#     4  11  24  43  65  88 113 145 185 235 292 351
#     4  10  21  35  56  84 116 151 188 228 279 338
#     4  11  24  43  64  87 113 146 187 236 286 342
#     4  11  22  39  63  89 119 155 198 247 298 349
#     4  10  21  37  58  85 119 157 195 235 286 346
#     4   9  18  30  49  77 114 155 195 238 282 334
#
# _framework density 18.351057000000001
#
# number of rings (size 3 to 8) (size 9 to 14) (size 15 to 20)
#    0.000    1.875    1.250    3.000    0.000   10.500 
#    0.000    3.750    0.000    0.375    0.000    2.625 
#    0.000    0.000    0.000    0.000    0.000    0.000 
#
# Total GULP energy -356333.215097 kJ/mol
# GULP energy per Si atom -5567.706486 kJ/mol
# Density = 1.830929 g / cm^3
# Si number density = 18.351057 Si / 1000 Ang^3
#
#
#
# Elastic Constant Matrix: (Units=GPa)
#
#
# Indices 1 2 3 4 5 6 
#
# 1 79.5497 51.3186 49.8706 0.0000 0.0000 0.0000
# 2 51.3186 116.7123 63.2529 0.0000 0.0000 0.0000
# 3 49.8706 63.2529 110.7932 0.0000 0.0000 0.0000
# 4 0.0000 0.0000 0.0000 25.8681 0.0000 0.0000
# 5 0.0000 0.0000 0.0000 0.0000 22.2983 0.0000
# 6 0.0000 0.0000 0.0000 0.0000 0.0000 31.2991
#
#
#
# Elastic Compliance Matrix: (Units=1/GPa)
#
#
# Indices 1 2 3 4 5 6 
#
# 1 0.019753 -0.005599 -0.005695 0.000000 0.000000 0.000000
# 2 -0.005599 0.013994 -0.005469 0.000000 0.000000 0.000000
# 3 -0.005695 -0.005469 0.014711 0.000000 0.000000 0.000000
# 4 0.000000 0.000000 0.000000 0.038658 0.000000 0.000000
# 5 0.000000 0.000000 0.000000 0.000000 0.044846 0.000000
# 6 0.000000 0.000000 0.000000 0.000000 0.000000 0.031950
#
#
# Mechanical properties :
#
#
# Convention : Reuss Voigt Hill
#
# Bulk Modulus (GPa) = 66.96694 70.65995 68.81344
# Shear Modulus (GPa) = 24.70169 25.40063 25.05116
#
# Velocity S-wave (km/s) = 3.67285 3.72445 3.69874
# Velocity P-wave (km/s) = 7.38633 7.55537 7.47133
#
# Compressibility (1/GPa) = 0.01493274
#
# Stress axis : x y z
#
# Youngs Moduli (GPa) = 50.62553 71.45923 67.97439
#
# Poissons Ratio (x) = 0.40011 0.38709
# Poissons Ratio (y) = 0.28346 0.37175
# Poissons Ratio (z) = 0.28829 0.39081
#
# Static dielectric constant tensor:
#      x y z
#    x 1.626440 0.000000 0.000000 
#    y 0.000000 1.688340 0.000000 
#    z 0.000000 0.000000 1.638050 
# 
# From -- ./inp_files/6549.got.cif
#   From: 2010.05.17/outbox.cif.g08.bks.cpg/sg49_4_cif.got.tgz:6549.got - 2010.06.03 21:02:19.
