data_PCOD9394702
_publ_section_title
;
Structure prediction by ZEFSAII (Michael W. Deem and Ramdas Pophale) SiO2 
 PCOD9394702
Probable space group: P C C M
;
_chemical_formula_sum "Si O2"
_cell_formula_units_Z 56
_cell_length_a 15.035718
_cell_length_b 5.490040
_cell_length_c 28.800498
_cell_angle_alpha 90.000000
_cell_angle_beta 90.000000
_cell_angle_gamma 90.000000
_cell_volume 2377.385874
_symmetry_space_group_name_H-M "P C C M"
_symmetry_group_IT_number 49
_symmetry_cell_setting 'orthorhombic'
loop_
_space_group_symop_operation_xyz
x,y,z
-x,-y,z
x,-y,1/2-z
-x,y,1/2-z
-x,-y,-z
x,y,-z
-x,y,1/2+z
x,-y,1/2+z
loop_
_atom_site_type_symbol
_atom_site_label
_atom_site_fract_x
_atom_site_fract_y
_atom_site_fract_z
Si Si1 0.404520 0.509983 0.355184
Si Si2 0.240649 0.254745 0.634221
Si Si3 0.581188 0.191311 0.553647
Si Si4 0.908617 0.134501 0.612803
Si Si5 0.771867 0.652414 0.947299
Si Si6 0.132506 0.594317 0.297946
Si Si7 0.684222 0.759509 0.224395
O O1 0.500000 0.500000 0.331771
O O2 0.345489 0.264876 0.353758
O O3 0.421169 0.604072 0.407136
O O4 0.351224 0.715398 0.327301
O O5 0.241266 0.439282 0.590399
O O6 0.189481 0.383747 0.676793
O O7 0.178153 0.029269 0.623964
O O8 0.565922 0.266100 0.500000
O O9 0.689866 0.147674 0.555622
O O10 0.500000 0.000000 0.563395
O O11 0.870590 0.262730 0.566935
O O12 0.923137 0.292874 0.659780
O O13 0.000000 0.000000 0.603747
O O14 0.768480 0.562720 0.000000
O O15 0.091686 0.500000 0.250000
O O16 0.209471 0.779063 0.281466
O O17 0.665393 0.500000 0.250000
O O18 0.650412 0.000000 0.250000
#
# Coordination Sequence:
#
# PCOD9394702 Si02
#       7
#     8   8   8   8   8   8   8
#     4  10  22  38  62  97 130 180 228 275 353 417
#     4   9  21  41  61  89 129 169 218 280 338 402
#     4   9  19  37  60  92 131 175 226 281 338 410
#     4  11  24  40  66  97 130 171 226 285 343 417
#     4   9  20  40  62  92 135 177 221 274 343 413
#     4   9  21  40  66  89 122 168 214 277 348 409
#     4  10  23  42  69  95 135 180 227 286 342 414
#
# _framework density 23.555282999999999
#
# number of rings (size 3 to 8) (size 9 to 14) (size 15 to 20)
#    0.000    2.429    0.000    0.857    8.000    4.857 
#    0.000    3.571    3.143    0.000    0.000    0.000 
#    0.000    0.000    0.000    0.000    0.000    0.000 
#
# Total GULP energy -311895.170952 kJ/mol
# GULP energy per Si atom -5569.556624 kJ/mol
# Density = 2.350167 g / cm^3
# Si number density = 23.555283 Si / 1000 Ang^3
#
#
#
# Elastic Constant Matrix: (Units=GPa)
#
#
# Indices 1 2 3 4 5 6 
#
# 1 134.0147 23.3169 34.4335 0.0000 0.0000 0.0000
# 2 23.3169 54.4036 18.1453 0.0000 0.0000 0.0000
# 3 34.4335 18.1453 117.1827 0.0000 0.0000 0.0000
# 4 0.0000 0.0000 0.0000 14.4444 0.0000 0.0000
# 5 0.0000 0.0000 0.0000 0.0000 31.7365 0.0000
# 6 0.0000 0.0000 0.0000 0.0000 0.0000 19.7883
#
#
#
# Elastic Compliance Matrix: (Units=1/GPa)
#
#
# Indices 1 2 3 4 5 6 
#
# 1 0.008501 -0.002963 -0.002039 0.000000 0.000000 0.000000
# 2 -0.002963 0.020415 -0.002290 0.000000 0.000000 0.000000
# 3 -0.002039 -0.002290 0.009488 0.000000 0.000000 0.000000
# 4 0.000000 0.000000 0.000000 0.069231 0.000000 0.000000
# 5 0.000000 0.000000 0.000000 0.000000 0.031509 0.000000
# 6 0.000000 0.000000 0.000000 0.000000 0.000000 0.050535
#
#
# Mechanical properties :
#
#
# Convention : Reuss Voigt Hill
#
# Bulk Modulus (GPa) = 41.98518 50.82138 46.40328
# Shear Modulus (GPa) = 23.56208 28.50751 26.03480
#
# Velocity S-wave (km/s) = 3.16617 3.48262 3.32816
# Velocity P-wave (km/s) = 5.58829 6.14766 5.87464
#
# Compressibility (1/GPa) = 0.02381793
#
# Stress axis : x y z
#
# Youngs Moduli (GPa) = 117.62728 48.98318 105.40120
#
# Poissons Ratio (x) = 0.14516 0.21494
# Poissons Ratio (y) = 0.34859 0.24141
# Poissons Ratio (z) = 0.23987 0.11219
#
# Static dielectric constant tensor:
#      x y z
#    x 1.954920 0.000000 0.000000 
#    y 0.000000 1.967410 0.000000 
#    z 0.000000 0.000000 1.910600 
# 
# From -- ./inp_files/26796.got.cif
#   From: 2010.05.17/outbox.cif.g08.bks.cpg/sg49_14_cif.got.tgz:26796.got - 2010.06.03 21:02:19.
