data_PCOD9394843
_publ_section_title
;
Structure prediction by ZEFSAII (Michael W. Deem and Ramdas Pophale) SiO2 
 PCOD9394843
Probable space group: P C C M
;
_chemical_formula_sum "Si O2"
_cell_formula_units_Z 48
_cell_length_a 17.695342
_cell_length_b 9.895403
_cell_length_c 14.784728
_cell_angle_alpha 90.000000
_cell_angle_beta 90.000000
_cell_angle_gamma 90.000000
_cell_volume 2588.843431
_symmetry_space_group_name_H-M "P C C M"
_symmetry_group_IT_number 49
_symmetry_cell_setting 'orthorhombic'
loop_
_space_group_symop_operation_xyz
x,y,z
-x,-y,z
x,-y,1/2-z
-x,y,1/2-z
-x,-y,-z
x,y,-z
-x,y,1/2+z
x,-y,1/2+z
loop_
_atom_site_type_symbol
_atom_site_label
_atom_site_fract_x
_atom_site_fract_y
_atom_site_fract_z
Si Si1 0.478543 0.347066 0.146060
Si Si2 0.416096 0.769836 0.000000
Si Si3 0.307559 0.390156 0.828376
Si Si4 0.913909 0.010767 0.858777
Si Si5 0.308052 0.007067 0.000000
Si Si6 0.729703 0.435457 0.000000
Si Si7 0.164145 0.190994 0.500000
Si Si8 0.763932 0.883737 0.172023
O O1 0.500000 0.500000 0.118809
O O2 0.500000 0.329093 0.250000
O O3 0.530550 0.253615 0.085568
O O4 0.388858 0.335263 0.139351
O O5 0.382481 0.918781 0.000000
O O6 0.346155 0.660719 0.000000
O O7 0.321710 0.500000 0.750000
O O8 0.255939 0.265883 0.794052
O O9 0.272046 0.470062 0.912167
O O10 0.880764 0.142718 0.910022
O O11 0.919043 0.000000 0.750000
O O12 0.847430 0.899533 0.873205
O O13 0.000000 0.000000 0.891928
O O14 0.294853 0.088256 0.091606
O O15 0.239580 0.899196 0.000000
O O16 0.803915 0.341323 0.000000
O O17 0.757764 0.000000 0.250000
#
# Coordination Sequence:
#
# PCOD9394843 Si02
#       8
#     8   4   8   8   4   4   4   8
#     4  11  20  35  53  83 116 148 205 245 286 346
#     4  11  20  35  63  81 111 159 201 250 291 345
#     4  12  24  37  61  87 118 157 199 252 296 346
#     4   9  18  35  62  91 118 156 200 239 282 356
#     4   9  21  38  58  83 120 152 195 242 301 348
#     4  11  22  35  59  89 121 154 203 243 300 347
#     4   9  19  33  59  94 120 152 195 243 289 351
#     4  10  23  39  61  88 121 153 195 242 296 354
#
# _framework density 18.5411
#
# number of rings (size 3 to 8) (size 9 to 14) (size 15 to 20)
#    0.000    1.667    3.333    1.500   11.667    0.000 
#    0.000    1.667    0.000    2.000    0.000    0.000 
#    0.000    0.000    0.000    0.000    0.000    0.000 
#
# Total GULP energy -267461.104311 kJ/mol
# GULP energy per Si atom -5572.106340 kJ/mol
# Density = 1.849890 g / cm^3
# Si number density = 18.541100 Si / 1000 Ang^3
#
#
#
# Elastic Constant Matrix: (Units=GPa)
#
#
# Indices 1 2 3 4 5 6 
#
# 1 130.7352 62.7924 29.4324 0.0000 0.0000 0.0000
# 2 62.7924 73.8878 26.7095 0.0000 0.0000 0.0000
# 3 29.4324 26.7095 88.9509 0.0000 0.0000 0.0000
# 4 0.0000 0.0000 0.0000 23.9496 0.0000 0.0000
# 5 0.0000 0.0000 0.0000 0.0000 1.1668 0.0000
# 6 0.0000 0.0000 0.0000 0.0000 0.0000 17.3983
#
#
#
# Elastic Compliance Matrix: (Units=1/GPa)
#
#
# Indices 1 2 3 4 5 6 
#
# 1 0.013021 -0.010666 -0.001106 0.000000 0.000000 0.000000
# 2 -0.010666 0.023919 -0.003653 0.000000 0.000000 0.000000
# 3 -0.001106 -0.003653 0.012705 0.000000 0.000000 0.000000
# 4 0.000000 0.000000 0.000000 0.041754 0.000000 0.000000
# 5 0.000000 0.000000 0.000000 0.000000 0.857073 0.000000
# 6 0.000000 0.000000 0.000000 0.000000 0.000000 0.057477
#
#
# Mechanical properties :
#
#
# Convention : Reuss Voigt Hill
#
# Bulk Modulus (GPa) = 53.20457 59.04918 56.12688
# Shear Modulus (GPa) = 4.79358 20.14557 12.46957
#
# Velocity S-wave (km/s) = 1.60966 3.29984 2.59614
# Velocity P-wave (km/s) = 5.67560 6.81436 6.27088
#
# Compressibility (1/GPa) = 0.01879538
#
# Stress axis : x y z
#
# Youngs Moduli (GPa) = 76.80022 41.80826 78.70968
#
# Poissons Ratio (x) = 0.44592 0.08703
# Poissons Ratio (y) = 0.81914 0.28753
# Poissons Ratio (z) = 0.08492 0.15273
#
# Static dielectric constant tensor:
#      x y z
#    x 1.659830 0.000000 0.000000 
#    y 0.000000 1.648750 0.000000 
#    z 0.000000 0.000000 1.669510 
# 
# From -- ./inp_files/14077.got.cif
#   From: 2010.05.17/outbox.cif.g08.bks.cpg/sg49_8_cif.got.tgz:14077.got - 2010.06.03 21:02:19.
