data_PCOD9394810
_publ_section_title
;
Structure prediction by ZEFSAII (Michael W. Deem and Ramdas Pophale) SiO2 
 PCOD9394810
Probable space group: P C C M
;
_chemical_formula_sum "Si O2"
_cell_formula_units_Z 40
_cell_length_a 12.475536
_cell_length_b 7.985369
_cell_length_c 17.119999
_cell_angle_alpha 90.000000
_cell_angle_beta 90.000000
_cell_angle_gamma 90.000000
_cell_volume 1705.524405
_symmetry_space_group_name_H-M "P C C M"
_symmetry_group_IT_number 49
_symmetry_cell_setting 'orthorhombic'
loop_
_space_group_symop_operation_xyz
x,y,z
-x,-y,z
x,-y,1/2-z
-x,y,1/2-z
-x,-y,-z
x,y,-z
-x,y,1/2+z
x,-y,1/2+z
loop_
_atom_site_type_symbol
_atom_site_label
_atom_site_fract_x
_atom_site_fract_y
_atom_site_fract_z
Si Si1 0.547036 0.186231 0.908247
Si Si2 0.761938 0.674446 0.352658
Si Si3 0.013933 0.701188 0.913331
Si Si4 0.160802 0.169709 0.201744
Si Si5 0.677895 0.314973 0.592977
O O1 0.653282 0.220189 0.859828
O O2 0.447422 0.305241 0.886475
O O3 0.500000 0.000000 0.900771
O O4 0.573239 0.215353 0.000000
O O5 0.860535 0.738693 0.404944
O O6 0.808192 0.690394 0.265693
O O7 0.730257 0.490276 0.382183
O O8 0.000000 0.500000 0.905117
O O9 0.945945 0.787811 0.845857
O O10 0.975001 0.747828 0.000000
O O11 0.255936 0.173709 0.138415
O O12 0.153269 0.000000 0.250000
O O13 0.685919 0.293089 0.500000
#
# Coordination Sequence:
#
# PCOD9394810 Si02
#       5
#     8   8   8   8   8
#     4  10  22  42  69 104 148 193 242 304 369 439
#     4  12  24  42  74 109 143 192 247 302 369 437
#     4  11  24  46  78 108 144 194 251 305 361 439
#     4  12  27  46  71 109 152 192 235 301 375 439
#     4  11  23  44  74 107 146 193 247 300 358 440
#
# _framework density 23.453196999999999
#
# number of rings (size 3 to 8) (size 9 to 14) (size 15 to 20)
#    0.000    0.800    2.000    5.400    0.000    4.800 
#    0.000   10.000    0.000    0.000    0.000    0.000 
#    0.000    0.000    0.000    0.000    0.000    0.000 
#
# Total GULP energy -224133.456438 kJ/mol
# GULP energy per Si atom -5603.336411 kJ/mol
# Density = 2.339982 g / cm^3
# Si number density = 23.453197 Si / 1000 Ang^3
#
#
#
# Elastic Constant Matrix: (Units=GPa)
#
#
# Indices 1 2 3 4 5 6 
#
# 1 184.4089 52.0007 75.4330 0.0000 0.0000 0.0000
# 2 52.0007 87.5022 58.4270 0.0000 0.0000 0.0000
# 3 75.4330 58.4270 132.1690 0.0000 0.0000 0.0000
# 4 0.0000 0.0000 0.0000 32.8202 0.0000 0.0000
# 5 0.0000 0.0000 0.0000 0.0000 -24.1992 0.0000
# 6 0.0000 0.0000 0.0000 0.0000 0.0000 32.8421
#
#
#
# Elastic Compliance Matrix: (Units=1/GPa)
#
#
# Indices 1 2 3 4 5 6 
#
# 1 0.007368 -0.002229 -0.003220 0.000000 0.000000 0.000000
# 2 -0.002229 0.016888 -0.006194 0.000000 0.000000 0.000000
# 3 -0.003220 -0.006194 0.012142 0.000000 0.000000 0.000000
# 4 0.000000 0.000000 0.000000 0.030469 0.000000 0.000000
# 5 0.000000 0.000000 0.000000 0.000000 -0.041324 0.000000
# 6 0.000000 0.000000 0.000000 0.000000 0.000000 0.030449
#
#
# Mechanical properties :
#
#
# Convention : Reuss Voigt Hill
#
# Bulk Modulus (GPa) = 76.25701 86.20020 81.22860
# Shear Modulus (GPa) = 59.77336 22.84059 41.30698
#
# Velocity S-wave (km/s) = 5.05387 3.12409 4.20128
# Velocity P-wave (km/s) = 8.16337 7.06025 7.63177
#
# Compressibility (1/GPa) = 0.01311355
#
# Stress axis : x y z
#
# Youngs Moduli (GPa) = 135.71444 59.21197 82.35918
#
# Poissons Ratio (x) = 0.13197 0.26521
# Poissons Ratio (y) = 0.30247 0.51011
# Poissons Ratio (z) = 0.43702 0.36674
#
# Static dielectric constant tensor:
#      x y z
#    x 1.866950 0.000000 0.000000 
#    y 0.000000 1.933320 0.000000 
#    z 0.000000 0.000000 1.869480 
# 
# From -- ./inp_files/16840.got.cif
#   From: 2010.05.17/outbox.cif.g08.bks.cpg/sg49_9_cif.got.tgz:16840.got - 2010.06.03 21:02:19.
