data_PCOD9394275
_publ_section_title
;
Structure prediction by ZEFSAII (Michael W. Deem and Ramdas Pophale) SiO2 
 PCOD9394275
Probable space group: P C C M
;
_chemical_formula_sum "Si O2"
_cell_formula_units_Z 58
_cell_length_a 17.669013
_cell_length_b 5.698644
_cell_length_c 28.263997
_cell_angle_alpha 90.000000
_cell_angle_beta 90.000000
_cell_angle_gamma 90.000000
_cell_volume 2845.885321
_symmetry_space_group_name_H-M "P C C M"
_symmetry_group_IT_number 49
_symmetry_cell_setting 'orthorhombic'
loop_
_space_group_symop_operation_xyz
x,y,z
-x,-y,z
x,-y,1/2-z
-x,y,1/2-z
-x,-y,-z
x,y,-z
-x,y,1/2+z
x,-y,1/2+z
loop_
_atom_site_type_symbol
_atom_site_label
_atom_site_fract_x
_atom_site_fract_y
_atom_site_fract_z
Si Si1 0.080477 0.535134 0.163525
Si Si2 0.557014 0.791918 0.554432
Si Si3 0.710688 0.083140 0.551898
Si Si4 0.360462 0.450852 0.122971
Si Si5 0.000000 0.500000 0.250000
Si Si6 0.191357 0.842681 0.292671
Si Si7 0.221826 0.204112 0.626848
Si Si8 0.360674 0.259090 0.224877
O O1 0.050134 0.647469 0.212966
O O2 0.126232 0.314456 0.184641
O O3 0.143118 0.664902 0.133736
O O4 0.000000 0.500000 0.137786
O O5 0.534960 0.723812 0.500000
O O6 0.575112 0.586911 0.592447
O O7 0.500000 0.000000 0.570204
O O8 0.637571 0.917588 0.549403
O O9 0.730826 0.169447 0.500000
O O10 0.684419 0.289318 0.585995
O O11 0.772614 0.921675 0.576577
O O12 0.295857 0.638977 0.137296
O O13 0.383683 0.298738 0.169271
O O14 0.268807 0.723795 0.274514
O O15 0.163135 0.000000 0.250000
O O16 0.222267 0.005275 0.334032
O O17 0.389760 0.500000 0.250000
O O18 0.378787 0.000000 0.250000
#
# Coordination Sequence:
#
# PCOD9394275 Si02
#       8
#     8   8   8   8   2   8   8   8
#     4  10  21  34  48  74 115 157 205 255 315 390
#     4   9  20  37  60  94 134 170 207 261 334 417
#     4  10  21  36  60  91 121 157 205 260 327 396
#     4  11  20  36  59  86 127 166 211 267 332 398
#     4   8  20  32  46  76 114 158 192 246 326 392
#     4  11  21  32  54  77 117 160 202 256 313 379
#     4  11  20  37  54  81 117 161 208 258 315 392
#     4  11  23  34  58  90 125 169 217 277 323 384
#
# _framework density 20.380302
#
# number of rings (size 3 to 8) (size 9 to 14) (size 15 to 20)
#    0.414    1.241    2.759    2.897    2.897    1.655 
#    0.000    2.069    0.000    0.414    0.000    6.759 
#    0.000    0.000    0.000    0.000    0.000    0.000 
#
# Total GULP energy -322952.509386 kJ/mol
# GULP energy per Si atom -5568.146714 kJ/mol
# Density = 2.033392 g / cm^3
# Si number density = 20.380302 Si / 1000 Ang^3
#
#
#
# Elastic Constant Matrix: (Units=GPa)
#
#
# Indices 1 2 3 4 5 6 
#
# 1 83.9426 36.3429 36.7227 0.0000 0.0000 0.0000
# 2 36.3429 102.4173 65.6439 0.0000 0.0000 0.0000
# 3 36.7227 65.6439 137.1311 0.0000 0.0000 0.0000
# 4 0.0000 0.0000 0.0000 15.6154 0.0000 0.0000
# 5 0.0000 0.0000 0.0000 0.0000 -20.3925 0.0000
# 6 0.0000 0.0000 0.0000 0.0000 0.0000 43.0756
#
#
#
# Elastic Compliance Matrix: (Units=1/GPa)
#
#
# Indices 1 2 3 4 5 6 
#
# 1 0.014462 -0.003822 -0.002043 0.000000 0.000000 0.000000
# 2 -0.003822 0.015096 -0.006203 0.000000 0.000000 0.000000
# 3 -0.002043 -0.006203 0.010809 0.000000 0.000000 0.000000
# 4 0.000000 0.000000 0.000000 0.064039 0.000000 0.000000
# 5 0.000000 0.000000 0.000000 0.000000 -0.049038 0.000000
# 6 0.000000 0.000000 0.000000 0.000000 0.000000 0.023215
#
#
# Mechanical properties :
#
#
# Convention : Reuss Voigt Hill
#
# Bulk Modulus (GPa) = 61.61412 66.76778 64.19095
# Shear Modulus (GPa) = 46.24115 19.97847 33.10981
#
# Velocity S-wave (km/s) = 4.76848 3.13434 4.03500
# Velocity P-wave (km/s) = 7.78561 6.77723 7.29885
#
# Compressibility (1/GPa) = 0.01623005
#
# Stress axis : x y z
#
# Youngs Moduli (GPa) = 69.14910 66.24291 92.51861
#
# Poissons Ratio (x) = 0.25320 0.18902
# Poissons Ratio (y) = 0.26430 0.57387
# Poissons Ratio (z) = 0.14127 0.41089
#
# Static dielectric constant tensor:
#      x y z
#    x 1.838280 0.000000 0.000000 
#    y 0.000000 1.851970 0.000000 
#    z 0.000000 0.000000 1.756500 
# 
# From -- ./inp_files/25167.got.cif
#   From: 2010.05.17/outbox.cif.g08.bks.cpg/sg49_13_cif.got.tgz:25167.got - 2010.06.03 21:02:19.
