data_PCOD9394577
_publ_section_title
;
Structure prediction by ZEFSAII (Michael W. Deem and Ramdas Pophale) SiO2 
 PCOD9394577
Probable space group: P C C M
;
_chemical_formula_sum "Si O2"
_cell_formula_units_Z 64
_cell_length_a 8.824708
_cell_length_b 14.767261
_cell_length_c 23.224788
_cell_angle_alpha 90.000000
_cell_angle_beta 90.000000
_cell_angle_gamma 90.000000
_cell_volume 3026.579270
_symmetry_space_group_name_H-M "P C C M"
_symmetry_group_IT_number 49
_symmetry_cell_setting 'orthorhombic'
loop_
_space_group_symop_operation_xyz
x,y,z
-x,-y,z
x,-y,1/2-z
-x,y,1/2-z
-x,-y,-z
x,y,-z
-x,y,1/2+z
x,-y,1/2+z
loop_
_atom_site_type_symbol
_atom_site_label
_atom_site_fract_x
_atom_site_fract_y
_atom_site_fract_z
Si Si1 0.935672 0.782694 0.936433
Si Si2 0.798988 0.414994 0.860090
Si Si3 0.703954 0.744834 0.435627
Si Si4 0.644837 0.065656 0.881913
Si Si5 0.842784 0.386046 0.373875
Si Si6 0.319355 0.143839 0.257737
Si Si7 0.864780 0.938111 0.848874
Si Si8 0.681700 0.349417 0.253629
O O1 0.839301 0.692716 0.921172
O O2 0.917033 0.850378 0.883495
O O3 0.114948 0.761762 0.938462
O O4 0.892373 0.816732 0.000000
O O5 0.696691 0.339594 0.892030
O O6 0.791926 0.512725 0.890411
O O7 0.746646 0.417123 0.794054
O O8 0.977506 0.390401 0.858966
O O9 0.650643 0.722667 0.500000
O O10 0.629868 0.839322 0.414582
O O11 0.697175 0.092744 0.817601
O O12 0.500000 0.000000 0.881965
O O13 0.781364 0.999096 0.897731
O O14 0.745839 0.362737 0.317391
O O15 0.500000 0.145157 0.250000
O O16 0.240064 0.097176 0.203376
O O17 0.267639 0.247450 0.263706
O O18 0.000000 0.000000 0.825815
O O19 0.500000 0.354198 0.250000
#
# Coordination Sequence:
#
# PCOD9394577 Si02
#       8
#     8   8   8   8   8   8   8   8
#     4  10  22  42  64  90 124 161 210 269 315 363
#     4  10  21  39  63  93 127 161 206 262 317 376
#     4  10  22  42  64  90 123 164 213 263 313 370
#     4  12  24  40  64  89 127 166 205 255 318 374
#     4  10  21  39  63  94 125 162 208 258 317 383
#     4  11  23  41  61  91 132 165 201 259 317 376
#     4  12  24  40  63  97 121 162 211 256 313 374
#     4  11  22  37  65  91 128 168 200 249 320 384
#
# _framework density 21.145985
#
# number of rings (size 3 to 8) (size 9 to 14) (size 15 to 20)
#    0.000    1.250    5.000    1.125    0.000    4.500 
#    2.250    2.500    0.000    0.000    0.000    1.750 
#    0.000    0.000    0.000    0.000    0.000    0.000 
#
# Total GULP energy -357181.021089 kJ/mol
# GULP energy per Si atom -5580.953455 kJ/mol
# Density = 2.109786 g / cm^3
# Si number density = 21.145985 Si / 1000 Ang^3
#
#
#
# Elastic Constant Matrix: (Units=GPa)
#
#
# Indices 1 2 3 4 5 6 
#
# 1 37.4617 26.2560 14.6428 0.0000 0.0000 0.0000
# 2 26.2560 105.7850 25.4493 0.0000 0.0000 0.0000
# 3 14.6428 25.4493 96.2448 0.0000 0.0000 0.0000
# 4 0.0000 0.0000 0.0000 44.5983 0.0000 0.0000
# 5 0.0000 0.0000 0.0000 0.0000 6.6993 0.0000
# 6 0.0000 0.0000 0.0000 0.0000 0.0000 28.8385
#
#
#
# Elastic Compliance Matrix: (Units=1/GPa)
#
#
# Indices 1 2 3 4 5 6 
#
# 1 0.033139 -0.007489 -0.003062 0.000000 0.000000 0.000000
# 2 -0.007489 0.011788 -0.001978 0.000000 0.000000 0.000000
# 3 -0.003062 -0.001978 0.011379 0.000000 0.000000 0.000000
# 4 0.000000 0.000000 0.000000 0.022422 0.000000 0.000000
# 5 0.000000 0.000000 0.000000 0.000000 0.149269 0.000000
# 6 0.000000 0.000000 0.000000 0.000000 0.000000 0.034676
#
#
# Mechanical properties :
#
#
# Convention : Reuss Voigt Hill
#
# Bulk Modulus (GPa) = 32.00006 41.35420 36.67713
# Shear Modulus (GPa) = 16.77031 27.57010 22.17021
#
# Velocity S-wave (km/s) = 2.81921 3.61473 3.24147
# Velocity P-wave (km/s) = 5.07573 6.08446 5.60284
#
# Compressibility (1/GPa) = 0.03124995
#
# Stress axis : x y z
#
# Youngs Moduli (GPa) = 30.17562 84.83492 87.88200
#
# Poissons Ratio (x) = 0.63530 0.26907
# Poissons Ratio (y) = 0.22598 0.17379
# Poissons Ratio (z) = 0.09239 0.16777
#
# Static dielectric constant tensor:
#      x y z
#    x 1.822110 0.000000 0.000000 
#    y 0.000000 1.841820 0.000000 
#    z 0.000000 0.000000 1.744900 
# 
# From -- ./inp_files/22547.got.cif
#   From: 2010.05.17/outbox.cif.g08.bks.cpg/sg49_12_cif.got.tgz:22547.got - 2010.06.03 21:02:19.
