data_PCOD9394145
_publ_section_title
;
Structure prediction by ZEFSAII (Michael W. Deem and Ramdas Pophale) SiO2 
 PCOD9394145
Probable space group: P C C M
;
_chemical_formula_sum "Si O2"
_cell_formula_units_Z 64
_cell_length_a 17.571703
_cell_length_b 11.407367
_cell_length_c 15.398851
_cell_angle_alpha 90.000000
_cell_angle_beta 90.000000
_cell_angle_gamma 90.000000
_cell_volume 3086.651407
_symmetry_space_group_name_H-M "P C C M"
_symmetry_group_IT_number 49
_symmetry_cell_setting 'orthorhombic'
loop_
_space_group_symop_operation_xyz
x,y,z
-x,-y,z
x,-y,1/2-z
-x,y,1/2-z
-x,-y,-z
x,y,-z
-x,y,1/2+z
x,-y,1/2+z
loop_
_atom_site_type_symbol
_atom_site_label
_atom_site_fract_x
_atom_site_fract_y
_atom_site_fract_z
Si Si1 0.950379 0.890345 0.104282
Si Si2 0.962044 0.382626 0.344583
Si Si3 0.208317 0.389467 0.099850
Si Si4 0.646467 0.118573 0.267795
Si Si5 0.553783 0.263601 0.595426
Si Si6 0.374526 0.244470 0.595956
Si Si7 0.222426 0.109741 0.900913
Si Si8 0.630883 0.509481 0.149549
O O1 0.971424 0.753660 0.124125
O O2 0.863162 0.916949 0.128834
O O3 0.952287 0.895004 0.000000
O O4 0.000000 0.000000 0.137886
O O5 0.871353 0.405879 0.350544
O O6 0.000000 0.500000 0.387981
O O7 0.000000 0.380086 0.250000
O O8 0.223452 0.250939 0.094725
O O9 0.283190 0.441874 0.143256
O O10 0.200536 0.432441 0.000000
O O11 0.598852 0.206542 0.326269
O O12 0.664697 0.181259 0.177047
O O13 0.716324 0.078286 0.328537
O O14 0.600788 0.000000 0.250000
O O15 0.581707 0.224419 0.500000
O O16 0.465817 0.229613 0.602609
O O17 0.572931 0.401159 0.603607
O O18 0.349485 0.205643 0.500000
O O19 0.365719 0.383302 0.606076
O O20 0.235875 0.066060 0.000000
O O21 0.608031 0.500000 0.250000
#
# Coordination Sequence:
#
# PCOD9394145 Si02
#       8
#     8   8   8   8   8   8   8   8
#     4   9  19  39  66  94 123 161 212 268 326 393
#     4  10  22  38  57  88 128 167 204 259 313 387
#     4  10  20  37  64  91 122 168 210 250 316 397
#     4  12  25  42  62  91 123 167 224 272 314 379
#     4  11  23  42  67  92 126 173 216 258 326 399
#     4  11  25  42  62  95 135 168 207 272 334 380
#     4   9  18  39  66  92 124 163 215 266 320 393
#     4  12  22  37  68  99 128 161 206 268 326 392
#
# _framework density 20.734444
#
# number of rings (size 3 to 8) (size 9 to 14) (size 15 to 20)
#    0.000    1.500    2.500    3.375    1.750    4.750 
#    4.500    1.250    0.000    3.000    0.000    0.000 
#    0.000    0.500    0.000    0.000    0.000    0.000 
#
# Total GULP energy -357014.912522 kJ/mol
# GULP energy per Si atom -5578.358008 kJ/mol
# Density = 2.068725 g / cm^3
# Si number density = 20.734444 Si / 1000 Ang^3
#
#
#
# Elastic Constant Matrix: (Units=GPa)
#
#
# Indices 1 2 3 4 5 6 
#
# 1 62.3466 18.5181 27.9806 0.0000 0.0000 0.0000
# 2 18.5181 87.9674 13.6025 0.0000 0.0000 0.0000
# 3 27.9806 13.6025 115.2667 0.0000 0.0000 0.0000
# 4 0.0000 0.0000 0.0000 343.8286 0.0000 0.0000
# 5 0.0000 0.0000 0.0000 0.0000 19.1328 0.0000
# 6 0.0000 0.0000 0.0000 0.0000 0.0000 -2.2050
#
#
#
# Elastic Compliance Matrix: (Units=1/GPa)
#
#
# Indices 1 2 3 4 5 6 
#
# 1 0.018913 -0.003332 -0.004198 0.000000 0.000000 0.000000
# 2 -0.003332 0.012166 -0.000627 0.000000 0.000000 0.000000
# 3 -0.004198 -0.000627 0.009769 0.000000 0.000000 0.000000
# 4 0.000000 0.000000 0.000000 0.002908 0.000000 0.000000
# 5 0.000000 0.000000 0.000000 0.000000 0.052266 0.000000
# 6 0.000000 0.000000 0.000000 0.000000 0.000000 -0.453521
#
#
# Mechanical properties :
#
#
# Convention : Reuss Voigt Hill
#
# Bulk Modulus (GPa) = 40.75987 42.86478 41.81233
# Shear Modulus (GPa) = -15.01469 85.84993 35.41762
#
# Velocity S-wave (km/s) = -2.69391 6.44161 4.13747
# Velocity P-wave (km/s) = 3.16615 8.72032 6.56005
#
# Compressibility (1/GPa) = 0.02453393
#
# Stress axis : x y z
#
# Youngs Moduli (GPa) = 52.87352 82.19458 102.36977
#
# Poissons Ratio (x) = 0.27390 0.42973
# Poissons Ratio (y) = 0.17619 0.06417
# Poissons Ratio (z) = 0.22195 0.05152
#
# Static dielectric constant tensor:
#      x y z
#    x 1.760270 0.000000 0.000000 
#    y 0.000000 1.780640 0.000000 
#    z 0.000000 0.000000 1.770980 
# 
# From -- ./inp_files/14223.got.cif
#   From: 2010.05.17/outbox.cif.g08.bks.cpg/sg49_8_cif.got.tgz:14223.got - 2010.06.03 21:02:19.
