data_PCOD9394930
_publ_section_title
;
Structure prediction by ZEFSAII (Michael W. Deem and Ramdas Pophale) SiO2 
 PCOD9394930
Probable space group: P C C M
;
_chemical_formula_sum "Si O2"
_cell_formula_units_Z 24
_cell_length_a 4.681195
_cell_length_b 8.607560
_cell_length_c 22.461140
_cell_angle_alpha 90.000000
_cell_angle_beta 90.000000
_cell_angle_gamma 90.000000
_cell_volume 905.041692
_symmetry_space_group_name_H-M "P C C M"
_symmetry_group_IT_number 49
_symmetry_cell_setting 'orthorhombic'
loop_
_space_group_symop_operation_xyz
x,y,z
-x,-y,z
x,-y,1/2-z
-x,y,1/2-z
-x,-y,-z
x,y,-z
-x,y,1/2+z
x,-y,1/2+z
loop_
_atom_site_type_symbol
_atom_site_label
_atom_site_fract_x
_atom_site_fract_y
_atom_site_fract_z
Si Si1 0.713476 0.254378 0.412739
Si Si2 0.000000 0.000000 0.500000
Si Si3 0.000000 0.000000 0.250000
Si Si4 0.000000 0.500000 0.500000
Si Si5 0.500000 0.500000 0.750000
Si Si6 0.203572 0.253574 0.667544
O O1 0.811754 0.405003 0.449371
O O2 0.382622 0.244516 0.394537
O O3 0.828014 0.104745 0.448760
O O4 0.875006 0.267613 0.350624
O O5 0.798272 0.898495 0.292498
O O6 0.311663 0.393195 0.707090
#
# Coordination Sequence:
#
# PCOD9394930 Si02
#       6
#     8   2   2   2   2   8
#     4  11  26  46  73 108 148 196 255 324 397 476
#     4  10  26  44  72 106 148 194 254 320 396 472
#     4  12  30  52  80 116 164 220 274 338 408 490
#     4  10  24  48  76 108 148 194 252 324 404 468
#     4  12  28  48  76 112 152 204 268 330 396 478
#     4  12  28  49  75 110 153 204 264 326 398 474
#
# _framework density 26.518117
#
# number of rings (size 3 to 8) (size 9 to 14) (size 15 to 20)
#    0.000    0.667    0.000    5.000    0.000   25.333 
#    0.000    0.000    0.000    0.000    0.000    0.000 
#    0.000    0.000    0.000    0.000    0.000    0.000 
#
# Total GULP energy -133627.170577 kJ/mol
# GULP energy per Si atom -5567.798774 kJ/mol
# Density = 2.645776 g / cm^3
# Si number density = 26.518117 Si / 1000 Ang^3
#
#
#
# Elastic Constant Matrix: (Units=GPa)
#
#
# Indices 1 2 3 4 5 6 
#
# 1 86.5293 42.5907 13.5209 0.0000 0.0000 0.0000
# 2 42.5907 150.3673 50.8202 0.0000 0.0000 0.0000
# 3 13.5209 50.8202 108.5495 0.0000 0.0000 0.0000
# 4 0.0000 0.0000 0.0000 58.8922 0.0000 0.0000
# 5 0.0000 0.0000 0.0000 0.0000 -38.8613 0.0000
# 6 0.0000 0.0000 0.0000 0.0000 0.0000 39.5453
#
#
#
# Elastic Compliance Matrix: (Units=1/GPa)
#
#
# Indices 1 2 3 4 5 6 
#
# 1 0.013431 -0.003848 0.000128 0.000000 0.000000 0.000000
# 2 -0.003848 0.009003 -0.003736 0.000000 0.000000 0.000000
# 3 0.000128 -0.003736 0.010945 0.000000 0.000000 0.000000
# 4 0.000000 0.000000 0.000000 0.016980 0.000000 0.000000
# 5 0.000000 0.000000 0.000000 0.000000 -0.025733 0.000000
# 6 0.000000 0.000000 0.000000 0.000000 0.000000 0.025287
#
#
# Mechanical properties :
#
#
# Convention : Reuss Voigt Hill
#
# Bulk Modulus (GPa) = 54.14447 62.14554 58.14500
# Shear Modulus (GPa) = 70.44301 27.81620 49.12960
#
# Velocity S-wave (km/s) = 5.15963 3.24226 4.30895
# Velocity P-wave (km/s) = 7.48050 6.12392 6.83595
#
# Compressibility (1/GPa) = 0.01846911
#
# Stress axis : x y z
#
# Youngs Moduli (GPa) = 74.45735 111.07776 91.36338
#
# Poissons Ratio (x) = 0.42737 -0.01173
# Poissons Ratio (y) = 0.28648 0.34130
# Poissons Ratio (z) = -0.00956 0.41494
#
# Static dielectric constant tensor:
#      x y z
#    x 2.041420 0.000000 0.000000 
#    y 0.000000 2.090590 0.000000 
#    z 0.000000 0.000000 2.074010 
# 
# From -- ./inp_files/21497.got.cif
#   From: 2010.05.17/outbox.cif.g08.bks.cpg/sg49_11_cif.got.tgz:21497.got - 2010.06.03 21:02:19.
