data_PCOD9394129
_publ_section_title
;
Structure prediction by ZEFSAII (Michael W. Deem and Ramdas Pophale) SiO2 
 PCOD9394129
Probable space group: P C C M
;
_chemical_formula_sum "Si O2"
_cell_formula_units_Z 48
_cell_length_a 17.035733
_cell_length_b 8.548861
_cell_length_c 15.750805
_cell_angle_alpha 90.000000
_cell_angle_beta 90.000000
_cell_angle_gamma 90.000000
_cell_volume 2293.886024
_symmetry_space_group_name_H-M "P C C M"
_symmetry_group_IT_number 49
_symmetry_cell_setting 'orthorhombic'
loop_
_space_group_symop_operation_xyz
x,y,z
-x,-y,z
x,-y,1/2-z
-x,y,1/2-z
-x,-y,-z
x,y,-z
-x,y,1/2+z
x,-y,1/2+z
loop_
_atom_site_type_symbol
_atom_site_label
_atom_site_fract_x
_atom_site_fract_y
_atom_site_fract_z
Si Si1 0.159328 0.650162 0.853881
Si Si2 0.189649 0.279799 0.828978
Si Si3 0.880377 0.130012 0.500000
Si Si4 0.363741 0.817854 0.733732
Si Si5 0.059856 0.774732 0.000000
Si Si6 0.667119 0.329629 0.907249
Si Si7 0.430272 0.624674 0.406129
O O1 0.175942 0.464770 0.845147
O O2 0.146947 0.735320 0.763250
O O3 0.241257 0.707770 0.895148
O O4 0.089190 0.683832 0.917204
O O5 0.278482 0.230884 0.804518
O O6 0.162110 0.186338 0.912793
O O7 0.967091 0.204607 0.500000
O O8 0.896881 0.944081 0.500000
O O9 0.373814 0.738476 0.824920
O O10 0.425232 0.750530 0.666919
O O11 0.366957 0.000000 0.750000
O O12 0.647294 0.514187 0.904787
O O13 0.640613 0.273434 0.000000
O O14 0.500000 0.500000 0.395723
O O15 0.436539 0.694937 0.500000
#
# Coordination Sequence:
#
# PCOD9394129 Si02
#       7
#     8   8   4   8   4   8   8
#     4  10  20  39  66  89 121 172 225 273 320 404
#     4  10  23  39  62  96 128 167 221 283 330 393
#     4  11  27  41  59  97 133 170 212 284 356 406
#     4  11  24  38  63 102 135 171 219 276 341 401
#     4  11  25  43  63  89 129 178 220 264 356 423
#     4  10  20  37  62  92 124 172 221 266 315 393
#     4  10  22  42  68  97 134 179 222 269 329 396
#
# _framework density 20.925190000000001
#
# number of rings (size 3 to 8) (size 9 to 14) (size 15 to 20)
#    0.000    1.667    2.500    1.000    5.833    4.000 
#    0.000    5.000    0.000    3.000    0.000    0.000 
#    0.000    0.000    0.000    0.000    0.000    0.000 
#
# Total GULP energy -267909.323516 kJ/mol
# GULP energy per Si atom -5581.444240 kJ/mol
# Density = 2.087756 g / cm^3
# Si number density = 20.925190 Si / 1000 Ang^3
#
#
#
# Elastic Constant Matrix: (Units=GPa)
#
#
# Indices 1 2 3 4 5 6 
#
# 1 57.2891 8.3619 49.8444 0.0000 0.0000 0.0000
# 2 8.3619 69.6716 72.5968 0.0000 0.0000 0.0000
# 3 49.8444 72.5968 215.4999 0.0000 0.0000 0.0000
# 4 0.0000 0.0000 0.0000 -17.8710 0.0000 0.0000
# 5 0.0000 0.0000 0.0000 0.0000 20.9294 0.0000
# 6 0.0000 0.0000 0.0000 0.0000 0.0000 12.8678
#
#
#
# Elastic Compliance Matrix: (Units=1/GPa)
#
#
# Indices 1 2 3 4 5 6 
#
# 1 0.022630 0.004219 -0.006656 0.000000 0.000000 0.000000
# 2 0.004219 0.022903 -0.008691 0.000000 0.000000 0.000000
# 3 -0.006656 -0.008691 0.009108 0.000000 0.000000 0.000000
# 4 0.000000 0.000000 0.000000 -0.055957 0.000000 0.000000
# 5 0.000000 0.000000 0.000000 0.000000 0.047780 0.000000
# 6 0.000000 0.000000 0.000000 0.000000 0.000000 0.077713
#
#
# Mechanical properties :
#
#
# Convention : Reuss Voigt Hill
#
# Bulk Modulus (GPa) = 30.87849 67.11853 48.99851
# Shear Modulus (GPa) = 31.80101 17.29575 24.54838
#
# Velocity S-wave (km/s) = 3.90262 2.87810 3.42884
# Velocity P-wave (km/s) = 5.92418 6.57189 6.25642
#
# Compressibility (1/GPa) = 0.03238500
#
# Stress axis : x y z
#
# Youngs Moduli (GPa) = 44.18869 43.66269 109.79772
#
# Poissons Ratio (x) = -0.18421 0.73077
# Poissons Ratio (y) = -0.18643 0.95428
# Poissons Ratio (z) = 0.29410 0.37948
#
# Static dielectric constant tensor:
#      x y z
#    x 1.768390 0.000000 0.000000 
#    y 0.000000 1.738540 0.000000 
#    z 0.000000 0.000000 1.761390 
# 
# From -- ./inp_files/14060.got.cif
#   From: 2010.05.17/outbox.cif.g08.bks.cpg/sg49_8_cif.got.tgz:14060.got - 2010.06.03 21:02:19.
