data_PCOD9394738
_publ_section_title
;
Structure prediction by ZEFSAII (Michael W. Deem and Ramdas Pophale) SiO2 
 PCOD9394738
Probable space group: P C C M
;
_chemical_formula_sum "Si O2"
_cell_formula_units_Z 34
_cell_length_a 9.196617
_cell_length_b 19.658783
_cell_length_c 10.239331
_cell_angle_alpha 90.000000
_cell_angle_beta 90.000000
_cell_angle_gamma 90.000000
_cell_volume 1851.212659
_symmetry_space_group_name_H-M "P C C M"
_symmetry_group_IT_number 49
_symmetry_cell_setting 'orthorhombic'
loop_
_space_group_symop_operation_xyz
x,y,z
-x,-y,z
x,-y,1/2-z
-x,y,1/2-z
-x,-y,-z
x,y,-z
-x,y,1/2+z
x,-y,1/2+z
loop_
_atom_site_type_symbol
_atom_site_label
_atom_site_fract_x
_atom_site_fract_y
_atom_site_fract_z
Si Si1 0.838117 0.407671 0.500000
Si Si2 0.820534 0.570934 0.500000
Si Si3 0.635973 0.789933 0.345676
Si Si4 0.000000 0.000000 0.750000
Si Si5 0.677534 0.354844 0.241089
Si Si6 0.277953 0.055370 0.353747
O O1 0.821428 0.489347 0.500000
O O2 0.757603 0.376143 0.374086
O O3 0.013963 0.399636 0.500000
O O4 0.735649 0.596818 0.372976
O O5 0.500000 0.789233 0.250000
O O6 0.600981 0.782320 0.500000
O O7 0.720324 0.722271 0.301250
O O8 0.698303 0.865426 0.326871
O O9 0.105687 0.043658 0.660163
O O10 0.500000 0.358954 0.250000
O O11 0.329031 0.040157 0.500000
O O12 0.337276 0.000000 0.250000
#
# Coordination Sequence:
#
# PCOD9394738 Si02
#       6
#     4   4   8   2   8   8
#     4  11  25  41  65  93 128 167 204 259 323 376
#     4  11  23  45  63  91 132 163 206 261 317 380
#     4  10  22  40  60  85 122 157 198 257 307 366
#     4   8  18  36  56  80 118 152 192 254 290 360
#     4  11  23  41  64  94 125 166 213 260 309 374
#     4   9  19  36  56  83 115 152 196 243 298 355
#
# _framework density 18.366340000000001
#
# number of rings (size 3 to 8) (size 9 to 14) (size 15 to 20)
#    0.706    1.176    1.176    2.471    4.941    6.118 
#    4.235    2.353    0.000    0.000    0.000    0.000 
#    0.000    0.000    0.000    0.000    0.000    0.000 
#
# Total GULP energy -189300.934235 kJ/mol
# GULP energy per Si atom -5567.674536 kJ/mol
# Density = 1.832454 g / cm^3
# Si number density = 18.366340 Si / 1000 Ang^3
#
#
#
# Elastic Constant Matrix: (Units=GPa)
#
#
# Indices 1 2 3 4 5 6 
#
# 1 92.3896 46.7081 50.5615 0.0000 0.0000 0.0000
# 2 46.7081 138.6904 83.4670 0.0000 0.0000 0.0000
# 3 50.5615 83.4670 150.8712 0.0000 0.0000 0.0000
# 4 0.0000 0.0000 0.0000 50.8639 0.0000 0.0000
# 5 0.0000 0.0000 0.0000 0.0000 6.0562 0.0000
# 6 0.0000 0.0000 0.0000 0.0000 0.0000 33.7772
#
#
#
# Elastic Compliance Matrix: (Units=1/GPa)
#
#
# Indices 1 2 3 4 5 6 
#
# 1 0.013957 -0.002826 -0.003114 0.000000 0.000000 0.000000
# 2 -0.002826 0.011382 -0.005349 0.000000 0.000000 0.000000
# 3 -0.003114 -0.005349 0.010631 0.000000 0.000000 0.000000
# 4 0.000000 0.000000 0.000000 0.019660 0.000000 0.000000
# 5 0.000000 0.000000 0.000000 0.000000 0.165121 0.000000
# 6 0.000000 0.000000 0.000000 0.000000 0.000000 0.029606
#
#
# Mechanical properties :
#
#
# Convention : Reuss Voigt Hill
#
# Bulk Modulus (GPa) = 74.68075 82.60273 78.64174
# Shear Modulus (GPa) = 18.02458 31.55376 24.78917
#
# Velocity S-wave (km/s) = 3.13612 4.14940 3.67782
# Velocity P-wave (km/s) = 7.33919 8.24799 7.80682
#
# Compressibility (1/GPa) = 0.01339033
#
# Stress axis : x y z
#
# Youngs Moduli (GPa) = 71.65053 87.86082 94.06339
#
# Poissons Ratio (x) = 0.24834 0.29287
# Poissons Ratio (y) = 0.20252 0.50319
# Poissons Ratio (z) = 0.22309 0.47001
#
# Static dielectric constant tensor:
#      x y z
#    x 1.604570 0.000000 0.000000 
#    y 0.000000 1.679680 0.000000 
#    z 0.000000 0.000000 1.638760 
# 
# From -- ./inp_files/1562.got.cif
#   From: 2010.05.17/outbox.cif.g08.bks.cpg/sg49_1_cif.got.tgz:1562.got - 2010.06.03 21:02:19.
