data_PCOD9394493
_publ_section_title
;
Structure prediction by ZEFSAII (Michael W. Deem and Ramdas Pophale) SiO2 
 PCOD9394493
Probable space group: P C C M
;
_chemical_formula_sum "Si O2"
_cell_formula_units_Z 30
_cell_length_a 13.676925
_cell_length_b 10.384040
_cell_length_c 9.230251
_cell_angle_alpha 90.000000
_cell_angle_beta 90.000000
_cell_angle_gamma 90.000000
_cell_volume 1310.896273
_symmetry_space_group_name_H-M "P C C M"
_symmetry_group_IT_number 49
_symmetry_cell_setting 'orthorhombic'
loop_
_space_group_symop_operation_xyz
x,y,z
-x,-y,z
x,-y,1/2-z
-x,y,1/2-z
-x,-y,-z
x,y,-z
-x,y,1/2+z
x,-y,1/2+z
loop_
_atom_site_type_symbol
_atom_site_label
_atom_site_fract_x
_atom_site_fract_y
_atom_site_fract_z
Si Si1 0.265234 0.823741 0.500000
Si Si2 0.869345 0.422207 0.500000
Si Si3 0.500000 0.500000 0.750000
Si Si4 0.693044 0.000000 0.750000
Si Si5 0.359900 0.827564 0.000000
Si Si6 0.549905 0.327599 0.500000
Si Si7 0.000000 0.694472 0.750000
Si Si8 0.861349 0.729891 0.500000
O O1 0.216804 0.683332 0.500000
O O2 0.380950 0.794679 0.500000
O O3 0.245181 0.908336 0.642349
O O4 0.847793 0.573595 0.500000
O O5 0.933054 0.386911 0.640501
O O6 0.564349 0.412075 0.643727
O O7 0.628887 0.911881 0.644125
O O8 0.436762 0.713356 0.000000
O O9 0.246484 0.786538 0.000000
O O10 0.925532 0.765901 0.641118
#
# Coordination Sequence:
#
# PCOD9394493 Si02
#       8
#     4   4   2   4   4   4   4   4
#     4  11  24  42  66  93 125 175 211 263 316 361
#     4  11  21  37  64  95 124 162 202 259 325 382
#     4  10  24  38  60  88 148 156 192 258 306 394
#     4  10  24  43  64  89 128 164 232 267 290 367
#     4  11  24  42  66  93 125 175 211 263 316 361
#     4  11  24  43  62  98 132 173 207 252 312 384
#     4  10  21  38  60  93 128 157 208 258 309 386
#     4  11  21  37  64  95 124 162 202 259 325 382
#
# _framework density 22.885103999999998
#
# number of rings (size 3 to 8) (size 9 to 14) (size 15 to 20)
#    0.000    1.333    0.000    6.400    3.733    3.200 
#    0.000    0.000    0.000   56.000    0.000    0.000 
#    0.000    0.000    0.000    0.000    0.000    0.000 
#
# Total GULP energy -167764.795322 kJ/mol
# GULP energy per Si atom -5592.159844 kJ/mol
# Density = 2.283302 g / cm^3
# Si number density = 22.885104 Si / 1000 Ang^3
#
#
#
# Elastic Constant Matrix: (Units=GPa)
#
#
# Indices 1 2 3 4 5 6 
#
# 1 91.0805 31.8812 37.8660 0.0000 0.0000 0.0000
# 2 31.8812 69.6724 42.0568 0.0000 0.0000 0.0000
# 3 37.8660 42.0568 189.3608 0.0000 0.0000 0.0000
# 4 0.0000 0.0000 0.0000 23.3170 0.0000 0.0000
# 5 0.0000 0.0000 0.0000 0.0000 9.5018 0.0000
# 6 0.0000 0.0000 0.0000 0.0000 0.0000 13.9458
#
#
#
# Elastic Compliance Matrix: (Units=1/GPa)
#
#
# Indices 1 2 3 4 5 6 
#
# 1 0.013445 -0.005231 -0.001527 0.000000 0.000000 0.000000
# 2 -0.005231 0.018610 -0.003087 0.000000 0.000000 0.000000
# 3 -0.001527 -0.003087 0.006272 0.000000 0.000000 0.000000
# 4 0.000000 0.000000 0.000000 0.042887 0.000000 0.000000
# 5 0.000000 0.000000 0.000000 0.000000 0.105243 0.000000
# 6 0.000000 0.000000 0.000000 0.000000 0.000000 0.071706
#
#
# Mechanical properties :
#
#
# Convention : Reuss Voigt Hill
#
# Bulk Modulus (GPa) = 53.65566 63.74686 58.70126
# Shear Modulus (GPa) = 17.60158 25.24023 21.42091
#
# Velocity S-wave (km/s) = 2.77633 3.32461 3.06276
# Velocity P-wave (km/s) = 5.81153 6.53093 6.18170
#
# Compressibility (1/GPa) = 0.01863736
#
# Stress axis : x y z
#
# Youngs Moduli (GPa) = 74.37740 53.73477 159.44059
#
# Poissons Ratio (x) = 0.28106 0.24344
# Poissons Ratio (y) = 0.38904 0.49224
# Poissons Ratio (z) = 0.11356 0.16590
#
# Static dielectric constant tensor:
#      x y z
#    x 1.844190 0.000000 0.000000 
#    y 0.000000 1.848780 0.000000 
#    z 0.000000 0.000000 1.872090 
# 
# From -- ./inp_files/3272.got.cif
#   From: 2010.05.17/outbox.cif.g08.bks.cpg/sg49_2_cif.got.tgz:3272.got - 2010.06.03 21:02:19.
