data_PCOD9394461
_publ_section_title
;
Structure prediction by ZEFSAII (Michael W. Deem and Ramdas Pophale) SiO2 
 PCOD9394461
Probable space group: P C C M
;
_chemical_formula_sum "Si O2"
_cell_formula_units_Z 64
_cell_length_a 8.558218
_cell_length_b 25.155385
_cell_length_c 15.839049
_cell_angle_alpha 90.000000
_cell_angle_beta 90.000000
_cell_angle_gamma 90.000000
_cell_volume 3409.913920
_symmetry_space_group_name_H-M "P C C M"
_symmetry_group_IT_number 49
_symmetry_cell_setting 'orthorhombic'
loop_
_space_group_symop_operation_xyz
x,y,z
-x,-y,z
x,-y,1/2-z
-x,y,1/2-z
-x,-y,-z
x,y,-z
-x,y,1/2+z
x,-y,1/2+z
loop_
_atom_site_type_symbol
_atom_site_label
_atom_site_fract_x
_atom_site_fract_y
_atom_site_fract_z
Si Si1 0.308948 0.884272 0.597304
Si Si2 0.821521 0.998242 0.897470
Si Si3 0.184612 0.308250 0.259518
Si Si4 0.310325 0.810826 0.752060
Si Si5 0.383995 0.392299 0.829988
Si Si6 0.703356 0.615246 0.404513
Si Si7 0.315262 0.888457 0.902719
Si Si8 0.689800 0.503268 0.902757
O O1 0.254619 0.875210 0.500000
O O2 0.259673 0.840539 0.665841
O O3 0.497011 0.885496 0.595055
O O4 0.254694 0.942536 0.627409
O O5 0.734372 0.052462 0.874038
O O6 0.819520 0.997740 0.000000
O O7 0.000000 0.000000 0.868665
O O8 0.244168 0.248159 0.258717
O O9 0.276440 0.342080 0.188478
O O10 0.231692 0.339562 0.344470
O O11 0.000000 0.310085 0.250000
O O12 0.500000 0.808296 0.750000
O O13 0.261972 0.845650 0.833673
O O14 0.500000 0.401363 0.750000
O O15 0.513640 0.382526 0.901680
O O16 0.281096 0.444399 0.848293
O O17 0.756948 0.621321 0.500000
O O18 0.746982 0.555012 0.375517
O O19 0.259353 0.879880 0.000000
O O20 0.500000 0.500000 0.901376
O O21 0.737810 0.511378 0.000000
#
# Coordination Sequence:
#
# PCOD9394461 Si02
#       8
#     8   8   8   8   8   8   8   8
#     4   9  18  34  55  77 103 133 168 216 268 313
#     4   9  17  30  50  78 110 139 167 201 250 319
#     4  11  24  39  52  74 111 148 181 221 271 327
#     4  10  21  38  56  76 100 133 186 235 266 309
#     4   9  17  31  54  80 105 138 179 220 264 314
#     4   9  18  35  59  83 107 138 178 223 269 318
#     4   9  18  33  55  79 102 132 169 215 269 315
#     4   8  14  27  51  83 109 129 167 223 271 311
#
# _framework density 18.768802000000001
#
# number of rings (size 3 to 8) (size 9 to 14) (size 15 to 20)
#    0.000    2.750    0.000    2.625    0.000    9.250 
#    0.000    9.375    0.000    1.500    0.000    0.000 
#    0.000    0.000    0.000    0.000    0.000    0.000 
#
# Total GULP energy -356668.309676 kJ/mol
# GULP energy per Si atom -5572.942339 kJ/mol
# Density = 1.872608 g / cm^3
# Si number density = 18.768802 Si / 1000 Ang^3
#
#
#
# Elastic Constant Matrix: (Units=GPa)
#
#
# Indices 1 2 3 4 5 6 
#
# 1 24.1299 40.8056 22.7940 0.0000 0.0000 0.0000
# 2 40.8056 206.8703 82.6399 0.0000 0.0000 0.0000
# 3 22.7940 82.6399 81.9544 0.0000 0.0000 0.0000
# 4 0.0000 0.0000 0.0000 -59.6534 0.0000 0.0000
# 5 0.0000 0.0000 0.0000 0.0000 5.5726 0.0000
# 6 0.0000 0.0000 0.0000 0.0000 0.0000 -17.0780
#
#
#
# Elastic Compliance Matrix: (Units=1/GPa)
#
#
# Indices 1 2 3 4 5 6 
#
# 1 0.065705 -0.009478 -0.008717 0.000000 0.000000 0.000000
# 2 -0.009478 0.009462 -0.006905 0.000000 0.000000 0.000000
# 3 -0.008717 -0.006905 0.021589 0.000000 0.000000 0.000000
# 4 0.000000 0.000000 0.000000 -0.016764 0.000000 0.000000
# 5 0.000000 0.000000 0.000000 0.000000 0.179450 0.000000
# 6 0.000000 0.000000 0.000000 0.000000 0.000000 -0.058555
#
#
# Mechanical properties :
#
#
# Convention : Reuss Voigt Hill
#
# Bulk Modulus (GPa) = 21.47957 67.27039 44.37498
# Shear Modulus (GPa) = 18.75424 -3.11742 7.81841
#
# Velocity S-wave (km/s) = 3.16448 -1.29018 2.04320
# Velocity P-wave (km/s) = 4.98207 5.80517 5.40930
#
# Compressibility (1/GPa) = 0.04655586
#
# Stress axis : x y z
#
# Youngs Moduli (GPa) = 15.21946 105.68746 46.31995
#
# Poissons Ratio (x) = 1.00173 0.40378
# Poissons Ratio (y) = 0.14425 0.31983
# Poissons Ratio (z) = 0.13267 0.72975
#
# Static dielectric constant tensor:
#      x y z
#    x 1.636170 0.000000 0.000000 
#    y 0.000000 1.640910 0.000000 
#    z 0.000000 0.000000 1.702290 
# 
# From -- ./inp_files/16535.got.cif
#   From: 2010.05.17/outbox.cif.g08.bks.cpg/sg49_9_cif.got.tgz:16535.got - 2010.06.03 21:02:19.
