data_PCOD9394777
_publ_section_title
;
Structure prediction by ZEFSAII (Michael W. Deem and Ramdas Pophale) SiO2 
 PCOD9394777
Probable space group: P C C M
;
_chemical_formula_sum "Si O2"
_cell_formula_units_Z 40
_cell_length_a 15.604023
_cell_length_b 6.877714
_cell_length_c 14.782720
_cell_angle_alpha 90.000000
_cell_angle_beta 90.000000
_cell_angle_gamma 90.000000
_cell_volume 1586.481620
_symmetry_space_group_name_H-M "P C C M"
_symmetry_group_IT_number 49
_symmetry_cell_setting 'orthorhombic'
loop_
_space_group_symop_operation_xyz
x,y,z
-x,-y,z
x,-y,1/2-z
-x,y,1/2-z
-x,-y,-z
x,y,-z
-x,y,1/2+z
x,-y,1/2+z
loop_
_atom_site_type_symbol
_atom_site_label
_atom_site_fract_x
_atom_site_fract_y
_atom_site_fract_z
Si Si1 0.384501 0.315921 0.891395
Si Si2 0.566592 0.231357 0.109833
Si Si3 0.798047 0.420701 0.650990
Si Si4 0.748988 0.844161 0.396904
Si Si5 0.091362 0.928724 0.607714
O O1 0.411190 0.540752 0.874423
O O2 0.468822 0.199183 0.859183
O O3 0.289593 0.293789 0.852121
O O4 0.378130 0.291404 0.000000
O O5 0.653975 0.132073 0.143505
O O6 0.564362 0.205551 0.000000
O O7 0.814225 0.500000 0.750000
O O8 0.773490 0.616019 0.597543
O O9 0.878055 0.293080 0.619432
O O10 0.741733 0.918604 0.500000
O O11 0.830438 0.945402 0.352842
O O12 0.088843 0.967116 0.500000
O O13 0.000000 0.000000 0.643630
#
# Coordination Sequence:
#
# PCOD9394777 Si02
#       5
#     8   8   8   8   8
#     4   8  13  26  50  79 113 151 194 238 279 339
#     4   7  11  23  48  80 110 146 193 242 286 330
#     4  11  22  36  56  86 121 158 194 237 301 371
#     4   9  18  36  60  84 116 157 201 249 296 349
#     4  10  22  41  65  90 115 149 201 261 307 350
#
# _framework density 25.213024999999998
#
# number of rings (size 3 to 8) (size 9 to 14) (size 15 to 20)
#    0.000    3.000    0.000    4.200    0.000    1.600 
#    0.000   15.000    0.000    4.800    0.000   11.200 
#    0.000    0.000    0.000    0.000    0.000    0.400 
#
# Total GULP energy -223428.433165 kJ/mol
# GULP energy per Si atom -5585.710829 kJ/mol
# Density = 2.515564 g / cm^3
# Si number density = 25.213025 Si / 1000 Ang^3
#
#
#
# Elastic Constant Matrix: (Units=GPa)
#
#
# Indices 1 2 3 4 5 6 
#
# 1 247.0893 73.2025 16.0285 0.0000 0.0000 0.0000
# 2 73.2025 92.3171 -4.5540 0.0000 0.0000 0.0000
# 3 16.0285 -4.5540 43.3296 0.0000 0.0000 0.0000
# 4 0.0000 0.0000 0.0000 8.3230 0.0000 0.0000
# 5 0.0000 0.0000 0.0000 0.0000 -1.3909 0.0000
# 6 0.0000 0.0000 0.0000 0.0000 0.0000 35.9794
#
#
#
# Elastic Compliance Matrix: (Units=1/GPa)
#
#
# Indices 1 2 3 4 5 6 
#
# 1 0.005553 -0.004528 -0.002530 0.000000 0.000000 0.000000
# 2 -0.004528 0.014581 0.003207 0.000000 0.000000 0.000000
# 3 -0.002530 0.003207 0.024352 0.000000 0.000000 0.000000
# 4 0.000000 0.000000 0.000000 0.120149 0.000000 0.000000
# 5 0.000000 0.000000 0.000000 0.000000 -0.718939 0.000000
# 6 0.000000 0.000000 0.000000 0.000000 0.000000 0.027794
#
#
# Mechanical properties :
#
#
# Convention : Reuss Voigt Hill
#
# Bulk Modulus (GPa) = 27.18525 61.34334 44.26430
# Shear Modulus (GPa) = -9.87072 28.45287 9.29108
#
# Velocity S-wave (km/s) = -1.98076 3.36296 1.92173
# Velocity P-wave (km/s) = 2.36102 6.28189 4.74534
#
# Compressibility (1/GPa) = 0.03678465
#
# Stress axis : x y z
#
# Youngs Moduli (GPa) = 180.09536 68.58384 41.06458
#
# Poissons Ratio (x) = 0.31053 0.10389
# Poissons Ratio (y) = 0.81542 -0.13171
# Poissons Ratio (z) = 0.45562 -0.21997
#
# Static dielectric constant tensor:
#      x y z
#    x 2.004180 0.000000 0.000000 
#    y 0.000000 2.172000 0.000000 
#    z 0.000000 0.000000 1.964840 
# 
# From -- ./inp_files/17593.got.cif
#   From: 2010.05.17/outbox.cif.g08.bks.cpg/sg49_9_cif.got.tgz:17593.got - 2010.06.03 21:02:19.
