data_PCOD9394472
_publ_section_title
;
Structure prediction by ZEFSAII (Michael W. Deem and Ramdas Pophale) SiO2 
 PCOD9394472
Probable space group: P C C M
;
_chemical_formula_sum "Si O2"
_cell_formula_units_Z 56
_cell_length_a 7.802707
_cell_length_b 14.193228
_cell_length_c 21.579056
_cell_angle_alpha 90.000000
_cell_angle_beta 90.000000
_cell_angle_gamma 90.000000
_cell_volume 2389.785493
_symmetry_space_group_name_H-M "P C C M"
_symmetry_group_IT_number 49
_symmetry_cell_setting 'orthorhombic'
loop_
_space_group_symop_operation_xyz
x,y,z
-x,-y,z
x,-y,1/2-z
-x,y,1/2-z
-x,-y,-z
x,y,-z
-x,y,1/2+z
x,-y,1/2+z
loop_
_atom_site_type_symbol
_atom_site_label
_atom_site_fract_x
_atom_site_fract_y
_atom_site_fract_z
Si Si1 0.193283 0.278786 0.382439
Si Si2 0.208071 0.212492 0.751518
Si Si3 0.195484 0.654448 0.636347
Si Si4 0.713323 0.822429 0.068043
Si Si5 0.184150 0.045011 0.168443
Si Si6 0.670443 0.096601 0.068978
Si Si7 0.698757 0.476011 0.069606
O O1 0.266393 0.242019 0.316524
O O2 0.211715 0.188610 0.425954
O O3 0.286750 0.367982 0.410877
O O4 0.002198 0.316714 0.371398
O O5 0.253608 0.296859 0.799152
O O6 0.261807 0.107369 0.775043
O O7 0.000000 0.206158 0.750000
O O8 0.297333 0.712893 0.584195
O O9 0.218501 0.545321 0.620916
O O10 0.834983 0.871294 0.118092
O O11 0.525260 0.867863 0.072805
O O12 0.782327 0.835485 0.000000
O O13 0.287855 0.969107 0.127812
O O14 0.000000 0.000000 0.182632
O O15 0.694020 0.052833 0.000000
O O16 0.500000 0.500000 0.067645
O O17 0.772471 0.490160 0.000000
#
# Coordination Sequence:
#
# PCOD9394472 Si02
#       7
#     8   8   8   8   8   8   8
#     4  11  23  40  65  91 123 165 212 256 300 365
#     4   9  21  41  62  88 121 160 203 256 316 359
#     4  10  21  39  64  92 121 162 213 257 300 362
#     4  10  21  38  58  86 128 167 201 253 318 370
#     4  11  22  37  62  89 116 158 212 258 304 367
#     4  11  23  38  58  89 129 167 205 258 321 371
#     4  11  24  42  64  94 132 166 197 246 312 366
#
# _framework density 23.433066
#
# number of rings (size 3 to 8) (size 9 to 14) (size 15 to 20)
#    0.000    1.571    0.000    5.571    0.000   11.143 
#    0.000    9.286    0.000   12.000    0.000    0.000 
#    0.000    0.000    0.000    0.000    0.000    0.000 
#
# Total GULP energy -313022.035499 kJ/mol
# GULP energy per Si atom -5589.679205 kJ/mol
# Density = 2.337973 g / cm^3
# Si number density = 23.433066 Si / 1000 Ang^3
#
#
#
# Elastic Constant Matrix: (Units=GPa)
#
#
# Indices 1 2 3 4 5 6 
#
# 1 47.4367 13.6979 20.1559 0.0000 0.0000 0.0000
# 2 13.6979 116.9943 27.0806 0.0000 0.0000 0.0000
# 3 20.1559 27.0806 124.9966 0.0000 0.0000 0.0000
# 4 0.0000 0.0000 0.0000 28.5740 0.0000 0.0000
# 5 0.0000 0.0000 0.0000 0.0000 23.1861 0.0000
# 6 0.0000 0.0000 0.0000 0.0000 0.0000 43.5742
#
#
#
# Elastic Compliance Matrix: (Units=1/GPa)
#
#
# Indices 1 2 3 4 5 6 
#
# 1 0.023040 -0.001935 -0.003296 0.000000 0.000000 0.000000
# 2 -0.001935 0.009161 -0.001673 0.000000 0.000000 0.000000
# 3 -0.003296 -0.001673 0.008894 0.000000 0.000000 0.000000
# 4 0.000000 0.000000 0.000000 0.034997 0.000000 0.000000
# 5 0.000000 0.000000 0.000000 0.000000 0.043129 0.000000
# 6 0.000000 0.000000 0.000000 0.000000 0.000000 0.022949
#
#
# Mechanical properties :
#
#
# Convention : Reuss Voigt Hill
#
# Bulk Modulus (GPa) = 36.64593 45.69960 41.17277
# Shear Modulus (GPa) = 30.28949 34.29973 32.29461
#
# Velocity S-wave (km/s) = 3.59917 3.83003 3.71639
# Velocity P-wave (km/s) = 5.73973 6.25326 6.00199
#
# Compressibility (1/GPa) = 0.02728816
#
# Stress axis : x y z
#
# Youngs Moduli (GPa) = 43.40296 109.15671 112.43362
#
# Poissons Ratio (x) = 0.21118 0.37059
# Poissons Ratio (y) = 0.08397 0.18808
# Poissons Ratio (z) = 0.14306 0.18260
#
# Static dielectric constant tensor:
#      x y z
#    x 1.889080 0.000000 0.000000 
#    y 0.000000 1.915980 0.000000 
#    z 0.000000 0.000000 1.906220 
# 
# From -- ./inp_files/19896.got.cif
#   From: 2010.05.17/outbox.cif.g08.bks.cpg/sg49_10_cif.got.tgz:19896.got - 2010.06.03 21:02:19.
