data_PCOD9394381
_publ_section_title
;
Structure prediction by ZEFSAII (Michael W. Deem and Ramdas Pophale) SiO2 
 PCOD9394381
Probable space group: P C C M
;
_chemical_formula_sum "Si O2"
_cell_formula_units_Z 36
_cell_length_a 11.691347
_cell_length_b 18.256964
_cell_length_c 8.044020
_cell_angle_alpha 90.000000
_cell_angle_beta 90.000000
_cell_angle_gamma 90.000000
_cell_volume 1716.984013
_symmetry_space_group_name_H-M "P C C M"
_symmetry_group_IT_number 49
_symmetry_cell_setting 'orthorhombic'
loop_
_space_group_symop_operation_xyz
x,y,z
-x,-y,z
x,-y,1/2-z
-x,y,1/2-z
-x,-y,-z
x,y,-z
-x,y,1/2+z
x,-y,1/2+z
loop_
_atom_site_type_symbol
_atom_site_label
_atom_site_fract_x
_atom_site_fract_y
_atom_site_fract_z
Si Si1 0.127995 0.332984 0.305285
Si Si2 0.500000 0.292342 0.750000
Si Si3 0.655448 0.418252 0.197631
Si Si4 0.127543 0.915294 0.802828
Si Si5 0.708183 0.791576 0.189575
O O1 0.130137 0.313948 0.500000
O O2 0.210490 0.402372 0.280552
O O3 0.189287 0.266418 0.211689
O O4 0.000000 0.345471 0.250000
O O5 0.590361 0.356541 0.694293
O O6 0.399106 0.235417 0.698224
O O7 0.626994 0.500000 0.250000
O O8 0.629781 0.405657 0.000000
O O9 0.230933 0.868077 0.728202
O O10 0.000000 0.889044 0.750000
O O11 0.135768 0.000000 0.750000
O O12 0.133567 0.909612 0.000000
O O13 0.664120 0.789827 0.000000
#
# Coordination Sequence:
#
# PCOD9394381 Si02
#       5
#     8   4   8   8   8
#     4  10  21  37  56  82 115 150 192 239 292 350
#     4  10  23  40  61  84 112 150 196 242 285 340
#     4  10  22  38  57  82 111 146 189 239 292 347
#     4  11  22  39  63  92 125 157 193 234 282 338
#     4  11  22  38  61  87 117 154 195 239 289 341
#
# _framework density 20.966999000000001
#
# number of rings (size 3 to 8) (size 9 to 14) (size 15 to 20)
#    0.000    1.556    0.000    5.667    0.000    9.333 
#    0.000    2.778    0.000    2.667    0.000    0.000 
#    0.000    0.000    0.000    0.000    0.000    0.000 
#
# Total GULP energy -200409.311813 kJ/mol
# GULP energy per Si atom -5566.925328 kJ/mol
# Density = 2.091928 g / cm^3
# Si number density = 20.966999 Si / 1000 Ang^3
#
#
#
# Elastic Constant Matrix: (Units=GPa)
#
#
# Indices 1 2 3 4 5 6 
#
# 1 176.4699 56.8652 18.8083 0.0000 0.0000 0.0000
# 2 56.8652 104.8691 15.0774 0.0000 0.0000 0.0000
# 3 18.8083 15.0774 92.3572 0.0000 0.0000 0.0000
# 4 0.0000 0.0000 0.0000 -12.3932 0.0000 0.0000
# 5 0.0000 0.0000 0.0000 0.0000 5.2856 0.0000
# 6 0.0000 0.0000 0.0000 0.0000 0.0000 25.4766
#
#
#
# Elastic Compliance Matrix: (Units=1/GPa)
#
#
# Indices 1 2 3 4 5 6 
#
# 1 0.006926 -0.003638 -0.000817 0.000000 0.000000 0.000000
# 2 -0.003638 0.011676 -0.001165 0.000000 0.000000 0.000000
# 3 -0.000817 -0.001165 0.011184 0.000000 0.000000 0.000000
# 4 0.000000 0.000000 0.000000 -0.080689 0.000000 0.000000
# 5 0.000000 0.000000 0.000000 0.000000 0.189193 0.000000
# 6 0.000000 0.000000 0.000000 0.000000 0.000000 0.039252
#
#
# Mechanical properties :
#
#
# Convention : Reuss Voigt Hill
#
# Bulk Modulus (GPa) = 53.91943 61.68866 57.80405
# Shear Modulus (GPa) = 25.64584 22.53681 24.09132
#
# Velocity S-wave (km/s) = 3.50115 3.28208 3.39338
# Velocity P-wave (km/s) = 6.48970 6.62181 6.55609
#
# Compressibility (1/GPa) = 0.01854619
#
# Stress axis : x y z
#
# Youngs Moduli (GPa) = 144.38129 85.64520 89.41316
#
# Poissons Ratio (x) = 0.31160 0.07301
# Poissons Ratio (y) = 0.52530 0.10418
# Poissons Ratio (z) = 0.11789 0.09979
#
# Static dielectric constant tensor:
#      x y z
#    x 1.779060 0.000000 0.000000 
#    y 0.000000 1.642040 0.000000 
#    z 0.000000 0.000000 1.883380 
# 
# From -- ./inp_files/2683.got.cif
#   From: 2010.05.17/outbox.cif.g08.bks.cpg/sg49_2_cif.got.tgz:2683.got - 2010.06.03 21:02:19.
