data_PCOD9394311
_publ_section_title
;
Structure prediction by ZEFSAII (Michael W. Deem and Ramdas Pophale) SiO2 
 PCOD9394311
Probable space group: P C C M
;
_chemical_formula_sum "Si O2"
_cell_formula_units_Z 48
_cell_length_a 15.743127
_cell_length_b 9.713276
_cell_length_c 14.173981
_cell_angle_alpha 90.000000
_cell_angle_beta 90.000000
_cell_angle_gamma 90.000000
_cell_volume 2167.447438
_symmetry_space_group_name_H-M "P C C M"
_symmetry_group_IT_number 49
_symmetry_cell_setting 'orthorhombic'
loop_
_space_group_symop_operation_xyz
x,y,z
-x,-y,z
x,-y,1/2-z
-x,y,1/2-z
-x,-y,-z
x,y,-z
-x,y,1/2+z
x,-y,1/2+z
loop_
_atom_site_type_symbol
_atom_site_label
_atom_site_fract_x
_atom_site_fract_y
_atom_site_fract_z
Si Si1 0.263351 0.089556 0.615167
Si Si2 0.579516 0.093997 0.615182
Si Si3 0.080330 0.424010 0.650152
Si Si4 0.071656 0.891037 0.114448
Si Si5 0.725676 0.602894 0.391633
Si Si6 0.579744 0.405576 0.614970
O O1 0.265256 0.094491 0.500000
O O2 0.166026 0.057805 0.640043
O O3 0.283523 0.244260 0.650910
O O4 0.332940 0.978986 0.643682
O O5 0.579094 0.097832 0.500000
O O6 0.572748 0.249896 0.650062
O O7 0.500000 0.000000 0.642619
O O8 0.088458 0.500000 0.750000
O O9 0.060284 0.261810 0.655316
O O10 0.174651 0.433308 0.607809
O O11 0.000000 0.500000 0.603225
O O12 0.069065 0.874669 0.000000
O O13 0.000000 0.000000 0.140799
O O14 0.697651 0.619461 0.500000
O O15 0.665866 0.482345 0.354531
O O16 0.500000 0.500000 0.640934
O O17 0.579750 0.396246 0.500000
#
# Coordination Sequence:
#
# PCOD9394311 Si02
#       6
#     8   8   8   8   8   8
#     4   8  14  25  40  62  93 126 159 198 249 302
#     4   9  15  22  35  58  91 127 158 194 244 301
#     4  10  21  36  52  74 105 141 178 217 267 329
#     4   9  18  33  55  81 106 134 173 224 277 324
#     4   9  17  30  49  71  98 132 169 214 263 311
#     4   9  16  25  40  67 100 130 162 205 260 315
#
# _framework density 22.145865000000001
#
# number of rings (size 3 to 8) (size 9 to 14) (size 15 to 20)
#    0.000    3.000    0.000    2.500    0.000    6.667 
#    0.000    5.000    0.000    0.500    0.000    0.000 
#    0.000    5.333    0.000    0.000    0.000    0.000 
#
# Total GULP energy -268024.478397 kJ/mol
# GULP energy per Si atom -5583.843300 kJ/mol
# Density = 2.209546 g / cm^3
# Si number density = 22.145865 Si / 1000 Ang^3
#
#
#
# Elastic Constant Matrix: (Units=GPa)
#
#
# Indices 1 2 3 4 5 6 
#
# 1 191.7824 155.8759 -3.6178 0.0000 0.0000 0.0000
# 2 155.8759 223.4202 20.1099 0.0000 0.0000 0.0000
# 3 -3.6178 20.1099 75.9112 0.0000 0.0000 0.0000
# 4 0.0000 0.0000 0.0000 11.2954 0.0000 0.0000
# 5 0.0000 0.0000 0.0000 0.0000 -14.8742 0.0000
# 6 0.0000 0.0000 0.0000 0.0000 0.0000 45.3264
#
#
#
# Elastic Compliance Matrix: (Units=1/GPa)
#
#
# Indices 1 2 3 4 5 6 
#
# 1 0.012686 -0.009123 0.003021 0.000000 0.000000 0.000000
# 2 -0.009123 0.011145 -0.003387 0.000000 0.000000 0.000000
# 3 0.003021 -0.003387 0.014215 0.000000 0.000000 0.000000
# 4 0.000000 0.000000 0.000000 0.088532 0.000000 0.000000
# 5 0.000000 0.000000 0.000000 0.000000 -0.067231 0.000000
# 6 0.000000 0.000000 0.000000 0.000000 0.000000 0.022062
#
#
# Mechanical properties :
#
#
# Convention : Reuss Voigt Hill
#
# Bulk Modulus (GPa) = 52.44227 92.87221 72.65724
# Shear Modulus (GPa) = 46.84163 29.59924 38.22044
#
# Velocity S-wave (km/s) = 4.60406 3.65986 4.15884
# Velocity P-wave (km/s) = 7.21075 7.73868 7.47937
#
# Compressibility (1/GPa) = 0.01906859
#
# Stress axis : x y z
#
# Youngs Moduli (GPa) = 78.82768 89.72262 70.35005
#
# Poissons Ratio (x) = 0.81851 -0.21255
# Poissons Ratio (y) = 0.71912 0.23830
# Poissons Ratio (z) = -0.23816 0.30392
#
# Static dielectric constant tensor:
#      x y z
#    x 1.791870 0.000000 0.000000 
#    y 0.000000 1.763740 0.000000 
#    z 0.000000 0.000000 1.867560 
# 
# From -- ./inp_files/17746.got.cif
#   From: 2010.05.17/outbox.cif.g08.bks.cpg/sg49_9_cif.got.tgz:17746.got - 2010.06.03 21:02:19.
