data_PCOD9394541
_publ_section_title
;
Structure prediction by ZEFSAII (Michael W. Deem and Ramdas Pophale) SiO2 
 PCOD9394541
Probable space group: P C C M
;
_chemical_formula_sum "Si O2"
_cell_formula_units_Z 34
_cell_length_a 14.400691
_cell_length_b 6.933819
_cell_length_c 18.670154
_cell_angle_alpha 90.000000
_cell_angle_beta 90.000000
_cell_angle_gamma 90.000000
_cell_volume 1864.248201
_symmetry_space_group_name_H-M "P C C M"
_symmetry_group_IT_number 49
_symmetry_cell_setting 'orthorhombic'
loop_
_space_group_symop_operation_xyz
x,y,z
-x,-y,z
x,-y,1/2-z
-x,y,1/2-z
-x,-y,-z
x,y,-z
-x,y,1/2+z
x,-y,1/2+z
loop_
_atom_site_type_symbol
_atom_site_label
_atom_site_fract_x
_atom_site_fract_y
_atom_site_fract_z
Si Si1 0.242336 0.758007 0.080772
Si Si2 0.890965 0.467732 0.334604
Si Si3 0.589842 0.872515 0.680737
Si Si4 0.902500 0.101667 0.579726
Si Si5 0.500000 0.500000 0.750000
O O1 0.182936 0.600266 0.124366
O O2 0.332170 0.835625 0.122249
O O3 0.173379 0.937583 0.075445
O O4 0.264158 0.689524 0.000000
O O5 0.882249 0.500000 0.250000
O O6 0.874334 0.251160 0.359951
O O7 0.000000 0.500000 0.354511
O O8 0.559419 0.656022 0.704774
O O9 0.500000 0.000000 0.656306
O O10 0.622752 0.000000 0.750000
O O11 0.911716 0.194117 0.500000
O O12 0.000000 0.000000 0.596541
#
# Coordination Sequence:
#
# PCOD9394541 Si02
#       5
#     8   8   8   8   2
#     4  11  24  39  62  92 122 162 205 249 306 363
#     4  11  24  38  56  89 124 163 204 252 298 357
#     4   9  21  40  63  90 120 157 201 254 304 367
#     4  10  21  39  60  82 121 166 200 242 297 359
#     4   8  18  40  66  90 118 156 196 240 320 358
#
# _framework density 18.237914
#
# number of rings (size 3 to 8) (size 9 to 14) (size 15 to 20)
#    0.000    2.118    2.353    0.706    4.941    3.294 
#    0.000    0.588    0.000    0.000    0.000    0.000 
#    0.000    0.000    0.000    0.000    0.000    0.000 
#
# Total GULP energy -189455.752489 kJ/mol
# GULP energy per Si atom -5572.228014 kJ/mol
# Density = 1.819640 g / cm^3
# Si number density = 18.237914 Si / 1000 Ang^3
#
#
#
# Elastic Constant Matrix: (Units=GPa)
#
#
# Indices 1 2 3 4 5 6 
#
# 1 123.7972 39.3887 74.1875 0.0000 0.0000 0.0000
# 2 39.3887 103.1947 53.7955 0.0000 0.0000 0.0000
# 3 74.1875 53.7955 119.0565 0.0000 0.0000 0.0000
# 4 0.0000 0.0000 0.0000 24.1769 0.0000 0.0000
# 5 0.0000 0.0000 0.0000 0.0000 45.3778 0.0000
# 6 0.0000 0.0000 0.0000 0.0000 0.0000 19.5032
#
#
#
# Elastic Compliance Matrix: (Units=1/GPa)
#
#
# Indices 1 2 3 4 5 6 
#
# 1 0.012965 -0.000964 -0.007643 0.000000 0.000000 0.000000
# 2 -0.000964 0.012748 -0.005159 0.000000 0.000000 0.000000
# 3 -0.007643 -0.005159 0.015493 0.000000 0.000000 0.000000
# 4 0.000000 0.000000 0.000000 0.041362 0.000000 0.000000
# 5 0.000000 0.000000 0.000000 0.000000 0.022037 0.000000
# 6 0.000000 0.000000 0.000000 0.000000 0.000000 0.051274
#
#
# Mechanical properties :
#
#
# Convention : Reuss Voigt Hill
#
# Bulk Modulus (GPa) = 73.13799 75.64355 74.39077
# Shear Modulus (GPa) = 26.60009 29.72336 28.16172
#
# Velocity S-wave (km/s) = 3.82318 4.04140 3.93381
# Velocity P-wave (km/s) = 7.72516 7.95885 7.84288
#
# Compressibility (1/GPa) = 0.01367279
#
# Stress axis : x y z
#
# Youngs Moduli (GPa) = 77.13241 78.44352 64.54451
#
# Poissons Ratio (x) = 0.07564 0.49331
# Poissons Ratio (y) = 0.07437 0.33301
# Poissons Ratio (z) = 0.58952 0.40472
#
# Static dielectric constant tensor:
#      x y z
#    x 1.685470 0.000000 0.000000 
#    y 0.000000 1.641240 0.000000 
#    z 0.000000 0.000000 1.704230 
# 
# From -- ./inp_files/15157.got.cif
#   From: 2010.05.17/outbox.cif.g08.bks.cpg/sg49_8_cif.got.tgz:15157.got - 2010.06.03 21:02:19.
