data_PCOD9394382
_publ_section_title
;
Structure prediction by ZEFSAII (Michael W. Deem and Ramdas Pophale) SiO2 
 PCOD9394382
Probable space group: P C C M
;
_chemical_formula_sum "Si O2"
_cell_formula_units_Z 64
_cell_length_a 20.552851
_cell_length_b 9.469198
_cell_length_c 15.144886
_cell_angle_alpha 90.000000
_cell_angle_beta 90.000000
_cell_angle_gamma 90.000000
_cell_volume 2947.482804
_symmetry_space_group_name_H-M "P C C M"
_symmetry_group_IT_number 49
_symmetry_cell_setting 'orthorhombic'
loop_
_space_group_symop_operation_xyz
x,y,z
-x,-y,z
x,-y,1/2-z
-x,y,1/2-z
-x,-y,-z
x,y,-z
-x,y,1/2+z
x,-y,1/2+z
loop_
_atom_site_type_symbol
_atom_site_label
_atom_site_fract_x
_atom_site_fract_y
_atom_site_fract_z
Si Si1 0.058902 0.820268 0.102119
Si Si2 0.903364 0.864015 0.897149
Si Si3 0.250542 0.717664 0.096746
Si Si4 0.140319 0.332096 0.738356
Si Si5 0.406890 0.780721 0.599637
Si Si6 0.549675 0.807568 0.392682
Si Si7 0.374675 0.532620 0.146701
Si Si8 0.324240 0.980674 0.846050
O O1 0.081197 0.709538 0.174078
O O2 0.981236 0.837552 0.108374
O O3 0.097710 0.967168 0.121539
O O4 0.072583 0.783906 0.000000
O O5 0.867406 0.762384 0.827251
O O6 0.883522 0.841525 0.000000
O O7 0.203227 0.704674 0.179475
O O8 0.309625 0.606872 0.110016
O O9 0.280265 0.875513 0.098571
O O10 0.220873 0.692067 0.000000
O O11 0.140786 0.500000 0.750000
O O12 0.416927 0.825610 0.500000
O O13 0.476037 0.824377 0.641360
O O14 0.394554 0.615392 0.605255
O O15 0.342457 0.861948 0.627427
O O16 0.554599 0.828410 0.500000
O O17 0.569677 0.647225 0.371488
O O18 0.605010 0.902736 0.347282
O O19 0.366432 0.500000 0.250000
O O20 0.295123 0.000000 0.750000
#
# Coordination Sequence:
#
# PCOD9394382 Si02
#       8
#     8   8   8   8   8   8   8   8
#     4   9  19  40  68  99 135 177 213 251 310 373
#     4   9  20  40  68 100 137 174 211 256 310 372
#     4  11  25  47  64  77 114 169 212 256 317 374
#     4  12  25  39  62  96 131 169 219 268 316 374
#     4  11  21  35  60  90 113 143 196 251 298 367
#     4  10  21  37  56  83 122 158 183 226 309 396
#     4  11  22  38  59  83 114 152 197 248 306 374
#     4  11  23  38  60  86 115 148 191 251 315 373
#
# _framework density 21.713443000000002
#
# number of rings (size 3 to 8) (size 9 to 14) (size 15 to 20)
#    0.000    1.500    0.000    7.500    0.000    9.000 
#    0.000    1.250    0.000    3.000    0.000    0.000 
#    0.000    0.000    0.000    0.000    0.000    0.000 
#
# Total GULP energy -357400.538384 kJ/mol
# GULP energy per Si atom -5584.383412 kJ/mol
# Density = 2.166402 g / cm^3
# Si number density = 21.713443 Si / 1000 Ang^3
#
#
#
# Elastic Constant Matrix: (Units=GPa)
#
#
# Indices 1 2 3 4 5 6 
#
# 1 53.9623 19.3206 29.1670 0.0000 0.0000 0.0000
# 2 19.3206 93.7247 38.3067 0.0000 0.0000 0.0000
# 3 29.1670 38.3067 121.6558 0.0000 0.0000 0.0000
# 4 0.0000 0.0000 0.0000 41.2346 0.0000 0.0000
# 5 0.0000 0.0000 0.0000 0.0000 756.5576 0.0000
# 6 0.0000 0.0000 0.0000 0.0000 0.0000 21.6083
#
#
#
# Elastic Compliance Matrix: (Units=1/GPa)
#
#
# Indices 1 2 3 4 5 6 
#
# 1 0.021876 -0.002715 -0.004390 0.000000 0.000000 0.000000
# 2 -0.002715 0.012583 -0.003311 0.000000 0.000000 0.000000
# 3 -0.004390 -0.003311 0.010315 0.000000 0.000000 0.000000
# 4 0.000000 0.000000 0.000000 0.024251 0.000000 0.000000
# 5 0.000000 0.000000 0.000000 0.000000 0.001322 0.000000
# 6 0.000000 0.000000 0.000000 0.000000 0.000000 0.046279
#
#
# Mechanical properties :
#
#
# Convention : Reuss Voigt Hill
#
# Bulk Modulus (GPa) = 41.76859 49.21460 45.49159
# Shear Modulus (GPa) = 34.37874 176.04998 105.21436
#
# Velocity S-wave (km/s) = 3.98338 9.01414 6.96858
# Velocity P-wave (km/s) = 6.35881 11.44790 9.25983
#
# Compressibility (1/GPa) = 0.02394144
#
# Stress axis : x y z
#
# Youngs Moduli (GPa) = 45.71124 79.47511 96.94691
#
# Poissons Ratio (x) = 0.21581 0.42558
# Poissons Ratio (y) = 0.12413 0.32099
# Poissons Ratio (z) = 0.20067 0.26314
#
# Static dielectric constant tensor:
#      x y z
#    x 1.861820 0.000000 0.000000 
#    y 0.000000 1.861360 0.000000 
#    z 0.000000 0.000000 1.999530 
# 
# From -- ./inp_files/14510.got.cif
#   From: 2010.05.17/outbox.cif.g08.bks.cpg/sg49_8_cif.got.tgz:14510.got - 2010.06.03 21:02:19.
