data_PCOD9394259
_publ_section_title
;
Structure prediction by ZEFSAII (Michael W. Deem and Ramdas Pophale) SiO2 
 PCOD9394259
Probable space group: P C C M
;
_chemical_formula_sum "Si O2"
_cell_formula_units_Z 64
_cell_length_a 9.374484
_cell_length_b 12.067642
_cell_length_c 25.776860
_cell_angle_alpha 90.000000
_cell_angle_beta 90.000000
_cell_angle_gamma 90.000000
_cell_volume 2916.082475
_symmetry_space_group_name_H-M "P C C M"
_symmetry_group_IT_number 49
_symmetry_cell_setting 'orthorhombic'
loop_
_space_group_symop_operation_xyz
x,y,z
-x,-y,z
x,-y,1/2-z
-x,y,1/2-z
-x,-y,-z
x,y,-z
-x,y,1/2+z
x,-y,1/2+z
loop_
_atom_site_type_symbol
_atom_site_label
_atom_site_fract_x
_atom_site_fract_y
_atom_site_fract_z
Si Si1 0.305605 0.651544 0.058871
Si Si2 0.187905 0.122931 0.937028
Si Si3 0.426443 0.278053 0.884927
Si Si4 0.150634 0.198350 0.268934
Si Si5 0.120783 0.389295 0.653227
Si Si6 0.431875 0.119400 0.697359
Si Si7 0.197025 0.610500 0.317979
Si Si8 0.863688 0.121849 0.060861
O O1 0.469700 0.659067 0.075602
O O2 0.207845 0.590453 0.100905
O O3 0.243236 0.776689 0.062748
O O4 0.288317 0.612382 0.000000
O O5 0.307706 0.199566 0.911592
O O6 0.024059 0.150812 0.920794
O O7 0.199905 0.994031 0.919068
O O8 0.202352 0.132029 0.000000
O O9 0.527205 0.201781 0.848673
O O10 0.338186 0.362944 0.849706
O O11 0.146145 0.270675 0.321220
O O12 0.268719 0.110269 0.284804
O O13 0.185320 0.291800 0.224677
O O14 0.000000 0.151800 0.250000
O O15 0.182381 0.479742 0.694288
O O16 0.949827 0.387931 0.648131
O O17 0.500000 0.168155 0.750000
O O18 0.500000 0.000000 0.687224
O O19 0.887273 0.097926 0.000000
#
# Coordination Sequence:
#
# PCOD9394259 Si02
#       8
#     8   8   8   8   8   8   8   8
#     4  11  23  38  57  87 129 171 209 261 320 380
#     4   9  18  34  56  85 117 161 216 268 307 362
#     4  12  23  36  59  87 128 166 211 248 315 381
#     4  10  20  42  71  95 122 160 210 266 317 377
#     4  10  21  41  68  93 122 153 216 267 327 378
#     4  11  24  43  61  90 134 169 197 252 313 380
#     4  10  22  40  65  96 117 156 208 277 323 385
#     4   8  17  35  57  80 115 159 215 269 311 354
#
# _framework density 21.947253
#
# number of rings (size 3 to 8) (size 9 to 14) (size 15 to 20)
#    0.000    1.875    2.500    2.250    1.750    2.000 
#    0.000    6.875    0.000    0.000    0.000    0.000 
#    0.000    0.000    0.000    0.000    0.000    0.000 
#
# Total GULP energy -356818.426172 kJ/mol
# GULP energy per Si atom -5575.287909 kJ/mol
# Density = 2.189730 g / cm^3
# Si number density = 21.947253 Si / 1000 Ang^3
#
#
#
# Elastic Constant Matrix: (Units=GPa)
#
#
# Indices 1 2 3 4 5 6 
#
# 1 128.3146 23.1734 30.3604 0.0000 0.0000 0.0000
# 2 23.1734 43.4711 -0.9918 0.0000 0.0000 0.0000
# 3 30.3604 -0.9918 91.0796 0.0000 0.0000 0.0000
# 4 0.0000 0.0000 0.0000 22.3929 0.0000 0.0000
# 5 0.0000 0.0000 0.0000 0.0000 36.3961 0.0000
# 6 0.0000 0.0000 0.0000 0.0000 0.0000 17.5168
#
#
#
# Elastic Compliance Matrix: (Units=1/GPa)
#
#
# Indices 1 2 3 4 5 6 
#
# 1 0.009480 -0.005127 -0.003216 0.000000 0.000000 0.000000
# 2 -0.005127 0.025782 0.001990 0.000000 0.000000 0.000000
# 3 -0.003216 0.001990 0.012073 0.000000 0.000000 0.000000
# 4 0.000000 0.000000 0.000000 0.044657 0.000000 0.000000
# 5 0.000000 0.000000 0.000000 0.000000 0.027475 0.000000
# 6 0.000000 0.000000 0.000000 0.000000 0.000000 0.057088
#
#
# Mechanical properties :
#
#
# Convention : Reuss Voigt Hill
#
# Bulk Modulus (GPa) = 28.87738 40.88323 34.88031
# Shear Modulus (GPa) = 24.89973 29.28273 27.09123
#
# Velocity S-wave (km/s) = 3.37193 3.65668 3.51718
# Velocity P-wave (km/s) = 5.32410 6.04126 5.69398
#
# Compressibility (1/GPa) = 0.03462918
#
# Stress axis : x y z
#
# Youngs Moduli (GPa) = 105.48299 38.78633 82.82895
#
# Poissons Ratio (x) = 0.19886 0.26637
# Poissons Ratio (y) = 0.54081 -0.16481
# Poissons Ratio (z) = 0.33923 -0.07718
#
# Static dielectric constant tensor:
#      x y z
#    x 1.842250 0.000000 0.000000 
#    y 0.000000 1.865360 0.000000 
#    z 0.000000 0.000000 1.833400 
# 
# From -- ./inp_files/26434.got.cif
#   From: 2010.05.17/outbox.cif.g08.bks.cpg/sg49_14_cif.got.tgz:26434.got - 2010.06.03 21:02:19.
