data_PCOD9394329
_publ_section_title
;
Structure prediction by ZEFSAII (Michael W. Deem and Ramdas Pophale) SiO2 
 PCOD9394329
Probable space group: P C C M
;
_chemical_formula_sum "Si O2"
_cell_formula_units_Z 64
_cell_length_a 7.941748
_cell_length_b 22.947063
_cell_length_c 18.293714
_cell_angle_alpha 90.000000
_cell_angle_beta 90.000000
_cell_angle_gamma 90.000000
_cell_volume 3333.842629
_symmetry_space_group_name_H-M "P C C M"
_symmetry_group_IT_number 49
_symmetry_cell_setting 'orthorhombic'
loop_
_space_group_symop_operation_xyz
x,y,z
-x,-y,z
x,-y,1/2-z
-x,y,1/2-z
-x,-y,-z
x,y,-z
-x,y,1/2+z
x,-y,1/2+z
loop_
_atom_site_type_symbol
_atom_site_label
_atom_site_fract_x
_atom_site_fract_y
_atom_site_fract_z
Si Si1 0.300006 0.384780 0.417400
Si Si2 0.201472 0.741973 0.916413
Si Si3 0.300006 0.384780 0.082600
Si Si4 0.500000 0.069733 0.913838
Si Si5 0.200147 0.861310 0.162429
Si Si6 0.800138 0.500000 0.168765
Si Si7 0.799853 0.138690 0.662429
Si Si8 0.201472 0.258027 0.916413
O O1 0.228265 0.388099 0.500000
O O2 0.250503 0.321540 0.386832
O O3 0.500000 0.385674 0.422272
O O4 0.248081 0.441205 0.372846
O O5 0.248448 0.797015 0.867318
O O6 1.000000 0.742878 0.920768
O O7 0.268593 0.747503 0.000000
O O8 0.248081 0.441205 0.127154
O O9 0.250502 0.321540 0.113168
O O10 0.228265 0.388099 0.000000
O O11 0.668058 0.095345 0.875777
O O12 0.331942 0.095345 0.875777
O O13 0.500000 0.000000 0.907547
O O14 0.500000 0.085368 0.000000
O O15 0.216334 0.864073 0.250000
O O16 1.000000 0.871610 0.144793
O O17 0.725367 0.500000 0.250000
O O18 0.000000 0.500000 0.173956
O O19 0.751552 0.202985 0.632681
O O20 0.268593 0.252497 0.000000
#
# Coordination Sequence:
#
# PCOD9394329 Si02
#       8
#     8   8   8   8   8   8   8   8
#     4  10  21  36  56  83 112 144 186 236 289 347
#     4   9  18  34  57  85 116 152 194 239 289 348
#     4  10  21  36  56  83 112 144 186 236 289 347
#     4  11  25  43  65  93 125 164 211 258 301 355
#     4  10  22  40  63  93 129 166 204 251 308 368
#     4  11  24  39  54  74 104 145 192 241 292 348
#     4  10  22  40  63  93 129 166 204 251 308 368
#     4   9  18  34  57  85 116 152 194 239 289 348
#
# _framework density 19.197067000000001
#
# number of rings (size 3 to 8) (size 9 to 14) (size 15 to 20)
#    0.000    2.000    0.000    2.625    1.750    8.000 
#    0.000    5.000    0.000    0.000    0.000    0.000 
#    0.000    0.000    0.000    0.000    0.000    0.000 
#
# Total GULP energy -357171.877051 kJ/mol
# GULP energy per Si atom -5580.810579 kJ/mol
# Density = 1.915337 g / cm^3
# Si number density = 19.197067 Si / 1000 Ang^3
#
#
#
# Elastic Constant Matrix: (Units=GPa)
#
#
# Indices 1 2 3 4 5 6 
#
# 1 74.0129 60.1817 48.6435 0.0000 0.0000 0.0000
# 2 60.1817 152.9291 78.5723 0.0000 0.0000 0.0000
# 3 48.6435 78.5723 97.5421 0.0000 0.0000 0.0000
# 4 0.0000 0.0000 0.0000 -28.0522 0.0000 0.0000
# 5 0.0000 0.0000 0.0000 0.0000 23.2561 0.0000
# 6 0.0000 0.0000 0.0000 0.0000 0.0000 39.3018
#
#
#
# Elastic Compliance Matrix: (Units=1/GPa)
#
#
# Indices 1 2 3 4 5 6 
#
# 1 0.022304 -0.005225 -0.006914 0.000000 0.000000 0.000000
# 2 -0.005225 0.012380 -0.007367 0.000000 0.000000 0.000000
# 3 -0.006914 -0.007367 0.019634 0.000000 0.000000 0.000000
# 4 0.000000 0.000000 0.000000 -0.035648 0.000000 0.000000
# 5 0.000000 0.000000 0.000000 0.000000 0.042999 0.000000
# 6 0.000000 0.000000 0.000000 0.000000 0.000000 0.025444
#
#
# Mechanical properties :
#
#
# Convention : Reuss Voigt Hill
#
# Bulk Modulus (GPa) = 65.33145 77.69766 71.51456
# Shear Modulus (GPa) = 38.10203 16.04026 27.07114
#
# Velocity S-wave (km/s) = 4.45992 2.89374 3.75930
# Velocity P-wave (km/s) = 7.78634 7.19212 7.49512
#
# Compressibility (1/GPa) = 0.01530656
#
# Stress axis : x y z
#
# Youngs Moduli (GPa) = 44.83579 80.77542 50.93203
#
# Poissons Ratio (x) = 0.42204 0.35214
# Poissons Ratio (y) = 0.23426 0.37521
# Poissons Ratio (z) = 0.30999 0.59506
#
# Static dielectric constant tensor:
#      x y z
#    x 1.669240 0.000000 0.000000 
#    y 0.000000 1.822310 0.000000 
#    z 0.000000 0.000000 1.702780 
# 
# From -- ./inp_files/16578.got.cif
#   From: 2010.05.17/outbox.cif.g08.bks.cpg/sg49_9_cif.got.tgz:16578.got - 2010.06.03 21:02:19.
