data_PCOD9394575
_publ_section_title
;
Structure prediction by ZEFSAII (Michael W. Deem and Ramdas Pophale) SiO2 
 PCOD9394575
Probable space group: P C C M
;
_chemical_formula_sum "Si O2"
_cell_formula_units_Z 28
_cell_length_a 5.703340
_cell_length_b 11.391386
_cell_length_c 21.451153
_cell_angle_alpha 90.000000
_cell_angle_beta 90.000000
_cell_angle_gamma 90.000000
_cell_volume 1393.658832
_symmetry_space_group_name_H-M "P C C M"
_symmetry_group_IT_number 49
_symmetry_cell_setting 'orthorhombic'
loop_
_space_group_symop_operation_xyz
x,y,z
-x,-y,z
x,-y,1/2-z
-x,y,1/2-z
-x,-y,-z
x,y,-z
-x,y,1/2+z
x,-y,1/2+z
loop_
_atom_site_type_symbol
_atom_site_label
_atom_site_fract_x
_atom_site_fract_y
_atom_site_fract_z
Si Si1 0.755967 0.545158 0.821092
Si Si2 0.369276 0.126225 0.430729
Si Si3 0.652691 0.810395 0.187422
Si Si4 0.000000 0.000000 0.857948
O O1 0.500000 0.500000 0.846735
O O2 0.753478 0.500000 0.750000
O O3 0.778087 0.685403 0.814792
O O4 0.000000 0.500000 0.851182
O O5 0.369254 0.177846 0.500000
O O6 0.496027 0.192453 0.375011
O O7 0.500000 0.000000 0.434429
O O8 0.115743 0.094833 0.403990
O O9 0.500000 0.817365 0.250000
O O10 0.815401 0.925477 0.181964
#
# Coordination Sequence:
#
# PCOD9394575 Si02
#       4
#     8   8   8   4
#     4  10  21  39  63  90 121 172 220 264 314 387
#     4   9  20  38  59  87 126 172 214 253 317 397
#     4  11  23  39  62  96 129 162 211 273 329 390
#     4  10  23  37  60  90 131 167 208 264 333 393
#
# _framework density 20.091000999999999
#
# number of rings (size 3 to 8) (size 9 to 14) (size 15 to 20)
#    0.000    2.000    2.857    0.429    4.000    8.571 
#    0.000    0.000    0.000    1.714    0.000    0.000 
#    0.000    0.000    0.000    0.000    0.000    0.000 
#
# Total GULP energy -156073.938290 kJ/mol
# GULP energy per Si atom -5574.069225 kJ/mol
# Density = 2.004527 g / cm^3
# Si number density = 20.091001 Si / 1000 Ang^3
#
#
#
# Elastic Constant Matrix: (Units=GPa)
#
#
# Indices 1 2 3 4 5 6 
#
# 1 118.0796 24.6582 42.3635 0.0000 0.0000 0.0000
# 2 24.6582 71.3399 52.6737 0.0000 0.0000 0.0000
# 3 42.3635 52.6737 130.6560 0.0000 0.0000 0.0000
# 4 0.0000 0.0000 0.0000 -37.5539 0.0000 0.0000
# 5 0.0000 0.0000 0.0000 0.0000 23.4177 0.0000
# 6 0.0000 0.0000 0.0000 0.0000 0.0000 52.7727
#
#
#
# Elastic Compliance Matrix: (Units=1/GPa)
#
#
# Indices 1 2 3 4 5 6 
#
# 1 0.009690 -0.001466 -0.002551 0.000000 0.000000 0.000000
# 2 -0.001466 0.020180 -0.007660 0.000000 0.000000 0.000000
# 3 -0.002551 -0.007660 0.011569 0.000000 0.000000 0.000000
# 4 0.000000 0.000000 0.000000 -0.026628 0.000000 0.000000
# 5 0.000000 0.000000 0.000000 0.000000 0.042703 0.000000
# 6 0.000000 0.000000 0.000000 0.000000 0.000000 0.018949
#
#
# Mechanical properties :
#
#
# Convention : Reuss Voigt Hill
#
# Bulk Modulus (GPa) = 55.29421 62.16293 58.72857
# Shear Modulus (GPa) = 47.23880 21.08598 34.16239
#
# Velocity S-wave (km/s) = 4.85422 3.24315 4.12804
# Velocity P-wave (km/s) = 7.68112 6.71058 7.21219
#
# Compressibility (1/GPa) = 0.01808508
#
# Stress axis : x y z
#
# Youngs Moduli (GPa) = 103.19727 49.55406 86.43785
#
# Poissons Ratio (x) = 0.07264 0.22050
# Poissons Ratio (y) = 0.15127 0.66213
# Poissons Ratio (z) = 0.26325 0.37960
#
# Static dielectric constant tensor:
#      x y z
#    x 1.822040 0.000000 0.000000 
#    y 0.000000 1.506660 0.000000 
#    z 0.000000 0.000000 1.682450 
# 
# From -- ./inp_files/18648.got.cif
#   From: 2010.05.17/outbox.cif.g08.bks.cpg/sg49_10_cif.got.tgz:18648.got - 2010.06.03 21:02:19.
