data_PCOD9394258
_publ_section_title
;
Structure prediction by ZEFSAII (Michael W. Deem and Ramdas Pophale) SiO2 
 PCOD9394258
Probable space group: P C C M
;
_chemical_formula_sum "Si O2"
_cell_formula_units_Z 48
_cell_length_a 15.018808
_cell_length_b 8.987793
_cell_length_c 15.772428
_cell_angle_alpha 90.000000
_cell_angle_beta 90.000000
_cell_angle_gamma 90.000000
_cell_volume 2129.055979
_symmetry_space_group_name_H-M "P C C M"
_symmetry_group_IT_number 49
_symmetry_cell_setting 'orthorhombic'
loop_
_space_group_symop_operation_xyz
x,y,z
-x,-y,z
x,-y,1/2-z
-x,y,1/2-z
-x,-y,-z
x,y,-z
-x,y,1/2+z
x,-y,1/2+z
loop_
_atom_site_type_symbol
_atom_site_label
_atom_site_fract_x
_atom_site_fract_y
_atom_site_fract_z
Si Si1 0.106150 0.319876 0.346300
Si Si2 0.582540 0.588065 0.163149
Si Si3 0.725852 0.879959 0.602449
Si Si4 0.907325 0.333426 0.357894
Si Si5 0.273372 0.786033 0.595135
Si Si6 0.529355 0.829528 0.401362
O O1 0.188140 0.214997 0.371409
O O2 0.110064 0.491886 0.376253
O O3 0.103589 0.320412 0.243924
O O4 0.006880 0.277422 0.377463
O O5 0.500000 0.500000 0.117118
O O6 0.593874 0.500000 0.250000
O O7 0.678927 0.636804 0.129835
O O8 0.537214 0.748812 0.161597
O O9 0.728153 0.889392 0.500000
O O10 0.631668 0.804380 0.624818
O O11 0.718063 0.049939 0.636067
O O12 0.831284 0.242156 0.403010
O O13 0.309593 0.800102 0.500000
O O14 0.520357 0.780098 0.500000
O O15 0.500000 0.000000 0.401448
#
# Coordination Sequence:
#
# PCOD9394258 Si02
#       6
#     8   8   8   8   8   8
#     4   9  20  41  65  92 131 174 225 268 323 399
#     4  11  26  43  63  95 131 171 219 275 337 409
#     4  10  22  39  66  98 129 174 221 270 331 395
#     4   9  21  40  64  93 130 178 216 269 333 392
#     4  11  24  42  65  97 131 169 219 274 335 399
#     4  10  20  42  70  94 130 178 223 272 337 411
#
# _framework density 22.545203000000001
#
# number of rings (size 3 to 8) (size 9 to 14) (size 15 to 20)
#    0.000    2.000    1.667    1.500    4.667    5.333 
#    0.000    6.667    0.000    0.000    0.000    0.000 
#    0.000    0.000    0.000    0.000    0.000    0.000 
#
# Total GULP energy -267580.306278 kJ/mol
# GULP energy per Si atom -5574.589714 kJ/mol
# Density = 2.249389 g / cm^3
# Si number density = 22.545203 Si / 1000 Ang^3
#
#
#
# Elastic Constant Matrix: (Units=GPa)
#
#
# Indices 1 2 3 4 5 6 
#
# 1 171.6527 36.0614 15.5553 0.0000 0.0000 0.0000
# 2 36.0614 63.5196 30.5264 0.0000 0.0000 0.0000
# 3 15.5553 30.5264 38.6773 0.0000 0.0000 0.0000
# 4 0.0000 0.0000 0.0000 39.8088 0.0000 0.0000
# 5 0.0000 0.0000 0.0000 0.0000 38.0023 0.0000
# 6 0.0000 0.0000 0.0000 0.0000 0.0000 44.7843
#
#
#
# Elastic Compliance Matrix: (Units=1/GPa)
#
#
# Indices 1 2 3 4 5 6 
#
# 1 0.006620 -0.003994 0.000490 0.000000 0.000000 0.000000
# 2 -0.003994 0.027773 -0.020314 0.000000 0.000000 0.000000
# 3 0.000490 -0.020314 0.041691 0.000000 0.000000 0.000000
# 4 0.000000 0.000000 0.000000 0.025120 0.000000 0.000000
# 5 0.000000 0.000000 0.000000 0.000000 0.026314 0.000000
# 6 0.000000 0.000000 0.000000 0.000000 0.000000 0.022329
#
#
# Mechanical properties :
#
#
# Convention : Reuss Voigt Hill
#
# Bulk Modulus (GPa) = 35.15171 48.68176 41.91673
# Shear Modulus (GPa) = 24.15848 37.29952 30.72900
#
# Velocity S-wave (km/s) = 3.27702 4.07188 3.69588
# Velocity P-wave (km/s) = 5.47211 6.61414 6.07004
#
# Compressibility (1/GPa) = 0.02844812
#
# Stress axis : x y z
#
# Youngs Moduli (GPa) = 151.04856 36.00619 23.98606
#
# Poissons Ratio (x) = 0.14380 -0.01174
# Poissons Ratio (y) = 0.60326 0.48725
# Poissons Ratio (z) = -0.07395 0.73142
#
# Static dielectric constant tensor:
#      x y z
#    x 1.896970 0.000000 0.000000 
#    y 0.000000 1.886420 0.000000 
#    z 0.000000 0.000000 1.912450 
# 
# From -- ./inp_files/17732.got.cif
#   From: 2010.05.17/outbox.cif.g08.bks.cpg/sg49_9_cif.got.tgz:17732.got - 2010.06.03 21:02:19.
