data_PCOD9394060
_publ_section_title
;
Structure prediction by ZEFSAII (Michael W. Deem and Ramdas Pophale) SiO2 
 PCOD9394060
Probable space group: P C C M
;
_chemical_formula_sum "Si O2"
_cell_formula_units_Z 64
_cell_length_a 15.004838
_cell_length_b 25.913519
_cell_length_c 8.570695
_cell_angle_alpha 90.000000
_cell_angle_beta 90.000000
_cell_angle_gamma 90.000000
_cell_volume 3332.527521
_symmetry_space_group_name_H-M "P C C M"
_symmetry_group_IT_number 49
_symmetry_cell_setting 'orthorhombic'
loop_
_space_group_symop_operation_xyz
x,y,z
-x,-y,z
x,-y,1/2-z
-x,y,1/2-z
-x,-y,-z
x,y,-z
-x,y,1/2+z
x,-y,1/2+z
loop_
_atom_site_type_symbol
_atom_site_label
_atom_site_fract_x
_atom_site_fract_y
_atom_site_fract_z
Si Si1 0.905265 0.402315 0.312237
Si Si2 0.285103 0.753807 0.690350
Si Si3 0.284378 0.555503 0.688471
Si Si4 0.905479 0.718635 0.812151
Si Si5 0.287211 0.058194 0.687038
Si Si6 0.399805 0.654013 0.688632
Si Si7 0.909325 0.058744 0.186280
Si Si8 0.598711 0.149214 0.686904
O O1 0.907280 0.403955 0.500000
O O2 0.816849 0.431909 0.258742
O O3 0.896600 0.341871 0.266146
O O4 0.000000 0.421861 0.250000
O O5 0.283789 0.753826 0.500000
O O6 0.182915 0.748096 0.742413
O O7 0.341711 0.703548 0.738114
O O8 0.335567 0.805162 0.741721
O O9 0.312662 0.500000 0.750000
O O10 0.283968 0.555038 0.500000
O O11 0.349083 0.601907 0.738660
O O12 0.000000 0.738058 0.750000
O O13 0.907520 0.720015 0.000000
O O14 0.291953 0.056905 0.500000
O O15 0.188185 0.079391 0.731737
O O16 0.361904 0.095274 0.754635
O O17 0.295293 0.000000 0.750000
O O18 0.500000 0.656638 0.750000
O O19 0.401867 0.654275 0.500000
O O20 0.000000 0.083870 0.250000
O O21 0.908508 0.000000 0.250000
O O22 0.914920 0.057174 0.000000
O O23 0.500000 0.158088 0.750000
O O24 0.596547 0.149579 0.500000
#
# Coordination Sequence:
#
# PCOD9394060 Si02
#       8
#     8   8   8   8   8   8   8   8
#     4   9  17  31  52  76 104 140 178 219 266 321
#     4   9  18  36  61  83 109 144 180 220 272 331
#     4  10  21  36  53  74 106 144 180 223 274 327
#     4   9  16  31  55  82 110 142 179 218 265 322
#     4  10  21  38  59  85 117 153 192 233 276 328
#     4  10  20  37  58  79 103 137 180 226 276 328
#     4   9  16  27  48  77 109 144 182 224 266 312
#     4  11  23  39  60  85 112 145 184 231 284 335
#
# _framework density 19.204642
#
# number of rings (size 3 to 8) (size 9 to 14) (size 15 to 20)
#    0.000    2.375    1.250    1.875    0.000    3.250 
#    0.000    6.875    0.000    3.000    0.000    0.000 
#    0.000    0.000    0.000    0.000    0.000    0.000 
#
# Total GULP energy -357092.747525 kJ/mol
# GULP energy per Si atom -5579.574180 kJ/mol
# Density = 1.916093 g / cm^3
# Si number density = 19.204642 Si / 1000 Ang^3
#
#
#
# Elastic Constant Matrix: (Units=GPa)
#
#
# Indices 1 2 3 4 5 6 
#
# 1 147.1303 65.1104 20.9246 0.0000 0.0000 0.0000
# 2 65.1104 93.9827 16.1106 0.0000 0.0000 0.0000
# 3 20.9246 16.1106 20.4449 0.0000 0.0000 0.0000
# 4 0.0000 0.0000 0.0000 18.6571 0.0000 0.0000
# 5 0.0000 0.0000 0.0000 0.0000 34.4020 0.0000
# 6 0.0000 0.0000 0.0000 0.0000 0.0000 13.5307
#
#
#
# Elastic Compliance Matrix: (Units=1/GPa)
#
#
# Indices 1 2 3 4 5 6 
#
# 1 0.010349 -0.006190 -0.005714 0.000000 0.000000 0.000000
# 2 -0.006190 0.016004 -0.006276 0.000000 0.000000 0.000000
# 3 -0.005714 -0.006276 0.059706 0.000000 0.000000 0.000000
# 4 0.000000 0.000000 0.000000 0.053599 0.000000 0.000000
# 5 0.000000 0.000000 0.000000 0.000000 0.029068 0.000000
# 6 0.000000 0.000000 0.000000 0.000000 0.000000 0.073906
#
#
# Mechanical properties :
#
#
# Convention : Reuss Voigt Hill
#
# Bulk Modulus (GPa) = 20.12128 51.76100 35.94114
# Shear Modulus (GPa) = 16.91715 23.94545 20.43130
#
# Velocity S-wave (km/s) = 2.97120 3.53492 3.26525
# Velocity P-wave (km/s) = 4.71919 6.60846 5.74206
#
# Compressibility (1/GPa) = 0.04969862
#
# Stress axis : x y z
#
# Youngs Moduli (GPa) = 96.63185 62.48244 16.74885
#
# Poissons Ratio (x) = 0.38676 0.09570
# Poissons Ratio (y) = 0.59815 0.10512
# Poissons Ratio (z) = 0.55212 0.39216
#
# Static dielectric constant tensor:
#      x y z
#    x 1.682680 0.000000 0.000000 
#    y 0.000000 1.657490 0.000000 
#    z 0.000000 0.000000 1.658740 
# 
# From -- ./inp_files/4369.got.cif
#   From: 2010.05.17/outbox.cif.g08.bks.cpg/sg49_3_cif.got.tgz:4369.got - 2010.06.03 21:02:19.
