data_PCOD9394463
_publ_section_title
;
Structure prediction by ZEFSAII (Michael W. Deem and Ramdas Pophale) SiO2 
 PCOD9394463
Probable space group: P C C M
;
_chemical_formula_sum "Si O2"
_cell_formula_units_Z 58
_cell_length_a 25.936979
_cell_length_b 14.875962
_cell_length_c 8.887941
_cell_angle_alpha 90.000000
_cell_angle_beta 90.000000
_cell_angle_gamma 90.000000
_cell_volume 3429.301060
_symmetry_space_group_name_H-M "P C C M"
_symmetry_group_IT_number 49
_symmetry_cell_setting 'orthorhombic'
loop_
_space_group_symop_operation_xyz
x,y,z
-x,-y,z
x,-y,1/2-z
-x,y,1/2-z
-x,-y,-z
x,y,-z
-x,y,1/2+z
x,-y,1/2+z
loop_
_atom_site_type_symbol
_atom_site_label
_atom_site_fract_x
_atom_site_fract_y
_atom_site_fract_z
Si Si1 0.190914 0.592117 0.321265
Si Si2 0.665895 0.099416 0.319668
Si Si3 0.000000 0.500000 0.750000
Si Si4 0.844540 0.909669 0.322069
Si Si5 0.448822 0.899741 0.319767
Si Si6 0.082463 0.647469 0.828418
Si Si7 0.053696 0.834771 0.679260
Si Si8 0.236488 0.781228 0.320763
O O1 0.210392 0.500000 0.250000
O O2 0.182138 0.582266 0.500000
O O3 0.135990 0.613976 0.243107
O O4 0.229821 0.675066 0.297633
O O5 0.667436 0.087896 0.500000
O O6 0.608403 0.135408 0.282278
O O7 0.710197 0.170284 0.278510
O O8 0.673697 0.000000 0.250000
O O9 0.039764 0.568485 0.830008
O O10 0.848792 0.918026 0.500000
O O11 0.899558 0.891410 0.246887
O O12 0.808259 0.828140 0.273958
O O13 0.821769 0.000000 0.250000
O O14 0.500000 0.855213 0.250000
O O15 0.454301 0.904287 0.500000
O O16 0.447501 0.000000 0.250000
O O17 0.062890 0.731590 0.730990
O O18 0.090949 0.678029 0.000000
O O19 0.052906 0.840010 0.500000
O O20 0.000000 0.864999 0.750000
O O21 0.227557 0.797590 0.500000
#
# Coordination Sequence:
#
# PCOD9394463 Si02
#       8
#     8   8   2   8   8   8   8   8
#     4  11  23  38  58  79 106 136 171 213 262 318
#     4   9  18  31  48  73 105 143 184 223 263 309
#     4  12  26  36  60  82 112 132 166 204 260 316
#     4  12  25  41  61  83 107 137 174 215 261 313
#     4   9  15  24  40  64  98 139 181 220 260 305
#     4  12  24  38  57  81 107 133 165 203 254 314
#     4  12  25  42  61  81 106 133 166 206 255 310
#     4  10  21  38  57  78 107 141 177 219 266 314
#
# _framework density 16.913067999999999
#
# number of rings (size 3 to 8) (size 9 to 14) (size 15 to 20)
#    0.000    1.241    2.759    4.759    0.000    4.138 
#    0.000    1.379    0.000    0.000    0.000    0.000 
#    0.000    0.552    0.000    6.897    0.000    0.000 
#
# Total GULP energy -323834.450457 kJ/mol
# GULP energy per Si atom -5583.352594 kJ/mol
# Density = 1.687457 g / cm^3
# Si number density = 16.913068 Si / 1000 Ang^3
#
#
#
# Elastic Constant Matrix: (Units=GPa)
#
#
# Indices 1 2 3 4 5 6 
#
# 1 116.4665 34.1795 48.2945 0.0000 0.0000 0.0000
# 2 34.1795 68.7770 35.5252 0.0000 0.0000 0.0000
# 3 48.2945 35.5252 108.7198 0.0000 0.0000 0.0000
# 4 0.0000 0.0000 0.0000 21.2910 0.0000 0.0000
# 5 0.0000 0.0000 0.0000 0.0000 3.4883 0.0000
# 6 0.0000 0.0000 0.0000 0.0000 0.0000 2.2228
#
#
#
# Elastic Compliance Matrix: (Units=1/GPa)
#
#
# Indices 1 2 3 4 5 6 
#
# 1 0.011224 -0.003612 -0.003806 0.000000 0.000000 0.000000
# 2 -0.003612 0.018655 -0.004491 0.000000 0.000000 0.000000
# 3 -0.003806 -0.004491 0.012356 0.000000 0.000000 0.000000
# 4 0.000000 0.000000 0.000000 0.046968 0.000000 0.000000
# 5 0.000000 0.000000 0.000000 0.000000 0.286676 0.000000
# 6 0.000000 0.000000 0.000000 0.000000 0.000000 0.449874
#
#
# Mechanical properties :
#
#
# Convention : Reuss Voigt Hill
#
# Bulk Modulus (GPa) = 54.29736 58.88463 56.59100
# Shear Modulus (GPa) = 5.84310 17.13136 11.48723
#
# Velocity S-wave (km/s) = 1.86072 3.18607 2.60896
# Velocity P-wave (km/s) = 6.06547 6.95891 6.52749
#
# Compressibility (1/GPa) = 0.01841710
#
# Stress axis : x y z
#
# Youngs Moduli (GPa) = 89.09225 53.60596 80.93307
#
# Poissons Ratio (x) = 0.19364 0.30800
# Poissons Ratio (y) = 0.32183 0.36346
# Poissons Ratio (z) = 0.33905 0.24074
#
# Static dielectric constant tensor:
#      x y z
#    x 1.603100 0.000000 0.000000 
#    y 0.000000 1.591480 0.000000 
#    z 0.000000 0.000000 1.578160 
# 
# From -- ./inp_files/6470.got.cif
#   From: 2010.05.17/outbox.cif.g08.bks.cpg/sg49_4_cif.got.tgz:6470.got - 2010.06.03 21:02:19.
