data_PCOD9394944
_publ_section_title
;
Structure prediction by ZEFSAII (Michael W. Deem and Ramdas Pophale) SiO2 
 PCOD9394944
Probable space group: P C C M
;
_chemical_formula_sum "Si O2"
_cell_formula_units_Z 26
_cell_length_a 7.391465
_cell_length_b 6.411132
_cell_length_c 27.821058
_cell_angle_alpha 90.000000
_cell_angle_beta 90.000000
_cell_angle_gamma 90.000000
_cell_volume 1318.374776
_symmetry_space_group_name_H-M "P C C M"
_symmetry_group_IT_number 49
_symmetry_cell_setting 'orthorhombic'
loop_
_space_group_symop_operation_xyz
x,y,z
-x,-y,z
x,-y,1/2-z
-x,y,1/2-z
-x,-y,-z
x,y,-z
-x,y,1/2+z
x,-y,1/2+z
loop_
_atom_site_type_symbol
_atom_site_label
_atom_site_fract_x
_atom_site_fract_y
_atom_site_fract_z
Si Si1 0.358967 0.809750 0.552895
Si Si2 0.859027 0.309418 0.827860
Si Si3 0.000000 0.000000 0.090591
Si Si4 0.500000 0.500000 0.633573
Si Si5 0.000000 0.000000 0.750000
O O1 0.373427 0.709350 0.500000
O O2 0.403507 0.661857 0.597497
O O3 0.159464 0.900797 0.559860
O O4 0.500000 0.000000 0.554512
O O5 0.915501 0.178098 0.875075
O O6 0.657063 0.394015 0.835193
O O7 0.881414 0.149872 0.783832
O O8 0.000000 0.500000 0.821834
#
# Coordination Sequence:
#
# PCOD9394944 Si02
#       5
#     8   8   4   4   2
#     4  11  23  39  62 100 140 175 223 266 307 373
#     4  11  23  44  71  94 131 163 216 269 328 395
#     4  11  21  41  67  94 130 182 215 259 325 369
#     4  12  23  42  71  98 130 178 212 263 333 378
#     4  10  26  48  72  94 122 166 212 276 330 396
#
# _framework density 19.721253000000001
#
# number of rings (size 3 to 8) (size 9 to 14) (size 15 to 20)
#    0.000    0.923    6.154    1.385    0.000    0.000 
#    0.000    6.154    0.000    0.000    0.000    0.000 
#    0.000    0.000    0.000    0.000    0.000    0.000 
#
# Total GULP energy -145369.298583 kJ/mol
# GULP energy per Si atom -5591.126869 kJ/mol
# Density = 1.967637 g / cm^3
# Si number density = 19.721253 Si / 1000 Ang^3
#
#
#
# Elastic Constant Matrix: (Units=GPa)
#
#
# Indices 1 2 3 4 5 6 
#
# 1 177.0179 64.7828 63.5303 0.0000 0.0000 0.0000
# 2 64.7828 102.6570 55.0837 0.0000 0.0000 0.0000
# 3 63.5303 55.0837 117.7981 0.0000 0.0000 0.0000
# 4 0.0000 0.0000 0.0000 19.4231 0.0000 0.0000
# 5 0.0000 0.0000 0.0000 0.0000 20.5621 0.0000
# 6 0.0000 0.0000 0.0000 0.0000 0.0000 41.1423
#
#
#
# Elastic Compliance Matrix: (Units=1/GPa)
#
#
# Indices 1 2 3 4 5 6 
#
# 1 0.007889 -0.003598 -0.002572 0.000000 0.000000 0.000000
# 2 -0.003598 0.014645 -0.004908 0.000000 0.000000 0.000000
# 3 -0.002572 -0.004908 0.012171 0.000000 0.000000 0.000000
# 4 0.000000 0.000000 0.000000 0.051485 0.000000 0.000000
# 5 0.000000 0.000000 0.000000 0.000000 0.048633 0.000000
# 6 0.000000 0.000000 0.000000 0.000000 0.000000 0.024306
#
#
# Mechanical properties :
#
#
# Convention : Reuss Voigt Hill
#
# Bulk Modulus (GPa) = 79.68543 84.91851 82.30197
# Shear Modulus (GPa) = 26.95867 30.49724 28.72796
#
# Velocity S-wave (km/s) = 3.70129 3.93671 3.82081
# Velocity P-wave (km/s) = 7.66548 7.98852 7.82867
#
# Compressibility (1/GPa) = 0.01254935
#
# Stress axis : x y z
#
# Youngs Moduli (GPa) = 126.75649 68.28115 82.16161
#
# Poissons Ratio (x) = 0.24570 0.21133
# Poissons Ratio (y) = 0.45612 0.40322
# Poissons Ratio (z) = 0.32603 0.33510
#
# Static dielectric constant tensor:
#      x y z
#    x 1.642380 0.000000 0.000000 
#    y 0.000000 1.686620 0.000000 
#    z 0.000000 0.000000 1.673550 
# 
# From -- ./inp_files/23594.got.cif
#   From: 2010.05.17/outbox.cif.g08.bks.cpg/sg49_12_cif.got.tgz:23594.got - 2010.06.03 21:02:19.
