data_PCOD9394203
_publ_section_title
;
Structure prediction by ZEFSAII (Michael W. Deem and Ramdas Pophale) SiO2 
 PCOD9394203
Probable space group: P C C M
;
_chemical_formula_sum "Si O2"
_cell_formula_units_Z 64
_cell_length_a 8.239242
_cell_length_b 13.924977
_cell_length_c 23.720456
_cell_angle_alpha 90.000000
_cell_angle_beta 90.000000
_cell_angle_gamma 90.000000
_cell_volume 2721.477694
_symmetry_space_group_name_H-M "P C C M"
_symmetry_group_IT_number 49
_symmetry_cell_setting 'orthorhombic'
loop_
_space_group_symop_operation_xyz
x,y,z
-x,-y,z
x,-y,1/2-z
-x,y,1/2-z
-x,-y,-z
x,y,-z
-x,y,1/2+z
x,-y,1/2+z
loop_
_atom_site_type_symbol
_atom_site_label
_atom_site_fract_x
_atom_site_fract_y
_atom_site_fract_z
Si Si1 0.818813 0.043753 0.192810
Si Si2 0.729806 0.400811 0.775274
Si Si3 0.777905 0.732675 0.560979
Si Si4 0.415429 0.794101 0.561802
Si Si5 0.330344 0.530670 0.107676
Si Si6 0.945313 0.758028 0.326296
Si Si7 0.720495 0.668325 0.841810
Si Si8 0.799741 0.990220 0.934552
O O1 0.855577 0.155135 0.203795
O O2 0.739218 0.000000 0.250000
O O3 0.750758 0.029451 0.128947
O O4 0.000000 0.000000 0.189751
O O5 0.793308 0.500000 0.750000
O O6 0.627885 0.424179 0.830942
O O7 0.872795 0.337598 0.799937
O O8 0.654006 0.352910 0.720324
O O9 0.853716 0.742264 0.500000
O O10 0.612375 0.795326 0.562239
O O11 0.745135 0.619208 0.573521
O O12 0.895039 0.768416 0.609004
O O13 0.374711 0.751596 0.500000
O O14 0.384765 0.724124 0.613445
O O15 0.301931 0.888666 0.566635
O O16 0.500000 0.500000 0.080293
O O17 0.235080 0.433021 0.126016
O O18 0.134211 0.741512 0.327932
O O19 0.760554 0.025060 0.000000
O O20 0.000000 0.000000 0.933585
#
# Coordination Sequence:
#
# PCOD9394203 Si02
#       8
#     8   8   8   8   8   8   8   8
#     4  10  22  37  63  94 130 165 213 276 344 408
#     4   9  22  36  58  88 129 169 212 260 324 392
#     4  10  23  43  63  89 133 175 219 278 345 409
#     4  10  21  38  62  92 120 166 221 270 334 402
#     4  10  20  39  58  95 130 170 222 275 326 400
#     4  11  24  40  61  95 128 173 219 273 342 406
#     4  11  21  34  63  87 126 167 217 275 321 397
#     4   9  18  35  60  91 125 159 215 282 334 401
#
# _framework density 23.516635000000001
#
# number of rings (size 3 to 8) (size 9 to 14) (size 15 to 20)
#    0.000    2.000    1.250    1.875    5.250   10.000 
#    0.000    1.250    0.000    3.000    0.000    0.000 
#    0.000    0.000    0.000    0.000    0.000    0.000 
#
# Total GULP energy -356355.098999 kJ/mol
# GULP energy per Si atom -5568.048422 kJ/mol
# Density = 2.346311 g / cm^3
# Si number density = 23.516635 Si / 1000 Ang^3
#
#
#
# Elastic Constant Matrix: (Units=GPa)
#
#
# Indices 1 2 3 4 5 6 
#
# 1 19.0062 7.3673 27.4977 0.0000 0.0000 0.0000
# 2 7.3673 82.6005 54.6924 0.0000 0.0000 0.0000
# 3 27.4977 54.6924 190.8113 0.0000 0.0000 0.0000
# 4 0.0000 0.0000 0.0000 39.9938 0.0000 0.0000
# 5 0.0000 0.0000 0.0000 0.0000 20.3190 0.0000
# 6 0.0000 0.0000 0.0000 0.0000 0.0000 28.0264
#
#
#
# Elastic Compliance Matrix: (Units=1/GPa)
#
#
# Indices 1 2 3 4 5 6 
#
# 1 0.066491 0.000511 -0.009728 0.000000 0.000000 0.000000
# 2 0.000511 0.014946 -0.004358 0.000000 0.000000 0.000000
# 3 -0.009728 -0.004358 0.007892 0.000000 0.000000 0.000000
# 4 0.000000 0.000000 0.000000 0.025004 0.000000 0.000000
# 5 0.000000 0.000000 0.000000 0.000000 0.049215 0.000000
# 6 0.000000 0.000000 0.000000 0.000000 0.000000 0.035681
#
#
# Mechanical properties :
#
#
# Convention : Reuss Voigt Hill
#
# Bulk Modulus (GPa) = 16.08258 52.39251 34.23755
# Shear Modulus (GPa) = 20.23429 31.19190 25.71310
#
# Velocity S-wave (km/s) = 2.93648 3.64590 3.31025
# Velocity P-wave (km/s) = 4.28379 6.32856 5.40378
#
# Compressibility (1/GPa) = 0.06217906
#
# Stress axis : x y z
#
# Youngs Moduli (GPa) = 15.03958 66.90637 126.71389
#
# Poissons Ratio (x) = -0.03420 1.23273
# Poissons Ratio (y) = -0.00769 0.55218
# Poissons Ratio (z) = 0.14631 0.29156
#
# Static dielectric constant tensor:
#      x y z
#    x 1.907510 0.000000 0.000000 
#    y 0.000000 2.021750 0.000000 
#    z 0.000000 0.000000 1.896120 
# 
# From -- ./inp_files/22558.got.cif
#   From: 2010.05.17/outbox.cif.g08.bks.cpg/sg49_12_cif.got.tgz:22558.got - 2010.06.03 21:02:19.
