data_PCOD9394478
_publ_section_title
;
Structure prediction by ZEFSAII (Michael W. Deem and Ramdas Pophale) SiO2 
 PCOD9394478
Probable space group: P C C M
;
_chemical_formula_sum "Si O2"
_cell_formula_units_Z 32
_cell_length_a 7.816065
_cell_length_b 11.037842
_cell_length_c 15.262859
_cell_angle_alpha 90.000000
_cell_angle_beta 90.000000
_cell_angle_gamma 90.000000
_cell_volume 1316.764859
_symmetry_space_group_name_H-M "P C C M"
_symmetry_group_IT_number 49
_symmetry_cell_setting 'orthorhombic'
loop_
_space_group_symop_operation_xyz
x,y,z
-x,-y,z
x,-y,1/2-z
-x,y,1/2-z
-x,-y,-z
x,y,-z
-x,y,1/2+z
x,-y,1/2+z
loop_
_atom_site_type_symbol
_atom_site_label
_atom_site_fract_x
_atom_site_fract_y
_atom_site_fract_z
Si Si1 0.298062 0.026623 0.105179
Si Si2 0.264280 0.767009 0.097921
Si Si3 0.383137 0.268322 0.163612
Si Si4 0.797470 0.508780 0.601466
O O1 0.214809 0.898803 0.133865
O O2 0.500000 0.000000 0.122094
O O3 0.258144 0.153066 0.152193
O O4 0.272061 0.037067 0.000000
O O5 0.470145 0.756390 0.091288
O O6 0.225138 0.640884 0.144650
O O7 0.187914 0.760856 0.000000
O O8 0.500000 0.260310 0.250000
O O9 0.294304 0.396802 0.148202
O O10 0.733221 0.509742 0.500000
O O11 0.000000 0.500000 0.598374
#
# Coordination Sequence:
#
# PCOD9394478 Si02
#       4
#     8   8   8   8
#     4   8  15  30  53  80 109 141 186 245 293 334
#     4   9  18  34  56  81 109 147 196 242 285 339
#     4  11  21  33  53  84 114 149 192 236 295 356
#     4  10  21  38  59  84 117 155 196 243 292 345
#
# _framework density 24.301987
#
# number of rings (size 3 to 8) (size 9 to 14) (size 15 to 20)
#    0.000    2.500    0.000    4.500    0.000    8.500 
#    0.000    3.750    0.000    6.000    0.000   10.500 
#    0.000    0.000    0.000    0.000    0.000    0.500 
#
# Total GULP energy -178329.111504 kJ/mol
# GULP energy per Si atom -5572.784734 kJ/mol
# Density = 2.424667 g / cm^3
# Si number density = 24.301987 Si / 1000 Ang^3
#
#
#
# Elastic Constant Matrix: (Units=GPa)
#
#
# Indices 1 2 3 4 5 6 
#
# 1 16.3176 29.0339 -3.6174 0.0000 0.0000 0.0000
# 2 29.0339 307.7479 39.7945 0.0000 0.0000 0.0000
# 3 -3.6174 39.7945 97.0700 0.0000 0.0000 0.0000
# 4 0.0000 0.0000 0.0000 1.8776 0.0000 0.0000
# 5 0.0000 0.0000 0.0000 0.0000 8.4893 0.0000
# 6 0.0000 0.0000 0.0000 0.0000 0.0000 -1.5820
#
#
#
# Elastic Compliance Matrix: (Units=1/GPa)
#
#
# Indices 1 2 3 4 5 6 
#
# 1 0.076999 -0.008063 0.006175 0.000000 0.000000 0.000000
# 2 -0.008063 0.004276 -0.002053 0.000000 0.000000 0.000000
# 3 0.006175 -0.002053 0.011374 0.000000 0.000000 0.000000
# 4 0.000000 0.000000 0.000000 0.532595 0.000000 0.000000
# 5 0.000000 0.000000 0.000000 0.000000 0.117796 0.000000
# 6 0.000000 0.000000 0.000000 0.000000 0.000000 -0.632110
#
#
# Mechanical properties :
#
#
# Convention : Reuss Voigt Hill
#
# Bulk Modulus (GPa) = 11.79726 61.28418 36.54072
# Shear Modulus (GPa) = 33.99838 25.48527 29.74182
#
# Velocity S-wave (km/s) = 3.74437 3.24186 3.50214
# Velocity P-wave (km/s) = 4.85374 6.26781 5.60554
#
# Compressibility (1/GPa) = 0.08476542
#
# Stress axis : x y z
#
# Youngs Moduli (GPa) = 12.98725 233.88611 87.92213
#
# Poissons Ratio (x) = 1.88577 -0.54290
# Poissons Ratio (y) = 0.10471 0.18053
# Poissons Ratio (z) = -0.08019 0.48023
#
# Static dielectric constant tensor:
#      x y z
#    x 1.945590 0.000000 0.000000 
#    y 0.000000 2.085770 0.000000 
#    z 0.000000 0.000000 2.007350 
# 
# From -- ./inp_files/11173.got.cif
#   From: 2010.05.17/outbox.cif.g08.bks.cpg/sg49_6_cif.got.tgz:11173.got - 2010.06.03 21:02:19.
