data_PCOD9394503
_publ_section_title
;
Structure prediction by ZEFSAII (Michael W. Deem and Ramdas Pophale) SiO2 
 PCOD9394503
Probable space group: P C C M
;
_chemical_formula_sum "Si O2"
_cell_formula_units_Z 52
_cell_length_a 5.696198
_cell_length_b 22.771662
_cell_length_c 18.896824
_cell_angle_alpha 90.000000
_cell_angle_beta 90.000000
_cell_angle_gamma 90.000000
_cell_volume 2451.142861
_symmetry_space_group_name_H-M "P C C M"
_symmetry_group_IT_number 49
_symmetry_cell_setting 'orthorhombic'
loop_
_space_group_symop_operation_xyz
x,y,z
-x,-y,z
x,-y,1/2-z
-x,y,1/2-z
-x,-y,-z
x,y,-z
-x,y,1/2+z
x,-y,1/2+z
loop_
_atom_site_type_symbol
_atom_site_label
_atom_site_fract_x
_atom_site_fract_y
_atom_site_fract_z
Si Si1 0.966954 0.569766 0.583940
Si Si2 0.462992 0.384057 0.082528
Si Si3 0.752894 0.966465 0.500000
Si Si4 0.437709 0.066105 0.648587
Si Si5 0.825227 0.177858 0.185945
Si Si6 0.198914 0.143483 0.078120
Si Si7 0.425186 0.248033 0.578929
O O1 0.959998 0.585882 0.500000
O O2 0.209687 0.597365 0.613524
O O3 0.000000 0.500000 0.589667
O O4 0.711023 0.590598 0.612140
O O5 0.479027 0.313722 0.082503
O O6 0.456896 0.404650 0.000000
O O7 0.721075 0.936146 0.576782
O O8 0.500000 0.000000 0.500000
O O9 0.000000 0.000000 0.500000
O O10 0.313847 0.116124 0.696458
O O11 0.684388 0.093128 0.624409
O O12 0.500000 0.000000 0.672531
O O13 0.678281 0.232766 0.157026
O O14 0.000000 0.189106 0.250000
O O15 0.975604 0.167927 0.115811
O O16 0.383386 0.196509 0.073967
O O17 0.152122 0.121369 0.000000
O O18 0.298578 0.245375 0.500000
#
# Coordination Sequence:
#
# PCOD9394503 Si02
#       7
#     8   8   4   8   8   8   8
#     4   9  16  26  43  74 118 166 205 242 297 362
#     4   9  17  28  48  75 114 160 208 253 298 352
#     4  10  22  36  64  94 118 142 186 248 299 356
#     4  10  23  38  60  87 113 144 194 247 306 374
#     4  11  25  40  59  82 117 158 192 252 320 380
#     4  10  21  38  62  85 110 146 193 245 309 364
#     4   9  20  37  56  86 113 154 210 257 305 360
#
# _framework density 21.214592
#
# number of rings (size 3 to 8) (size 9 to 14) (size 15 to 20)
#    0.000    2.308    0.769    0.923    8.615    4.308 
#    0.000    2.308    0.000    0.000    0.000    0.000 
#    0.000    0.615    0.923    0.000    0.308    0.000 
#
# Total GULP energy -289517.653293 kJ/mol
# GULP energy per Si atom -5567.647179 kJ/mol
# Density = 2.116631 g / cm^3
# Si number density = 21.214592 Si / 1000 Ang^3
#
#
#
# Elastic Constant Matrix: (Units=GPa)
#
#
# Indices 1 2 3 4 5 6 
#
# 1 72.2877 18.9110 18.1193 0.0000 0.0000 0.0000
# 2 18.9110 57.0649 14.8411 0.0000 0.0000 0.0000
# 3 18.1193 14.8411 62.0479 0.0000 0.0000 0.0000
# 4 0.0000 0.0000 0.0000 -2.0568 0.0000 0.0000
# 5 0.0000 0.0000 0.0000 0.0000 26.3572 0.0000
# 6 0.0000 0.0000 0.0000 0.0000 0.0000 10.3600
#
#
#
# Elastic Compliance Matrix: (Units=1/GPa)
#
#
# Indices 1 2 3 4 5 6 
#
# 1 0.015867 -0.004322 -0.003600 0.000000 0.000000 0.000000
# 2 -0.004322 0.019864 -0.003489 0.000000 0.000000 0.000000
# 3 -0.003600 -0.003489 0.018002 0.000000 0.000000 0.000000
# 4 0.000000 0.000000 0.000000 -0.486188 0.000000 0.000000
# 5 0.000000 0.000000 0.000000 0.000000 0.037940 0.000000
# 6 0.000000 0.000000 0.000000 0.000000 0.000000 0.096525
#
#
# Mechanical properties :
#
#
# Convention : Reuss Voigt Hill
#
# Bulk Modulus (GPa) = 32.35067 32.79370 32.57219
# Shear Modulus (GPa) = -18.87751 16.23401 -1.32175
#
# Velocity S-wave (km/s) = -2.98625 2.76928 -0.79018
# Velocity P-wave (km/s) = 1.84177 5.07118 3.81503
#
# Compressibility (1/GPa) = 0.03091126
#
# Stress axis : x y z
#
# Youngs Moduli (GPa) = 63.02579 50.34345 55.54847
#
# Poissons Ratio (x) = 0.21758 0.19995
# Poissons Ratio (y) = 0.27239 0.19381
# Poissons Ratio (z) = 0.22687 0.17565
#
# Static dielectric constant tensor:
#      x y z
#    x 0.649220 0.000000 0.000000 
#    y 0.000000 1.520670 0.000000 
#    z 0.000000 0.000000 1.820840 
# 
# From -- ./inp_files/19006.got.cif
#   From: 2010.05.17/outbox.cif.g08.bks.cpg/sg49_10_cif.got.tgz:19006.got - 2010.06.03 21:02:19.
