data_PCOD9394692
_publ_section_title
;
Structure prediction by ZEFSAII (Michael W. Deem and Ramdas Pophale) SiO2 
 PCOD9394692
Probable space group: P C C M
;
_chemical_formula_sum "Si O2"
_cell_formula_units_Z 64
_cell_length_a 26.916696
_cell_length_b 14.578437
_cell_length_c 8.566700
_cell_angle_alpha 90.000000
_cell_angle_beta 90.000000
_cell_angle_gamma 90.000000
_cell_volume 3361.601837
_symmetry_space_group_name_H-M "P C C M"
_symmetry_group_IT_number 49
_symmetry_cell_setting 'orthorhombic'
loop_
_space_group_symop_operation_xyz
x,y,z
-x,-y,z
x,-y,1/2-z
-x,y,1/2-z
-x,-y,-z
x,y,-z
-x,y,1/2+z
x,-y,1/2+z
loop_
_atom_site_type_symbol
_atom_site_label
_atom_site_fract_x
_atom_site_fract_y
_atom_site_fract_z
Si Si1 0.149956 0.896394 0.811179
Si Si2 0.355979 0.221866 0.687442
Si Si3 0.310256 0.396475 0.185227
Si Si4 0.904706 0.602465 0.687425
Si Si5 0.445020 0.101270 0.186379
Si Si6 0.206138 0.603957 0.187020
Si Si7 0.051985 0.212444 0.688632
Si Si8 0.260379 0.103925 0.688721
O O1 0.101311 0.841345 0.758623
O O2 0.205108 0.861331 0.764316
O O3 0.146580 0.000000 0.750000
O O4 0.149234 0.895897 0.000000
O O5 0.357314 0.220690 0.500000
O O6 0.349666 0.325461 0.746487
O O7 0.404341 0.172572 0.754263
O O8 0.307069 0.164583 0.740166
O O9 0.315348 0.500000 0.250000
O O10 0.256132 0.358312 0.238378
O O11 0.312296 0.400036 0.000000
O O12 0.912571 0.500000 0.750000
O O13 0.906639 0.596177 0.500000
O O14 0.848874 0.638465 0.726122
O O15 0.941605 0.681688 0.741259
O O16 0.500000 0.122852 0.250000
O O17 0.431838 0.000000 0.250000
O O18 0.446180 0.098404 0.000000
O O19 0.204500 0.500000 0.250000
O O20 0.211862 0.606450 0.000000
O O21 0.051409 0.211178 0.500000
O O22 0.000000 0.174462 0.750000
O O23 0.261164 0.102107 0.500000
O O24 0.265485 0.000000 0.750000
#
# Coordination Sequence:
#
# PCOD9394692 Si02
#       8
#     8   8   8   8   8   8   8   8
#     4   9  19  37  58  78 103 137 174 218 272 329
#     4  11  22  36  58  88 119 158 199 240 292 345
#     4  11  22  36  53  79 115 155 196 241 288 338
#     4   9  19  34  54  76 102 136 172 216 269 330
#     4  11  22  39  62  90 125 164 206 251 296 345
#     4   9  16  29  50  73 100 135 176 220 270 328
#     4  10  22  38  55  75 101 134 175 221 273 330
#     4   9  19  34  56  82 113 147 180 221 276 339
#
# _framework density 19.038543000000001
#
# number of rings (size 3 to 8) (size 9 to 14) (size 15 to 20)
#    0.000    2.125    0.000    4.500    1.750    4.000 
#    0.000    2.500    0.000    0.375    0.000    2.625 
#    0.000    0.000    0.000    0.000    0.000    0.000 
#
# Total GULP energy -357195.611318 kJ/mol
# GULP energy per Si atom -5581.181427 kJ/mol
# Density = 1.899521 g / cm^3
# Si number density = 19.038543 Si / 1000 Ang^3
#
#
#
# Elastic Constant Matrix: (Units=GPa)
#
#
# Indices 1 2 3 4 5 6 
#
# 1 110.9331 67.9118 39.6540 0.0000 0.0000 0.0000
# 2 67.9118 83.4849 25.2372 0.0000 0.0000 0.0000
# 3 39.6540 25.2372 69.4476 0.0000 0.0000 0.0000
# 4 0.0000 0.0000 0.0000 22.3399 0.0000 0.0000
# 5 0.0000 0.0000 0.0000 0.0000 27.2364 0.0000
# 6 0.0000 0.0000 0.0000 0.0000 0.0000 33.1298
#
#
#
# Elastic Compliance Matrix: (Units=1/GPa)
#
#
# Indices 1 2 3 4 5 6 
#
# 1 0.020091 -0.014465 -0.006216 0.000000 0.000000 0.000000
# 2 -0.014465 0.023870 -0.000415 0.000000 0.000000 0.000000
# 3 -0.006216 -0.000415 0.018099 0.000000 0.000000 0.000000
# 4 0.000000 0.000000 0.000000 0.044763 0.000000 0.000000
# 5 0.000000 0.000000 0.000000 0.000000 0.036716 0.000000
# 6 0.000000 0.000000 0.000000 0.000000 0.000000 0.030184
#
#
# Mechanical properties :
#
#
# Convention : Reuss Voigt Hill
#
# Bulk Modulus (GPa) = 50.32717 58.83018 54.57867
# Shear Modulus (GPa) = 22.46814 25.27873 23.87344
#
# Velocity S-wave (km/s) = 3.43904 3.64781 3.54496
# Velocity P-wave (km/s) = 6.50085 6.97923 6.74428
#
# Compressibility (1/GPa) = 0.01986998
#
# Stress axis : x y z
#
# Youngs Moduli (GPa) = 49.77300 41.89347 55.25087
#
# Poissons Ratio (x) = 0.60597 0.34341
# Poissons Ratio (y) = 0.71994 0.02294
# Poissons Ratio (z) = 0.30937 0.01740
#
# Static dielectric constant tensor:
#      x y z
#    x 1.683070 0.000000 0.000000 
#    y 0.000000 1.656180 0.000000 
#    z 0.000000 0.000000 1.644250 
# 
# From -- ./inp_files/6562.got.cif
#   From: 2010.05.17/outbox.cif.g08.bks.cpg/sg49_4_cif.got.tgz:6562.got - 2010.06.03 21:02:19.
