data_PCOD9394217
_publ_section_title
;
Structure prediction by ZEFSAII (Michael W. Deem and Ramdas Pophale) SiO2 
 PCOD9394217
Probable space group: P C C M
;
_chemical_formula_sum "Si O2"
_cell_formula_units_Z 56
_cell_length_a 7.492235
_cell_length_b 23.453449
_cell_length_c 17.431527
_cell_angle_alpha 90.000000
_cell_angle_beta 90.000000
_cell_angle_gamma 90.000000
_cell_volume 3063.046161
_symmetry_space_group_name_H-M "P C C M"
_symmetry_group_IT_number 49
_symmetry_cell_setting 'orthorhombic'
loop_
_space_group_symop_operation_xyz
x,y,z
-x,-y,z
x,-y,1/2-z
-x,y,1/2-z
-x,-y,-z
x,y,-z
-x,y,1/2+z
x,-y,1/2+z
loop_
_atom_site_type_symbol
_atom_site_label
_atom_site_fract_x
_atom_site_fract_y
_atom_site_fract_z
Si Si1 0.502701 0.353463 0.591282
Si Si2 0.890723 0.170356 0.822426
Si Si3 0.206989 0.564311 0.658077
Si Si4 0.770642 0.865245 0.910958
Si Si5 0.711680 0.064700 0.264726
Si Si6 0.790539 0.564061 0.342633
Si Si7 0.554844 0.777320 0.408052
O O1 0.504703 0.356132 0.500000
O O2 0.672751 0.386887 0.623124
O O3 0.331797 0.387750 0.621834
O O4 0.497267 0.287140 0.613055
O O5 0.813194 0.110667 0.788524
O O6 0.723815 0.203822 0.857419
O O7 0.000000 0.196670 0.750000
O O8 0.038147 0.160717 0.887911
O O9 0.263044 0.500302 0.633508
O O10 0.224027 0.566102 0.750311
O O11 0.998925 0.571333 0.638320
O O12 0.744073 0.917060 0.852343
O O13 0.612032 0.819830 0.895427
O O14 0.764226 0.880890 0.000000
O O15 0.500000 0.068974 0.250000
O O16 0.768723 0.000000 0.250000
O O17 0.595969 0.779309 0.500000
#
# Coordination Sequence:
#
# PCOD9394217 Si02
#       7
#     8   8   8   8   8   8   8
#     4  11  23  36  55  83 115 149 187 235 289 341
#     4  10  21  38  62  87 117 157 198 242 289 341
#     4   9  19  38  59  81 111 147 186 233 286 341
#     4  10  21  39  63  87 116 161 203 235 288 356
#     4  10  20  39  64  91 124 155 188 245 298 337
#     4   9  19  38  59  81 111 146 186 234 287 342
#     4  10  22  41  57  80 122 159 194 243 289 339
#
# _framework density 18.282454000000001
#
# number of rings (size 3 to 8) (size 9 to 14) (size 15 to 20)
#    0.000    2.143    1.429    2.143    0.000    6.571 
#   12.857    7.857    0.000    0.000    0.000    0.000 
#    0.000    0.000    0.000    0.000    0.000    0.000 
#
# Total GULP energy -312564.639445 kJ/mol
# GULP energy per Si atom -5581.511419 kJ/mol
# Density = 1.824084 g / cm^3
# Si number density = 18.282454 Si / 1000 Ang^3
#
#
#
# Elastic Constant Matrix: (Units=GPa)
#
#
# Indices 1 2 3 4 5 6 
#
# 1 110.1518 67.8386 54.4935 0.0000 0.0000 0.0000
# 2 67.8386 141.5547 72.9691 0.0000 0.0000 0.0000
# 3 54.4935 72.9691 74.2075 0.0000 0.0000 0.0000
# 4 0.0000 0.0000 0.0000 31.9252 0.0000 0.0000
# 5 0.0000 0.0000 0.0000 0.0000 42.1898 0.0000
# 6 0.0000 0.0000 0.0000 0.0000 0.0000 24.6978
#
#
#
# Elastic Compliance Matrix: (Units=1/GPa)
#
#
# Indices 1 2 3 4 5 6 
#
# 1 0.014876 -0.003038 -0.007937 0.000000 0.000000 0.000000
# 2 -0.003038 0.014946 -0.012466 0.000000 0.000000 0.000000
# 3 -0.007937 -0.012466 0.031562 0.000000 0.000000 0.000000
# 4 0.000000 0.000000 0.000000 0.031323 0.000000 0.000000
# 5 0.000000 0.000000 0.000000 0.000000 0.023702 0.000000
# 6 0.000000 0.000000 0.000000 0.000000 0.000000 0.040489
#
#
# Mechanical properties :
#
#
# Convention : Reuss Voigt Hill
#
# Bulk Modulus (GPa) = 68.95218 79.61295 74.28256
# Shear Modulus (GPa) = 23.96767 28.47010 26.21889
#
# Velocity S-wave (km/s) = 3.62465 3.95046 3.79106
# Velocity P-wave (km/s) = 7.43736 8.02800 7.73832
#
# Compressibility (1/GPa) = 0.01450280
#
# Stress axis : x y z
#
# Youngs Moduli (GPa) = 67.22420 66.90616 31.68362
#
# Poissons Ratio (x) = 0.20324 0.25146
# Poissons Ratio (y) = 0.20421 0.39497
# Poissons Ratio (z) = 0.53354 0.83406
#
# Static dielectric constant tensor:
#      x y z
#    x 1.630980 0.000000 0.000000 
#    y 0.000000 1.613020 0.000000 
#    z 0.000000 0.000000 1.619240 
# 
# From -- ./inp_files/12032.got.cif
#   From: 2010.05.17/outbox.cif.g08.bks.cpg/sg49_7_cif.got.tgz:12032.got - 2010.06.03 21:02:19.
