data_PCOD9394001
_publ_section_title
;
Structure prediction by ZEFSAII (Michael W. Deem and Ramdas Pophale) SiO2 
 PCOD9394001
Probable space group: P C C M
;
_chemical_formula_sum "Si O2"
_cell_formula_units_Z 58
_cell_length_a 8.990973
_cell_length_b 13.516303
_cell_length_c 24.674972
_cell_angle_alpha 90.000000
_cell_angle_beta 90.000000
_cell_angle_gamma 90.000000
_cell_volume 2998.618948
_symmetry_space_group_name_H-M "P C C M"
_symmetry_group_IT_number 49
_symmetry_cell_setting 'orthorhombic'
loop_
_space_group_symop_operation_xyz
x,y,z
-x,-y,z
x,-y,1/2-z
-x,y,1/2-z
-x,-y,-z
x,y,-z
-x,y,1/2+z
x,-y,1/2+z
loop_
_atom_site_type_symbol
_atom_site_label
_atom_site_fract_x
_atom_site_fract_y
_atom_site_fract_z
Si Si1 0.667444 0.416255 0.147737
Si Si2 0.503236 0.722425 0.936878
Si Si3 0.500000 0.500000 0.250000
Si Si4 0.645310 0.933892 0.562155
Si Si5 0.064400 0.899676 0.866564
Si Si6 0.830932 0.221777 0.560519
Si Si7 0.043101 0.699006 0.811335
Si Si8 0.129670 0.579886 0.394567
O O1 0.567973 0.354584 0.105303
O O2 0.593714 0.437071 0.206231
O O3 0.816456 0.357947 0.163698
O O4 0.722442 0.517215 0.118023
O O5 0.401081 0.819152 0.938819
O O6 0.663201 0.764786 0.917771
O O7 0.518180 0.685875 0.000000
O O8 0.683075 0.963037 0.500000
O O9 0.787477 0.933501 0.601358
O O10 0.500000 0.000000 0.577783
O O11 0.080066 0.813245 0.822725
O O12 0.945780 0.846934 0.907422
O O13 0.000000 0.000000 0.842660
O O14 0.819656 0.182233 0.500000
O O15 0.878730 0.337187 0.559483
O O16 0.000000 0.681573 0.750000
O O17 0.905371 0.650733 0.843600
O O18 0.000000 0.500000 0.402259
#
# Coordination Sequence:
#
# PCOD9394001 Si02
#       8
#     8   8   2   8   8   8   8   8
#     4  11  21  39  58  89 123 156 208 250 307 369
#     4  10  21  37  58  84 123 165 199 248 311 369
#     4  12  24  32  60  88 114 160 200 256 300 360
#     4  10  20  36  59  88 120 158 198 242 302 366
#     4  11  22  38  60  88 114 155 200 256 303 362
#     4  10  21  36  55  86 122 158 199 243 296 362
#     4  10  21  39  61  83 113 154 199 254 308 358
#     4   9  20  36  56  82 114 153 195 244 298 355
#
# _framework density 19.342237999999998
#
# number of rings (size 3 to 8) (size 9 to 14) (size 15 to 20)
#    0.000    1.793    1.379    2.897    0.000    6.345 
#    0.000    1.724    0.000    0.000    0.000    0.000 
#    0.000    0.000    0.000    0.000    0.000    0.000 
#
# Total GULP energy -323044.122708 kJ/mol
# GULP energy per Si atom -5569.726254 kJ/mol
# Density = 1.929821 g / cm^3
# Si number density = 19.342238 Si / 1000 Ang^3
#
#
#
# Elastic Constant Matrix: (Units=GPa)
#
#
# Indices 1 2 3 4 5 6 
#
# 1 68.0114 18.2299 27.1664 0.0000 0.0000 0.0000
# 2 18.2299 102.0639 12.2219 0.0000 0.0000 0.0000
# 3 27.1664 12.2219 73.6377 0.0000 0.0000 0.0000
# 4 0.0000 0.0000 0.0000 7.2531 0.0000 0.0000
# 5 0.0000 0.0000 0.0000 0.0000 15.7948 0.0000
# 6 0.0000 0.0000 0.0000 0.0000 0.0000 31.7913
#
#
#
# Elastic Compliance Matrix: (Units=1/GPa)
#
#
# Indices 1 2 3 4 5 6 
#
# 1 0.017823 -0.002445 -0.006170 0.000000 0.000000 0.000000
# 2 -0.002445 0.010332 -0.000813 0.000000 0.000000 0.000000
# 3 -0.006170 -0.000813 0.015991 0.000000 0.000000 0.000000
# 4 0.000000 0.000000 0.000000 0.137873 0.000000 0.000000
# 5 0.000000 0.000000 0.000000 0.000000 0.063312 0.000000
# 6 0.000000 0.000000 0.000000 0.000000 0.000000 0.031455
#
#
# Mechanical properties :
#
#
# Convention : Reuss Voigt Hill
#
# Bulk Modulus (GPa) = 39.53877 39.88325 39.71101
# Shear Modulus (GPa) = 16.44357 23.37417 19.90887
#
# Velocity S-wave (km/s) = 2.91888 3.48005 3.21174
# Velocity P-wave (km/s) = 5.64321 6.06731 5.85910
#
# Compressibility (1/GPa) = 0.02529163
#
# Stress axis : x y z
#
# Youngs Moduli (GPa) = 56.10716 96.78881 62.53527
#
# Poissons Ratio (x) = 0.23661 0.38581
# Poissons Ratio (y) = 0.13716 0.05084
# Poissons Ratio (z) = 0.34615 0.07868
#
# Static dielectric constant tensor:
#      x y z
#    x 1.762690 0.000000 0.000000 
#    y 0.000000 1.714680 0.000000 
#    z 0.000000 0.000000 1.726920 
# 
# From -- ./inp_files/24562.got.cif
#   From: 2010.05.17/outbox.cif.g08.bks.cpg/sg49_13_cif.got.tgz:24562.got - 2010.06.03 21:02:19.
