data_PCOD9394619
_publ_section_title
;
Structure prediction by ZEFSAII (Michael W. Deem and Ramdas Pophale) SiO2 
 PCOD9394619
Probable space group: P C C M
;
_chemical_formula_sum "Si O2"
_cell_formula_units_Z 48
_cell_length_a 29.438749
_cell_length_b 9.232855
_cell_length_c 9.350535
_cell_angle_alpha 90.000000
_cell_angle_beta 90.000000
_cell_angle_gamma 90.000000
_cell_volume 2541.510018
_symmetry_space_group_name_H-M "P C C M"
_symmetry_group_IT_number 49
_symmetry_cell_setting 'orthorhombic'
loop_
_space_group_symop_operation_xyz
x,y,z
-x,-y,z
x,-y,1/2-z
-x,y,1/2-z
-x,-y,-z
x,y,-z
-x,y,1/2+z
x,-y,1/2+z
loop_
_atom_site_type_symbol
_atom_site_label
_atom_site_fract_x
_atom_site_fract_y
_atom_site_fract_z
Si Si1 0.289105 0.647181 0.330649
Si Si2 0.065376 0.356008 0.500000
Si Si3 0.100540 0.827273 0.263062
Si Si4 0.042652 0.688889 0.500000
Si Si5 0.814155 0.354937 0.333567
Si Si6 0.375067 0.154318 0.826558
Si Si7 0.546826 0.658256 0.676766
O O1 0.301736 0.500000 0.250000
O O2 0.289275 0.617955 0.500000
O O3 0.237270 0.685719 0.288470
O O4 0.326308 0.769360 0.304950
O O5 0.088768 0.273725 0.370423
O O6 0.067407 0.531005 0.500000
O O7 0.011132 0.329308 0.500000
O O8 0.060593 0.780344 0.368533
O O9 0.149654 0.771997 0.314264
O O10 0.100599 0.000000 0.250000
O O11 0.827858 0.500000 0.250000
O O12 0.812847 0.392957 0.500000
O O13 0.412463 0.246899 0.740388
O O14 0.374566 0.000000 0.750000
O O15 0.383813 0.148353 0.000000
O O16 0.552523 0.500000 0.750000
O O17 0.500000 0.714129 0.750000
O O18 0.545124 0.653001 0.500000
#
# Coordination Sequence:
#
# PCOD9394619 Si02
#       7
#     8   4   8   4   8   8   8
#     4   9  20  38  62  89 117 154 201 251 297 355
#     4  11  25  41  67  87 117 155 209 239 302 355
#     4  12  25  39  61  91 125 156 194 247 309 362
#     4  11  23  45  63  89 115 161 199 253 286 367
#     4  10  21  40  64  89 119 158 203 247 297 362
#     4  11  23  39  59  87 124 165 206 254 314 371
#     4  11  22  39  63  91 123 161 209 260 313 371
#
# _framework density 18.886410000000001
#
# number of rings (size 3 to 8) (size 9 to 14) (size 15 to 20)
#    0.000    1.333    0.833    5.500    1.167    7.000 
#    0.000    1.667    0.000    0.000    0.000    0.000 
#    0.000    0.000    0.000    0.000    0.000    0.000 
#
# Total GULP energy -267773.236720 kJ/mol
# GULP energy per Si atom -5578.609098 kJ/mol
# Density = 1.884342 g / cm^3
# Si number density = 18.886410 Si / 1000 Ang^3
#
#
#
# Elastic Constant Matrix: (Units=GPa)
#
#
# Indices 1 2 3 4 5 6 
#
# 1 87.3684 57.5224 27.0440 0.0000 0.0000 0.0000
# 2 57.5224 117.7466 27.8739 0.0000 0.0000 0.0000
# 3 27.0440 27.8739 95.8578 0.0000 0.0000 0.0000
# 4 0.0000 0.0000 0.0000 28.3050 0.0000 0.0000
# 5 0.0000 0.0000 0.0000 0.0000 30.6450 0.0000
# 6 0.0000 0.0000 0.0000 0.0000 0.0000 -11.7144
#
#
#
# Elastic Compliance Matrix: (Units=1/GPa)
#
#
# Indices 1 2 3 4 5 6 
#
# 1 0.017468 -0.007912 -0.002628 0.000000 0.000000 0.000000
# 2 -0.007912 0.012704 -0.001462 0.000000 0.000000 0.000000
# 3 -0.002628 -0.001462 0.011599 0.000000 0.000000 0.000000
# 4 0.000000 0.000000 0.000000 0.035329 0.000000 0.000000
# 5 0.000000 0.000000 0.000000 0.000000 0.032632 0.000000
# 6 0.000000 0.000000 0.000000 0.000000 0.000000 -0.085365
#
#
# Mechanical properties :
#
#
# Convention : Reuss Voigt Hill
#
# Bulk Modulus (GPa) = 56.28076 58.42815 57.35446
# Shear Modulus (GPa) = 92.09498 22.01596 57.05547
#
# Velocity S-wave (km/s) = 6.99060 3.41794 5.50231
# Velocity P-wave (km/s) = 9.74793 6.82497 8.41435
#
# Compressibility (1/GPa) = 0.01776806
#
# Stress axis : x y z
#
# Youngs Moduli (GPa) = 57.24746 78.71579 86.21740
#
# Poissons Ratio (x) = 0.62276 0.22655
# Poissons Ratio (y) = 0.45292 0.12605
# Poissons Ratio (z) = 0.15043 0.11509
#
# Static dielectric constant tensor:
#      x y z
#    x 1.669790 0.000000 0.000000 
#    y 0.000000 1.627040 0.000000 
#    z 0.000000 0.000000 1.620530 
# 
# From -- ./inp_files/6899.got.cif
#   From: 2010.05.17/outbox.cif.g08.bks.cpg/sg49_4_cif.got.tgz:6899.got - 2010.06.03 21:02:19.
