data_PCOD9394545
_publ_section_title
;
Structure prediction by ZEFSAII (Michael W. Deem and Ramdas Pophale) SiO2 
 PCOD9394545
Probable space group: P C C M
;
_chemical_formula_sum "Si O2"
_cell_formula_units_Z 58
_cell_length_a 17.706228
_cell_length_b 8.661879
_cell_length_c 19.054301
_cell_angle_alpha 90.000000
_cell_angle_beta 90.000000
_cell_angle_gamma 90.000000
_cell_volume 2922.342986
_symmetry_space_group_name_H-M "P C C M"
_symmetry_group_IT_number 49
_symmetry_cell_setting 'orthorhombic'
loop_
_space_group_symop_operation_xyz
x,y,z
-x,-y,z
x,-y,1/2-z
-x,y,1/2-z
-x,-y,-z
x,y,-z
-x,y,1/2+z
x,-y,1/2+z
loop_
_atom_site_type_symbol
_atom_site_label
_atom_site_fract_x
_atom_site_fract_y
_atom_site_fract_z
Si Si1 0.089418 0.023802 0.422034
Si Si2 0.382814 0.291758 0.415884
Si Si3 0.271511 0.491014 0.668810
Si Si4 0.459429 0.830200 0.420833
Si Si5 0.126137 0.278966 0.307417
Si Si6 0.811094 0.188841 0.340929
Si Si7 0.341475 0.983236 0.330789
Si Si8 0.000000 0.500000 0.750000
O O1 0.112868 0.072905 0.500000
O O2 0.109079 0.150468 0.364293
O O3 0.132708 0.867596 0.400836
O O4 0.000000 0.000000 0.421032
O O5 0.371271 0.278780 0.500000
O O6 0.337033 0.432413 0.382267
O O7 0.473409 0.288637 0.404407
O O8 0.353350 0.139231 0.375062
O O9 0.299007 0.500000 0.750000
O O10 0.201940 0.370352 0.671628
O O11 0.232983 0.651470 0.647251
O O12 0.431582 0.802256 0.500000
O O13 0.391994 0.850108 0.366658
O O14 0.500000 0.000000 0.421134
O O15 0.142762 0.206994 0.231087
O O16 0.055888 0.394877 0.296577
O O17 0.745594 0.062717 0.332426
O O18 0.365428 0.000000 0.250000
#
# Coordination Sequence:
#
# PCOD9394545 Si02
#       8
#     8   8   8   8   8   8   8   2
#     4  11  25  41  59  90 128 158 195 253 317 380
#     4  10  21  39  62  87 122 170 214 254 314 385
#     4  10  21  39  60  89 122 155 209 265 308 371
#     4   8  17  34  55  84 119 158 206 255 302 369
#     4  11  22  40  66  88 115 156 206 248 301 372
#     4  11  22  40  60  91 123 159 204 262 312 377
#     4  11  20  33  60  92 126 160 211 269 324 371
#     4  12  20  40  72  92 108 154 210 254 296 372
#
# _framework density 19.847089
#
# number of rings (size 3 to 8) (size 9 to 14) (size 15 to 20)
#    0.000    1.655    2.069    5.793    0.000    6.345 
#    0.000    1.034    0.000    4.138    0.000    0.000 
#    0.000    0.000    0.000    0.000    0.000    0.000 
#
# Total GULP energy -324044.778897 kJ/mol
# GULP energy per Si atom -5586.978947 kJ/mol
# Density = 1.980192 g / cm^3
# Si number density = 19.847089 Si / 1000 Ang^3
#
#
#
# Elastic Constant Matrix: (Units=GPa)
#
#
# Indices 1 2 3 4 5 6 
#
# 1 98.4695 24.5448 70.9542 0.0000 0.0000 0.0000
# 2 24.5448 66.4818 48.2297 0.0000 0.0000 0.0000
# 3 70.9542 48.2297 116.7382 0.0000 0.0000 0.0000
# 4 0.0000 0.0000 0.0000 19.5828 0.0000 0.0000
# 5 0.0000 0.0000 0.0000 0.0000 69.8784 0.0000
# 6 0.0000 0.0000 0.0000 0.0000 0.0000 34.0225
#
#
#
# Elastic Compliance Matrix: (Units=1/GPa)
#
#
# Indices 1 2 3 4 5 6 
#
# 1 0.018230 0.001868 -0.011852 0.000000 0.000000 0.000000
# 2 0.001868 0.021671 -0.010088 0.000000 0.000000 0.000000
# 3 -0.011852 -0.010088 0.019938 0.000000 0.000000 0.000000
# 4 0.000000 0.000000 0.000000 0.051065 0.000000 0.000000
# 5 0.000000 0.000000 0.000000 0.000000 0.014311 0.000000
# 6 0.000000 0.000000 0.000000 0.000000 0.000000 0.029392
#
#
# Mechanical properties :
#
#
# Convention : Reuss Voigt Hill
#
# Bulk Modulus (GPa) = 50.77848 63.23855 57.00852
# Shear Modulus (GPa) = 24.83650 33.89412 29.36531
#
# Velocity S-wave (km/s) = 3.54134 4.13699 3.85070
# Velocity P-wave (km/s) = 6.50860 7.39944 6.96827
#
# Compressibility (1/GPa) = 0.01969338
#
# Stress axis : x y z
#
# Youngs Moduli (GPa) = 54.85452 46.14493 50.15606
#
# Poissons Ratio (x) = -0.08618 0.59445
# Poissons Ratio (y) = -0.10245 0.50599
# Poissons Ratio (z) = 0.65013 0.46553
#
# Static dielectric constant tensor:
#      x y z
#    x 1.687480 0.000000 0.000000 
#    y 0.000000 1.744250 0.000000 
#    z 0.000000 0.000000 1.672870 
# 
# From -- ./inp_files/18202.got.cif
#   From: 2010.05.17/outbox.cif.g08.bks.cpg/sg49_10_cif.got.tgz:18202.got - 2010.06.03 21:02:19.
