data_PCOD9394227
_publ_section_title
;
Structure prediction by ZEFSAII (Michael W. Deem and Ramdas Pophale) SiO2 
 PCOD9394227
Probable space group: P C C M
;
_chemical_formula_sum "Si O2"
_cell_formula_units_Z 48
_cell_length_a 9.317841
_cell_length_b 17.736925
_cell_length_c 14.259429
_cell_angle_alpha 90.000000
_cell_angle_beta 90.000000
_cell_angle_gamma 90.000000
_cell_volume 2356.653649
_symmetry_space_group_name_H-M "P C C M"
_symmetry_group_IT_number 49
_symmetry_cell_setting 'orthorhombic'
loop_
_space_group_symop_operation_xyz
x,y,z
-x,-y,z
x,-y,1/2-z
-x,y,1/2-z
-x,-y,-z
x,y,-z
-x,y,1/2+z
x,-y,1/2+z
loop_
_atom_site_type_symbol
_atom_site_label
_atom_site_fract_x
_atom_site_fract_y
_atom_site_fract_z
Si Si1 0.341530 0.911234 0.243696
Si Si2 0.168540 0.320637 0.264184
Si Si3 0.814776 0.180144 0.893398
Si Si4 0.634207 0.610077 0.888699
Si Si5 0.687690 0.433562 0.110746
Si Si6 0.087833 0.077895 0.890627
O O1 0.500000 0.875793 0.250000
O O2 0.281955 0.888164 0.142631
O O3 0.219041 0.898856 0.322969
O O4 0.357459 0.000000 0.250000
O O5 0.215789 0.247808 0.322794
O O6 0.266306 0.335804 0.172943
O O7 0.192842 0.393429 0.329173
O O8 0.000000 0.311800 0.250000
O O9 0.974785 0.146548 0.886024
O O10 0.787166 0.202436 0.000000
O O11 0.464408 0.606892 0.865391
O O12 0.678811 0.522768 0.871586
O O13 0.648182 0.625050 0.000000
O O14 0.709668 0.423914 0.000000
O O15 0.131544 0.067842 0.000000
O O16 0.000000 0.000000 0.864205
#
# Coordination Sequence:
#
# PCOD9394227 Si02
#       6
#     8   8   8   8   8   8
#     4  11  23  38  63  98 129 153 191 255 314 366
#     4  12  24  37  57  89 128 165 200 257 318 374
#     4  11  25  44  63  87 121 167 211 254 306 377
#     4   9  20  39  64  90 120 164 219 261 300 365
#     4   9  19  39  64  90 121 165 216 261 303 367
#     4  10  20  39  67  90 116 163 211 245 293 371
#
# _framework density 20.367864999999998
#
# number of rings (size 3 to 8) (size 9 to 14) (size 15 to 20)
#    0.000    1.667    1.667    4.000    0.000    6.000 
#    0.000    4.167    0.000    0.000    0.000    0.000 
#    0.000    0.000    0.000    0.000    0.000    0.000 
#
# Total GULP energy -267893.389253 kJ/mol
# GULP energy per Si atom -5581.112276 kJ/mol
# Density = 2.032151 g / cm^3
# Si number density = 20.367865 Si / 1000 Ang^3
#
#
#
# Elastic Constant Matrix: (Units=GPa)
#
#
# Indices 1 2 3 4 5 6 
#
# 1 71.7762 13.7069 46.4898 0.0000 0.0000 0.0000
# 2 13.7069 53.8863 42.9229 0.0000 0.0000 0.0000
# 3 46.4898 42.9229 106.0133 0.0000 0.0000 0.0000
# 4 0.0000 0.0000 0.0000 31.8198 0.0000 0.0000
# 5 0.0000 0.0000 0.0000 0.0000 11.5817 0.0000
# 6 0.0000 0.0000 0.0000 0.0000 0.0000 -18.9226
#
#
#
# Elastic Compliance Matrix: (Units=1/GPa)
#
#
# Indices 1 2 3 4 5 6 
#
# 1 0.019735 0.002765 -0.009774 0.000000 0.000000 0.000000
# 2 0.002765 0.027779 -0.012460 0.000000 0.000000 0.000000
# 3 -0.009774 -0.012460 0.018764 0.000000 0.000000 0.000000
# 4 0.000000 0.000000 0.000000 0.031427 0.000000 0.000000
# 5 0.000000 0.000000 0.000000 0.000000 0.086343 0.000000
# 6 0.000000 0.000000 0.000000 0.000000 0.000000 -0.052847
#
#
# Mechanical properties :
#
#
# Convention : Reuss Voigt Hill
#
# Bulk Modulus (GPa) = 36.57552 48.65722 42.61637
# Shear Modulus (GPa) = 27.89386 13.46620 20.68003
#
# Velocity S-wave (km/s) = 3.70469 2.57407 3.18988
# Velocity P-wave (km/s) = 6.02463 5.72499 5.87672
#
# Compressibility (1/GPa) = 0.02734069
#
# Stress axis : x y z
#
# Youngs Moduli (GPa) = 50.67220 35.99833 53.29431
#
# Poissons Ratio (x) = -0.09955 0.52089
# Poissons Ratio (y) = -0.14013 0.66405
# Poissons Ratio (z) = 0.49527 0.44854
#
# Static dielectric constant tensor:
#      x y z
#    x 1.745450 0.000000 0.000000 
#    y 0.000000 1.731610 0.000000 
#    z 0.000000 0.000000 1.738190 
# 
# From -- ./inp_files/11785.got.cif
#   From: 2010.05.17/outbox.cif.g08.bks.cpg/sg49_6_cif.got.tgz:11785.got - 2010.06.03 21:02:19.
