data_PCOD9394308
_publ_section_title
;
Structure prediction by ZEFSAII (Michael W. Deem and Ramdas Pophale) SiO2 
 PCOD9394308
Probable space group: P C C M
;
_chemical_formula_sum "Si O2"
_cell_formula_units_Z 26
_cell_length_a 5.273846
_cell_length_b 14.692053
_cell_length_c 14.223571
_cell_angle_alpha 90.000000
_cell_angle_beta 90.000000
_cell_angle_gamma 90.000000
_cell_volume 1102.093841
_symmetry_space_group_name_H-M "P C C M"
_symmetry_group_IT_number 49
_symmetry_cell_setting 'orthorhombic'
loop_
_space_group_symop_operation_xyz
x,y,z
-x,-y,z
x,-y,1/2-z
-x,y,1/2-z
-x,-y,-z
x,y,-z
-x,y,1/2+z
x,-y,1/2+z
loop_
_atom_site_type_symbol
_atom_site_label
_atom_site_fract_x
_atom_site_fract_y
_atom_site_fract_z
Si Si1 0.251179 0.040631 0.645839
Si Si2 0.724877 0.637703 0.112764
Si Si3 0.229155 0.751394 0.888399
Si Si4 0.000000 0.500000 0.250000
O O1 0.256715 0.148968 0.653844
O O2 0.500000 0.000000 0.599690
O O3 0.250301 0.000000 0.750000
O O4 0.000000 0.000000 0.600533
O O5 0.452381 0.680903 0.138131
O O6 0.817894 0.557058 0.180008
O O7 0.949073 0.711725 0.127221
O O8 0.722193 0.613649 0.000000
O O9 0.259835 0.764064 0.000000
#
# Coordination Sequence:
#
# PCOD9394308 Si02
#       4
#     8   8   8   2
#     4  10  21  35  56  87 122 161 207 262 308 363
#     4  10  24  44  66  94 128 165 212 265 319 388
#     4  10  22  42  63  87 127 172 209 258 321 378
#     4  12  26  42  72 100 126 166 214 270 336 388
#
# _framework density 23.591456999999998
#
# number of rings (size 3 to 8) (size 9 to 14) (size 15 to 20)
#    0.000    1.846    0.000    2.308    0.000   12.308 
#    0.000    4.615    0.000    0.000    0.000    0.000 
#    0.000    0.000    0.000    0.000    0.000    0.000 
#
# Total GULP energy -145476.412770 kJ/mol
# GULP energy per Si atom -5595.246645 kJ/mol
# Density = 2.353776 g / cm^3
# Si number density = 23.591457 Si / 1000 Ang^3
#
#
#
# Elastic Constant Matrix: (Units=GPa)
#
#
# Indices 1 2 3 4 5 6 
#
# 1 139.7683 -6.9408 -16.3895 0.0000 0.0000 0.0000
# 2 -6.9408 94.7532 16.5116 0.0000 0.0000 0.0000
# 3 -16.3895 16.5116 88.3366 0.0000 0.0000 0.0000
# 4 0.0000 0.0000 0.0000 58.2761 0.0000 0.0000
# 5 0.0000 0.0000 0.0000 0.0000 -10.9589 0.0000
# 6 0.0000 0.0000 0.0000 0.0000 0.0000 47.7318
#
#
#
# Elastic Compliance Matrix: (Units=1/GPa)
#
#
# Indices 1 2 3 4 5 6 
#
# 1 0.007323 0.000310 0.001301 0.000000 0.000000 0.000000
# 2 0.000310 0.010922 -0.001984 0.000000 0.000000 0.000000
# 3 0.001301 -0.001984 0.011933 0.000000 0.000000 0.000000
# 4 0.000000 0.000000 0.000000 0.017160 0.000000 0.000000
# 5 0.000000 0.000000 0.000000 0.000000 -0.091250 0.000000
# 6 0.000000 0.000000 0.000000 0.000000 0.000000 0.020950
#
#
# Mechanical properties :
#
#
# Convention : Reuss Voigt Hill
#
# Bulk Modulus (GPa) = 33.97892 34.35786 34.16839
# Shear Modulus (GPa) = -403.05842 40.98826 -181.03508
#
# Velocity S-wave (km/s) = -13.08511 4.17276 -8.76950
# Velocity P-wave (km/s) = 14.62393 6.14908 9.38211
#
# Compressibility (1/GPa) = 0.02943001
#
# Stress axis : x y z
#
# Youngs Moduli (GPa) = 136.56352 91.55697 83.80458
#
# Poissons Ratio (x) = -0.02836 -0.10900
# Poissons Ratio (y) = -0.04230 0.16627
# Poissons Ratio (z) = -0.17763 0.18166
#
# Static dielectric constant tensor:
#      x y z
#    x 1.855530 0.000000 0.000000 
#    y 0.000000 1.845760 0.000000 
#    z 0.000000 0.000000 1.867700 
# 
# From -- ./inp_files/10455.got.cif
#   From: 2010.05.17/outbox.cif.g08.bks.cpg/sg49_6_cif.got.tgz:10455.got - 2010.06.03 21:02:19.
