data_PCOD9394477
_publ_section_title
;
Structure prediction by ZEFSAII (Michael W. Deem and Ramdas Pophale) SiO2 
 PCOD9394477
Probable space group: P C C M
;
_chemical_formula_sum "Si O2"
_cell_formula_units_Z 64
_cell_length_a 27.897831
_cell_length_b 6.761580
_cell_length_c 18.830002
_cell_angle_alpha 90.000000
_cell_angle_beta 90.000000
_cell_angle_gamma 90.000000
_cell_volume 3551.967603
_symmetry_space_group_name_H-M "P C C M"
_symmetry_group_IT_number 49
_symmetry_cell_setting 'orthorhombic'
loop_
_space_group_symop_operation_xyz
x,y,z
-x,-y,z
x,-y,1/2-z
-x,y,1/2-z
-x,-y,-z
x,y,-z
-x,y,1/2+z
x,-y,1/2+z
loop_
_atom_site_type_symbol
_atom_site_label
_atom_site_fract_x
_atom_site_fract_y
_atom_site_fract_z
Si Si1 0.444807 0.055845 0.168073
Si Si2 0.892591 0.420963 0.329094
Si Si3 0.698850 0.085789 0.670297
Si Si4 0.617030 0.414859 0.670513
Si Si5 0.047552 0.881351 0.417807
Si Si6 0.807759 0.901223 0.172527
Si Si7 0.633394 0.191818 0.915542
Si Si8 0.865676 0.804926 0.419124
O O1 0.430766 0.284932 0.158123
O O2 0.500000 0.000000 0.157913
O O3 0.432045 0.000000 0.250000
O O4 0.411232 0.933077 0.115449
O O5 0.903629 0.500000 0.250000
O O6 0.935044 0.294073 0.366176
O O7 0.846052 0.276753 0.328042
O O8 0.879626 0.610319 0.376242
O O9 0.661141 0.262945 0.665382
O O10 0.753018 0.155968 0.657122
O O11 0.696650 0.000000 0.750000
O O12 0.680244 0.914043 0.617863
O O13 0.615137 0.500000 0.750000
O O14 0.625926 0.590219 0.615759
O O15 0.041143 0.811419 0.500000
O O16 0.089607 0.043968 0.418214
O O17 0.000000 0.000000 0.395734
O O18 0.809919 0.000000 0.250000
O O19 0.823835 0.070660 0.117849
O O20 0.634917 0.189134 0.000000
O O21 0.854185 0.753933 0.500000
#
# Coordination Sequence:
#
# PCOD9394477 Si02
#       8
#     8   8   8   8   8   8   8   8
#     4  10  21  39  62  87 115 155 200 243 290 351
#     4  11  21  36  60  88 120 153 196 252 303 353
#     4  10  21  38  63  86 113 154 198 238 290 356
#     4  11  19  37  61  87 115 153 200 240 286 350
#     4   9  20  39  61  83 115 160 203 243 294 358
#     4  10  21  38  60  87 116 154 194 239 296 355
#     4  11  23  39  58  87 122 153 191 247 300 346
#     4  10  21  38  59  84 117 155 195 246 297 351
#
# _framework density 18.018180999999998
#
# number of rings (size 3 to 8) (size 9 to 14) (size 15 to 20)
#    0.000    1.750    3.750    1.125    0.000    5.750 
#    0.000    4.375    0.000    0.000    0.000    0.000 
#    0.000    0.000    0.000    0.000    0.000    0.000 
#
# Total GULP energy -357205.962651 kJ/mol
# GULP energy per Si atom -5581.343166 kJ/mol
# Density = 1.797717 g / cm^3
# Si number density = 18.018181 Si / 1000 Ang^3
#
#
#
# Elastic Constant Matrix: (Units=GPa)
#
#
# Indices 1 2 3 4 5 6 
#
# 1 96.3940 32.5077 41.4929 0.0000 0.0000 0.0000
# 2 32.5077 112.3976 61.5901 0.0000 0.0000 0.0000
# 3 41.4929 61.5901 148.2886 0.0000 0.0000 0.0000
# 4 0.0000 0.0000 0.0000 30.6963 0.0000 0.0000
# 5 0.0000 0.0000 0.0000 0.0000 9.9145 0.0000
# 6 0.0000 0.0000 0.0000 0.0000 0.0000 -5.1647
#
#
#
# Elastic Compliance Matrix: (Units=1/GPa)
#
#
# Indices 1 2 3 4 5 6 
#
# 1 0.012181 -0.002143 -0.002518 0.000000 0.000000 0.000000
# 2 -0.002143 0.011896 -0.004341 0.000000 0.000000 0.000000
# 3 -0.002518 -0.004341 0.009251 0.000000 0.000000 0.000000
# 4 0.000000 0.000000 0.000000 0.032577 0.000000 0.000000
# 5 0.000000 0.000000 0.000000 0.000000 0.100862 0.000000
# 6 0.000000 0.000000 0.000000 0.000000 0.000000 -0.193624
#
#
# Mechanical properties :
#
#
# Convention : Reuss Voigt Hill
#
# Bulk Modulus (GPa) = 65.26160 69.80686 67.53423
# Shear Modulus (GPa) = -1335.24651 21.85521 -656.69565
#
# Velocity S-wave (km/s) = -27.25186 3.48653 -19.11162
# Velocity P-wave (km/s) = 30.88560 7.41852 21.20007
#
# Compressibility (1/GPa) = 0.01532295
#
# Stress axis : x y z
#
# Youngs Moduli (GPa) = 82.09657 84.06516 108.09351
#
# Poissons Ratio (x) = 0.18015 0.27221
# Poissons Ratio (y) = 0.17593 0.46924
# Poissons Ratio (z) = 0.20674 0.36493
#
# Static dielectric constant tensor:
#      x y z
#    x 1.618150 0.000000 0.000000 
#    y 0.000000 1.601530 0.000000 
#    z 0.000000 0.000000 1.607670 
# 
# From -- ./inp_files/18441.got.cif
#   From: 2010.05.17/outbox.cif.g08.bks.cpg/sg49_10_cif.got.tgz:18441.got - 2010.06.03 21:02:19.
