data_PCOD9394672
_publ_section_title
;
Structure prediction by ZEFSAII (Michael W. Deem and Ramdas Pophale) SiO2 
 PCOD9394672
Probable space group: P C C M
;
_chemical_formula_sum "Si O2"
_cell_formula_units_Z 28
_cell_length_a 4.840709
_cell_length_b 11.240312
_cell_length_c 19.609352
_cell_angle_alpha 90.000000
_cell_angle_beta 90.000000
_cell_angle_gamma 90.000000
_cell_volume 1066.966010
_symmetry_space_group_name_H-M "P C C M"
_symmetry_group_IT_number 49
_symmetry_cell_setting 'orthorhombic'
loop_
_space_group_symop_operation_xyz
x,y,z
-x,-y,z
x,-y,1/2-z
-x,y,1/2-z
-x,-y,-z
x,y,-z
-x,y,1/2+z
x,-y,1/2+z
loop_
_atom_site_type_symbol
_atom_site_label
_atom_site_fract_x
_atom_site_fract_y
_atom_site_fract_z
Si Si1 0.175342 0.329874 0.649158
Si Si2 0.649507 0.871978 0.000000
Si Si3 0.320747 0.380255 0.500000
Si Si4 0.500000 0.500000 0.750000
Si Si5 0.000000 0.000000 0.250000
Si Si6 0.696614 0.173637 0.650054
O O1 0.163960 0.376749 0.571643
O O2 0.309945 0.422420 0.699767
O O3 0.377338 0.212855 0.650625
O O4 0.869938 0.290867 0.668130
O O5 0.790813 0.865261 0.073897
O O6 0.500000 0.000000 0.000000
O O7 0.483411 0.746273 0.000000
O O8 0.500000 0.500000 0.500000
O O9 0.201324 0.922834 0.297310
#
# Coordination Sequence:
#
# PCOD9394672 Si02
#       6
#     8   4   4   2   2   8
#     4  11  25  46  70 106 146 190 250 309 375 444
#     4  10  25  49  80 110 148 196 258 316 376 442
#     4  10  21  46  71 109 137 192 238 314 362 434
#     4  12  24  44  76 100 152 200 248 302 386 472
#     4  12  28  44  76 100 156 196 244 302 382 460
#     4  11  27  47  70 109 145 194 249 314 373 448
#
# _framework density 26.242637999999999
#
# number of rings (size 3 to 8) (size 9 to 14) (size 15 to 20)
#    0.000    1.143    1.429    2.571    8.000    4.000 
#    0.000    2.857    0.000    0.000    0.000    0.000 
#    0.000    0.000    0.000    0.000    0.000    0.000 
#
# Total GULP energy -157108.785829 kJ/mol
# GULP energy per Si atom -5611.028065 kJ/mol
# Density = 2.618291 g / cm^3
# Si number density = 26.242638 Si / 1000 Ang^3
#
#
#
# Elastic Constant Matrix: (Units=GPa)
#
#
# Indices 1 2 3 4 5 6 
#
# 1 94.6839 33.8210 23.1166 0.0000 0.0000 0.0000
# 2 33.8210 151.7634 64.2458 0.0000 0.0000 0.0000
# 3 23.1166 64.2458 220.8582 0.0000 0.0000 0.0000
# 4 0.0000 0.0000 0.0000 99.4757 0.0000 0.0000
# 5 0.0000 0.0000 0.0000 0.0000 29.1473 0.0000
# 6 0.0000 0.0000 0.0000 0.0000 0.0000 37.6152
#
#
#
# Elastic Compliance Matrix: (Units=1/GPa)
#
#
# Indices 1 2 3 4 5 6 
#
# 1 0.011528 -0.002347 -0.000524 0.000000 0.000000 0.000000
# 2 -0.002347 0.007993 -0.002079 0.000000 0.000000 0.000000
# 3 -0.000524 -0.002079 0.005187 0.000000 0.000000 0.000000
# 4 0.000000 0.000000 0.000000 0.010053 0.000000 0.000000
# 5 0.000000 0.000000 0.000000 0.000000 0.034308 0.000000
# 6 0.000000 0.000000 0.000000 0.000000 0.000000 0.026585
#
#
# Mechanical properties :
#
#
# Convention : Reuss Voigt Hill
#
# Bulk Modulus (GPa) = 67.53513 78.85246 73.19380
# Shear Modulus (GPa) = 45.25285 56.32245 50.78765
#
# Velocity S-wave (km/s) = 4.15710 4.63776 4.40399
# Velocity P-wave (km/s) = 6.98804 7.66753 7.33566
#
# Compressibility (1/GPa) = 0.01480711
#
# Stress axis : x y z
#
# Youngs Moduli (GPa) = 86.74692 125.11694 192.77266
#
# Poissons Ratio (x) = 0.29368 0.10097
# Poissons Ratio (y) = 0.20362 0.40083
# Poissons Ratio (z) = 0.04544 0.26015
#
# Static dielectric constant tensor:
#      x y z
#    x 2.115690 0.000000 0.000000 
#    y 0.000000 2.112090 0.000000 
#    z 0.000000 0.000000 2.044290 
# 
# From -- ./inp_files/18696.got.cif
#   From: 2010.05.17/outbox.cif.g08.bks.cpg/sg49_10_cif.got.tgz:18696.got - 2010.06.03 21:02:19.
