data_PCOD9394486
_publ_section_title
;
Structure prediction by ZEFSAII (Michael W. Deem and Ramdas Pophale) SiO2 
 PCOD9394486
Probable space group: P C C M
;
_chemical_formula_sum "Si O2"
_cell_formula_units_Z 40
_cell_length_a 15.605611
_cell_length_b 14.963498
_cell_length_c 8.623193
_cell_angle_alpha 90.000000
_cell_angle_beta 90.000000
_cell_angle_gamma 90.000000
_cell_volume 2013.640852
_symmetry_space_group_name_H-M "P C C M"
_symmetry_group_IT_number 49
_symmetry_cell_setting 'orthorhombic'
loop_
_space_group_symop_operation_xyz
x,y,z
-x,-y,z
x,-y,1/2-z
-x,y,1/2-z
-x,-y,-z
x,y,-z
-x,y,1/2+z
x,-y,1/2+z
loop_
_atom_site_type_symbol
_atom_site_label
_atom_site_fract_x
_atom_site_fract_y
_atom_site_fract_z
Si Si1 0.587258 0.101575 0.814456
Si Si2 0.224230 0.100206 0.687033
Si Si3 0.776380 0.399239 0.686349
Si Si4 0.095749 0.253447 0.686148
Si Si5 0.412692 0.601499 0.685369
O O1 0.500000 0.143860 0.750000
O O2 0.681085 0.136800 0.767869
O O3 0.588478 0.000000 0.750000
O O4 0.581603 0.099858 0.000000
O O5 0.223252 0.095805 0.500000
O O6 0.149271 0.166159 0.738480
O O7 0.214167 0.000000 0.750000
O O8 0.783274 0.500000 0.750000
O O9 0.781409 0.401152 0.500000
O O10 0.850337 0.337968 0.754943
O O11 0.681175 0.362552 0.729850
O O12 0.093597 0.254293 0.500000
O O13 0.000000 0.253299 0.750000
O O14 0.411452 0.500000 0.750000
O O15 0.500000 0.643779 0.750000
O O16 0.418439 0.599121 0.500000
#
# Coordination Sequence:
#
# PCOD9394486 Si02
#       5
#     8   8   8   8   8
#     4   9  15  26  46  75 108 143 180 218 263 317
#     4   9  20  37  58  83 113 148 185 226 276 330
#     4  10  21  38  60  87 116 150 189 231 279 333
#     4  11  24  42  61  83 111 144 185 237 289 340
#     4   9  16  27  48  78 112 147 184 222 266 320
#
# _framework density 19.864515000000001
#
# number of rings (size 3 to 8) (size 9 to 14) (size 15 to 20)
#    0.000    2.400    0.000    3.600    0.000    5.600 
#    0.000    5.000    0.000    4.800    0.000    0.000 
#    0.000    0.000    0.000    0.000    0.000    0.000 
#
# Total GULP energy -223165.397509 kJ/mol
# GULP energy per Si atom -5579.134938 kJ/mol
# Density = 1.981930 g / cm^3
# Si number density = 19.864515 Si / 1000 Ang^3
#
#
#
# Elastic Constant Matrix: (Units=GPa)
#
#
# Indices 1 2 3 4 5 6 
#
# 1 248.2500 82.9365 62.3256 0.0000 0.0000 0.0000
# 2 82.9365 96.4055 22.9119 0.0000 0.0000 0.0000
# 3 62.3256 22.9119 54.5395 0.0000 0.0000 0.0000
# 4 0.0000 0.0000 0.0000 5.9981 0.0000 0.0000
# 5 0.0000 0.0000 0.0000 0.0000 35.3047 0.0000
# 6 0.0000 0.0000 0.0000 0.0000 0.0000 40.1599
#
#
#
# Elastic Compliance Matrix: (Units=1/GPa)
#
#
# Indices 1 2 3 4 5 6 
#
# 1 0.007147 -0.004674 -0.006204 0.000000 0.000000 0.000000
# 2 -0.004674 0.014580 -0.000783 0.000000 0.000000 0.000000
# 3 -0.006204 -0.000783 0.025754 0.000000 0.000000 0.000000
# 4 0.000000 0.000000 0.000000 0.166718 0.000000 0.000000
# 5 0.000000 0.000000 0.000000 0.000000 0.028325 0.000000
# 6 0.000000 0.000000 0.000000 0.000000 0.000000 0.024900
#
#
# Mechanical properties :
#
#
# Convention : Reuss Voigt Hill
#
# Bulk Modulus (GPa) = 41.39389 81.72702 61.56045
# Shear Modulus (GPa) = 16.73347 31.69395 24.21371
#
# Velocity S-wave (km/s) = 2.90553 3.99871 3.49512
# Velocity P-wave (km/s) = 5.66917 7.90893 6.88079
#
# Compressibility (1/GPa) = 0.02415815
#
# Stress axis : x y z
#
# Youngs Moduli (GPa) = 139.91018 68.58540 38.82841
#
# Poissons Ratio (x) = 0.32059 0.24090
# Poissons Ratio (y) = 0.65399 0.03042
# Poissons Ratio (z) = 0.86802 0.05374
#
# Static dielectric constant tensor:
#      x y z
#    x 1.737580 0.000000 0.000000 
#    y 0.000000 1.707140 0.000000 
#    z 0.000000 0.000000 1.666830 
# 
# From -- ./inp_files/3439.got.cif
#   From: 2010.05.17/outbox.cif.g08.bks.cpg/sg49_2_cif.got.tgz:3439.got - 2010.06.03 21:02:19.
