data_PCOD9394446
_publ_section_title
;
Structure prediction by ZEFSAII (Michael W. Deem and Ramdas Pophale) SiO2 
 PCOD9394446
Probable space group: P C C M
;
_chemical_formula_sum "Si O2"
_cell_formula_units_Z 64
_cell_length_a 9.146954
_cell_length_b 20.563087
_cell_length_c 14.939317
_cell_angle_alpha 90.000000
_cell_angle_beta 90.000000
_cell_angle_gamma 90.000000
_cell_volume 2809.930321
_symmetry_space_group_name_H-M "P C C M"
_symmetry_group_IT_number 49
_symmetry_cell_setting 'orthorhombic'
loop_
_space_group_symop_operation_xyz
x,y,z
-x,-y,z
x,-y,1/2-z
-x,y,1/2-z
-x,-y,-z
x,y,-z
-x,y,1/2+z
x,-y,1/2+z
loop_
_atom_site_type_symbol
_atom_site_label
_atom_site_fract_x
_atom_site_fract_y
_atom_site_fract_z
Si Si1 0.626286 0.916759 0.100787
Si Si2 0.723550 0.060072 0.897468
Si Si3 0.245535 0.835311 0.245102
Si Si4 0.651448 0.379312 0.785367
Si Si5 0.678239 0.507319 0.400477
Si Si6 0.262598 0.357281 0.095928
Si Si7 0.969152 0.731413 0.158575
Si Si8 0.300407 0.742115 0.898600
O O1 0.452292 0.928475 0.104828
O O2 0.664824 0.867064 0.176454
O O3 0.721925 0.982332 0.117548
O O4 0.660157 0.894641 0.000000
O O5 0.800011 0.105721 0.823335
O O6 0.772930 0.074023 0.000000
O O7 0.125212 0.791522 0.299453
O O8 0.344403 0.791567 0.179102
O O9 0.500000 0.408058 0.750000
O O10 0.731543 0.441976 0.825900
O O11 0.687930 0.338483 0.696163
O O12 0.647356 0.328647 0.866883
O O13 0.500000 0.500000 0.397501
O O14 0.712141 0.533030 0.500000
O O15 0.745437 0.435278 0.394545
O O16 0.118074 0.314707 0.093101
O O17 0.341801 0.346336 0.000000
O O18 0.000000 0.691105 0.250000
O O19 0.123615 0.747583 0.113345
O O20 0.342626 0.757487 0.000000
#
# Coordination Sequence:
#
# PCOD9394446 Si02
#       8
#     8   8   8   8   8   8   8   8
#     4   9  19  34  57  91 132 173 206 248 307 372
#     4   9  18  35  58  90 132 171 207 250 308 371
#     4  11  20  35  60  90 118 156 213 258 306 359
#     4  12  23  39  64  95 126 161 199 251 314 380
#     4  10  21  37  61  93 126 161 199 248 315 381
#     4  11  22  39  63  91 123 161 207 255 309 371
#     4  10  22  44  63  84 114 164 220 260 312 357
#     4  11  25  45  66  85 119 166 212 260 312 367
#
# _framework density 22.776364999999998
#
# number of rings (size 3 to 8) (size 9 to 14) (size 15 to 20)
#    0.000    1.625    3.750    3.000    0.000    3.500 
#    0.000    0.625    0.000   15.750    0.000   19.250 
#    0.000    0.000    0.000    0.000    0.000    0.000 
#
# Total GULP energy -356272.376809 kJ/mol
# GULP energy per Si atom -5566.755888 kJ/mol
# Density = 2.272452 g / cm^3
# Si number density = 22.776365 Si / 1000 Ang^3
#
#
#
# Elastic Constant Matrix: (Units=GPa)
#
#
# Indices 1 2 3 4 5 6 
#
# 1 28.3374 25.4246 28.3474 0.0000 0.0000 0.0000
# 2 25.4246 94.2340 69.0932 0.0000 0.0000 0.0000
# 3 28.3474 69.0932 173.6872 0.0000 0.0000 0.0000
# 4 0.0000 0.0000 0.0000 -304.0070 0.0000 0.0000
# 5 0.0000 0.0000 0.0000 0.0000 21.8271 0.0000
# 6 0.0000 0.0000 0.0000 0.0000 0.0000 -42.5659
#
#
#
# Elastic Compliance Matrix: (Units=1/GPa)
#
#
# Indices 1 2 3 4 5 6 
#
# 1 0.048281 -0.010234 -0.003809 0.000000 0.000000 0.000000
# 2 -0.010234 0.017151 -0.005152 0.000000 0.000000 0.000000
# 3 -0.003809 -0.005152 0.008429 0.000000 0.000000 0.000000
# 4 0.000000 0.000000 0.000000 -0.003289 0.000000 0.000000
# 5 0.000000 0.000000 0.000000 0.000000 0.045815 0.000000
# 6 0.000000 0.000000 0.000000 0.000000 0.000000 -0.023493
#
#
# Mechanical properties :
#
#
# Convention : Reuss Voigt Hill
#
# Bulk Modulus (GPa) = 28.19233 60.22099 44.20666
# Shear Modulus (GPa) = 34.93911 -53.38961 -9.22525
#
# Velocity S-wave (km/s) = 3.92089 -4.84682 -2.01473
# Velocity P-wave (km/s) = 5.73608 2.19653 3.74686
#
# Compressibility (1/GPa) = 0.03547064
#
# Stress axis : x y z
#
# Youngs Moduli (GPa) = 20.71207 58.30673 118.64138
#
# Poissons Ratio (x) = 0.59668 0.45190
# Poissons Ratio (y) = 0.21196 0.61128
# Poissons Ratio (z) = 0.07889 0.30042
#
# Static dielectric constant tensor:
#      x y z
#    x 2.022870 0.000000 0.000000 
#    y 0.000000 1.898400 0.000000 
#    z 0.000000 0.000000 1.919890 
# 
# From -- ./inp_files/13076.got.cif
#   From: 2010.05.17/outbox.cif.g08.bks.cpg/sg49_7_cif.got.tgz:13076.got - 2010.06.03 21:02:19.
