data_PCOD9394398
_publ_section_title
;
Structure prediction by ZEFSAII (Michael W. Deem and Ramdas Pophale) SiO2 
 PCOD9394398
Probable space group: P C C M
;
_chemical_formula_sum "Si O2"
_cell_formula_units_Z 48
_cell_length_a 8.610436
_cell_length_b 19.739568
_cell_length_c 15.401729
_cell_angle_alpha 90.000000
_cell_angle_beta 90.000000
_cell_angle_gamma 90.000000
_cell_volume 2617.774690
_symmetry_space_group_name_H-M "P C C M"
_symmetry_group_IT_number 49
_symmetry_cell_setting 'orthorhombic'
loop_
_space_group_symop_operation_xyz
x,y,z
-x,-y,z
x,-y,1/2-z
-x,y,1/2-z
-x,-y,-z
x,y,-z
-x,y,1/2+z
x,-y,1/2+z
loop_
_atom_site_type_symbol
_atom_site_label
_atom_site_fract_x
_atom_site_fract_y
_atom_site_fract_z
Si Si1 0.812512 0.679031 0.900020
Si Si2 0.810384 0.422575 0.750000
Si Si3 0.812512 0.320969 0.099980
Si Si4 0.685904 0.827119 0.100600
Si Si5 0.685904 0.827119 0.399400
Si Si6 0.813947 0.078056 0.250000
O O1 0.762711 0.620252 0.834485
O O2 0.744871 0.752087 0.874894
O O3 1.000000 0.683694 0.896283
O O4 0.768094 0.665315 0.000000
O O5 0.756176 0.500000 0.750000
O O6 0.762711 0.379747 0.834485
O O7 0.000000 0.424228 0.750000
O O8 0.744871 0.247913 0.125106
O O9 0.768094 0.334685 0.000000
O O10 0.500000 0.828301 0.105307
O O11 0.753848 0.882170 0.165676
O O12 0.732615 0.838805 0.000000
O O13 0.732615 0.838805 0.500000
O O14 0.753848 0.882170 0.334324
O O15 0.000000 0.079444 0.250000
O O16 0.761644 0.000000 0.250000
#
# Coordination Sequence:
#
# PCOD9394398 Si02
#       6
#     8   8   8   8   8   8
#     4   9  17  30  50  74  99 131 172 216 260 307
#     4   9  17  28  44  70 102 133 168 213 262 308
#     4   9  17  30  50  74  99 131 172 216 260 307
#     4  10  21  37  58  82 107 138 177 221 266 312
#     4  10  21  37  58  82 107 138 177 221 266 312
#     4  11  24  39  56  80 110 143 176 213 260 314
#
# _framework density 18.336183999999999
#
# number of rings (size 3 to 8) (size 9 to 14) (size 15 to 20)
#    0.000    2.333    0.000    2.500    0.000    6.000 
#    0.000    6.667    0.000    2.000    0.000    4.667 
#    0.000    0.000    0.000    0.000    0.000    0.000 
#
# Total GULP energy -267975.471000 kJ/mol
# GULP energy per Si atom -5582.822313 kJ/mol
# Density = 1.829445 g / cm^3
# Si number density = 18.336184 Si / 1000 Ang^3
#
#
#
# Elastic Constant Matrix: (Units=GPa)
#
#
# Indices 1 2 3 4 5 6 
#
# 1 17.9539 35.5000 28.8311 0.0000 0.0000 0.0000
# 2 35.5000 208.8656 127.0487 0.0000 0.0000 0.0000
# 3 28.8311 127.0487 122.4570 0.0000 0.0000 0.0000
# 4 0.0000 0.0000 0.0000 -7.4992 0.0000 0.0000
# 5 0.0000 0.0000 0.0000 0.0000 14.5055 0.0000
# 6 0.0000 0.0000 0.0000 0.0000 0.0000 -21.4743
#
#
#
# Elastic Compliance Matrix: (Units=1/GPa)
#
#
# Indices 1 2 3 4 5 6 
#
# 1 0.092931 -0.006739 -0.014888 0.000000 0.000000 0.000000
# 2 -0.006739 0.013467 -0.012385 0.000000 0.000000 0.000000
# 3 -0.014888 -0.012385 0.024521 0.000000 0.000000 0.000000
# 4 0.000000 0.000000 0.000000 -0.133347 0.000000 0.000000
# 5 0.000000 0.000000 0.000000 0.000000 0.068940 0.000000
# 6 0.000000 0.000000 0.000000 0.000000 0.000000 -0.046567
#
#
# Mechanical properties :
#
#
# Convention : Reuss Voigt Hill
#
# Bulk Modulus (GPa) = 15.89965 81.33734 48.61849
# Shear Modulus (GPa) = 45.90023 7.63284 26.76653
#
# Velocity S-wave (km/s) = 5.00869 2.04249 3.82483
# Velocity P-wave (km/s) = 6.49148 7.07231 6.78811
#
# Compressibility (1/GPa) = 0.06289446
#
# Stress axis : x y z
#
# Youngs Moduli (GPa) = 10.76071 74.25666 40.78181
#
# Poissons Ratio (x) = 0.50043 0.60714
# Poissons Ratio (y) = 0.07252 0.50509
# Poissons Ratio (z) = 0.16020 0.91968
#
# Static dielectric constant tensor:
#      x y z
#    x 1.612640 0.000000 0.000000 
#    y 0.000000 1.595620 0.000000 
#    z 0.000000 0.000000 1.636590 
# 
# From -- ./inp_files/11758.got.cif
#   From: 2010.05.17/outbox.cif.g08.bks.cpg/sg49_6_cif.got.tgz:11758.got - 2010.06.03 21:02:19.
