data_PCOD9394134
_publ_section_title
;
Structure prediction by ZEFSAII (Michael W. Deem and Ramdas Pophale) SiO2 
 PCOD9394134
Probable space group: P C C M
;
_chemical_formula_sum "Si O2"
_cell_formula_units_Z 58
_cell_length_a 9.861855
_cell_length_b 16.086125
_cell_length_c 17.308888
_cell_angle_alpha 90.000000
_cell_angle_beta 90.000000
_cell_angle_gamma 90.000000
_cell_volume 2745.865242
_symmetry_space_group_name_H-M "P C C M"
_symmetry_group_IT_number 49
_symmetry_cell_setting 'orthorhombic'
loop_
_space_group_symop_operation_xyz
x,y,z
-x,-y,z
x,-y,1/2-z
-x,y,1/2-z
-x,-y,-z
x,y,-z
-x,y,1/2+z
x,-y,1/2+z
loop_
_atom_site_type_symbol
_atom_site_label
_atom_site_fract_x
_atom_site_fract_y
_atom_site_fract_z
Si Si1 0.789653 0.175858 0.302366
Si Si2 0.080595 0.586119 0.678009
Si Si3 0.500000 0.000000 0.750000
Si Si4 0.980023 0.264894 0.416040
Si Si5 0.298295 0.715872 0.085594
Si Si6 0.150862 0.027870 0.911890
Si Si7 0.690083 0.883974 0.351388
Si Si8 0.341277 0.651983 0.251056
O O1 0.917891 0.214483 0.345574
O O2 0.771726 0.094516 0.357082
O O3 0.796465 0.143074 0.215441
O O4 0.688325 0.256194 0.290424
O O5 0.060731 0.640610 0.602475
O O6 0.237138 0.590206 0.705097
O O7 0.000000 0.500000 0.668713
O O8 0.000000 0.628386 0.750000
O O9 0.583788 0.938405 0.695672
O O10 0.925664 0.240273 0.500000
O O11 0.140667 0.259270 0.418551
O O12 0.371011 0.801771 0.109722
O O13 0.306455 0.656745 0.159754
O O14 0.339572 0.686144 0.000000
O O15 0.236902 0.943695 0.910739
O O16 0.137369 0.057977 0.000000
O O17 0.000000 0.000000 0.884234
O O18 0.500000 0.632359 0.250000
#
# Coordination Sequence:
#
# PCOD9394134 Si02
#       8
#     8   8   2   8   8   8   8   8
#     4  10  21  35  58  85 114 159 209 265 318 375
#     4  10  20  39  66  98 130 163 207 251 292 378
#     4  12  24  44  52  72 104 156 220 270 300 388
#     4  10  20  37  62  94 126 157 198 255 314 372
#     4  10  21  37  60  88 121 160 201 256 321 375
#     4  11  22  36  53  82 120 154 204 272 333 381
#     4  11  23  37  57  75 111 157 211 259 316 369
#     4  10  22  39  64  94 129 167 211 261 315 378
#
# _framework density 21.122667
#
# number of rings (size 3 to 8) (size 9 to 14) (size 15 to 20)
#    0.000    1.655    2.759    1.655    3.862    5.793 
#    0.000    7.586    0.000    0.414    0.000    1.931 
#    0.000    0.000    0.000    0.000    0.000    0.000 
#
# Total GULP energy -323188.443949 kJ/mol
# GULP energy per Si atom -5572.214551 kJ/mol
# Density = 2.107459 g / cm^3
# Si number density = 21.122667 Si / 1000 Ang^3
#
#
#
# Elastic Constant Matrix: (Units=GPa)
#
#
# Indices 1 2 3 4 5 6 
#
# 1 95.1151 22.1878 27.6860 0.0000 0.0000 0.0000
# 2 22.1878 86.2124 31.1968 0.0000 0.0000 0.0000
# 3 27.6860 31.1968 113.4868 0.0000 0.0000 0.0000
# 4 0.0000 0.0000 0.0000 -97.7307 0.0000 0.0000
# 5 0.0000 0.0000 0.0000 0.0000 20.8196 0.0000
# 6 0.0000 0.0000 0.0000 0.0000 0.0000 19.9220
#
#
#
# Elastic Compliance Matrix: (Units=1/GPa)
#
#
# Indices 1 2 3 4 5 6 
#
# 1 0.011679 -0.002193 -0.002246 0.000000 0.000000 0.000000
# 2 -0.002193 0.013292 -0.003119 0.000000 0.000000 0.000000
# 3 -0.002246 -0.003119 0.010217 0.000000 0.000000 0.000000
# 4 0.000000 0.000000 0.000000 -0.010232 0.000000 0.000000
# 5 0.000000 0.000000 0.000000 0.000000 0.048032 0.000000
# 6 0.000000 0.000000 0.000000 0.000000 0.000000 0.050196
#
#
# Mechanical properties :
#
#
# Convention : Reuss Voigt Hill
#
# Bulk Modulus (GPa) = 49.82112 50.77281 50.29697
# Shear Modulus (GPa) = 34.48501 2.85177 18.66839
#
# Velocity S-wave (km/s) = 4.04494 1.16320 2.97612
# Velocity P-wave (km/s) = 6.74189 5.08855 5.97271
#
# Compressibility (1/GPa) = 0.02007181
#
# Stress axis : x y z
#
# Youngs Moduli (GPa) = 85.62386 75.23180 97.87599
#
# Poissons Ratio (x) = 0.16497 0.21987
# Poissons Ratio (y) = 0.18776 0.30527
# Poissons Ratio (z) = 0.19234 0.23465
#
# Static dielectric constant tensor:
#      x y z
#    x 1.789490 0.000000 0.000000 
#    y 0.000000 1.879620 0.000000 
#    z 0.000000 0.000000 1.769670 
# 
# From -- ./inp_files/16506.got.cif
#   From: 2010.05.17/outbox.cif.g08.bks.cpg/sg49_9_cif.got.tgz:16506.got - 2010.06.03 21:02:19.
