data_PCOD9394473
_publ_section_title
;
Structure prediction by ZEFSAII (Michael W. Deem and Ramdas Pophale) SiO2 
 PCOD9394473
Probable space group: P C C M
;
_chemical_formula_sum "Si O2"
_cell_formula_units_Z 40
_cell_length_a 12.129062
_cell_length_b 10.829450
_cell_length_c 13.423409
_cell_angle_alpha 90.000000
_cell_angle_beta 90.000000
_cell_angle_gamma 90.000000
_cell_volume 1763.179142
_symmetry_space_group_name_H-M "P C C M"
_symmetry_group_IT_number 49
_symmetry_cell_setting 'orthorhombic'
loop_
_space_group_symop_operation_xyz
x,y,z
-x,-y,z
x,-y,1/2-z
-x,y,1/2-z
-x,-y,-z
x,y,-z
-x,y,1/2+z
x,-y,1/2+z
loop_
_atom_site_type_symbol
_atom_site_label
_atom_site_fract_x
_atom_site_fract_y
_atom_site_fract_z
Si Si1 0.962536 0.790393 0.883175
Si Si2 0.222075 0.037523 0.119390
Si Si3 0.552307 0.137602 0.616187
Si Si4 0.850723 0.357257 0.759203
Si Si5 0.321980 0.766077 0.120046
O O1 0.899190 0.916231 0.849826
O O2 0.865087 0.695563 0.852157
O O3 0.066155 0.727732 0.827218
O O4 0.987678 0.798367 0.000000
O O5 0.324925 0.120204 0.158140
O O6 0.256321 0.896151 0.136968
O O7 0.221128 0.050858 0.000000
O O8 0.566598 0.169119 0.500000
O O9 0.449631 0.218849 0.650584
O O10 0.500000 0.000000 0.620691
O O11 0.879223 0.500000 0.750000
O O12 0.736296 0.337351 0.814601
O O13 0.316710 0.744885 0.000000
#
# Coordination Sequence:
#
# PCOD9394473 Si02
#       5
#     8   8   8   8   8
#     4  10  21  38  59  79 105 142 184 240 298 342
#     4   8  15  30  56  90 119 145 181 224 284 357
#     4   7  11  24  50  84 119 149 174 207 263 339
#     4  11  24  38  54  78 107 147 203 242 274 342
#     4   9  17  32  57  88 122 152 179 226 287 342
#
# _framework density 22.686295000000001
#
# number of rings (size 3 to 8) (size 9 to 14) (size 15 to 20)
#    0.000    3.000    0.000    4.200    0.000    4.000 
#    0.000    6.000    0.000    7.200    0.000    5.600 
#    0.000    0.000    0.000    0.000    0.000    0.000 
#
# Total GULP energy -222796.569336 kJ/mol
# GULP energy per Si atom -5569.914233 kJ/mol
# Density = 2.263466 g / cm^3
# Si number density = 22.686295 Si / 1000 Ang^3
#
#
#
# Elastic Constant Matrix: (Units=GPa)
#
#
# Indices 1 2 3 4 5 6 
#
# 1 133.5333 54.2556 39.2411 0.0000 0.0000 0.0000
# 2 54.2556 35.8384 12.4336 0.0000 0.0000 0.0000
# 3 39.2411 12.4336 93.1979 0.0000 0.0000 0.0000
# 4 0.0000 0.0000 0.0000 15.1780 0.0000 0.0000
# 5 0.0000 0.0000 0.0000 0.0000 39.0634 0.0000
# 6 0.0000 0.0000 0.0000 0.0000 0.0000 9.8682
#
#
#
# Elastic Compliance Matrix: (Units=1/GPa)
#
#
# Indices 1 2 3 4 5 6 
#
# 1 0.021411 -0.030707 -0.004918 0.000000 0.000000 0.000000
# 2 -0.030707 0.073298 0.003151 0.000000 0.000000 0.000000
# 3 -0.004918 0.003151 0.012380 0.000000 0.000000 0.000000
# 4 0.000000 0.000000 0.000000 0.065885 0.000000 0.000000
# 5 0.000000 0.000000 0.000000 0.000000 0.025599 0.000000
# 6 0.000000 0.000000 0.000000 0.000000 0.000000 0.101336
#
#
# Mechanical properties :
#
#
# Convention : Reuss Voigt Hill
#
# Bulk Modulus (GPa) = 23.73108 52.71446 38.22277
# Shear Modulus (GPa) = 13.19591 23.26452 18.23021
#
# Velocity S-wave (km/s) = 2.41440 3.20580 2.83782
# Velocity P-wave (km/s) = 4.27266 6.08190 5.25572
#
# Compressibility (1/GPa) = 0.04213883
#
# Stress axis : x y z
#
# Youngs Moduli (GPa) = 46.70561 13.64300 80.77290
#
# Poissons Ratio (x) = 0.41894 0.39727
# Poissons Ratio (y) = 1.43420 -0.25449
# Poissons Ratio (z) = 0.22971 -0.04298
#
# Static dielectric constant tensor:
#      x y z
#    x 1.931780 0.000000 0.000000 
#    y 0.000000 1.840370 0.000000 
#    z 0.000000 0.000000 1.918840 
# 
# From -- ./inp_files/12575.got.cif
#   From: 2010.05.17/outbox.cif.g08.bks.cpg/sg49_7_cif.got.tgz:12575.got - 2010.06.03 21:02:19.
