data_PCOD9394913
_publ_section_title
;
Structure prediction by ZEFSAII (Michael W. Deem and Ramdas Pophale) SiO2 
 PCOD9394913
Probable space group: P C C M
;
_chemical_formula_sum "Si O2"
_cell_formula_units_Z 56
_cell_length_a 15.511655
_cell_length_b 20.441889
_cell_length_c 9.325646
_cell_angle_alpha 90.000000
_cell_angle_beta 90.000000
_cell_angle_gamma 90.000000
_cell_volume 2957.046053
_symmetry_space_group_name_H-M "P C C M"
_symmetry_group_IT_number 49
_symmetry_cell_setting 'orthorhombic'
loop_
_space_group_symop_operation_xyz
x,y,z
-x,-y,z
x,-y,1/2-z
-x,y,1/2-z
-x,-y,-z
x,y,-z
-x,y,1/2+z
x,-y,1/2+z
loop_
_atom_site_type_symbol
_atom_site_label
_atom_site_fract_x
_atom_site_fract_y
_atom_site_fract_z
Si Si1 0.270353 0.566138 0.328759
Si Si2 0.914914 0.623331 0.829089
Si Si3 0.868545 0.750881 0.662992
Si Si4 0.413689 0.674713 0.670917
Si Si5 0.084001 0.901133 0.167343
Si Si6 0.277909 0.935569 0.827177
Si Si7 0.331871 0.209001 0.332793
O O1 0.296050 0.500000 0.250000
O O2 0.272361 0.556598 0.500000
O O3 0.172740 0.585757 0.288371
O O4 0.335279 0.625344 0.295260
O O5 0.900141 0.697790 0.775688
O O6 0.000000 0.597867 0.750000
O O7 0.924944 0.621047 0.000000
O O8 0.886172 0.727378 0.500000
O O9 0.910197 0.822213 0.679483
O O10 0.766198 0.763798 0.675798
O O11 0.500000 0.652046 0.750000
O O12 0.425091 0.676649 0.500000
O O13 0.389256 0.745823 0.732579
O O14 0.177392 0.926308 0.217525
O O15 0.000000 0.924277 0.250000
O O16 0.075960 0.917428 0.000000
O O17 0.326067 0.867561 0.793219
O O18 0.312305 0.000000 0.750000
O O19 0.279109 0.942230 0.000000
O O20 0.358461 0.214348 0.500000
#
# Coordination Sequence:
#
# PCOD9394913 Si02
#       7
#     8   8   8   8   8   8   8
#     4  10  24  43  62  86 121 158 197 241 289 346
#     4  11  22  36  54  82 116 153 199 247 290 341
#     4   9  17  31  52  77 106 145 190 238 293 344
#     4  11  23  41  65  96 124 151 191 237 289 352
#     4   9  18  30  43  66 101 140 187 240 288 341
#     4   9  19  34  51  75 108 147 193 236 286 347
#     4   9  18  35  59  85 115 151 190 237 290 346
#
# _framework density 18.937818
#
# number of rings (size 3 to 8) (size 9 to 14) (size 15 to 20)
#    0.000    2.286    1.429    3.000    0.000    6.000 
#    0.000    7.143    0.000    0.429    0.000    3.000 
#    0.000    0.000    0.000    0.000    0.000    0.000 
#
# Total GULP energy -312631.618676 kJ/mol
# GULP energy per Si atom -5582.707476 kJ/mol
# Density = 1.889471 g / cm^3
# Si number density = 18.937818 Si / 1000 Ang^3
#
#
#
# Elastic Constant Matrix: (Units=GPa)
#
#
# Indices 1 2 3 4 5 6 
#
# 1 79.2526 32.2636 40.5498 0.0000 0.0000 0.0000
# 2 32.2636 101.2733 43.5660 0.0000 0.0000 0.0000
# 3 40.5498 43.5660 51.7196 0.0000 0.0000 0.0000
# 4 0.0000 0.0000 0.0000 24.7343 0.0000 0.0000
# 5 0.0000 0.0000 0.0000 0.0000 37.9577 0.0000
# 6 0.0000 0.0000 0.0000 0.0000 0.0000 -3.5720
#
#
#
# Elastic Compliance Matrix: (Units=1/GPa)
#
#
# Indices 1 2 3 4 5 6 
#
# 1 0.021095 0.000619 -0.017060 0.000000 0.000000 0.000000
# 2 0.000619 0.015504 -0.013545 0.000000 0.000000 0.000000
# 3 -0.017060 -0.013545 0.044120 0.000000 0.000000 0.000000
# 4 0.000000 0.000000 0.000000 0.040430 0.000000 0.000000
# 5 0.000000 0.000000 0.000000 0.000000 0.026345 0.000000
# 6 0.000000 0.000000 0.000000 0.000000 0.000000 -0.279956
#
#
# Mechanical properties :
#
#
# Convention : Reuss Voigt Hill
#
# Bulk Modulus (GPa) = 48.20117 51.66716 49.93417
# Shear Modulus (GPa) = -76.24929 19.54841 -28.35044
#
# Velocity S-wave (km/s) = -6.35220 3.21634 -3.87334
# Velocity P-wave (km/s) = 5.31911 6.41365 2.53396
#
# Compressibility (1/GPa) = 0.02074638
#
# Stress axis : x y z
#
# Youngs Moduli (GPa) = 47.40476 64.50004 22.66547
#
# Poissons Ratio (x) = -0.03990 0.38668
# Poissons Ratio (y) = -0.02932 0.30700
# Poissons Ratio (z) = 0.80873 0.87363
#
# Static dielectric constant tensor:
#      x y z
#    x 1.668300 0.000000 0.000000 
#    y 0.000000 1.647920 0.000000 
#    z 0.000000 0.000000 1.633160 
# 
# From -- ./inp_files/4075.got.cif
#   From: 2010.05.17/outbox.cif.g08.bks.cpg/sg49_3_cif.got.tgz:4075.got - 2010.06.03 21:02:19.
