data_PCOD9394823
_publ_section_title
;
Structure prediction by ZEFSAII (Michael W. Deem and Ramdas Pophale) SiO2 
 PCOD9394823
Probable space group: P C C M
;
_chemical_formula_sum "Si O2"
_cell_formula_units_Z 48
_cell_length_a 11.374409
_cell_length_b 9.716294
_cell_length_c 22.919014
_cell_angle_alpha 90.000000
_cell_angle_beta 90.000000
_cell_angle_gamma 90.000000
_cell_volume 2532.943006
_symmetry_space_group_name_H-M "P C C M"
_symmetry_group_IT_number 49
_symmetry_cell_setting 'orthorhombic'
loop_
_space_group_symop_operation_xyz
x,y,z
-x,-y,z
x,-y,1/2-z
-x,y,1/2-z
-x,-y,-z
x,y,-z
-x,y,1/2+z
x,-y,1/2+z
loop_
_atom_site_type_symbol
_atom_site_label
_atom_site_fract_x
_atom_site_fract_y
_atom_site_fract_z
Si Si1 0.631681 0.455960 0.151993
Si Si2 0.760816 0.255486 0.654068
Si Si3 0.635273 0.196290 0.230723
Si Si4 0.638408 0.009837 0.883906
Si Si5 0.026257 0.664171 0.430449
Si Si6 0.766974 0.256948 0.934238
O O1 0.500000 0.500000 0.137248
O O2 0.702339 0.595530 0.159160
O O3 0.630816 0.351986 0.206348
O O4 0.693384 0.364443 0.103099
O O5 0.736653 0.195173 0.719755
O O6 0.880002 0.283138 0.617533
O O7 0.688468 0.143298 0.617267
O O8 0.500000 0.167626 0.250000
O O9 0.656874 0.089099 0.178256
O O10 0.708018 0.108453 0.927553
O O11 0.500000 0.000000 0.895201
O O12 0.058082 0.685489 0.500000
O O13 0.000000 0.500000 0.423911
O O14 0.903653 0.741313 0.417429
O O15 0.763940 0.306120 0.000000
#
# Coordination Sequence:
#
# PCOD9394823 Si02
#       6
#     8   8   8   8   8   8
#     4  11  21  36  61  98 127 162 217 270 321 383
#     4  12  22  35  67  98 121 170 226 264 315 394
#     4  11  21  38  63  92 131 172 206 258 326 395
#     4  11  23  40  63  98 133 173 210 263 329 400
#     4  10  22  44  69  91 124 172 225 277 326 381
#     4  10  23  44  65  88 130 175 213 269 330 382
#
# _framework density 18.950288
#
# number of rings (size 3 to 8) (size 9 to 14) (size 15 to 20)
#    0.000    1.167    5.000    2.000    0.000    2.000 
#    0.000    6.667    0.000    4.000    0.000    0.000 
#    0.000    0.000    0.000    0.000    0.000    0.000 
#
# Total GULP energy -267550.929801 kJ/mol
# GULP energy per Si atom -5573.977704 kJ/mol
# Density = 1.890716 g / cm^3
# Si number density = 18.950288 Si / 1000 Ang^3
#
#
#
# Elastic Constant Matrix: (Units=GPa)
#
#
# Indices 1 2 3 4 5 6 
#
# 1 131.0533 29.6884 66.1102 0.0000 0.0000 0.0000
# 2 29.6884 99.6589 -1.0503 0.0000 0.0000 0.0000
# 3 66.1102 -1.0503 66.2106 0.0000 0.0000 0.0000
# 4 0.0000 0.0000 0.0000 10.0421 0.0000 0.0000
# 5 0.0000 0.0000 0.0000 0.0000 27.6497 0.0000
# 6 0.0000 0.0000 0.0000 0.0000 0.0000 36.4072
#
#
#
# Elastic Compliance Matrix: (Units=1/GPa)
#
#
# Indices 1 2 3 4 5 6 
#
# 1 0.017998 -0.005552 -0.018059 0.000000 0.000000 0.000000
# 2 -0.005552 0.011749 0.005730 0.000000 0.000000 0.000000
# 3 -0.018059 0.005730 0.033226 0.000000 0.000000 0.000000
# 4 0.000000 0.000000 0.000000 0.099581 0.000000 0.000000
# 5 0.000000 0.000000 0.000000 0.000000 0.036167 0.000000
# 6 0.000000 0.000000 0.000000 0.000000 0.000000 0.027467
#
#
# Mechanical properties :
#
#
# Convention : Reuss Voigt Hill
#
# Bulk Modulus (GPa) = 36.75053 54.04661 45.39857
# Shear Modulus (GPa) = 18.44888 28.29808 23.37348
#
# Velocity S-wave (km/s) = 3.12355 3.86849 3.51580
# Velocity P-wave (km/s) = 5.69596 6.96676 6.36316
#
# Compressibility (1/GPa) = 0.02721049
#
# Stress axis : x y z
#
# Youngs Moduli (GPa) = 55.56168 85.11700 30.09723
#
# Poissons Ratio (x) = 0.47256 0.54352
# Poissons Ratio (y) = 0.30847 -0.17245
# Poissons Ratio (z) = 1.00338 -0.48771
#
# Static dielectric constant tensor:
#      x y z
#    x 1.671480 0.000000 0.000000 
#    y 0.000000 1.649030 0.000000 
#    z 0.000000 0.000000 1.710560 
# 
# From -- ./inp_files/22876.got.cif
#   From: 2010.05.17/outbox.cif.g08.bks.cpg/sg49_12_cif.got.tgz:22876.got - 2010.06.03 21:02:19.
