data_PCOD9394047
_publ_section_title
;
Structure prediction by ZEFSAII (Michael W. Deem and Ramdas Pophale) SiO2 
 PCOD9394047
Probable space group: P C C M
;
_chemical_formula_sum "Si O2"
_cell_formula_units_Z 64
_cell_length_a 15.719069
_cell_length_b 12.489716
_cell_length_c 15.368247
_cell_angle_alpha 90.000000
_cell_angle_beta 90.000000
_cell_angle_gamma 90.000000
_cell_volume 3017.197335
_symmetry_space_group_name_H-M "P C C M"
_symmetry_group_IT_number 49
_symmetry_cell_setting 'orthorhombic'
loop_
_space_group_symop_operation_xyz
x,y,z
-x,-y,z
x,-y,1/2-z
-x,y,1/2-z
-x,-y,-z
x,y,-z
-x,y,1/2+z
x,-y,1/2+z
loop_
_atom_site_type_symbol
_atom_site_label
_atom_site_fract_x
_atom_site_fract_y
_atom_site_fract_z
Si Si1 0.408187 0.538427 0.150649
Si Si2 0.634962 0.796699 0.899228
Si Si3 0.134970 0.964103 0.894405
Si Si4 0.675537 0.030615 0.151916
Si Si5 0.066411 0.410363 0.106709
Si Si6 0.969509 0.167878 0.394091
Si Si7 0.744910 0.607122 0.101133
Si Si8 0.556515 0.772904 0.604140
O O1 0.500000 0.500000 0.113781
O O2 0.406190 0.500000 0.250000
O O3 0.328075 0.481916 0.106493
O O4 0.404937 0.665592 0.144061
O O5 0.703138 0.714815 0.858922
O O6 0.540140 0.786227 0.861652
O O7 0.663961 0.918810 0.897946
O O8 0.626606 0.763754 0.000000
O O9 0.226557 0.935667 0.857579
O O10 0.059613 0.883613 0.867871
O O11 0.103752 0.083346 0.867980
O O12 0.140438 0.962176 0.000000
O O13 0.612162 0.122671 0.121959
O O14 0.655519 0.000000 0.250000
O O15 0.042759 0.289466 0.133954
O O16 0.163772 0.428511 0.136533
O O17 0.000000 0.500000 0.137012
O O18 0.063103 0.413259 0.000000
O O19 0.968505 0.167544 0.500000
O O20 0.763033 0.631772 0.000000
O O21 0.554275 0.758266 0.500000
#
# Coordination Sequence:
#
# PCOD9394047 Si02
#       8
#     8   8   8   8   8   8   8   8
#     4  11  24  40  63  89 126 164 206 257 315 371
#     4  10  21  39  63  86 116 157 206 252 298 365
#     4   9  17  34  58  82 109 149 202 250 299 360
#     4  12  26  37  56  88 129 162 197 249 315 380
#     4   9  17  29  50  85 120 146 188 250 310 364
#     4   8  15  30  55  81 108 146 195 252 300 353
#     4  10  20  36  63  91 116 158 207 254 306 369
#     4  11  24  42  64  89 120 162 212 260 306 362
#
# _framework density 21.211738
#
# number of rings (size 3 to 8) (size 9 to 14) (size 15 to 20)
#    0.000    2.000    1.250    3.375    1.750    5.500 
#    0.000    3.750    0.000    0.375    0.000    0.000 
#    0.000    0.000    0.000    0.000    0.000    0.000 
#
# Total GULP energy -357506.638881 kJ/mol
# GULP energy per Si atom -5586.041233 kJ/mol
# Density = 2.116346 g / cm^3
# Si number density = 21.211738 Si / 1000 Ang^3
#
#
#
# Elastic Constant Matrix: (Units=GPa)
#
#
# Indices 1 2 3 4 5 6 
#
# 1 161.7295 86.6485 5.9449 0.0000 0.0000 0.0000
# 2 86.6485 93.3638 -5.6901 0.0000 0.0000 0.0000
# 3 5.9449 -5.6901 35.8337 0.0000 0.0000 0.0000
# 4 0.0000 0.0000 0.0000 12.8573 0.0000 0.0000
# 5 0.0000 0.0000 0.0000 0.0000 -17.9732 0.0000
# 6 0.0000 0.0000 0.0000 0.0000 0.0000 -60.1195
#
#
#
# Elastic Compliance Matrix: (Units=1/GPa)
#
#
# Indices 1 2 3 4 5 6 
#
# 1 0.012860 -0.012183 -0.004068 0.000000 0.000000 0.000000
# 2 -0.012183 0.022357 0.005571 0.000000 0.000000 0.000000
# 3 -0.004068 0.005571 0.029466 0.000000 0.000000 0.000000
# 4 0.000000 0.000000 0.000000 0.077777 0.000000 0.000000
# 5 0.000000 0.000000 0.000000 0.000000 -0.055638 0.000000
# 6 0.000000 0.000000 0.000000 0.000000 0.000000 -0.016634
#
#
# Mechanical properties :
#
#
# Convention : Reuss Voigt Hill
#
# Bulk Modulus (GPa) = 23.08195 51.63706 37.35951
# Shear Modulus (GPa) = 47.17516 0.55450 23.86483
#
# Velocity S-wave (km/s) = 4.72106 0.51184 3.35786
# Velocity P-wave (km/s) = 6.37363 4.97451 5.71703
#
# Compressibility (1/GPa) = 0.04332389
#
# Stress axis : x y z
#
# Youngs Moduli (GPa) = 77.76214 44.72911 33.93710
#
# Poissons Ratio (x) = 0.54492 0.13806
# Poissons Ratio (y) = 0.94735 -0.18907
# Poissons Ratio (z) = 0.31634 -0.24920
#
# Static dielectric constant tensor:
#      x y z
#    x 1.776650 0.000000 0.000000 
#    y 0.000000 1.629210 0.000000 
#    z 0.000000 0.000000 1.859940 
# 
# From -- ./inp_files/17979.got.cif
#   From: 2010.05.17/outbox.cif.g08.bks.cpg/sg49_9_cif.got.tgz:17979.got - 2010.06.03 21:02:19.
