data_PCOD9394155
_publ_section_title
;
Structure prediction by ZEFSAII (Michael W. Deem and Ramdas Pophale) SiO2 
 PCOD9394155
Probable space group: P C C M
;
_chemical_formula_sum "Si O2"
_cell_formula_units_Z 64
_cell_length_a 13.835793
_cell_length_b 12.671465
_cell_length_c 17.450884
_cell_angle_alpha 90.000000
_cell_angle_beta 90.000000
_cell_angle_gamma 90.000000
_cell_volume 3059.484912
_symmetry_space_group_name_H-M "P C C M"
_symmetry_group_IT_number 49
_symmetry_cell_setting 'orthorhombic'
loop_
_space_group_symop_operation_xyz
x,y,z
-x,-y,z
x,-y,1/2-z
-x,y,1/2-z
-x,-y,-z
x,y,-z
-x,y,1/2+z
x,-y,1/2+z
loop_
_atom_site_type_symbol
_atom_site_label
_atom_site_fract_x
_atom_site_fract_y
_atom_site_fract_z
Si Si1 0.617074 0.697850 0.819592
Si Si2 0.101839 0.429703 0.090093
Si Si3 0.382968 0.498267 0.416960
Si Si4 0.407751 0.276699 0.357201
Si Si5 0.105230 0.974067 0.659945
Si Si6 0.174939 0.256487 0.177455
Si Si7 0.108935 0.646115 0.157993
Si Si8 0.228525 0.158852 0.409455
O O1 0.641897 0.582805 0.852799
O O2 0.595802 0.686158 0.730221
O O3 0.523382 0.739558 0.866752
O O4 0.712103 0.769666 0.816189
O O5 0.169236 0.331745 0.104756
O O6 0.148221 0.530445 0.134187
O O7 0.001463 0.384091 0.129977
O O8 0.089733 0.451967 0.000000
O O9 0.500000 0.500000 0.418660
O O10 0.344512 0.530762 0.500000
O O11 0.364113 0.375301 0.403602
O O12 0.333645 0.182767 0.372931
O O13 0.119121 0.849420 0.659195
O O14 0.106362 0.000000 0.750000
O O15 0.182860 0.050232 0.620925
O O16 0.000000 0.000000 0.627170
O O17 0.132530 0.317815 0.253778
O O18 0.156056 0.744092 0.112891
O O19 0.238523 0.155880 0.500000
#
# Coordination Sequence:
#
# PCOD9394155 Si02
#       8
#     8   8   8   8   8   8   8   8
#     4  10  21  37  59  90 127 174 220 275 336 404
#     4  11  25  41  62  98 144 179 214 274 349 415
#     4   9  18  32  53  84 124 171 218 267 325 390
#     4  10  20  38  60  88 129 171 225 276 331 403
#     4  11  24  44  69  95 130 171 228 291 344 404
#     4  12  24  41  68  96 130 177 228 275 338 414
#     4  11  22  43  65  95 133 177 225 273 333 413
#     4  12  24  41  70 100 129 174 233 287 343 406
#
# _framework density 20.918555000000001
#
# number of rings (size 3 to 8) (size 9 to 14) (size 15 to 20)
#    0.000    1.250    2.500    3.750    3.500    5.250 
#    0.000    0.625    0.000    3.000    0.000    0.000 
#    0.000    0.000    0.000    0.000    0.000    0.000 
#
# Total GULP energy -356590.275587 kJ/mol
# GULP energy per Si atom -5571.723056 kJ/mol
# Density = 2.087094 g / cm^3
# Si number density = 20.918555 Si / 1000 Ang^3
#
#
#
# Elastic Constant Matrix: (Units=GPa)
#
#
# Indices 1 2 3 4 5 6 
#
# 1 100.3056 31.6205 29.5352 0.0000 0.0000 0.0000
# 2 31.6205 122.5636 47.2223 0.0000 0.0000 0.0000
# 3 29.5352 47.2223 107.0516 0.0000 0.0000 0.0000
# 4 0.0000 0.0000 0.0000 23.4722 0.0000 0.0000
# 5 0.0000 0.0000 0.0000 0.0000 -435.2820 0.0000
# 6 0.0000 0.0000 0.0000 0.0000 0.0000 49.8887
#
#
#
# Elastic Compliance Matrix: (Units=1/GPa)
#
#
# Indices 1 2 3 4 5 6 
#
# 1 0.011266 -0.002059 -0.002200 0.000000 0.000000 0.000000
# 2 -0.002059 0.010206 -0.003934 0.000000 0.000000 0.000000
# 3 -0.002200 -0.003934 0.011684 0.000000 0.000000 0.000000
# 4 0.000000 0.000000 0.000000 0.042604 0.000000 0.000000
# 5 0.000000 0.000000 0.000000 0.000000 -0.002297 0.000000
# 6 0.000000 0.000000 0.000000 0.000000 0.000000 0.020045
#
#
# Mechanical properties :
#
#
# Convention : Reuss Voigt Hill
#
# Bulk Modulus (GPa) = 59.63063 60.74186 60.18625
# Shear Modulus (GPa) = 43.29646 -57.61469 -7.15911
#
# Velocity S-wave (km/s) = 4.55440 -5.25378 -1.85197
# Velocity P-wave (km/s) = 7.49832 2.77535 4.92556
#
# Compressibility (1/GPa) = 0.01676990
#
# Stress axis : x y z
#
# Youngs Moduli (GPa) = 88.75922 97.98227 85.58985
#
# Poissons Ratio (x) = 0.20174 0.18831
# Poissons Ratio (y) = 0.18275 0.33671
# Poissons Ratio (z) = 0.19528 0.38546
#
# Static dielectric constant tensor:
#      x y z
#    x 1.926810 0.000000 0.000000 
#    y 0.000000 1.745510 0.000000 
#    z 0.000000 0.000000 1.773800 
# 
# From -- ./inp_files/17933.got.cif
#   From: 2010.05.17/outbox.cif.g08.bks.cpg/sg49_9_cif.got.tgz:17933.got - 2010.06.03 21:02:19.
