data_PCOD9394078
_publ_section_title
;
Structure prediction by ZEFSAII (Michael W. Deem and Ramdas Pophale) SiO2 
 PCOD9394078
Probable space group: P C C M
;
_chemical_formula_sum "Si O2"
_cell_formula_units_Z 64
_cell_length_a 15.468094
_cell_length_b 25.542836
_cell_length_c 8.602704
_cell_angle_alpha 90.000000
_cell_angle_beta 90.000000
_cell_angle_gamma 90.000000
_cell_volume 3398.919647
_symmetry_space_group_name_H-M "P C C M"
_symmetry_group_IT_number 49
_symmetry_cell_setting 'orthorhombic'
loop_
_space_group_symop_operation_xyz
x,y,z
-x,-y,z
x,-y,1/2-z
-x,y,1/2-z
-x,-y,-z
x,y,-z
-x,y,1/2+z
x,-y,1/2+z
loop_
_atom_site_type_symbol
_atom_site_label
_atom_site_fract_x
_atom_site_fract_y
_atom_site_fract_z
Si Si1 0.091761 0.137996 0.187326
Si Si2 0.591471 0.672346 0.317277
Si Si3 0.769971 0.056417 0.814781
Si Si4 0.222581 0.355227 0.812343
Si Si5 0.169347 0.242596 0.818537
Si Si6 0.370724 0.216876 0.180796
Si Si7 0.906288 0.558718 0.686026
Si Si8 0.408685 0.097532 0.813455
O O1 0.167792 0.100821 0.246247
O O2 0.108949 0.197330 0.247895
O O3 0.000000 0.119319 0.250000
O O4 0.093026 0.138567 0.000000
O O5 0.500000 0.653150 0.250000
O O6 0.594914 0.663418 0.500000
O O7 0.677274 0.648052 0.239099
O O8 0.596463 0.734670 0.281361
O O9 0.672717 0.068252 0.758958
O O10 0.796725 0.000000 0.750000
O O11 0.773953 0.056901 0.000000
O O12 0.177235 0.301137 0.753709
O O13 0.169318 0.403559 0.745646
O O14 0.220403 0.355583 0.000000
O O15 0.266634 0.219586 0.813166
O O16 0.145834 0.248699 0.000000
O O17 0.400189 0.159321 0.228940
O O18 0.395765 0.225894 0.000000
O O19 0.893308 0.500000 0.750000
O O20 0.908833 0.557712 0.500000
O O21 0.000000 0.576712 0.750000
O O22 0.500000 0.077901 0.750000
O O23 0.404874 0.093958 0.000000
#
# Coordination Sequence:
#
# PCOD9394078 Si02
#       8
#     8   8   8   8   8   8   8   8
#     4  11  22  41  64  91 120 153 191 238 291 353
#     4  11  21  33  51  81 119 162 206 250 295 349
#     4  12  26  45  66  88 112 148 190 241 296 353
#     4  10  20  37  59  88 123 163 203 250 301 354
#     4   8  16  33  57  83 118 157 190 231 287 343
#     4   9  17  33  55  80 113 154 193 236 287 341
#     4  11  22  39  62  90 121 160 205 256 306 358
#     4  11  22  38  60  88 119 152 190 237 288 349
#
# _framework density 18.829512999999999
#
# number of rings (size 3 to 8) (size 9 to 14) (size 15 to 20)
#    0.000    1.625    1.250    6.000    0.000    3.000 
#    0.000    5.625    0.000    0.375    0.000    2.625 
#    0.000    0.000    0.000    0.000    0.000    0.000 
#
# Total GULP energy -357498.191653 kJ/mol
# GULP energy per Si atom -5585.909245 kJ/mol
# Density = 1.878666 g / cm^3
# Si number density = 18.829513 Si / 1000 Ang^3
#
#
#
# Elastic Constant Matrix: (Units=GPa)
#
#
# Indices 1 2 3 4 5 6 
#
# 1 100.1095 49.0232 42.4006 0.0000 0.0000 0.0000
# 2 49.0232 78.2281 35.9036 0.0000 0.0000 0.0000
# 3 42.4006 35.9036 108.8436 0.0000 0.0000 0.0000
# 4 0.0000 0.0000 0.0000 24.3267 0.0000 0.0000
# 5 0.0000 0.0000 0.0000 0.0000 30.1604 0.0000
# 6 0.0000 0.0000 0.0000 0.0000 0.0000 -4.3223
#
#
#
# Elastic Compliance Matrix: (Units=1/GPa)
#
#
# Indices 1 2 3 4 5 6 
#
# 1 0.015361 -0.008107 -0.003310 0.000000 0.000000 0.000000
# 2 -0.008107 0.019343 -0.003222 0.000000 0.000000 0.000000
# 3 -0.003310 -0.003222 0.011540 0.000000 0.000000 0.000000
# 4 0.000000 0.000000 0.000000 0.041107 0.000000 0.000000
# 5 0.000000 0.000000 0.000000 0.000000 0.033156 0.000000
# 6 0.000000 0.000000 0.000000 0.000000 0.000000 -0.231360
#
#
# Mechanical properties :
#
#
# Convention : Reuss Voigt Hill
#
# Bulk Modulus (GPa) = 58.94490 60.20400 59.57445
# Shear Modulus (GPa) = -65.85801 20.68990 -22.58405
#
# Velocity S-wave (km/s) = -5.92046 3.31841 -3.46699
# Velocity P-wave (km/s) = 3.91961 6.83558 3.95991
#
# Compressibility (1/GPa) = 0.01696500
#
# Stress axis : x y z
#
# Youngs Moduli (GPa) = 65.10035 51.69947 86.65761
#
# Poissons Ratio (x) = 0.41914 0.28680
# Poissons Ratio (y) = 0.52778 0.27923
# Poissons Ratio (z) = 0.21546 0.16659
#
# Static dielectric constant tensor:
#      x y z
#    x 1.663710 0.000000 0.000000 
#    y 0.000000 1.649860 0.000000 
#    z 0.000000 0.000000 1.634270 
# 
# From -- ./inp_files/4381.got.cif
#   From: 2010.05.17/outbox.cif.g08.bks.cpg/sg49_3_cif.got.tgz:4381.got - 2010.06.03 21:02:19.
