data_PCOD9394633
_publ_section_title
;
Structure prediction by ZEFSAII (Michael W. Deem and Ramdas Pophale) SiO2 
 PCOD9394633
Probable space group: P C C M
;
_chemical_formula_sum "Si O2"
_cell_formula_units_Z 40
_cell_length_a 8.241312
_cell_length_b 12.445022
_cell_length_c 16.689093
_cell_angle_alpha 90.000000
_cell_angle_beta 90.000000
_cell_angle_gamma 90.000000
_cell_volume 1711.688605
_symmetry_space_group_name_H-M "P C C M"
_symmetry_group_IT_number 49
_symmetry_cell_setting 'orthorhombic'
loop_
_space_group_symop_operation_xyz
x,y,z
-x,-y,z
x,-y,1/2-z
-x,y,1/2-z
-x,-y,-z
x,y,-z
-x,y,1/2+z
x,-y,1/2+z
loop_
_atom_site_type_symbol
_atom_site_label
_atom_site_fract_x
_atom_site_fract_y
_atom_site_fract_z
Si Si1 0.324071 0.661516 0.796201
Si Si2 0.165000 0.965835 0.594578
Si Si3 0.403480 0.848439 0.903635
Si Si4 0.195106 0.489953 0.912064
Si Si5 0.745530 0.254733 0.364092
O O1 0.500000 0.653609 0.750000
O O2 0.306046 0.748112 0.867705
O O3 0.278570 0.551026 0.838634
O O4 0.213818 0.707472 0.725163
O O5 0.164940 0.992217 0.500000
O O6 0.146916 0.837606 0.599560
O O7 0.316933 0.040307 0.622454
O O8 0.000000 0.000000 0.636514
O O9 0.577903 0.814290 0.867621
O O10 0.422764 0.848408 0.000000
O O11 0.252768 0.366353 0.910587
O O12 0.000000 0.500000 0.903431
O O13 0.238820 0.535135 0.000000
#
# Coordination Sequence:
#
# PCOD9394633 Si02
#       5
#     8   8   8   8   8
#     4  10  24  43  66  97 136 176 220 279 345 416
#     4  10  22  40  65  96 132 174 226 283 340 410
#     4  10  21  40  67  95 129 176 228 279 332 408
#     4  11  25  44  70 100 137 184 237 293 351 426
#     4  11  23  41  65  97 134 175 222 280 350 414
#
# _framework density 23.368736999999999
#
# number of rings (size 3 to 8) (size 9 to 14) (size 15 to 20)
#    0.000    1.600    0.000    3.600    2.800    9.600 
#    0.000    9.000    0.000    0.000    0.000    0.000 
#    0.000    0.000    0.000    0.000    0.000    0.000 
#
# Total GULP energy -222779.591366 kJ/mol
# GULP energy per Si atom -5569.489784 kJ/mol
# Density = 2.331555 g / cm^3
# Si number density = 23.368737 Si / 1000 Ang^3
#
#
#
# Elastic Constant Matrix: (Units=GPa)
#
#
# Indices 1 2 3 4 5 6 
#
# 1 39.9297 38.8092 30.2610 0.0000 0.0000 0.0000
# 2 38.8092 171.2189 44.0590 0.0000 0.0000 0.0000
# 3 30.2610 44.0590 72.1401 0.0000 0.0000 0.0000
# 4 0.0000 0.0000 0.0000 38.9031 0.0000 0.0000
# 5 0.0000 0.0000 0.0000 0.0000 16.0100 0.0000
# 6 0.0000 0.0000 0.0000 0.0000 0.0000 18.8805
#
#
#
# Elastic Compliance Matrix: (Units=1/GPa)
#
#
# Indices 1 2 3 4 5 6 
#
# 1 0.041030 -0.005779 -0.013681 0.000000 0.000000 0.000000
# 2 -0.005779 0.007744 -0.002305 0.000000 0.000000 0.000000
# 3 -0.013681 -0.002305 0.021009 0.000000 0.000000 0.000000
# 4 0.000000 0.000000 0.000000 0.025705 0.000000 0.000000
# 5 0.000000 0.000000 0.000000 0.000000 0.062461 0.000000
# 6 0.000000 0.000000 0.000000 0.000000 0.000000 0.052965
#
#
# Mechanical properties :
#
#
# Convention : Reuss Voigt Hill
#
# Bulk Modulus (GPa) = 38.09442 56.61635 47.35539
# Shear Modulus (GPa) = 18.99741 26.10270 22.55005
#
# Velocity S-wave (km/s) = 2.85431 3.34577 3.10976
# Velocity P-wave (km/s) = 5.21532 6.26143 5.76217
#
# Compressibility (1/GPa) = 0.02625056
#
# Stress axis : x y z
#
# Youngs Moduli (GPa) = 24.37264 129.13882 47.59954
#
# Poissons Ratio (x) = 0.74635 0.65122
# Poissons Ratio (y) = 0.14086 0.10972
# Poissons Ratio (z) = 0.33345 0.29767
#
# Static dielectric constant tensor:
#      x y z
#    x 2.261200 0.000000 0.000000 
#    y 0.000000 2.191420 0.000000 
#    z 0.000000 0.000000 1.893000 
# 
# From -- ./inp_files/15981.got.cif
#   From: 2010.05.17/outbox.cif.g08.bks.cpg/sg49_8_cif.got.tgz:15981.got - 2010.06.03 21:02:19.
