data_PCOD9394435
_publ_section_title
;
Structure prediction by ZEFSAII (Michael W. Deem and Ramdas Pophale) SiO2 
 PCOD9394435
Probable space group: P C C M
;
_chemical_formula_sum "Si O2"
_cell_formula_units_Z 44
_cell_length_a 14.355029
_cell_length_b 5.704260
_cell_length_c 28.208846
_cell_angle_alpha 90.000000
_cell_angle_beta 90.000000
_cell_angle_gamma 90.000000
_cell_volume 2309.876213
_symmetry_space_group_name_H-M "P C C M"
_symmetry_group_IT_number 49
_symmetry_cell_setting 'orthorhombic'
loop_
_space_group_symop_operation_xyz
x,y,z
-x,-y,z
x,-y,1/2-z
-x,y,1/2-z
-x,-y,-z
x,y,-z
-x,y,1/2+z
x,-y,1/2+z
loop_
_atom_site_type_symbol
_atom_site_label
_atom_site_fract_x
_atom_site_fract_y
_atom_site_fract_z
Si Si1 0.751065 0.200214 0.127222
Si Si2 0.110112 0.978991 0.553953
Si Si3 0.256728 0.581699 0.550448
Si Si4 0.409577 0.860731 0.593466
Si Si5 0.500000 0.500000 0.666590
Si Si6 0.334047 0.744973 0.222835
O O1 0.734745 0.435874 0.098057
O O2 0.747127 0.229065 0.183273
O O3 0.838759 0.098225 0.098476
O O4 0.662301 0.036478 0.117945
O O5 0.127372 0.072723 0.500000
O O6 0.160100 0.725171 0.552505
O O7 0.000000 0.000000 0.560605
O O8 0.261409 0.452893 0.500000
O O9 0.346351 0.748994 0.552870
O O10 0.442640 0.671675 0.632171
O O11 0.500000 0.000000 0.576451
O O12 0.568343 0.666095 0.697515
O O13 0.311923 0.500000 0.250000
O O14 0.342727 0.000000 0.250000
#
# Coordination Sequence:
#
# PCOD9394435 Si02
#       6
#     8   8   8   8   4   8
#     4  11  22  38  61  87 128 162 207 264 327 381
#     4   9  20  39  66  98 125 156 204 260 322 391
#     4  10  21  37  60  91 126 167 206 252 319 392
#     4  11  20  36  59  82 125 171 210 260 310 380
#     4  12  23  40  61  88 126 166 219 276 329 366
#     4  12  27  41  64  95 124 172 223 277 325 382
#
# _framework density 19.048639000000001
#
# number of rings (size 3 to 8) (size 9 to 14) (size 15 to 20)
#    0.000    1.273    3.636    1.909    2.545    4.000 
#    0.000    5.909    0.000    0.545    0.000    0.000 
#    0.000    0.000    0.000    0.000    0.000    0.000 
#
# Total GULP energy -244968.222995 kJ/mol
# GULP energy per Si atom -5567.459614 kJ/mol
# Density = 1.900528 g / cm^3
# Si number density = 19.048639 Si / 1000 Ang^3
#
#
#
# Elastic Constant Matrix: (Units=GPa)
#
#
# Indices 1 2 3 4 5 6 
#
# 1 119.4271 58.3005 53.5749 0.0000 0.0000 0.0000
# 2 58.3005 100.3325 52.6837 0.0000 0.0000 0.0000
# 3 53.5749 52.6837 104.1482 0.0000 0.0000 0.0000
# 4 0.0000 0.0000 0.0000 -4.3123 0.0000 0.0000
# 5 0.0000 0.0000 0.0000 0.0000 63.6749 0.0000
# 6 0.0000 0.0000 0.0000 0.0000 0.0000 5.4739
#
#
#
# Elastic Compliance Matrix: (Units=1/GPa)
#
#
# Indices 1 2 3 4 5 6 
#
# 1 0.012713 -0.005383 -0.003817 0.000000 0.000000 0.000000
# 2 -0.005383 0.015851 -0.005249 0.000000 0.000000 0.000000
# 3 -0.003817 -0.005249 0.014220 0.000000 0.000000 0.000000
# 4 0.000000 0.000000 0.000000 -0.231897 0.000000 0.000000
# 5 0.000000 0.000000 0.000000 0.000000 0.015705 0.000000
# 6 0.000000 0.000000 0.000000 0.000000 0.000000 0.182684
#
#
# Mechanical properties :
#
#
# Convention : Reuss Voigt Hill
#
# Bulk Modulus (GPa) = 72.01184 72.55844 72.28514
# Shear Modulus (GPa) = 116.81073 23.59057 70.20065
#
# Velocity S-wave (km/s) = 7.83935 3.52296 6.07728
# Velocity P-wave (km/s) = 10.94655 7.39745 9.34208
#
# Compressibility (1/GPa) = 0.01388661
#
# Stress axis : x y z
#
# Youngs Moduli (GPa) = 78.65679 63.08659 70.32148
#
# Poissons Ratio (x) = 0.33961 0.26840
# Poissons Ratio (y) = 0.42343 0.36913
# Poissons Ratio (z) = 0.30022 0.33115
#
# Static dielectric constant tensor:
#      x y z
#    x 1.638980 0.000000 0.000000 
#    y 0.000000 1.680110 0.000000 
#    z 0.000000 0.000000 1.815880 
# 
# From -- ./inp_files/24980.got.cif
#   From: 2010.05.17/outbox.cif.g08.bks.cpg/sg49_13_cif.got.tgz:24980.got - 2010.06.03 21:02:19.
