data_PCOD9394237
_publ_section_title
;
Structure prediction by ZEFSAII (Michael W. Deem and Ramdas Pophale) SiO2 
 PCOD9394237
Probable space group: P C C M
;
_chemical_formula_sum "Si O2"
_cell_formula_units_Z 48
_cell_length_a 9.222165
_cell_length_b 17.545037
_cell_length_c 14.387135
_cell_angle_alpha 90.000000
_cell_angle_beta 90.000000
_cell_angle_gamma 90.000000
_cell_volume 2327.884858
_symmetry_space_group_name_H-M "P C C M"
_symmetry_group_IT_number 49
_symmetry_cell_setting 'orthorhombic'
loop_
_space_group_symop_operation_xyz
x,y,z
-x,-y,z
x,-y,1/2-z
-x,y,1/2-z
-x,-y,-z
x,y,-z
-x,y,1/2+z
x,-y,1/2+z
loop_
_atom_site_type_symbol
_atom_site_label
_atom_site_fract_x
_atom_site_fract_y
_atom_site_fract_z
Si Si1 0.670405 0.136571 0.763060
Si Si2 0.115550 0.935870 0.896754
Si Si3 0.643771 0.697793 0.310632
Si Si4 0.259430 0.449742 0.000000
Si Si5 0.413861 0.387952 0.500000
Si Si6 0.919961 0.799666 0.150749
Si Si7 0.880077 0.629234 0.825874
O O1 0.500000 0.119435 0.750000
O O2 0.759700 0.074292 0.820501
O O3 0.683839 0.214120 0.823823
O O4 0.761491 0.162539 0.670857
O O5 0.020352 0.858641 0.902362
O O6 0.172510 0.953893 0.000000
O O7 0.000000 0.000000 0.868970
O O8 0.500000 0.700157 0.250000
O O9 0.623024 0.657662 0.407668
O O10 0.752518 0.652956 0.244236
O O11 0.170134 0.427977 0.906778
O O12 0.315616 0.536211 0.000000
O O13 0.413339 0.404589 0.000000
O O14 0.915677 0.710774 0.123272
O O15 0.000000 0.796218 0.250000
O O16 0.000000 0.603769 0.750000
#
# Coordination Sequence:
#
# PCOD9394237 Si02
#       7
#     8   8   8   4   4   8   8
#     4   9  19  36  61  91 119 157 213 257 310 369
#     4  10  21  37  58  90 127 166 203 251 315 385
#     4  10  20  40  64  92 129 170 214 267 314 380
#     4  11  24  41  63  99 125 173 224 255 330 411
#     4  11  24  41  65  97 127 172 221 254 327 405
#     4   8  17  35  57  85 117 165 212 249 305 378
#     4  10  21  40  63  92 128 165 216 277 322 375
#
# _framework density 20.619577
#
# number of rings (size 3 to 8) (size 9 to 14) (size 15 to 20)
#    0.000    2.333    1.667    1.000    2.333    4.333 
#    0.000    5.000    0.000    2.000    0.000    0.000 
#    0.000    0.000    0.000    0.000    0.000    0.000 
#
# Total GULP energy -267646.810624 kJ/mol
# GULP energy per Si atom -5575.975221 kJ/mol
# Density = 2.057265 g / cm^3
# Si number density = 20.619577 Si / 1000 Ang^3
#
#
#
# Elastic Constant Matrix: (Units=GPa)
#
#
# Indices 1 2 3 4 5 6 
#
# 1 120.0719 36.8590 39.0206 0.0000 0.0000 0.0000
# 2 36.8590 60.6353 57.5695 0.0000 0.0000 0.0000
# 3 39.0206 57.5695 105.9411 0.0000 0.0000 0.0000
# 4 0.0000 0.0000 0.0000 27.5675 0.0000 0.0000
# 5 0.0000 0.0000 0.0000 0.0000 20.3825 0.0000
# 6 0.0000 0.0000 0.0000 0.0000 0.0000 25.6726
#
#
#
# Elastic Compliance Matrix: (Units=1/GPa)
#
#
# Indices 1 2 3 4 5 6 
#
# 1 0.010272 -0.005479 -0.000806 0.000000 0.000000 0.000000
# 2 -0.005479 0.036992 -0.018084 0.000000 0.000000 0.000000
# 3 -0.000806 -0.018084 0.019563 0.000000 0.000000 0.000000
# 4 0.000000 0.000000 0.000000 0.036275 0.000000 0.000000
# 5 0.000000 0.000000 0.000000 0.000000 0.049062 0.000000
# 6 0.000000 0.000000 0.000000 0.000000 0.000000 0.038952
#
#
# Mechanical properties :
#
#
# Convention : Reuss Voigt Hill
#
# Bulk Modulus (GPa) = 55.28067 61.50518 58.39292
# Shear Modulus (GPa) = 20.33486 24.93781 22.63633
#
# Velocity S-wave (km/s) = 3.14378 3.48145 3.31691
# Velocity P-wave (km/s) = 6.32817 6.78631 6.56124
#
# Compressibility (1/GPa) = 0.01808951
#
# Stress axis : x y z
#
# Youngs Moduli (GPa) = 97.35010 27.03289 51.11654
#
# Poissons Ratio (x) = 0.14811 0.04121
# Poissons Ratio (y) = 0.53336 0.92438
# Poissons Ratio (z) = 0.07849 0.48886
#
# Static dielectric constant tensor:
#      x y z
#    x 1.698940 0.000000 0.000000 
#    y 0.000000 1.801480 0.000000 
#    z 0.000000 0.000000 1.703320 
# 
# From -- ./inp_files/11901.got.cif
#   From: 2010.05.17/outbox.cif.g08.bks.cpg/sg49_6_cif.got.tgz:11901.got - 2010.06.03 21:02:19.
