data_PCOD9394119
_publ_section_title
;
Structure prediction by ZEFSAII (Michael W. Deem and Ramdas Pophale) SiO2 
 PCOD9394119
Probable space group: P C C M
;
_chemical_formula_sum "Si O2"
_cell_formula_units_Z 40
_cell_length_a 7.788088
_cell_length_b 9.660005
_cell_length_c 23.842300
_cell_angle_alpha 90.000000
_cell_angle_beta 90.000000
_cell_angle_gamma 90.000000
_cell_volume 1793.727017
_symmetry_space_group_name_H-M "P C C M"
_symmetry_group_IT_number 49
_symmetry_cell_setting 'orthorhombic'
loop_
_space_group_symop_operation_xyz
x,y,z
-x,-y,z
x,-y,1/2-z
-x,y,1/2-z
-x,-y,-z
x,y,-z
-x,y,1/2+z
x,-y,1/2+z
loop_
_atom_site_type_symbol
_atom_site_label
_atom_site_fract_x
_atom_site_fract_y
_atom_site_fract_z
Si Si1 0.169718 0.414744 0.937237
Si Si2 0.155968 0.135871 0.205663
Si Si3 0.359060 0.896323 0.142984
Si Si4 0.976418 0.149134 0.915324
Si Si5 0.405518 0.360691 0.171433
O O1 0.310355 0.401914 0.887763
O O2 0.000000 0.500000 0.918427
O O3 0.084145 0.265457 0.944193
O O4 0.226707 0.463220 0.000000
O O5 0.267809 0.276756 0.209880
O O6 0.000000 0.135392 0.250000
O O7 0.060924 0.147100 0.146276
O O8 0.271697 0.995735 0.191569
O O9 0.223894 0.840285 0.097866
O O10 0.454502 0.760622 0.164264
O O11 0.500000 0.000000 0.117221
O O12 0.000000 0.000000 0.940906
O O13 0.500000 0.500000 0.190342
#
# Coordination Sequence:
#
# PCOD9394119 Si02
#       5
#     8   8   8   8   8
#     4  10  21  37  60  89 121 165 213 248 299 380
#     4   9  19  37  61  86 117 160 208 252 306 379
#     4   9  18  34  57  86 118 154 200 252 312 365
#     4   9  18  34  58  85 117 156 199 252 306 360
#     4  10  20  37  62  89 126 164 201 262 322 362
#
# _framework density 22.299937
#
# number of rings (size 3 to 8) (size 9 to 14) (size 15 to 20)
#    0.000    2.600    0.000    2.400    0.000    4.400 
#    0.000    9.000    0.000   48.000    0.000    0.000 
#    0.000    0.000    0.000    0.000    0.000    0.000 
#
# Total GULP energy -222678.059218 kJ/mol
# GULP energy per Si atom -5566.951480 kJ/mol
# Density = 2.224918 g / cm^3
# Si number density = 22.299937 Si / 1000 Ang^3
#
#
#
# Elastic Constant Matrix: (Units=GPa)
#
#
# Indices 1 2 3 4 5 6 
#
# 1 122.6183 52.0784 47.4898 0.0000 0.0000 0.0000
# 2 52.0784 148.5469 23.1070 0.0000 0.0000 0.0000
# 3 47.4898 23.1070 128.7050 0.0000 0.0000 0.0000
# 4 0.0000 0.0000 0.0000 3.1445 0.0000 0.0000
# 5 0.0000 0.0000 0.0000 0.0000 35.5609 0.0000
# 6 0.0000 0.0000 0.0000 0.0000 0.0000 41.2093
#
#
#
# Elastic Compliance Matrix: (Units=1/GPa)
#
#
# Indices 1 2 3 4 5 6 
#
# 1 0.010874 -0.003280 -0.003424 0.000000 0.000000 0.000000
# 2 -0.003280 0.007915 -0.000211 0.000000 0.000000 0.000000
# 3 -0.003424 -0.000211 0.009071 0.000000 0.000000 0.000000
# 4 0.000000 0.000000 0.000000 0.318014 0.000000 0.000000
# 5 0.000000 0.000000 0.000000 0.000000 0.028121 0.000000
# 6 0.000000 0.000000 0.000000 0.000000 0.000000 0.024266
#
#
# Mechanical properties :
#
#
# Convention : Reuss Voigt Hill
#
# Bulk Modulus (GPa) = 71.26905 71.69118 71.48012
# Shear Modulus (GPa) = 11.99714 34.46262 23.22988
#
# Velocity S-wave (km/s) = 2.32198 3.93544 3.23104
# Velocity P-wave (km/s) = 6.26238 7.27108 6.78550
#
# Compressibility (1/GPa) = 0.01403134
#
# Stress axis : x y z
#
# Youngs Moduli (GPa) = 91.95957 126.35004 110.24404
#
# Poissons Ratio (x) = 0.41441 0.37743
# Poissons Ratio (y) = 0.30161 0.02323
# Poissons Ratio (z) = 0.31483 0.02663
#
# Static dielectric constant tensor:
#      x y z
#    x 2.177720 0.000000 0.000000 
#    y 0.000000 1.741760 0.000000 
#    z 0.000000 0.000000 1.909420 
# 
# From -- ./inp_files/26174.got.cif
#   From: 2010.05.17/outbox.cif.g08.bks.cpg/sg49_14_cif.got.tgz:26174.got - 2010.06.03 21:02:19.
