data_PCOD9394842
_publ_section_title
;
Structure prediction by ZEFSAII (Michael W. Deem and Ramdas Pophale) SiO2 
 PCOD9394842
Probable space group: P C C M
;
_chemical_formula_sum "Si O2"
_cell_formula_units_Z 46
_cell_length_a 13.298320
_cell_length_b 19.515643
_cell_length_c 9.732155
_cell_angle_alpha 90.000000
_cell_angle_beta 90.000000
_cell_angle_gamma 90.000000
_cell_volume 2525.740111
_symmetry_space_group_name_H-M "P C C M"
_symmetry_group_IT_number 49
_symmetry_cell_setting 'orthorhombic'
loop_
_space_group_symop_operation_xyz
x,y,z
-x,-y,z
x,-y,1/2-z
-x,y,1/2-z
-x,-y,-z
x,y,-z
-x,y,1/2+z
x,-y,1/2+z
loop_
_atom_site_type_symbol
_atom_site_label
_atom_site_fract_x
_atom_site_fract_y
_atom_site_fract_z
Si Si1 0.090039 0.097680 0.000000
Si Si2 0.742026 0.361925 0.341084
Si Si3 0.205126 0.847034 0.761336
Si Si4 0.901466 0.290622 0.842334
Si Si5 0.638974 0.500000 0.750000
Si Si6 0.600912 0.230524 0.338475
Si Si7 0.500000 0.500000 0.000000
Si Si8 0.855579 0.938476 0.500000
O O1 0.133844 0.135470 0.867253
O O2 0.969313 0.092551 0.000000
O O3 0.130899 0.019831 0.000000
O O4 0.776109 0.354852 0.500000
O O5 0.828813 0.344091 0.233903
O O6 0.700390 0.437266 0.314245
O O7 0.654043 0.305094 0.323020
O O8 0.157514 0.781373 0.836429
O O9 0.314937 0.824238 0.709816
O O10 0.200511 0.910122 0.865972
O O11 0.000000 0.283995 0.750000
O O12 0.923731 0.308108 0.000000
O O13 0.574048 0.528620 0.622881
O O14 0.500000 0.226467 0.250000
O O15 0.579644 0.220859 0.500000
#
# Coordination Sequence:
#
# PCOD9394842 Si02
#       8
#     4   8   8   8   4   8   2   4
#     4  11  22  38  60  91 130 156 195 243 303 361
#     4  10  23  40  60  90 125 156 200 251 303 360
#     4  11  22  39  59  90 124 159 200 249 303 355
#     4  11  23  38  62  89 119 162 205 248 295 357
#     4  11  22  40  59  90 124 158 201 244 311 362
#     4  10  23  39  61  86 117 158 203 254 299 350
#     4  10  24  34  60  86 114 166 192 238 298 378
#     4  11  22  36  62  95 120 162 197 241 299 371
#
# _framework density 18.212482999999999
#
# number of rings (size 3 to 8) (size 9 to 14) (size 15 to 20)
#    0.000    1.391    2.609    2.609    7.304    2.087 
#    0.000    0.435    0.000    5.217    0.000    0.000 
#    0.000    0.000    0.000    0.000    0.000    0.000 
#
# Total GULP energy -256345.469507 kJ/mol
# GULP energy per Si atom -5572.727598 kJ/mol
# Density = 1.817103 g / cm^3
# Si number density = 18.212483 Si / 1000 Ang^3
#
#
#
# Elastic Constant Matrix: (Units=GPa)
#
#
# Indices 1 2 3 4 5 6 
#
# 1 89.3297 15.6316 53.2619 0.0000 0.0000 0.0000
# 2 15.6316 54.8996 19.2022 0.0000 0.0000 0.0000
# 3 53.2619 19.2022 162.2382 0.0000 0.0000 0.0000
# 4 0.0000 0.0000 0.0000 -110.0551 0.0000 0.0000
# 5 0.0000 0.0000 0.0000 0.0000 -111.7171 0.0000
# 6 0.0000 0.0000 0.0000 0.0000 0.0000 -56.0996
#
#
#
# Elastic Compliance Matrix: (Units=1/GPa)
#
#
# Indices 1 2 3 4 5 6 
#
# 1 0.014247 -0.002525 -0.004378 0.000000 0.000000 0.000000
# 2 -0.002525 0.019449 -0.001473 0.000000 0.000000 0.000000
# 3 -0.004378 -0.001473 0.007775 0.000000 0.000000 0.000000
# 4 0.000000 0.000000 0.000000 -0.009086 0.000000 0.000000
# 5 0.000000 0.000000 0.000000 0.000000 -0.008951 0.000000
# 6 0.000000 0.000000 0.000000 0.000000 0.000000 -0.017825
#
#
# Mechanical properties :
#
#
# Convention : Reuss Voigt Hill
#
# Bulk Modulus (GPa) = 40.45505 53.62875 47.04190
# Shear Modulus (GPa) = 163.39308 -41.01623 61.18842
#
# Velocity S-wave (km/s) = 9.48207 -4.75077 5.80258
# Velocity P-wave (km/s) = 11.92227 0.76357 8.41301
#
# Compressibility (1/GPa) = 0.02471880
#
# Stress axis : x y z
#
# Youngs Moduli (GPa) = 70.19091 51.41580 128.60929
#
# Poissons Ratio (x) = 0.12983 0.56309
# Poissons Ratio (y) = 0.17724 0.18944
# Poissons Ratio (z) = 0.30732 0.07574
#
# Static dielectric constant tensor:
#      x y z
#    x 1.624990 0.000000 0.000000 
#    y 0.000000 1.683240 0.000000 
#    z 0.000000 0.000000 1.624200 
# 
# From -- ./inp_files/3906.got.cif
#   From: 2010.05.17/outbox.cif.g08.bks.cpg/sg49_2_cif.got.tgz:3906.got - 2010.06.03 21:02:19.
