data_PCOD9394354
_publ_section_title
;
Structure prediction by ZEFSAII (Michael W. Deem and Ramdas Pophale) SiO2 
 PCOD9394354
Probable space group: P C C M
;
_chemical_formula_sum "Si O2"
_cell_formula_units_Z 56
_cell_length_a 5.810324
_cell_length_b 14.970765
_cell_length_c 30.349089
_cell_angle_alpha 90.000000
_cell_angle_beta 90.000000
_cell_angle_gamma 90.000000
_cell_volume 2639.915360
_symmetry_space_group_name_H-M "P C C M"
_symmetry_group_IT_number 49
_symmetry_cell_setting 'orthorhombic'
loop_
_space_group_symop_operation_xyz
x,y,z
-x,-y,z
x,-y,1/2-z
-x,y,1/2-z
-x,-y,-z
x,y,-z
-x,y,1/2+z
x,-y,1/2+z
loop_
_atom_site_type_symbol
_atom_site_label
_atom_site_fract_x
_atom_site_fract_y
_atom_site_fract_z
Si Si1 0.792735 0.439749 0.951092
Si Si2 0.593309 0.647745 0.897092
Si Si3 0.139975 0.741255 0.706244
Si Si4 0.033849 0.248177 0.950231
Si Si5 0.208736 0.778041 0.136220
Si Si6 0.499945 0.103819 0.196921
Si Si7 0.252102 0.449076 0.188049
O O1 0.561143 0.417013 0.926109
O O2 0.000000 0.500000 0.932280
O O3 0.895783 0.340318 0.954517
O O4 0.751443 0.476511 0.000000
O O5 0.731850 0.715306 0.928594
O O6 0.419244 0.711296 0.870894
O O7 0.726611 0.586348 0.862235
O O8 0.294168 0.824660 0.690220
O O9 0.253961 0.644663 0.715354
O O10 0.000000 0.767006 0.750000
O O11 0.974519 0.724453 0.664993
O O12 0.899842 0.195430 0.911143
O O13 0.056435 0.210001 0.000000
O O14 0.290788 0.855824 0.168765
O O15 0.500000 0.104578 0.250000
O O16 0.500000 0.000000 0.184039
O O17 0.500000 0.500000 0.196144
O O18 0.000000 0.500000 0.194488
#
# Coordination Sequence:
#
# PCOD9394354 Si02
#       7
#     8   8   8   8   8   8   8
#     4   9  20  34  50  80 121 171 231 300 367 421
#     4  11  22  36  62  85 131 180 244 298 361 411
#     4  12  25  47  71  99 145 192 232 303 363 439
#     4  10  21  36  60  93 130 182 245 294 365 435
#     4  11  21  43  67  99 140 188 233 287 374 435
#     4  11  24  43  73 112 142 176 225 292 379 463
#     4  12  28  44  68 102 141 201 258 303 355 429
#
# _framework density 21.212800999999999
#
# number of rings (size 3 to 8) (size 9 to 14) (size 15 to 20)
#    0.000    1.143    4.286    1.286    4.000    1.429 
#    0.000    4.286    0.000    1.714    0.000    4.000 
#    0.000    0.000    0.000    0.000    0.000    0.000 
#
# Total GULP energy -312016.677173 kJ/mol
# GULP energy per Si atom -5571.726378 kJ/mol
# Density = 2.116452 g / cm^3
# Si number density = 21.212801 Si / 1000 Ang^3
#
#
#
# Elastic Constant Matrix: (Units=GPa)
#
#
# Indices 1 2 3 4 5 6 
#
# 1 113.1587 59.5791 39.8754 0.0000 0.0000 0.0000
# 2 59.5791 108.3037 30.1066 0.0000 0.0000 0.0000
# 3 39.8754 30.1066 115.4129 0.0000 0.0000 0.0000
# 4 0.0000 0.0000 0.0000 12.5168 0.0000 0.0000
# 5 0.0000 0.0000 0.0000 0.0000 91.5306 0.0000
# 6 0.0000 0.0000 0.0000 0.0000 0.0000 14.6804
#
#
#
# Elastic Compliance Matrix: (Units=1/GPa)
#
#
# Indices 1 2 3 4 5 6 
#
# 1 0.013279 -0.006501 -0.002892 0.000000 0.000000 0.000000
# 2 -0.006501 0.013138 -0.001181 0.000000 0.000000 0.000000
# 3 -0.002892 -0.001181 0.009972 0.000000 0.000000 0.000000
# 4 0.000000 0.000000 0.000000 0.079893 0.000000 0.000000
# 5 0.000000 0.000000 0.000000 0.000000 0.010925 0.000000
# 6 0.000000 0.000000 0.000000 0.000000 0.000000 0.068118
#
#
# Mechanical properties :
#
#
# Convention : Reuss Voigt Hill
#
# Bulk Modulus (GPa) = 65.61453 66.22196 65.91825
# Shear Modulus (GPa) = 22.56790 37.56650 30.06720
#
# Velocity S-wave (km/s) = 3.26526 4.21281 3.76893
# Velocity P-wave (km/s) = 6.72418 7.41279 7.07686
#
# Compressibility (1/GPa) = 0.01524053
#
# Stress axis : x y z
#
# Youngs Moduli (GPa) = 75.30607 76.11570 100.28227
#
# Poissons Ratio (x) = 0.49483 0.29003
# Poissons Ratio (y) = 0.48957 0.11844
# Poissons Ratio (z) = 0.21779 0.08989
#
# Static dielectric constant tensor:
#      x y z
#    x 2.023470 0.000000 0.000000 
#    y 0.000000 1.792730 0.000000 
#    z 0.000000 0.000000 1.885450 
# 
# From -- ./inp_files/25842.got.cif
#   From: 2010.05.17/outbox.cif.g08.bks.cpg/sg49_13_cif.got.tgz:25842.got - 2010.06.03 21:02:19.
