data_PCOD9394262
_publ_section_title
;
Structure prediction by ZEFSAII (Michael W. Deem and Ramdas Pophale) SiO2 
 PCOD9394262
Probable space group: P C C M
;
_chemical_formula_sum "Si O2"
_cell_formula_units_Z 18
_cell_length_a 5.547640
_cell_length_b 6.909711
_cell_length_c 18.850759
_cell_angle_alpha 90.000000
_cell_angle_beta 90.000000
_cell_angle_gamma 90.000000
_cell_volume 722.598400
_symmetry_space_group_name_H-M "P C C M"
_symmetry_group_IT_number 49
_symmetry_cell_setting 'orthorhombic'
loop_
_space_group_symop_operation_xyz
x,y,z
-x,-y,z
x,-y,1/2-z
-x,y,1/2-z
-x,-y,-z
x,y,-z
-x,y,1/2+z
x,-y,1/2+z
loop_
_atom_site_type_symbol
_atom_site_label
_atom_site_fract_x
_atom_site_fract_y
_atom_site_fract_z
Si Si1 0.500000 0.000000 0.250000
Si Si2 0.759437 0.676172 0.081106
Si Si3 0.262073 0.746372 0.133490
O O1 0.325683 0.859613 0.204755
O O2 0.505678 0.783056 0.088534
O O3 0.748004 0.489188 0.132734
O O4 0.000095 0.790823 0.101297
O O5 0.777071 0.607449 0.000000
#
# Coordination Sequence:
#
# PCOD9394262 Si02
#       3
#     2   8   8
#     4  12  28  44  58 102 148 184 212 256 356 408
#     4  10  20  43  71  96 118 170 234 279 322 378
#     4  10  22  39  65  92 133 172 214 273 323 401
#
# _framework density 24.910101000000001
#
# number of rings (size 3 to 8) (size 9 to 14) (size 15 to 20)
#    0.000    1.778    0.000    6.667    0.000    8.889 
#    0.000   21.111    0.000    0.000    0.000    0.000 
#    0.000    0.000    0.000    0.000    0.000    0.000 
#
# Total GULP energy -100402.351368 kJ/mol
# GULP energy per Si atom -5577.908409 kJ/mol
# Density = 2.485340 g / cm^3
# Si number density = 24.910101 Si / 1000 Ang^3
#
#
#
# Elastic Constant Matrix: (Units=GPa)
#
#
# Indices 1 2 3 4 5 6 
#
# 1 307.0440 38.8124 58.0044 0.0000 0.0000 0.0000
# 2 38.8124 165.6419 63.6963 0.0000 0.0000 0.0000
# 3 58.0044 63.6963 125.7351 0.0000 0.0000 0.0000
# 4 0.0000 0.0000 0.0000 -59.2175 0.0000 0.0000
# 5 0.0000 0.0000 0.0000 0.0000 26.3336 0.0000
# 6 0.0000 0.0000 0.0000 0.0000 0.0000 -11.1844
#
#
#
# Elastic Compliance Matrix: (Units=1/GPa)
#
#
# Indices 1 2 3 4 5 6 
#
# 1 0.003576 -0.000253 -0.001522 0.000000 0.000000 0.000000
# 2 -0.000253 0.007516 -0.003691 0.000000 0.000000 0.000000
# 3 -0.001522 -0.003691 0.010525 0.000000 0.000000 0.000000
# 4 0.000000 0.000000 0.000000 -0.016887 0.000000 0.000000
# 5 0.000000 0.000000 0.000000 0.000000 0.037974 0.000000
# 6 0.000000 0.000000 0.000000 0.000000 0.000000 -0.089410
#
#
# Mechanical properties :
#
#
# Convention : Reuss Voigt Hill
#
# Bulk Modulus (GPa) = 93.57794 102.16081 97.86938
# Shear Modulus (GPa) = -155.21498 20.38020 -67.41739
#
# Velocity S-wave (km/s) = -7.90224 2.86343 -5.20798
# Velocity P-wave (km/s) = 6.75371 7.21340 1.79173
#
# Compressibility (1/GPa) = 0.01068628
#
# Stress axis : x y z
#
# Youngs Moduli (GPa) = 279.61883 133.05681 95.01251
#
# Poissons Ratio (x) = 0.03364 0.14459
# Poissons Ratio (y) = 0.07069 0.35066
# Poissons Ratio (z) = 0.42551 0.49107
#
# Static dielectric constant tensor:
#      x y z
#    x 2.036810 0.000000 0.000000 
#    y 0.000000 2.030320 0.000000 
#    z 0.000000 0.000000 1.946560 
# 
# From -- ./inp_files/14753.got.cif
#   From: 2010.05.17/outbox.cif.g08.bks.cpg/sg49_8_cif.got.tgz:14753.got - 2010.06.03 21:02:19.
