data_PCOD9394039
_publ_section_title
;
Structure prediction by ZEFSAII (Michael W. Deem and Ramdas Pophale) SiO2 
 PCOD9394039
Probable space group: P C C M
;
_chemical_formula_sum "Si O2"
_cell_formula_units_Z 56
_cell_length_a 6.995395
_cell_length_b 23.397494
_cell_length_c 18.900181
_cell_angle_alpha 90.000000
_cell_angle_beta 90.000000
_cell_angle_gamma 90.000000
_cell_volume 3093.481692
_symmetry_space_group_name_H-M "P C C M"
_symmetry_group_IT_number 49
_symmetry_cell_setting 'orthorhombic'
loop_
_space_group_symop_operation_xyz
x,y,z
-x,-y,z
x,-y,1/2-z
-x,y,1/2-z
-x,-y,-z
x,y,-z
-x,y,1/2+z
x,-y,1/2+z
loop_
_atom_site_type_symbol
_atom_site_label
_atom_site_fract_x
_atom_site_fract_y
_atom_site_fract_z
Si Si1 0.449535 0.063509 0.332507
Si Si2 0.666881 0.722037 0.916036
Si Si3 0.933920 0.364043 0.330121
Si Si4 0.323446 0.353728 0.583172
Si Si5 0.425883 0.564855 0.673594
Si Si6 0.083428 0.064350 0.580436
Si Si7 0.717910 0.855341 0.081074
O O1 0.500000 0.064053 0.250000
O O2 0.233831 0.073132 0.357157
O O3 0.576034 0.111179 0.368920
O O4 0.500000 0.000000 0.360064
O O5 0.796447 0.683645 0.864774
O O6 0.444415 0.704726 0.903428
O O7 0.715838 0.788069 0.903842
O O8 0.703926 0.709270 0.000000
O O9 0.800304 0.421240 0.330437
O O10 0.000000 0.352809 0.250000
O O11 0.126494 0.363308 0.375965
O O12 0.288881 0.357811 0.500000
O O13 0.469669 0.401616 0.611003
O O14 0.500000 0.500000 0.670548
O O15 0.500000 0.587856 0.750000
O O16 0.165921 0.068430 0.500000
O O17 0.919917 0.112190 0.586189
O O18 0.000000 0.000000 0.586521
O O19 0.652680 0.861897 0.000000
#
# Coordination Sequence:
#
# PCOD9394039 Si02
#       7
#     8   8   8   8   8   8   8
#     4  11  23  38  54  83 119 159 192 244 313 373
#     4   9  21  40  61  87 122 157 200 257 309 361
#     4  11  21  38  62  89 119 165 208 246 300 364
#     4  10  21  39  63  90 121 161 204 251 302 355
#     4  10  21  39  60  89 128 164 201 249 301 356
#     4  10  20  36  62  87 111 149 200 248 295 365
#     4  10  21  40  62  87 115 153 203 250 301 365
#
# _framework density 18.10258
#
# number of rings (size 3 to 8) (size 9 to 14) (size 15 to 20)
#    0.000    1.857    2.857    0.857    0.000    3.714 
#    5.143    5.000    0.000    0.000    0.000    0.000 
#    0.000    0.000    0.000    0.000    0.000    0.000 
#
# Total GULP energy -312165.956512 kJ/mol
# GULP energy per Si atom -5574.392081 kJ/mol
# Density = 1.806138 g / cm^3
# Si number density = 18.102580 Si / 1000 Ang^3
#
#
#
# Elastic Constant Matrix: (Units=GPa)
#
#
# Indices 1 2 3 4 5 6 
#
# 1 116.4718 42.7776 65.5896 0.0000 0.0000 0.0000
# 2 42.7776 101.3135 47.3839 0.0000 0.0000 0.0000
# 3 65.5896 47.3839 91.9551 0.0000 0.0000 0.0000
# 4 0.0000 0.0000 0.0000 24.4106 0.0000 0.0000
# 5 0.0000 0.0000 0.0000 0.0000 39.5414 0.0000
# 6 0.0000 0.0000 0.0000 0.0000 0.0000 22.2998
#
#
#
# Elastic Compliance Matrix: (Units=1/GPa)
#
#
# Indices 1 2 3 4 5 6 
#
# 1 0.014569 -0.001701 -0.009515 0.000000 0.000000 0.000000
# 2 -0.001701 0.013203 -0.005590 0.000000 0.000000 0.000000
# 3 -0.009515 -0.005590 0.020542 0.000000 0.000000 0.000000
# 4 0.000000 0.000000 0.000000 0.040966 0.000000 0.000000
# 5 0.000000 0.000000 0.000000 0.000000 0.025290 0.000000
# 6 0.000000 0.000000 0.000000 0.000000 0.000000 0.044843
#
#
# Mechanical properties :
#
#
# Convention : Reuss Voigt Hill
#
# Bulk Modulus (GPa) = 68.01969 69.02697 68.52333
# Shear Modulus (GPa) = 25.26189 27.51630 26.38910
#
# Velocity S-wave (km/s) = 3.73967 3.90297 3.82220
# Velocity P-wave (km/s) = 7.50353 7.65015 7.57719
#
# Compressibility (1/GPa) = 0.01470163
#
# Stress axis : x y z
#
# Youngs Moduli (GPa) = 68.63948 75.73980 48.68021
#
# Poissons Ratio (x) = 0.12886 0.46319
# Poissons Ratio (y) = 0.11678 0.27212
# Poissons Ratio (z) = 0.65311 0.42338
#
# Static dielectric constant tensor:
#      x y z
#    x 1.634920 0.000000 0.000000 
#    y 0.000000 1.623160 0.000000 
#    z 0.000000 0.000000 1.614980 
# 
# From -- ./inp_files/19052.got.cif
#   From: 2010.05.17/outbox.cif.g08.bks.cpg/sg49_10_cif.got.tgz:19052.got - 2010.06.03 21:02:19.
