data_PCOD9394313
_publ_section_title
;
Structure prediction by ZEFSAII (Michael W. Deem and Ramdas Pophale) SiO2 
 PCOD9394313
Probable space group: P C C M
;
_chemical_formula_sum "Si O2"
_cell_formula_units_Z 56
_cell_length_a 22.760700
_cell_length_b 9.016342
_cell_length_c 14.699953
_cell_angle_alpha 90.000000
_cell_angle_beta 90.000000
_cell_angle_gamma 90.000000
_cell_volume 3016.698709
_symmetry_space_group_name_H-M "P C C M"
_symmetry_group_IT_number 49
_symmetry_cell_setting 'orthorhombic'
loop_
_space_group_symop_operation_xyz
x,y,z
-x,-y,z
x,-y,1/2-z
-x,y,1/2-z
-x,-y,-z
x,y,-z
-x,y,1/2+z
x,-y,1/2+z
loop_
_atom_site_type_symbol
_atom_site_label
_atom_site_fract_x
_atom_site_fract_y
_atom_site_fract_z
Si Si1 0.814818 0.825252 0.891485
Si Si2 0.404969 0.319583 0.250000
Si Si3 0.814818 0.174748 0.891485
Si Si4 0.935005 0.672176 0.110485
Si Si5 0.064995 0.327824 0.389515
Si Si6 0.730006 0.677991 0.250000
Si Si7 0.500000 0.319110 0.103650
O O1 0.878955 0.766663 0.861501
O O2 0.765010 0.739099 0.836877
O O3 0.810330 0.000000 0.874081
O O4 0.809613 0.800338 0.000000
O O5 0.404507 0.500000 0.250000
O O6 0.337723 0.270999 0.250000
O O7 0.442810 0.273871 0.161784
O O8 0.442810 0.273871 0.338216
O O9 0.878955 0.233337 0.861501
O O10 0.765010 0.260901 0.836877
O O11 0.809613 0.199662 0.000000
O O12 0.927617 0.500000 0.137292
O O13 0.000000 0.722321 0.140337
O O14 0.935676 0.675133 0.000000
O O15 0.064324 0.324867 0.500000
O O16 0.731331 0.500000 0.250000
O O17 0.500000 0.500000 0.102138
O O18 0.500000 0.267035 0.000000
#
# Coordination Sequence:
#
# PCOD9394313 Si02
#       7
#     8   8   8   8   8   8   8
#     4  10  21  36  53  74 103 140 180 221 266 317
#     4   8  16  28  43  71 105 135 168 203 248 304
#     4  10  21  36  53  74 103 140 180 221 266 317
#     4   8  14  27  49  75 101 130 167 215 271 325
#     4   8  14  27  49  75 101 130 167 215 271 325
#     4  11  22  35  53  77 108 143 178 218 259 306
#     4   8  13  25  46  71 103 136 162 198 250 304
#
# _framework density 18.563338999999999
#
# number of rings (size 3 to 8) (size 9 to 14) (size 15 to 20)
#    0.000    3.000    0.000    3.000    0.000    3.429 
#    0.000    6.429    0.000    4.286    0.000    8.000 
#    0.000   13.714    0.000    0.000    0.000    0.000 
#
# Total GULP energy -312316.922644 kJ/mol
# GULP energy per Si atom -5577.087904 kJ/mol
# Density = 1.852109 g / cm^3
# Si number density = 18.563339 Si / 1000 Ang^3
#
#
#
# Elastic Constant Matrix: (Units=GPa)
#
#
# Indices 1 2 3 4 5 6 
#
# 1 204.0346 62.3783 74.7353 0.0000 0.0000 0.0000
# 2 62.3783 51.9239 36.1361 0.0000 0.0000 0.0000
# 3 74.7353 36.1361 115.3742 0.0000 0.0000 0.0000
# 4 0.0000 0.0000 0.0000 17.6377 0.0000 0.0000
# 5 0.0000 0.0000 0.0000 0.0000 15.0823 0.0000
# 6 0.0000 0.0000 0.0000 0.0000 0.0000 -7.4362
#
#
#
# Elastic Compliance Matrix: (Units=1/GPa)
#
#
# Indices 1 2 3 4 5 6 
#
# 1 0.008459 -0.008118 -0.002937 0.000000 0.000000 0.000000
# 2 -0.008118 0.032418 -0.004895 0.000000 0.000000 0.000000
# 3 -0.002937 -0.004895 0.012103 0.000000 0.000000 0.000000
# 4 0.000000 0.000000 0.000000 0.056697 0.000000 0.000000
# 5 0.000000 0.000000 0.000000 0.000000 0.066303 0.000000
# 6 0.000000 0.000000 0.000000 0.000000 0.000000 -0.134478
#
#
# Mechanical properties :
#
#
# Convention : Reuss Voigt Hill
#
# Bulk Modulus (GPa) = 47.43758 79.75913 63.59835
# Shear Modulus (GPa) = 62.16791 18.26230 40.21511
#
# Velocity S-wave (km/s) = 5.79330 3.13993 4.65948
# Velocity P-wave (km/s) = 8.38807 7.49699 7.95501
#
# Compressibility (1/GPa) = 0.02108033
#
# Stress axis : x y z
#
# Youngs Moduli (GPa) = 118.22235 30.84691 82.62535
#
# Poissons Ratio (x) = 0.25042 0.24264
# Poissons Ratio (y) = 0.95973 0.40445
# Poissons Ratio (z) = 0.34717 0.15100
#
# Static dielectric constant tensor:
#      x y z
#    x 1.625600 0.000000 0.000000 
#    y 0.000000 1.607950 0.000000 
#    z 0.000000 0.000000 1.679930 
# 
# From -- ./inp_files/14400.got.cif
#   From: 2010.05.17/outbox.cif.g08.bks.cpg/sg49_8_cif.got.tgz:14400.got - 2010.06.03 21:02:19.
