data_PCOD9394106
_publ_section_title
;
Structure prediction by ZEFSAII (Michael W. Deem and Ramdas Pophale) SiO2 
 PCOD9394106
Probable space group: P C C M
;
_chemical_formula_sum "Si O2"
_cell_formula_units_Z 58
_cell_length_a 10.512618
_cell_length_b 17.165957
_cell_length_c 17.436531
_cell_angle_alpha 90.000000
_cell_angle_beta 90.000000
_cell_angle_gamma 90.000000
_cell_volume 3146.581538
_symmetry_space_group_name_H-M "P C C M"
_symmetry_group_IT_number 49
_symmetry_cell_setting 'orthorhombic'
loop_
_space_group_symop_operation_xyz
x,y,z
-x,-y,z
x,-y,1/2-z
-x,y,1/2-z
-x,-y,-z
x,y,-z
-x,y,1/2+z
x,-y,1/2+z
loop_
_atom_site_type_symbol
_atom_site_label
_atom_site_fract_x
_atom_site_fract_y
_atom_site_fract_z
Si Si1 0.762809 0.677553 0.335821
Si Si2 0.506168 0.411211 0.843207
Si Si3 0.357505 0.840370 0.653818
Si Si4 0.735921 0.001838 0.084000
Si Si5 0.000000 0.000000 0.000000
Si Si6 0.349149 0.839791 0.161408
Si Si7 0.998421 0.590932 0.091428
Si Si8 0.250334 0.321889 0.150108
O O1 0.638531 0.629771 0.362575
O O2 0.739480 0.766827 0.360553
O O3 0.765926 0.675196 0.242807
O O4 0.888002 0.637942 0.368597
O O5 0.500000 0.500000 0.869896
O O6 0.500000 0.411342 0.750000
O O7 0.382671 0.364403 0.869460
O O8 0.352581 0.841274 0.746241
O O9 0.505748 0.826372 0.633935
O O10 0.269858 0.768308 0.627402
O O11 0.310923 0.922678 0.622658
O O12 0.700341 0.078169 0.131295
O O13 0.672651 0.008496 0.000000
O O14 0.885948 0.998795 0.065539
O O15 0.866806 0.633058 0.113039
O O16 0.000000 0.500000 0.116063
O O17 0.015922 0.592725 0.000000
#
# Coordination Sequence:
#
# PCOD9394106 Si02
#       8
#     8   8   8   8   2   8   8   8
#     4  10  20  37  61  90 119 152 198 251 301 359
#     4   9  16  30  57  88 115 146 188 245 303 349
#     4  10  20  37  62  93 123 148 191 250 309 361
#     4  10  22  40  60  82 121 163 201 238 283 345
#     4   8  24  44  52  76 116 156 208 250 260 344
#     4  10  20  37  62  93 123 148 191 250 309 361
#     4  11  25  42  57  82 122 166 206 247 300 359
#     4  10  20  37  61  90 119 152 198 251 301 359
#
# _framework density 18.432703
#
# number of rings (size 3 to 8) (size 9 to 14) (size 15 to 20)
#    0.414    1.655    1.379    2.069    0.000    6.621 
#    2.483    3.448    0.000    2.483    0.000    0.000 
#    0.000    0.000    0.000    0.000    0.000    0.000 
#
# Total GULP energy -323036.422587 kJ/mol
# GULP energy per Si atom -5569.593493 kJ/mol
# Density = 1.839075 g / cm^3
# Si number density = 18.432703 Si / 1000 Ang^3
#
#
#
# Elastic Constant Matrix: (Units=GPa)
#
#
# Indices 1 2 3 4 5 6 
#
# 1 59.2587 6.7829 -3.7715 0.0000 0.0000 0.0000
# 2 6.7829 126.0295 6.9696 0.0000 0.0000 0.0000
# 3 -3.7715 6.9696 7.6306 0.0000 0.0000 0.0000
# 4 0.0000 0.0000 0.0000 11.5099 0.0000 0.0000
# 5 0.0000 0.0000 0.0000 0.0000 14.1365 0.0000
# 6 0.0000 0.0000 0.0000 0.0000 0.0000 18.6577
#
#
#
# Elastic Compliance Matrix: (Units=1/GPa)
#
#
# Indices 1 2 3 4 5 6 
#
# 1 0.017693 -0.001512 0.010126 0.000000 0.000000 0.000000
# 2 -0.001512 0.008486 -0.008498 0.000000 0.000000 0.000000
# 3 0.010126 -0.008498 0.143817 0.000000 0.000000 0.000000
# 4 0.000000 0.000000 0.000000 0.086882 0.000000 0.000000
# 5 0.000000 0.000000 0.000000 0.000000 0.070739 0.000000
# 6 0.000000 0.000000 0.000000 0.000000 0.000000 0.053597
#
#
# Mechanical properties :
#
#
# Convention : Reuss Voigt Hill
#
# Bulk Modulus (GPa) = 5.87451 23.65342 14.76396
# Shear Modulus (GPa) = 11.42269 21.05669 16.23969
#
# Velocity S-wave (km/s) = 2.49207 3.38354 2.97143
# Velocity P-wave (km/s) = 3.38740 5.30327 4.44967
#
# Compressibility (1/GPa) = 0.17022706
#
# Stress axis : x y z
#
# Youngs Moduli (GPa) = 56.52044 117.84109 6.95326
#
# Poissons Ratio (x) = 0.17820 -0.07041
# Poissons Ratio (y) = 0.08547 0.05909
# Poissons Ratio (z) = -0.57232 1.00145
#
# Static dielectric constant tensor:
#      x y z
#    x 1.604680 0.000000 0.000000 
#    y 0.000000 1.630270 0.000000 
#    z 0.000000 0.000000 1.635740 
# 
# From -- ./inp_files/16513.got.cif
#   From: 2010.05.17/outbox.cif.g08.bks.cpg/sg49_9_cif.got.tgz:16513.got - 2010.06.03 21:02:19.
