data_PCOD9394802
_publ_section_title
;
Structure prediction by ZEFSAII (Michael W. Deem and Ramdas Pophale) SiO2 
 PCOD9394802
Probable space group: P C C M
;
_chemical_formula_sum "Si O2"
_cell_formula_units_Z 48
_cell_length_a 9.272388
_cell_length_b 12.846380
_cell_length_c 17.799417
_cell_angle_alpha 90.000000
_cell_angle_beta 90.000000
_cell_angle_gamma 90.000000
_cell_volume 2120.206387
_symmetry_space_group_name_H-M "P C C M"
_symmetry_group_IT_number 49
_symmetry_cell_setting 'orthorhombic'
loop_
_space_group_symop_operation_xyz
x,y,z
-x,-y,z
x,-y,1/2-z
-x,y,1/2-z
-x,-y,-z
x,y,-z
-x,y,1/2+z
x,-y,1/2+z
loop_
_atom_site_type_symbol
_atom_site_label
_atom_site_fract_x
_atom_site_fract_y
_atom_site_fract_z
Si Si1 0.858267 0.386402 0.412677
Si Si2 0.522072 0.678300 0.087719
Si Si3 0.275173 0.434202 0.322467
Si Si4 0.592681 0.901810 0.090178
Si Si5 0.168489 0.020547 0.664875
Si Si6 0.917961 0.240747 0.824370
O O1 0.896597 0.399945 0.500000
O O2 0.690659 0.350522 0.409325
O O3 0.839422 0.496253 0.369552
O O4 0.965076 0.300577 0.376483
O O5 0.413020 0.602935 0.130418
O O6 0.525063 0.795357 0.119572
O O7 0.477939 0.677133 0.000000
O O8 0.316986 0.500000 0.250000
O O9 0.191885 0.330168 0.298754
O O10 0.500000 0.000000 0.115266
O O11 0.751295 0.935431 0.114627
O O12 0.589081 0.893493 0.000000
O O13 0.172478 0.143206 0.643073
O O14 0.220169 0.000000 0.750000
O O15 0.000000 0.000000 0.660450
O O16 0.000000 0.201309 0.750000
#
# Coordination Sequence:
#
# PCOD9394802 Si02
#       6
#     8   8   8   8   8   8
#     4  11  25  44  68  97 134 181 231 281 341 404
#     4  10  23  44  67  97 137 176 227 287 340 408
#     4  12  25  41  66  98 136 183 231 282 341 407
#     4  10  22  42  67  98 132 171 220 278 337 401
#     4  11  23  41  67  94 132 172 217 274 337 406
#     4  12  24  44  65  97 137 177 225 285 343 403
#
# _framework density 22.639306000000001
#
# number of rings (size 3 to 8) (size 9 to 14) (size 15 to 20)
#    0.000    1.000    3.333    3.500    0.000    6.000 
#    0.000    1.667    0.000    0.000    0.000    0.000 
#    0.000    0.000    0.000    0.000    0.000    0.000 
#
# Total GULP energy -268323.938561 kJ/mol
# GULP energy per Si atom -5590.082053 kJ/mol
# Density = 2.258778 g / cm^3
# Si number density = 22.639306 Si / 1000 Ang^3
#
#
#
# Elastic Constant Matrix: (Units=GPa)
#
#
# Indices 1 2 3 4 5 6 
#
# 1 95.8513 47.0370 36.0475 0.0000 0.0000 0.0000
# 2 47.0370 163.9742 42.7546 0.0000 0.0000 0.0000
# 3 36.0475 42.7546 62.3821 0.0000 0.0000 0.0000
# 4 0.0000 0.0000 0.0000 20.6065 0.0000 0.0000
# 5 0.0000 0.0000 0.0000 0.0000 29.0639 0.0000
# 6 0.0000 0.0000 0.0000 0.0000 0.0000 7.5355
#
#
#
# Elastic Compliance Matrix: (Units=1/GPa)
#
#
# Indices 1 2 3 4 5 6 
#
# 1 0.014022 -0.002325 -0.006509 0.000000 0.000000 0.000000
# 2 -0.002325 0.007811 -0.004010 0.000000 0.000000 0.000000
# 3 -0.006509 -0.004010 0.022540 0.000000 0.000000 0.000000
# 4 0.000000 0.000000 0.000000 0.048528 0.000000 0.000000
# 5 0.000000 0.000000 0.000000 0.000000 0.034407 0.000000
# 6 0.000000 0.000000 0.000000 0.000000 0.000000 0.132705
#
#
# Mechanical properties :
#
#
# Convention : Reuss Voigt Hill
#
# Bulk Modulus (GPa) = 53.51990 63.76510 58.64250
# Shear Modulus (GPa) = 17.12748 24.53243 20.82996
#
# Velocity S-wave (km/s) = 2.75351 3.29541 3.03657
# Velocity P-wave (km/s) = 5.81383 6.53502 6.18495
#
# Compressibility (1/GPa) = 0.01868464
#
# Stress axis : x y z
#
# Youngs Moduli (GPa) = 71.31821 128.02440 44.36631
#
# Poissons Ratio (x) = 0.29767 0.28878
# Poissons Ratio (y) = 0.16582 0.17790
# Poissons Ratio (z) = 0.46420 0.51336
#
# Static dielectric constant tensor:
#      x y z
#    x 1.402890 0.000000 0.000000 
#    y 0.000000 1.973950 0.000000 
#    z 0.000000 0.000000 1.814430 
# 
# From -- ./inp_files/16291.got.cif
#   From: 2010.05.17/outbox.cif.g08.bks.cpg/sg49_9_cif.got.tgz:16291.got - 2010.06.03 21:02:19.
