data_PCOD9394235
_publ_section_title
;
Structure prediction by ZEFSAII (Michael W. Deem and Ramdas Pophale) SiO2 
 PCOD9394235
Probable space group: P C C M
;
_chemical_formula_sum "Si O2"
_cell_formula_units_Z 64
_cell_length_a 9.481453
_cell_length_b 15.541418
_cell_length_c 23.119688
_cell_angle_alpha 90.000000
_cell_angle_beta 90.000000
_cell_angle_gamma 90.000000
_cell_volume 3406.806811
_symmetry_space_group_name_H-M "P C C M"
_symmetry_group_IT_number 49
_symmetry_cell_setting 'orthorhombic'
loop_
_space_group_symop_operation_xyz
x,y,z
-x,-y,z
x,-y,1/2-z
-x,y,1/2-z
-x,-y,-z
x,y,-z
-x,y,1/2+z
x,-y,1/2+z
loop_
_atom_site_type_symbol
_atom_site_label
_atom_site_fract_x
_atom_site_fract_y
_atom_site_fract_z
Si Si1 0.822003 0.317268 0.109905
Si Si2 0.962994 0.905403 0.331506
Si Si3 0.338385 0.515860 0.069581
Si Si4 0.241482 0.794982 0.349932
Si Si5 0.481897 0.098483 0.652624
Si Si6 0.239808 0.871766 0.933892
Si Si7 0.260148 0.786692 0.779613
Si Si8 0.141244 0.648175 0.569788
O O1 0.721495 0.395662 0.094170
O O2 0.784590 0.231253 0.073368
O O3 0.789591 0.286205 0.175334
O O4 0.983011 0.345352 0.096252
O O5 0.874584 0.912506 0.391032
O O6 0.861754 0.858571 0.285858
O O7 0.095482 0.846088 0.345431
O O8 0.000000 0.000000 0.312976
O O9 0.500000 0.500000 0.088792
O O10 0.228003 0.439047 0.083012
O O11 0.340982 0.522619 0.000000
O O12 0.366765 0.861585 0.359511
O O13 0.269952 0.756012 0.285953
O O14 0.227375 0.724988 0.399961
O O15 0.388066 0.102243 0.594616
O O16 0.396832 0.161889 0.696420
O O17 0.500000 0.000000 0.673058
O O18 0.226691 0.896794 0.000000
O O19 0.131348 0.656642 0.500000
#
# Coordination Sequence:
#
# PCOD9394235 Si02
#       8
#     8   8   8   8   8   8   8   8
#     4  10  20  40  62  86 124 158 199 241 301 363
#     4  10  21  36  58  88 118 157 204 256 302 347
#     4  10  22  38  63  94 121 154 200 248 291 355
#     4  12  22  38  62  90 123 153 210 259 293 361
#     4  10  23  40  58  85 121 163 213 257 307 351
#     4  10  21  38  59  85 124 170 202 241 313 371
#     4  10  23  39  60  87 120 167 199 250 314 356
#     4  11  23  38  62  94 121 156 195 243 305 362
#
# _framework density 18.785919
#
# number of rings (size 3 to 8) (size 9 to 14) (size 15 to 20)
#    0.000    1.875    2.500    3.750    3.500    5.000 
#    0.000    1.875    0.000    2.250    0.000    0.000 
#    0.000    0.000    0.000    0.000    0.000    0.000 
#
# Total GULP energy -357244.053820 kJ/mol
# GULP energy per Si atom -5581.938341 kJ/mol
# Density = 1.874316 g / cm^3
# Si number density = 18.785919 Si / 1000 Ang^3
#
#
#
# Elastic Constant Matrix: (Units=GPa)
#
#
# Indices 1 2 3 4 5 6 
#
# 1 86.4704 26.3252 23.6237 0.0000 0.0000 0.0000
# 2 26.3252 99.4794 11.7798 0.0000 0.0000 0.0000
# 3 23.6237 11.7798 92.2561 0.0000 0.0000 0.0000
# 4 0.0000 0.0000 0.0000 -6.1357 0.0000 0.0000
# 5 0.0000 0.0000 0.0000 0.0000 5.1961 0.0000
# 6 0.0000 0.0000 0.0000 0.0000 0.0000 17.3223
#
#
#
# Elastic Compliance Matrix: (Units=1/GPa)
#
#
# Indices 1 2 3 4 5 6 
#
# 1 0.013355 -0.003177 -0.003014 0.000000 0.000000 0.000000
# 2 -0.003177 0.010963 -0.000586 0.000000 0.000000 0.000000
# 3 -0.003014 -0.000586 0.011686 0.000000 0.000000 0.000000
# 4 0.000000 0.000000 0.000000 -0.162980 0.000000 0.000000
# 5 0.000000 0.000000 0.000000 0.000000 0.192453 0.000000
# 6 0.000000 0.000000 0.000000 0.000000 0.000000 0.057729
#
#
# Mechanical properties :
#
#
# Convention : Reuss Voigt Hill
#
# Bulk Modulus (GPa) = 44.54593 44.62925 44.58759
# Shear Modulus (GPa) = 34.66331 17.70833 26.18582
#
# Velocity S-wave (km/s) = 4.30021 3.07357 3.73756
# Velocity P-wave (km/s) = 6.95842 6.03358 6.51244
#
# Compressibility (1/GPa) = 0.02244874
#
# Stress axis : x y z
#
# Youngs Moduli (GPa) = 74.87583 91.21958 85.57195
#
# Poissons Ratio (x) = 0.28983 0.25793
# Poissons Ratio (y) = 0.23790 0.05016
# Poissons Ratio (z) = 0.22569 0.05347
#
# Static dielectric constant tensor:
#      x y z
#    x 1.679080 0.000000 0.000000 
#    y 0.000000 1.633740 0.000000 
#    z 0.000000 0.000000 1.657540 
# 
# From -- ./inp_files/22545.got.cif
#   From: 2010.05.17/outbox.cif.g08.bks.cpg/sg49_12_cif.got.tgz:22545.got - 2010.06.03 21:02:19.
