data_PCOD9394063
_publ_section_title
;
Structure prediction by ZEFSAII (Michael W. Deem and Ramdas Pophale) SiO2 
 PCOD9394063
Probable space group: P C C M
;
_chemical_formula_sum "Si O2"
_cell_formula_units_Z 48
_cell_length_a 9.511286
_cell_length_b 31.412002
_cell_length_c 8.589649
_cell_angle_alpha 90.000000
_cell_angle_beta 90.000000
_cell_angle_gamma 90.000000
_cell_volume 2566.316847
_symmetry_space_group_name_H-M "P C C M"
_symmetry_group_IT_number 49
_symmetry_cell_setting 'orthorhombic'
loop_
_space_group_symop_operation_xyz
x,y,z
-x,-y,z
x,-y,1/2-z
-x,y,1/2-z
-x,-y,-z
x,y,-z
-x,y,1/2+z
x,-y,1/2+z
loop_
_atom_site_type_symbol
_atom_site_label
_atom_site_fract_x
_atom_site_fract_y
_atom_site_fract_z
Si Si1 0.157985 0.285614 0.312456
Si Si2 0.345587 0.952615 0.686306
Si Si3 0.158076 0.622581 0.313730
Si Si4 0.842370 0.877145 0.312581
Si Si5 0.657721 0.204455 0.812444
Si Si6 0.658493 0.454756 0.813752
O O1 0.152538 0.287902 0.500000
O O2 0.206618 0.331059 0.245925
O O3 0.260128 0.247274 0.264820
O O4 0.000000 0.277938 0.250000
O O5 0.500000 0.940119 0.750000
O O6 0.349386 0.953449 0.500000
O O7 0.231613 0.919271 0.746626
O O8 0.316886 0.000000 0.750000
O O9 0.157418 0.621963 0.500000
O O10 0.251877 0.584651 0.247712
O O11 0.000000 0.617429 0.250000
O O12 0.844683 0.878947 0.500000
O O13 0.748380 0.836588 0.263668
O O14 0.000000 0.872863 0.250000
O O15 0.500000 0.202874 0.750000
O O16 0.652319 0.204229 0.000000
O O17 0.714113 0.500000 0.750000
O O18 0.500000 0.450630 0.750000
O O19 0.656695 0.455648 0.000000
#
# Coordination Sequence:
#
# PCOD9394063 Si02
#       6
#     8   8   8   8   8   8
#     4  10  20  37  58  84 114 149 189 234 284 341
#     4  11  22  39  62  89 119 155 194 239 288 343
#     4  11  22  38  59  86 116 152 192 237 287 341
#     4  11  23  40  60  87 118 154 195 240 290 345
#     4  10  23  39  59  85 116 150 191 236 285 341
#     4  11  22  39  60  85 115 151 191 236 286 342
#
# _framework density 18.703848000000001
#
# number of rings (size 3 to 8) (size 9 to 14) (size 15 to 20)
#    0.000    1.333    0.000    8.500    0.000    5.333 
#    0.000    5.000    0.000    0.000    0.000    0.000 
#    0.000    0.000    0.000    0.000    0.000    0.000 
#
# Total GULP energy -268416.367249 kJ/mol
# GULP energy per Si atom -5592.007651 kJ/mol
# Density = 1.866128 g / cm^3
# Si number density = 18.703848 Si / 1000 Ang^3
#
#
#
# Elastic Constant Matrix: (Units=GPa)
#
#
# Indices 1 2 3 4 5 6 
#
# 1 131.1167 112.3227 51.8280 0.0000 0.0000 0.0000
# 2 112.3227 152.6344 61.9816 0.0000 0.0000 0.0000
# 3 51.8280 61.9816 142.2473 0.0000 0.0000 0.0000
# 4 0.0000 0.0000 0.0000 26.7271 0.0000 0.0000
# 5 0.0000 0.0000 0.0000 0.0000 36.2500 0.0000
# 6 0.0000 0.0000 0.0000 0.0000 0.0000 46.5581
#
#
#
# Elastic Compliance Matrix: (Units=1/GPa)
#
#
# Indices 1 2 3 4 5 6 
#
# 1 0.020777 -0.014842 -0.001103 0.000000 0.000000 0.000000
# 2 -0.014842 0.018562 -0.002680 0.000000 0.000000 0.000000
# 3 -0.001103 -0.002680 0.008600 0.000000 0.000000 0.000000
# 4 0.000000 0.000000 0.000000 0.037415 0.000000 0.000000
# 5 0.000000 0.000000 0.000000 0.000000 0.027586 0.000000
# 6 0.000000 0.000000 0.000000 0.000000 0.000000 0.021479
#
#
# Mechanical properties :
#
#
# Convention : Reuss Voigt Hill
#
# Bulk Modulus (GPa) = 93.55986 97.58476 95.57231
# Shear Modulus (GPa) = 28.53336 35.23146 31.88241
#
# Velocity S-wave (km/s) = 3.91005 4.34481 4.13315
# Velocity P-wave (km/s) = 8.39732 8.80095 8.60150
#
# Compressibility (1/GPa) = 0.01068834
#
# Stress axis : x y z
#
# Youngs Moduli (GPa) = 48.12911 53.87285 116.28054
#
# Poissons Ratio (x) = 0.79958 0.12827
# Poissons Ratio (y) = 0.71433 0.31168
# Poissons Ratio (z) = 0.05309 0.14440
#
# Static dielectric constant tensor:
#      x y z
#    x 1.604180 0.000000 0.000000 
#    y 0.000000 1.639600 0.000000 
#    z 0.000000 0.000000 1.627490 
# 
# From -- ./inp_files/2091.got.cif
#   From: 2010.05.17/outbox.cif.g08.bks.cpg/sg49_2_cif.got.tgz:2091.got - 2010.06.03 21:02:19.
