data_PCOD9394964
_publ_section_title
;
Structure prediction by ZEFSAII (Michael W. Deem and Ramdas Pophale) SiO2 
 PCOD9394964
Probable space group: P C C M
;
_chemical_formula_sum "Si O2"
_cell_formula_units_Z 64
_cell_length_a 10.169064
_cell_length_b 16.587710
_cell_length_c 22.138564
_cell_angle_alpha 90.000000
_cell_angle_beta 90.000000
_cell_angle_gamma 90.000000
_cell_volume 3734.365843
_symmetry_space_group_name_H-M "P C C M"
_symmetry_group_IT_number 49
_symmetry_cell_setting 'orthorhombic'
loop_
_space_group_symop_operation_xyz
x,y,z
-x,-y,z
x,-y,1/2-z
-x,y,1/2-z
-x,-y,-z
x,y,-z
-x,y,1/2+z
x,-y,1/2+z
loop_
_atom_site_type_symbol
_atom_site_label
_atom_site_fract_x
_atom_site_fract_y
_atom_site_fract_z
Si Si1 0.648514 0.006937 0.930335
Si Si2 0.341353 0.903168 0.753682
Si Si3 0.509089 0.745186 0.927782
Si Si4 0.093650 0.427766 0.926591
Si Si5 0.393368 0.564822 0.572994
Si Si6 0.257353 0.147986 0.874607
Si Si7 0.738473 0.827830 0.618759
Si Si8 0.988930 0.245035 0.426605
O O1 0.740766 0.943906 0.897136
O O2 0.500000 0.000000 0.903977
O O3 0.702320 0.096480 0.923997
O O4 0.640213 0.982823 0.000000
O O5 0.500000 0.892357 0.750000
O O6 0.276238 0.858115 0.696922
O O7 0.283450 0.864921 0.814758
O O8 0.317555 0.000000 0.750000
O O9 0.559030 0.655375 0.915256
O O10 0.615326 0.808811 0.903572
O O11 0.372177 0.761815 0.895325
O O12 0.495189 0.754752 0.000000
O O13 0.243202 0.441896 0.905135
O O14 0.038167 0.339129 0.911651
O O15 0.000000 0.500000 0.905998
O O16 0.097290 0.429931 0.000000
O O17 0.500000 0.500000 0.595601
O O18 0.388348 0.555386 0.500000
O O19 0.132260 0.194805 0.899574
O O20 0.878610 0.790440 0.602418
O O21 0.993270 0.237666 0.500000
#
# Coordination Sequence:
#
# PCOD9394964 Si02
#       8
#     8   8   8   8   8   8   8   8
#     4  11  20  33  55  83 112 148 195 241 300 357
#     4  11  22  42  63  83 111 151 209 261 289 340
#     4  11  20  34  57  88 122 153 196 247 293 349
#     4   9  18  33  53  80 120 161 187 224 293 366
#     4   9  18  31  52  85 120 154 191 233 289 355
#     4  12  22  38  61  82 114 162 197 240 297 346
#     4  12  24  38  57  87 115 157 203 247 295 341
#     4  11  24  40  57  88 128 157 192 241 300 365
#
# _framework density 17.138117999999999
#
# number of rings (size 3 to 8) (size 9 to 14) (size 15 to 20)
#    0.000    1.250    5.000    2.250    1.750    1.000 
#    0.000    1.875    0.000    0.000    0.000    5.250 
#    0.000    0.000    0.000    0.000    0.000    0.000 
#
# Total GULP energy -357215.831167 kJ/mol
# GULP energy per Si atom -5581.497362 kJ/mol
# Density = 1.709911 g / cm^3
# Si number density = 17.138118 Si / 1000 Ang^3
#
#
#
# Elastic Constant Matrix: (Units=GPa)
#
#
# Indices 1 2 3 4 5 6 
#
# 1 134.7995 66.0603 35.5638 0.0000 0.0000 0.0000
# 2 66.0603 101.7309 28.0081 0.0000 0.0000 0.0000
# 3 35.5638 28.0081 82.3378 0.0000 0.0000 0.0000
# 4 0.0000 0.0000 0.0000 1.9872 0.0000 0.0000
# 5 0.0000 0.0000 0.0000 0.0000 20.1709 0.0000
# 6 0.0000 0.0000 0.0000 0.0000 0.0000 27.8030
#
#
#
# Elastic Compliance Matrix: (Units=1/GPa)
#
#
# Indices 1 2 3 4 5 6 
#
# 1 0.011382 -0.006662 -0.002650 0.000000 0.000000 0.000000
# 2 -0.006662 0.014744 -0.002138 0.000000 0.000000 0.000000
# 3 -0.002650 -0.002138 0.014017 0.000000 0.000000 0.000000
# 4 0.000000 0.000000 0.000000 0.503223 0.000000 0.000000
# 5 0.000000 0.000000 0.000000 0.000000 0.049576 0.000000
# 6 0.000000 0.000000 0.000000 0.000000 0.000000 0.035967
#
#
# Mechanical properties :
#
#
# Convention : Reuss Voigt Hill
#
# Bulk Modulus (GPa) = 57.99216 64.23697 61.11456
# Shear Modulus (GPa) = 7.60389 22.60796 15.10593
#
# Velocity S-wave (km/s) = 2.10866 3.63597 2.97210
# Velocity P-wave (km/s) = 6.31191 7.42902 6.89313
#
# Compressibility (1/GPa) = 0.01724371
#
# Stress axis : x y z
#
# Youngs Moduli (GPa) = 87.85647 67.82300 71.34135
#
# Poissons Ratio (x) = 0.45180 0.18907
# Poissons Ratio (y) = 0.58526 0.15254
# Poissons Ratio (z) = 0.23284 0.14502
#
# Static dielectric constant tensor:
#      x y z
#    x 1.610580 0.000000 0.000000 
#    y 0.000000 1.578320 0.000000 
#    z 0.000000 0.000000 1.576580 
# 
# From -- ./inp_files/22551.got.cif
#   From: 2010.05.17/outbox.cif.g08.bks.cpg/sg49_12_cif.got.tgz:22551.got - 2010.06.03 21:02:19.
