data_PCOD9394852
_publ_section_title
;
Structure prediction by ZEFSAII (Michael W. Deem and Ramdas Pophale) SiO2 
 PCOD9394852
Probable space group: P C C M
;
_chemical_formula_sum "Si O2"
_cell_formula_units_Z 48
_cell_length_a 14.158288
_cell_length_b 9.572191
_cell_length_c 19.060674
_cell_angle_alpha 90.000000
_cell_angle_beta 90.000000
_cell_angle_gamma 90.000000
_cell_volume 2583.213797
_symmetry_space_group_name_H-M "P C C M"
_symmetry_group_IT_number 49
_symmetry_cell_setting 'orthorhombic'
loop_
_space_group_symop_operation_xyz
x,y,z
-x,-y,z
x,-y,1/2-z
-x,y,1/2-z
-x,-y,-z
x,y,-z
-x,y,1/2+z
x,-y,1/2+z
loop_
_atom_site_type_symbol
_atom_site_label
_atom_site_fract_x
_atom_site_fract_y
_atom_site_fract_z
Si Si1 0.888909 0.854775 0.660827
Si Si2 0.109152 0.824880 0.328850
Si Si3 0.238070 0.571683 0.319965
Si Si4 0.531249 0.845918 0.416154
Si Si5 0.726620 0.308122 0.915957
Si Si6 0.446009 0.351239 0.185580
O O1 0.876192 0.830968 0.744322
O O2 0.819476 0.767464 0.613003
O O3 0.998674 0.813237 0.651430
O O4 0.868064 0.018237 0.646053
O O5 0.171206 0.692271 0.350909
O O6 0.193896 0.500000 0.250000
O O7 0.269992 0.456594 0.376590
O O8 0.337313 0.635489 0.294633
O O9 0.528394 0.846372 0.500000
O O10 0.634723 0.785383 0.396124
O O11 0.458142 0.736261 0.384235
O O12 0.500000 0.000000 0.391745
O O13 0.726819 0.323773 0.000000
O O14 0.500000 0.500000 0.176846
O O15 0.500000 0.278818 0.250000
#
# Coordination Sequence:
#
# PCOD9394852 Si02
#       6
#     8   8   8   8   8   8
#     4   9  19  40  60  88 115 148 205 249 298 364
#     4   9  20  37  64  86 112 154 201 252 297 361
#     4  12  21  37  59  89 120 158 202 245 303 366
#     4  10  23  41  59  83 117 160 203 238 290 363
#     4  11  23  39  59  88 126 159 195 255 309 354
#     4  11  21  37  56  86 122 152 191 252 299 348
#
# _framework density 18.581506000000001
#
# number of rings (size 3 to 8) (size 9 to 14) (size 15 to 20)
#    0.000    1.667    5.000    1.000    2.333    2.000 
#    0.000    4.167    0.000    0.000    0.000    0.000 
#    0.000    0.000    0.000    0.000    0.000    0.000 
#
# Total GULP energy -267524.267474 kJ/mol
# GULP energy per Si atom -5573.422239 kJ/mol
# Density = 1.853921 g / cm^3
# Si number density = 18.581506 Si / 1000 Ang^3
#
#
#
# Elastic Constant Matrix: (Units=GPa)
#
#
# Indices 1 2 3 4 5 6 
#
# 1 66.4414 54.4152 23.8316 0.0000 0.0000 0.0000
# 2 54.4152 102.7391 25.6856 0.0000 0.0000 0.0000
# 3 23.8316 25.6856 37.9306 0.0000 0.0000 0.0000
# 4 0.0000 0.0000 0.0000 34.0688 0.0000 0.0000
# 5 0.0000 0.0000 0.0000 0.0000 25.9488 0.0000
# 6 0.0000 0.0000 0.0000 0.0000 0.0000 32.5085
#
#
#
# Elastic Compliance Matrix: (Units=1/GPa)
#
#
# Indices 1 2 3 4 5 6 
#
# 1 0.029154 -0.013075 -0.009463 0.000000 0.000000 0.000000
# 2 -0.013075 0.017581 -0.003690 0.000000 0.000000 0.000000
# 3 -0.009463 -0.003690 0.034809 0.000000 0.000000 0.000000
# 4 0.000000 0.000000 0.000000 0.029352 0.000000 0.000000
# 5 0.000000 0.000000 0.000000 0.000000 0.038537 0.000000
# 6 0.000000 0.000000 0.000000 0.000000 0.000000 0.030761
#
#
# Mechanical properties :
#
#
# Convention : Reuss Voigt Hill
#
# Bulk Modulus (GPa) = 34.38051 46.10844 40.24448
# Shear Modulus (GPa) = 20.63157 25.38380 23.00768
#
# Velocity S-wave (km/s) = 3.33577 3.70006 3.52263
# Velocity P-wave (km/s) = 5.77748 6.56673 6.18471
#
# Compressibility (1/GPa) = 0.02908625
#
# Stress axis : x y z
#
# Youngs Moduli (GPa) = 34.30102 56.87864 28.72859
#
# Poissons Ratio (x) = 0.74370 0.27185
# Poissons Ratio (y) = 0.44850 0.10602
# Poissons Ratio (z) = 0.32459 0.20991
#
# Static dielectric constant tensor:
#      x y z
#    x 1.649150 0.000000 0.000000 
#    y 0.000000 1.669040 0.000000 
#    z 0.000000 0.000000 1.642650 
# 
# From -- ./inp_files/20742.got.cif
#   From: 2010.05.17/outbox.cif.g08.bks.cpg/sg49_11_cif.got.tgz:20742.got - 2010.06.03 21:02:19.
