data_PCOD9394554
_publ_section_title
;
Structure prediction by ZEFSAII (Michael W. Deem and Ramdas Pophale) SiO2 
 PCOD9394554
Probable space group: P C C M
;
_chemical_formula_sum "Si O2"
_cell_formula_units_Z 64
_cell_length_a 15.542614
_cell_length_b 12.215637
_cell_length_c 17.645044
_cell_angle_alpha 90.000000
_cell_angle_beta 90.000000
_cell_angle_gamma 90.000000
_cell_volume 3350.139765
_symmetry_space_group_name_H-M "P C C M"
_symmetry_group_IT_number 49
_symmetry_cell_setting 'orthorhombic'
loop_
_space_group_symop_operation_xyz
x,y,z
-x,-y,z
x,-y,1/2-z
-x,y,1/2-z
-x,-y,-z
x,y,-z
-x,y,1/2+z
x,-y,1/2+z
loop_
_atom_site_type_symbol
_atom_site_label
_atom_site_fract_x
_atom_site_fract_y
_atom_site_fract_z
Si Si1 0.195101 0.616796 0.649984
Si Si2 0.585908 0.283646 0.208279
Si Si3 0.948309 0.769067 0.090840
Si Si4 0.243834 0.619099 0.825695
Si Si5 0.500187 0.873790 0.913025
Si Si6 0.145813 0.802019 0.089019
Si Si7 0.320933 0.190709 0.146277
Si Si8 0.840995 0.963936 0.836854
O O1 0.106127 0.665008 0.619281
O O2 0.202460 0.622852 0.741598
O O3 0.213409 0.490630 0.632495
O O4 0.268791 0.700648 0.622003
O O5 0.500000 0.325747 0.250000
O O6 0.653078 0.376033 0.182948
O O7 0.555638 0.204595 0.140678
O O8 0.637838 0.213985 0.271260
O O9 0.049283 0.761107 0.107165
O O10 0.909485 0.874182 0.134369
O O11 0.937054 0.782960 0.000000
O O12 0.213460 0.727501 0.867544
O O13 0.599154 0.835790 0.906914
O O14 0.500000 0.000000 0.886412
O O15 0.470318 0.870457 0.000000
O O16 0.152928 0.927390 0.113622
O O17 0.159085 0.792185 0.000000
O O18 0.251346 0.094508 0.153055
O O19 0.854240 0.000000 0.750000
#
# Coordination Sequence:
#
# PCOD9394554 Si02
#       8
#     8   8   8   8   8   8   8   8
#     4   9  20  40  63  84 114 149 198 245 287 347
#     4   9  19  38  58  82 115 152 190 239 295 355
#     4  10  22  40  58  82 119 162 197 232 291 360
#     4  10  21  39  61  90 115 147 198 251 295 338
#     4  10  22  35  52  81 116 152 189 231 283 352
#     4  11  24  38  56  86 123 157 194 241 298 353
#     4   9  20  36  58  82 109 151 191 234 291 354
#     4  11  22  36  60  88 115 149 197 249 296 350
#
# _framework density 19.103680000000001
#
# number of rings (size 3 to 8) (size 9 to 14) (size 15 to 20)
#    0.000    2.125    0.000    3.000    3.500    9.250 
#    0.000   13.125    0.000    0.750    0.000    0.000 
#    0.000    0.000    0.000    0.000    0.000    0.000 
#
# Total GULP energy -357351.369128 kJ/mol
# GULP energy per Si atom -5583.615143 kJ/mol
# Density = 1.906020 g / cm^3
# Si number density = 19.103680 Si / 1000 Ang^3
#
#
#
# Elastic Constant Matrix: (Units=GPa)
#
#
# Indices 1 2 3 4 5 6 
#
# 1 78.2422 12.8619 13.2536 0.0000 0.0000 0.0000
# 2 12.8619 67.8944 -3.5738 0.0000 0.0000 0.0000
# 3 13.2536 -3.5738 23.6536 0.0000 0.0000 0.0000
# 4 0.0000 0.0000 0.0000 47.5381 0.0000 0.0000
# 5 0.0000 0.0000 0.0000 0.0000 18.5712 0.0000
# 6 0.0000 0.0000 0.0000 0.0000 0.0000 11.4479
#
#
#
# Elastic Compliance Matrix: (Units=1/GPa)
#
#
# Indices 1 2 3 4 5 6 
#
# 1 0.014807 -0.003268 -0.008790 0.000000 0.000000 0.000000
# 2 -0.003268 0.015568 0.004183 0.000000 0.000000 0.000000
# 3 -0.008790 0.004183 0.047834 0.000000 0.000000 0.000000
# 4 0.000000 0.000000 0.000000 0.021036 0.000000 0.000000
# 5 0.000000 0.000000 0.000000 0.000000 0.053847 0.000000
# 6 0.000000 0.000000 0.000000 0.000000 0.000000 0.087352
#
#
# Mechanical properties :
#
#
# Convention : Reuss Voigt Hill
#
# Bulk Modulus (GPa) = 16.01043 23.87485 19.94264
# Shear Modulus (GPa) = 18.04963 25.32800 21.68881
#
# Velocity S-wave (km/s) = 3.07713 3.64513 3.37311
# Velocity P-wave (km/s) = 4.58519 5.49914 5.06284
#
# Compressibility (1/GPa) = 0.06245929
#
# Stress axis : x y z
#
# Youngs Moduli (GPa) = 67.53545 64.23436 20.90548
#
# Poissons Ratio (x) = 0.20990 0.18377
# Poissons Ratio (y) = 0.22069 -0.08745
# Poissons Ratio (z) = 0.59367 -0.26870
#
# Static dielectric constant tensor:
#      x y z
#    x 1.666990 0.000000 0.000000 
#    y 0.000000 1.647990 0.000000 
#    z 0.000000 0.000000 1.663540 
# 
# From -- ./inp_files/17962.got.cif
#   From: 2010.05.17/outbox.cif.g08.bks.cpg/sg49_9_cif.got.tgz:17962.got - 2010.06.03 21:02:19.
