data_PCOD9394393
_publ_section_title
;
Structure prediction by ZEFSAII (Michael W. Deem and Ramdas Pophale) SiO2 
 PCOD9394393
Probable space group: P C C M
;
_chemical_formula_sum "Si O2"
_cell_formula_units_Z 48
_cell_length_a 9.074125
_cell_length_b 8.938123
_cell_length_c 27.488663
_cell_angle_alpha 90.000000
_cell_angle_beta 90.000000
_cell_angle_gamma 90.000000
_cell_volume 2229.485753
_symmetry_space_group_name_H-M "P C C M"
_symmetry_group_IT_number 49
_symmetry_cell_setting 'orthorhombic'
loop_
_space_group_symop_operation_xyz
x,y,z
-x,-y,z
x,-y,1/2-z
-x,y,1/2-z
-x,-y,-z
x,y,-z
-x,y,1/2+z
x,-y,1/2+z
loop_
_atom_site_type_symbol
_atom_site_label
_atom_site_fract_x
_atom_site_fract_y
_atom_site_fract_z
Si Si1 0.219822 0.357584 0.323694
Si Si2 0.306353 0.684137 0.634945
Si Si3 0.324460 0.825497 0.738623
Si Si4 0.578930 0.859611 0.617485
Si Si5 0.848311 0.066301 0.944831
Si Si6 0.002163 0.665648 0.593665
O O1 0.289701 0.514871 0.342929
O O2 0.233928 0.305312 0.267967
O O3 0.312938 0.223390 0.346762
O O4 0.063878 0.343130 0.351162
O O5 0.297640 0.788107 0.682386
O O6 0.455501 0.733367 0.607211
O O7 0.169869 0.715152 0.599418
O O8 0.500000 0.804391 0.750000
O O9 0.285969 0.000000 0.750000
O O10 0.685458 0.936407 0.577653
O O11 0.500000 0.000000 0.641604
O O12 0.894299 0.238807 0.939323
O O13 0.842815 0.011412 0.000000
O O14 0.000000 0.000000 0.920877
O O15 0.000000 0.500000 0.573863
#
# Coordination Sequence:
#
# PCOD9394393 Si02
#       6
#     8   8   8   8   8   8
#     4  10  21  37  57  83 117 160 202 238 290 345
#     4  11  21  36  60  85 117 155 200 246 292 339
#     4  11  22  35  53  83 121 160 200 244 286 333
#     4  11  21  35  58  85 116 148 191 240 289 348
#     4  10  22  41  63  87 116 151 188 232 298 368
#     4   9  21  40  61  87 116 154 195 242 294 351
#
# _framework density 21.529629
#
# number of rings (size 3 to 8) (size 9 to 14) (size 15 to 20)
#    0.000    1.667    1.667    3.000    0.000    3.333 
#    0.000    4.167    0.000   13.000    0.000    0.000 
#    0.000    0.000    0.000    0.000    0.000    0.000 
#
# Total GULP energy -267204.819756 kJ/mol
# GULP energy per Si atom -5566.767078 kJ/mol
# Density = 2.148063 g / cm^3
# Si number density = 21.529629 Si / 1000 Ang^3
#
#
#
# Elastic Constant Matrix: (Units=GPa)
#
#
# Indices 1 2 3 4 5 6 
#
# 1 87.3486 4.8223 8.6968 0.0000 0.0000 0.0000
# 2 4.8223 82.5615 -6.6433 0.0000 0.0000 0.0000
# 3 8.6968 -6.6433 27.3562 0.0000 0.0000 0.0000
# 4 0.0000 0.0000 0.0000 2.5536 0.0000 0.0000
# 5 0.0000 0.0000 0.0000 0.0000 13.8041 0.0000
# 6 0.0000 0.0000 0.0000 0.0000 0.0000 30.1986
#
#
#
# Elastic Compliance Matrix: (Units=1/GPa)
#
#
# Indices 1 2 3 4 5 6 
#
# 1 0.011906 -0.001020 -0.004033 0.000000 0.000000 0.000000
# 2 -0.001020 0.012441 0.003345 0.000000 0.000000 0.000000
# 3 -0.004033 0.003345 0.038649 0.000000 0.000000 0.000000
# 4 0.000000 0.000000 0.000000 0.391601 0.000000 0.000000
# 5 0.000000 0.000000 0.000000 0.000000 0.072442 0.000000
# 6 0.000000 0.000000 0.000000 0.000000 0.000000 0.033114
#
#
# Mechanical properties :
#
#
# Convention : Reuss Voigt Hill
#
# Bulk Modulus (GPa) = 16.78360 23.44643 20.11501
# Shear Modulus (GPa) = 8.57003 22.00397 15.28700
#
# Velocity S-wave (km/s) = 1.99730 3.20039 2.66756
# Velocity P-wave (km/s) = 3.62374 4.95688 4.34178
#
# Compressibility (1/GPa) = 0.05958198
#
# Stress axis : x y z
#
# Youngs Moduli (GPa) = 83.98985 80.37968 25.87372
#
# Poissons Ratio (x) = 0.08198 0.10434
# Poissons Ratio (y) = 0.08566 -0.08656
# Poissons Ratio (z) = 0.33871 -0.26891
#
# Static dielectric constant tensor:
#      x y z
#    x 1.869130 0.000000 0.000000 
#    y 0.000000 1.869720 0.000000 
#    z 0.000000 0.000000 1.861430 
# 
# From -- ./inp_files/26246.got.cif
#   From: 2010.05.17/outbox.cif.g08.bks.cpg/sg49_14_cif.got.tgz:26246.got - 2010.06.03 21:02:19.
