data_PCOD9394212
_publ_section_title
;
Structure prediction by ZEFSAII (Michael W. Deem and Ramdas Pophale) SiO2 
 PCOD9394212
Probable space group: P C C M
;
_chemical_formula_sum "Si O2"
_cell_formula_units_Z 64
_cell_length_a 14.822446
_cell_length_b 13.526630
_cell_length_c 17.320929
_cell_angle_alpha 90.000000
_cell_angle_beta 90.000000
_cell_angle_gamma 90.000000
_cell_volume 3472.807167
_symmetry_space_group_name_H-M "P C C M"
_symmetry_group_IT_number 49
_symmetry_cell_setting 'orthorhombic'
loop_
_space_group_symop_operation_xyz
x,y,z
-x,-y,z
x,-y,1/2-z
-x,y,1/2-z
-x,-y,-z
x,y,-z
-x,y,1/2+z
x,-y,1/2+z
loop_
_atom_site_type_symbol
_atom_site_label
_atom_site_fract_x
_atom_site_fract_y
_atom_site_fract_z
Si Si1 0.722171 0.613095 0.409152
Si Si2 0.777829 0.386905 0.590848
Si Si3 0.642889 0.112144 0.263925
Si Si4 0.555715 0.702748 0.322540
Si Si5 0.055715 0.297252 0.822540
Si Si6 0.613528 0.235201 0.410961
Si Si7 0.113528 0.235201 0.589039
Si Si8 0.142889 0.112144 0.263925
O O1 0.697135 0.624753 0.500000
O O2 0.750000 0.500000 0.397097
O O3 0.640027 0.642295 0.354019
O O4 0.807220 0.685346 0.395016
O O5 0.802865 0.375247 0.500000
O O6 0.859973 0.357704 0.645981
O O7 0.692780 0.314654 0.604984
O O8 0.593561 0.192136 0.209396
O O9 0.625600 0.145922 0.351412
O O10 0.750000 0.118195 0.250000
O O11 0.613426 0.000000 0.250000
O O12 0.500000 0.658774 0.250000
O O13 0.483039 0.718311 0.389915
O O14 0.093561 0.192136 0.790604
O O15 0.000000 0.341225 0.750000
O O16 0.983039 0.281689 0.889915
O O17 0.618566 0.206344 0.500000
O O18 0.118566 0.206344 0.500000
O O19 0.125600 0.145922 0.648588
O O20 0.113426 0.000000 0.250000
#
# Coordination Sequence:
#
# PCOD9394212 Si02
#       8
#     8   8   8   8   8   8   8   8
#     4  10  21  39  61  84 119 159 195 241 295 346
#     4  10  21  39  61  84 119 159 195 241 295 346
#     4  10  20  39  62  84 116 157 193 238 295 350
#     4  10  21  37  60  86 118 154 194 246 291 345
#     4  10  21  37  60  86 118 154 194 246 291 345
#     4  10  21  38  61  89 117 151 198 241 287 350
#     4  10  21  38  61  89 117 151 198 241 287 350
#     4  10  20  39  62  84 116 157 193 238 295 350
#
# _framework density 18.428896000000002
#
# number of rings (size 3 to 8) (size 9 to 14) (size 15 to 20)
#    0.000    2.000    2.500    0.750    0.000    5.500 
#    0.000   23.750    0.000    0.000    0.000    0.000 
#    0.000    0.000    0.000    0.000    0.000    0.000 
#
# Total GULP energy -357274.238093 kJ/mol
# GULP energy per Si atom -5582.409970 kJ/mol
# Density = 1.838695 g / cm^3
# Si number density = 18.428896 Si / 1000 Ang^3
#
#
#
# Elastic Constant Matrix: (Units=GPa)
#
#
# Indices 1 2 3 4 5 6 
#
# 1 129.6843 50.7848 64.7817 0.0000 0.0000 0.0000
# 2 50.7848 108.1363 81.7573 0.0000 0.0000 0.0000
# 3 64.7817 81.7573 109.4912 0.0000 0.0000 0.0000
# 4 0.0000 0.0000 0.0000 25.9241 0.0000 0.0000
# 5 0.0000 0.0000 0.0000 0.0000 25.4878 0.0000
# 6 0.0000 0.0000 0.0000 0.0000 0.0000 6.4406
#
#
#
# Elastic Compliance Matrix: (Units=1/GPa)
#
#
# Indices 1 2 3 4 5 6 
#
# 1 0.010961 -0.000561 -0.006066 0.000000 0.000000 0.000000
# 2 -0.000561 0.021266 -0.015547 0.000000 0.000000 0.000000
# 3 -0.006066 -0.015547 0.024331 0.000000 0.000000 0.000000
# 4 0.000000 0.000000 0.000000 0.038574 0.000000 0.000000
# 5 0.000000 0.000000 0.000000 0.000000 0.039234 0.000000
# 6 0.000000 0.000000 0.000000 0.000000 0.000000 0.155265
#
#
# Mechanical properties :
#
#
# Convention : Reuss Voigt Hill
#
# Bulk Modulus (GPa) = 81.90642 82.43993 82.17317
# Shear Modulus (GPa) = 14.79075 21.56969 18.18022
#
# Velocity S-wave (km/s) = 2.83607 3.42486 3.14428
# Velocity P-wave (km/s) = 7.43407 7.77629 7.60711
#
# Compressibility (1/GPa) = 0.01220906
#
# Stress axis : x y z
#
# Youngs Moduli (GPa) = 91.23184 47.02432 41.09979
#
# Poissons Ratio (x) = 0.02640 0.24931
# Poissons Ratio (y) = 0.05123 0.63897
# Poissons Ratio (z) = 0.55341 0.73108
#
# Static dielectric constant tensor:
#      x y z
#    x 1.646240 0.000000 0.000000 
#    y 0.000000 1.613730 0.000000 
#    z 0.000000 0.000000 1.627300 
# 
# From -- ./inp_files/17955.got.cif
#   From: 2010.05.17/outbox.cif.g08.bks.cpg/sg49_9_cif.got.tgz:17955.got - 2010.06.03 21:02:19.
