data_PCOD9394592
_publ_section_title
;
Structure prediction by ZEFSAII (Michael W. Deem and Ramdas Pophale) SiO2 
 PCOD9394592
Probable space group: P C C M
;
_chemical_formula_sum "Si O2"
_cell_formula_units_Z 58
_cell_length_a 18.634111
_cell_length_b 9.158401
_cell_length_c 16.767580
_cell_angle_alpha 90.000000
_cell_angle_beta 90.000000
_cell_angle_gamma 90.000000
_cell_volume 2861.532748
_symmetry_space_group_name_H-M "P C C M"
_symmetry_group_IT_number 49
_symmetry_cell_setting 'orthorhombic'
loop_
_space_group_symop_operation_xyz
x,y,z
-x,-y,z
x,-y,1/2-z
-x,y,1/2-z
-x,-y,-z
x,y,-z
-x,y,1/2+z
x,-y,1/2+z
loop_
_atom_site_type_symbol
_atom_site_label
_atom_site_fract_x
_atom_site_fract_y
_atom_site_fract_z
Si Si1 0.584297 0.007306 0.906921
Si Si2 0.080230 0.564429 0.169626
Si Si3 0.138034 0.839133 0.245798
Si Si4 0.500000 0.500000 0.750000
Si Si5 0.391837 0.690769 0.349838
Si Si6 0.710845 0.481781 0.086951
Si Si7 0.301680 0.794840 0.803120
Si Si8 0.156025 0.673982 0.411199
O O1 0.602313 0.836483 0.901093
O O2 0.500000 0.000000 0.879681
O O3 0.641660 0.100759 0.852588
O O4 0.587142 0.057215 0.000000
O O5 0.117188 0.500000 0.250000
O O6 0.094011 0.734282 0.184720
O O7 0.115753 0.482279 0.096368
O O8 0.000000 0.500000 0.169927
O O9 0.221367 0.852014 0.216887
O O10 0.135467 0.772614 0.335738
O O11 0.106660 0.000000 0.250000
O O12 0.542635 0.386090 0.694811
O O13 0.364615 0.558376 0.403705
O O14 0.340375 0.742581 0.277247
O O15 0.715220 0.352375 0.148591
O O16 0.763165 0.619272 0.099465
O O17 0.724987 0.420750 0.000000
O O18 0.145419 0.736264 0.500000
#
# Coordination Sequence:
#
# PCOD9394592 Si02
#       8
#     8   8   8   2   8   8   8   8
#     4  11  26  45  61  86 125 165 206 262 333 400
#     4   9  19  38  65  94 131 178 218 255 311 385
#     4  11  22  39  65 100 130 166 217 270 320 379
#     4  12  24  36  64  92 112 152 222 260 312 392
#     4  12  23  40  61  89 115 158 207 259 318 381
#     4  11  22  38  61  90 122 158 205 266 314 370
#     4  12  22  41  64  90 122 164 211 265 319 381
#     4  10  21  39  64  94 129 166 212 266 321 380
#
# _framework density 20.268858000000002
#
# number of rings (size 3 to 8) (size 9 to 14) (size 15 to 20)
#    0.000    1.103    4.138    2.897    0.000    0.828 
#    0.000    7.586    0.000    0.828    0.000    0.000 
#    0.000    0.000    0.000    0.000    0.000    0.000 
#
# Total GULP energy -322870.784631 kJ/mol
# GULP energy per Si atom -5566.737666 kJ/mol
# Density = 2.022273 g / cm^3
# Si number density = 20.268858 Si / 1000 Ang^3
#
#
#
# Elastic Constant Matrix: (Units=GPa)
#
#
# Indices 1 2 3 4 5 6 
#
# 1 64.5908 11.7206 27.4475 0.0000 0.0000 0.0000
# 2 11.7206 97.2280 30.1943 0.0000 0.0000 0.0000
# 3 27.4475 30.1943 86.7608 0.0000 0.0000 0.0000
# 4 0.0000 0.0000 0.0000 33.5411 0.0000 0.0000
# 5 0.0000 0.0000 0.0000 0.0000 5.0582 0.0000
# 6 0.0000 0.0000 0.0000 0.0000 0.0000 -0.4921
#
#
#
# Elastic Compliance Matrix: (Units=1/GPa)
#
#
# Indices 1 2 3 4 5 6 
#
# 1 0.017904 -0.000448 -0.005508 0.000000 0.000000 0.000000
# 2 -0.000448 0.011543 -0.003875 0.000000 0.000000 0.000000
# 3 -0.005508 -0.003875 0.014617 0.000000 0.000000 0.000000
# 4 0.000000 0.000000 0.000000 0.029814 0.000000 0.000000
# 5 0.000000 0.000000 0.000000 0.000000 0.197700 0.000000
# 6 0.000000 0.000000 0.000000 0.000000 0.000000 -2.032280
#
#
# Mechanical properties :
#
#
# Convention : Reuss Voigt Hill
#
# Bulk Modulus (GPa) = 40.98171 43.03382 42.00776
# Shear Modulus (GPa) = -2.88533 19.56925 8.34196
#
# Velocity S-wave (km/s) = -1.19441 3.11059 2.03091
# Velocity P-wave (km/s) = 4.28495 5.84625 5.12540
#
# Compressibility (1/GPa) = 0.02440113
#
# Stress axis : x y z
#
# Youngs Moduli (GPa) = 55.85334 86.63568 68.41235
#
# Poissons Ratio (x) = 0.03878 0.37684
# Poissons Ratio (y) = 0.02500 0.26513
# Poissons Ratio (z) = 0.30766 0.33575
#
# Static dielectric constant tensor:
#      x y z
#    x -0.018120 0.000000 0.000000 
#    y 0.000000 1.711120 0.000000 
#    z 0.000000 0.000000 5.259440 
# 
# From -- ./inp_files/16504.got.cif
#   From: 2010.05.17/outbox.cif.g08.bks.cpg/sg49_9_cif.got.tgz:16504.got - 2010.06.03 21:02:19.
