data_PCOD9394897
_publ_section_title
;
Structure prediction by ZEFSAII (Michael W. Deem and Ramdas Pophale) SiO2 
 PCOD9394897
Probable space group: P C C M
;
_chemical_formula_sum "Si O2"
_cell_formula_units_Z 34
_cell_length_a 14.403723
_cell_length_b 4.952154
_cell_length_c 21.603598
_cell_angle_alpha 90.000000
_cell_angle_beta 90.000000
_cell_angle_gamma 90.000000
_cell_volume 1540.972860
_symmetry_space_group_name_H-M "P C C M"
_symmetry_group_IT_number 49
_symmetry_cell_setting 'orthorhombic'
loop_
_space_group_symop_operation_xyz
x,y,z
-x,-y,z
x,-y,1/2-z
-x,y,1/2-z
-x,-y,-z
x,y,-z
-x,y,1/2+z
x,-y,1/2+z
loop_
_atom_site_type_symbol
_atom_site_label
_atom_site_fract_x
_atom_site_fract_y
_atom_site_fract_z
Si Si1 0.171493 0.332885 0.000000
Si Si2 0.223090 0.938995 0.320911
Si Si3 0.891318 0.534147 0.366535
Si Si4 0.593061 0.102575 0.397716
Si Si5 0.500000 0.500000 0.500000
Si Si6 0.702292 0.181346 0.000000
O O1 0.120824 0.422575 0.062804
O O2 0.261540 0.519771 0.000000
O O3 0.210729 0.027611 0.000000
O O4 0.158549 0.679841 0.323337
O O5 0.318349 0.849532 0.354725
O O6 0.243157 0.000000 0.250000
O O7 0.163925 0.182401 0.354827
O O8 0.000000 0.500000 0.353179
O O9 0.556416 0.325928 0.445380
O O10 0.500000 0.000000 0.364064
O O11 0.636310 0.873054 0.442410
#
# Coordination Sequence:
#
# PCOD9394897 Si02
#       6
#     4   8   8   8   2   4
#     4  12  21  43  69 108 135 181 217 307 374 425
#     4  12  28  48  72 101 145 199 245 293 356 433
#     4  12  26  47  75 106 141 185 243 306 369 436
#     4  11  25  40  69 103 142 188 236 295 360 429
#     4  10  24  40  72 112 142 184 242 298 374 430
#     4  11  22  38  70  96 147 178 227 285 367 429
#
# _framework density 22.063983
#
# number of rings (size 3 to 8) (size 9 to 14) (size 15 to 20)
#    0.000    0.471    4.706    3.176    9.882    3.294 
#    0.000    3.529    0.000    0.000    0.000    0.000 
#    0.000    0.000    0.000    0.000    0.000    0.000 
#
# Total GULP energy -189377.552415 kJ/mol
# GULP energy per Si atom -5569.928012 kJ/mol
# Density = 2.201376 g / cm^3
# Si number density = 22.063983 Si / 1000 Ang^3
#
#
#
# Elastic Constant Matrix: (Units=GPa)
#
#
# Indices 1 2 3 4 5 6 
#
# 1 216.1178 43.1573 52.7561 0.0000 0.0000 0.0000
# 2 43.1573 93.6623 11.6169 0.0000 0.0000 0.0000
# 3 52.7561 11.6169 105.4881 0.0000 0.0000 0.0000
# 4 0.0000 0.0000 0.0000 -209.8497 0.0000 0.0000
# 5 0.0000 0.0000 0.0000 0.0000 -25.7258 0.0000
# 6 0.0000 0.0000 0.0000 0.0000 0.0000 30.2036
#
#
#
# Elastic Compliance Matrix: (Units=1/GPa)
#
#
# Indices 1 2 3 4 5 6 
#
# 1 0.005726 -0.002315 -0.002609 0.000000 0.000000 0.000000
# 2 -0.002315 0.011760 -0.000137 0.000000 0.000000 0.000000
# 3 -0.002609 -0.000137 0.010800 0.000000 0.000000 0.000000
# 4 0.000000 0.000000 0.000000 -0.004765 0.000000 0.000000
# 5 0.000000 0.000000 0.000000 0.000000 -0.038871 0.000000
# 6 0.000000 0.000000 0.000000 0.000000 0.000000 0.033109
#
#
# Mechanical properties :
#
#
# Convention : Reuss Voigt Hill
#
# Bulk Modulus (GPa) = 55.05432 70.03651 62.54542
# Shear Modulus (GPa) = 147.34095 -20.55852 63.39121
#
# Velocity S-wave (km/s) = 8.18070 -3.05580 5.36591
# Velocity P-wave (km/s) = 10.68823 4.40009 8.17310
#
# Compressibility (1/GPa) = 0.01816388
#
# Stress axis : x y z
#
# Youngs Moduli (GPa) = 174.63532 85.03146 92.59619
#
# Poissons Ratio (x) = 0.19684 0.24157
# Poissons Ratio (y) = 0.40427 0.01272
# Poissons Ratio (z) = 0.45559 0.01168
#
# Static dielectric constant tensor:
#      x y z
#    x 1.952320 0.000000 0.000000 
#    y 0.000000 1.881080 0.000000 
#    z 0.000000 0.000000 1.291620 
# 
# From -- ./inp_files/20696.got.cif
#   From: 2010.05.17/outbox.cif.g08.bks.cpg/sg49_11_cif.got.tgz:20696.got - 2010.06.03 21:02:19.
