data_PCOD9394886
_publ_section_title
;
Structure prediction by ZEFSAII (Michael W. Deem and Ramdas Pophale) SiO2 
 PCOD9394886
Probable space group: P C C M
;
_chemical_formula_sum "Si O2"
_cell_formula_units_Z 58
_cell_length_a 9.535808
_cell_length_b 10.859043
_cell_length_c 27.664600
_cell_angle_alpha 90.000000
_cell_angle_beta 90.000000
_cell_angle_gamma 90.000000
_cell_volume 2864.662389
_symmetry_space_group_name_H-M "P C C M"
_symmetry_group_IT_number 49
_symmetry_cell_setting 'orthorhombic'
loop_
_space_group_symop_operation_xyz
x,y,z
-x,-y,z
x,-y,1/2-z
-x,y,1/2-z
-x,-y,-z
x,y,-z
-x,y,1/2+z
x,-y,1/2+z
loop_
_atom_site_type_symbol
_atom_site_label
_atom_site_fract_x
_atom_site_fract_y
_atom_site_fract_z
Si Si1 0.832595 0.976119 0.853426
Si Si2 0.657896 0.814346 0.679516
Si Si3 0.500000 0.000000 0.250000
Si Si4 0.848959 0.811476 0.768372
Si Si5 0.635428 0.424934 0.124405
Si Si6 0.081011 0.132648 0.054669
Si Si7 0.149292 0.548398 0.694987
Si Si8 0.098133 0.380187 0.557235
O O1 0.786109 0.916623 0.802350
O O2 0.814995 0.890042 0.900281
O O3 0.747500 0.101950 0.857329
O O4 0.000000 0.000000 0.848719
O O5 0.766315 0.770289 0.720895
O O6 0.591018 0.700368 0.651927
O O7 0.561494 0.901934 0.711233
O O8 0.863754 0.694326 0.802386
O O9 0.000000 0.852166 0.750000
O O10 0.500000 0.500000 0.106733
O O11 0.720256 0.505602 0.163751
O O12 0.755806 0.391702 0.085698
O O13 0.983690 0.250894 0.066936
O O14 0.137113 0.153491 0.000000
O O15 0.000000 0.000000 0.052406
O O16 0.162207 0.500000 0.750000
O O17 0.000000 0.500000 0.676138
O O18 0.126684 0.380677 0.500000
O O19 0.000000 0.500000 0.567078
#
# Coordination Sequence:
#
# PCOD9394886 Si02
#       8
#     8   8   2   8   8   8   8   8
#     4  11  21  33  60  89 117 156 204 260 318 384
#     4  12  25  42  58  86 127 174 219 266 312 389
#     4  12  28  44  56  76 130 184 224 260 300 372
#     4  12  21  35  58  87 120 161 210 260 326 376
#     4  12  27  41  64  94 127 174 219 264 331 392
#     4   9  19  36  62  97 130 159 198 260 333 390
#     4  11  22  37  57  87 123 166 210 269 317 375
#     4  10  23  45  72 102 133 166 213 273 334 396
#
# _framework density 20.246714000000001
#
# number of rings (size 3 to 8) (size 9 to 14) (size 15 to 20)
#    0.000    0.966    5.517    2.069    5.793    0.552 
#    0.000    0.000    0.000    0.000    0.000    0.966 
#    0.000    0.000    0.000    0.000    0.000    0.000 
#
# Total GULP energy -323578.545406 kJ/mol
# GULP energy per Si atom -5578.940438 kJ/mol
# Density = 2.020063 g / cm^3
# Si number density = 20.246714 Si / 1000 Ang^3
#
#
#
# Elastic Constant Matrix: (Units=GPa)
#
#
# Indices 1 2 3 4 5 6 
#
# 1 57.5050 40.8559 20.4770 0.0000 0.0000 0.0000
# 2 40.8559 134.5041 32.1702 0.0000 0.0000 0.0000
# 3 20.4770 32.1702 110.2442 0.0000 0.0000 0.0000
# 4 0.0000 0.0000 0.0000 762.3835 0.0000 0.0000
# 5 0.0000 0.0000 0.0000 0.0000 15.6377 0.0000
# 6 0.0000 0.0000 0.0000 0.0000 0.0000 21.7400
#
#
#
# Elastic Compliance Matrix: (Units=1/GPa)
#
#
# Indices 1 2 3 4 5 6 
#
# 1 0.022739 -0.006339 -0.002374 0.000000 0.000000 0.000000
# 2 -0.006339 0.009760 -0.001671 0.000000 0.000000 0.000000
# 3 -0.002374 -0.001671 0.009999 0.000000 0.000000 0.000000
# 4 0.000000 0.000000 0.000000 0.001312 0.000000 0.000000
# 5 0.000000 0.000000 0.000000 0.000000 0.063948 0.000000
# 6 0.000000 0.000000 0.000000 0.000000 0.000000 0.045998
#
#
# Mechanical properties :
#
#
# Convention : Reuss Voigt Hill
#
# Bulk Modulus (GPa) = 46.01745 54.36217 50.18981
# Shear Modulus (GPa) = 27.50784 173.86893 100.68839
#
# Velocity S-wave (km/s) = 3.68996 9.27694 7.05965
# Velocity P-wave (km/s) = 6.39782 11.90197 9.55482
#
# Compressibility (1/GPa) = 0.02173089
#
# Stress axis : x y z
#
# Youngs Moduli (GPa) = 43.97737 102.46073 100.00849
#
# Poissons Ratio (x) = 0.64953 0.23739
# Poissons Ratio (y) = 0.27878 0.16707
# Poissons Ratio (z) = 0.10439 0.17116
#
# Static dielectric constant tensor:
#      x y z
#    x 1.735480 0.000000 0.000000 
#    y 0.000000 1.812180 0.000000 
#    z 0.000000 0.000000 1.736630 
# 
# From -- ./inp_files/24579.got.cif
#   From: 2010.05.17/outbox.cif.g08.bks.cpg/sg49_13_cif.got.tgz:24579.got - 2010.06.03 21:02:19.
