data_PCOD9394378
_publ_section_title
;
Structure prediction by ZEFSAII (Michael W. Deem and Ramdas Pophale) SiO2 
 PCOD9394378
Probable space group: P C C M
;
_chemical_formula_sum "Si O2"
_cell_formula_units_Z 56
_cell_length_a 8.964407
_cell_length_b 21.363606
_cell_length_c 13.887992
_cell_angle_alpha 90.000000
_cell_angle_beta 90.000000
_cell_angle_gamma 90.000000
_cell_volume 2659.717946
_symmetry_space_group_name_H-M "P C C M"
_symmetry_group_IT_number 49
_symmetry_cell_setting 'orthorhombic'
loop_
_space_group_symop_operation_xyz
x,y,z
-x,-y,z
x,-y,1/2-z
-x,y,1/2-z
-x,-y,-z
x,y,-z
-x,y,1/2+z
x,-y,1/2+z
loop_
_atom_site_type_symbol
_atom_site_label
_atom_site_fract_x
_atom_site_fract_y
_atom_site_fract_z
Si Si1 0.264363 0.313517 0.615281
Si Si2 0.825702 0.983463 0.387184
Si Si3 0.598686 0.561479 0.616137
Si Si4 0.174355 0.220364 0.231763
Si Si5 0.675440 0.093449 0.274276
Si Si6 0.162914 0.472851 0.109936
Si Si7 0.915541 0.339661 0.614765
O O1 0.279098 0.303792 0.500000
O O2 0.386798 0.365832 0.647207
O O3 0.258128 0.249368 0.674960
O O4 0.094051 0.338840 0.632097
O O5 0.808487 0.970910 0.500000
O O6 0.769434 0.926720 0.320796
O O7 0.724386 0.041884 0.352753
O O8 0.000000 0.000000 0.369064
O O9 0.500000 0.500000 0.640877
O O10 0.587333 0.567753 0.500000
O O11 0.750964 0.530947 0.652063
O O12 0.267096 0.161516 0.195463
O O13 0.158887 0.278921 0.159840
O O14 0.000000 0.202255 0.250000
O O15 0.500000 0.091193 0.250000
O O16 0.158095 0.403742 0.151813
O O17 0.000000 0.500000 0.102478
O O18 0.222631 0.465103 0.000000
O O19 0.898564 0.338969 0.500000
#
# Coordination Sequence:
#
# PCOD9394378 Si02
#       7
#     8   8   8   8   8   8   8
#     4   9  17  32  53  75 103 141 188 240 296 353
#     4  10  21  40  71 103 126 156 207 254 288 342
#     4   9  16  27  46  73 100 131 173 226 293 359
#     4  10  21  37  56  78 113 157 204 246 286 349
#     4  11  23  40  61  91 134 174 198 241 304 357
#     4   9  14  25  48  71  94 127 173 233 297 351
#     4   9  17  31  53  78 101 137 189 245 297 346
#
# _framework density 21.054863000000001
#
# number of rings (size 3 to 8) (size 9 to 14) (size 15 to 20)
#    0.000    2.429    1.429    2.571    0.000    2.286 
#    2.571    3.571    0.000    0.857    0.000    0.000 
#    0.000    0.000    0.000    0.000    0.000    0.000 
#
# Total GULP energy -311922.071062 kJ/mol
# GULP energy per Si atom -5570.036983 kJ/mol
# Density = 2.100694 g / cm^3
# Si number density = 21.054863 Si / 1000 Ang^3
#
#
#
# Elastic Constant Matrix: (Units=GPa)
#
#
# Indices 1 2 3 4 5 6 
#
# 1 63.4422 13.5326 1.2325 0.0000 0.0000 0.0000
# 2 13.5326 93.0849 3.8012 0.0000 0.0000 0.0000
# 3 1.2325 3.8012 69.4533 0.0000 0.0000 0.0000
# 4 0.0000 0.0000 0.0000 12.0268 0.0000 0.0000
# 5 0.0000 0.0000 0.0000 0.0000 14.0996 0.0000
# 6 0.0000 0.0000 0.0000 0.0000 0.0000 29.0876
#
#
#
# Elastic Compliance Matrix: (Units=1/GPa)
#
#
# Indices 1 2 3 4 5 6 
#
# 1 0.016269 -0.002359 -0.000160 0.000000 0.000000 0.000000
# 2 -0.002359 0.011109 -0.000566 0.000000 0.000000 0.000000
# 3 -0.000160 -0.000566 0.014432 0.000000 0.000000 0.000000
# 4 0.000000 0.000000 0.000000 0.083147 0.000000 0.000000
# 5 0.000000 0.000000 0.000000 0.000000 0.070924 0.000000
# 6 0.000000 0.000000 0.000000 0.000000 0.000000 0.034379
#
#
# Mechanical properties :
#
#
# Convention : Reuss Voigt Hill
#
# Bulk Modulus (GPa) = 28.05775 29.23478 28.64626
# Shear Modulus (GPa) = 20.13621 24.87041 22.50331
#
# Velocity S-wave (km/s) = 3.09588 3.44062 3.27279
# Velocity P-wave (km/s) = 5.11216 5.44968 5.28362
#
# Compressibility (1/GPa) = 0.03564077
#
# Stress axis : x y z
#
# Youngs Moduli (GPa) = 61.46818 90.01805 69.29059
#
# Poissons Ratio (x) = 0.21232 0.01106
# Poissons Ratio (y) = 0.14498 0.03923
# Poissons Ratio (z) = 0.00981 0.05096
#
# Static dielectric constant tensor:
#      x y z
#    x 1.753940 0.000000 0.000000 
#    y 0.000000 1.719140 0.000000 
#    z 0.000000 0.000000 1.815880 
# 
# From -- ./inp_files/12029.got.cif
#   From: 2010.05.17/outbox.cif.g08.bks.cpg/sg49_7_cif.got.tgz:12029.got - 2010.06.03 21:02:19.
