data_PCOD9394721
_publ_section_title
;
Structure prediction by ZEFSAII (Michael W. Deem and Ramdas Pophale) SiO2 
 PCOD9394721
Probable space group: P C C M
;
_chemical_formula_sum "Si O2"
_cell_formula_units_Z 38
_cell_length_a 13.978943
_cell_length_b 5.025061
_cell_length_c 24.515179
_cell_angle_alpha 90.000000
_cell_angle_beta 90.000000
_cell_angle_gamma 90.000000
_cell_volume 1722.069761
_symmetry_space_group_name_H-M "P C C M"
_symmetry_group_IT_number 49
_symmetry_cell_setting 'orthorhombic'
loop_
_space_group_symop_operation_xyz
x,y,z
-x,-y,z
x,-y,1/2-z
-x,y,1/2-z
-x,-y,-z
x,y,-z
-x,y,1/2+z
x,-y,1/2+z
loop_
_atom_site_type_symbol
_atom_site_label
_atom_site_fract_x
_atom_site_fract_y
_atom_site_fract_z
Si Si1 0.063960 0.753961 0.645920
Si Si2 0.000000 0.000000 0.750000
Si Si3 0.205427 0.121106 0.400130
Si Si4 0.390664 0.955880 0.639437
Si Si5 0.928218 0.250726 0.000000
Si Si6 0.701370 0.425773 0.811159
O O1 0.161940 0.837132 0.618018
O O2 0.208561 0.317214 0.652877
O O3 0.000000 0.500000 0.634652
O O4 0.064030 0.816318 0.710614
O O5 0.317751 0.059472 0.407740
O O6 0.144564 0.238815 0.448916
O O7 0.000000 0.000000 0.375275
O O8 0.366527 0.166384 0.687612
O O9 0.500000 0.000000 0.624615
O O10 0.356524 0.665789 0.659666
O O11 0.000000 0.500000 0.000000
O O12 0.000000 0.000000 0.000000
O O13 0.727745 0.500000 0.750000
#
# Coordination Sequence:
#
# PCOD9394721 Si02
#       6
#     8   2   8   8   4   8
#     4  10  22  39  61  93 132 182 228 294 357 443
#     4   8  22  36  62  82 140 180 242 272 378 422
#     4  10  27  45  73  98 144 182 247 302 369 435
#     4  10  23  41  70 107 151 193 235 289 359 439
#     4  12  30  52  77 103 131 189 252 316 379 437
#     4  10  23  41  70 104 150 194 237 290 357 431
#
# _framework density 22.066466999999999
#
# number of rings (size 3 to 8) (size 9 to 14) (size 15 to 20)
#    1.895    0.000    0.000    2.211    5.895    5.895 
#    0.000    0.526    0.000    1.263    0.000    0.000 
#    0.000    0.000    0.000    0.000    0.000    0.000 
#
# Total GULP energy -211720.139259 kJ/mol
# GULP energy per Si atom -5571.582612 kJ/mol
# Density = 2.201624 g / cm^3
# Si number density = 22.066467 Si / 1000 Ang^3
#
#
#
# Elastic Constant Matrix: (Units=GPa)
#
#
# Indices 1 2 3 4 5 6 
#
# 1 180.1538 52.8277 78.5258 0.0000 0.0000 0.0000
# 2 52.8277 174.1565 31.1377 0.0000 0.0000 0.0000
# 3 78.5258 31.1377 117.7963 0.0000 0.0000 0.0000
# 4 0.0000 0.0000 0.0000 10.4515 0.0000 0.0000
# 5 0.0000 0.0000 0.0000 0.0000 22.4169 0.0000
# 6 0.0000 0.0000 0.0000 0.0000 0.0000 26.8807
#
#
#
# Elastic Compliance Matrix: (Units=1/GPa)
#
#
# Indices 1 2 3 4 5 6 
#
# 1 0.008223 -0.001589 -0.005062 0.000000 0.000000 0.000000
# 2 -0.001589 0.006334 -0.000615 0.000000 0.000000 0.000000
# 3 -0.005062 -0.000615 0.012026 0.000000 0.000000 0.000000
# 4 0.000000 0.000000 0.000000 0.095680 0.000000 0.000000
# 5 0.000000 0.000000 0.000000 0.000000 0.044609 0.000000
# 6 0.000000 0.000000 0.000000 0.000000 0.000000 0.037201
#
#
# Mechanical properties :
#
#
# Convention : Reuss Voigt Hill
#
# Bulk Modulus (GPa) = 82.97709 88.56545 85.77127
# Shear Modulus (GPa) = 22.45951 32.59084 27.52518
#
# Velocity S-wave (km/s) = 3.19378 3.84727 3.53565
# Velocity P-wave (km/s) = 7.16137 7.74327 7.45799
#
# Compressibility (1/GPa) = 0.01205152
#
# Stress axis : x y z
#
# Youngs Moduli (GPa) = 121.60793 157.87822 83.15365
#
# Poissons Ratio (x) = 0.25093 0.42089
# Poissons Ratio (y) = 0.19328 0.05112
# Poissons Ratio (z) = 0.61553 0.09706
#
# Static dielectric constant tensor:
#      x y z
#    x 1.834440 0.000000 0.000000 
#    y 0.000000 2.259700 0.000000 
#    z 0.000000 0.000000 1.864210 
# 
# From -- ./inp_files/24696.got.cif
#   From: 2010.05.17/outbox.cif.g08.bks.cpg/sg49_13_cif.got.tgz:24696.got - 2010.06.03 21:02:19.
