data_PCOD9394015
_publ_section_title
;
Structure prediction by ZEFSAII (Michael W. Deem and Ramdas Pophale) SiO2 
 PCOD9394015
Probable space group: P C C M
;
_chemical_formula_sum "Si O2"
_cell_formula_units_Z 64
_cell_length_a 24.275077
_cell_length_b 15.102684
_cell_length_c 8.798781
_cell_angle_alpha 90.000000
_cell_angle_beta 90.000000
_cell_angle_gamma 90.000000
_cell_volume 3225.798681
_symmetry_space_group_name_H-M "P C C M"
_symmetry_group_IT_number 49
_symmetry_cell_setting 'orthorhombic'
loop_
_space_group_symop_operation_xyz
x,y,z
-x,-y,z
x,-y,1/2-z
-x,y,1/2-z
-x,-y,-z
x,y,-z
-x,y,1/2+z
x,-y,1/2+z
loop_
_atom_site_type_symbol
_atom_site_label
_atom_site_fract_x
_atom_site_fract_y
_atom_site_fract_z
Si Si1 0.775956 0.594977 0.682921
Si Si2 0.103281 0.403676 0.817597
Si Si3 0.723691 0.902947 0.180053
Si Si4 0.559998 0.290848 0.177282
Si Si5 0.057130 0.772009 0.818265
Si Si6 0.323977 0.726080 0.183527
Si Si7 0.439851 0.916856 0.176236
Si Si8 0.853045 0.097390 0.681517
O O1 0.759043 0.500000 0.750000
O O2 0.783537 0.589707 0.500000
O O3 0.834341 0.615899 0.761083
O O4 0.729150 0.666334 0.717514
O O5 0.088810 0.500000 0.750000
O O6 0.066450 0.325717 0.749984
O O7 0.101046 0.405287 0.000000
O O8 0.688279 0.823197 0.249229
O O9 0.788452 0.882036 0.208038
O O10 0.714231 0.000000 0.250000
O O11 0.714302 0.907362 0.000000
O O12 0.500000 0.308581 0.250000
O O13 0.619497 0.323881 0.236217
O O14 0.573926 0.185864 0.191138
O O15 0.553886 0.313344 0.000000
O O16 0.107418 0.832559 0.761573
O O17 0.000000 0.807706 0.750000
O O18 0.055300 0.769113 0.000000
O O19 0.328157 0.734428 0.000000
O O20 0.500000 0.916635 0.250000
O O21 0.408620 0.000000 0.250000
O O22 0.442671 0.936963 0.000000
O O23 0.862300 0.097390 0.500000
O O24 0.863305 0.000000 0.750000
#
# Coordination Sequence:
#
# PCOD9394015 Si02
#       8
#     8   8   8   8   8   8   8   8
#     4  10  20  36  60  88 116 146 181 229 284 340
#     4  11  22  39  62  89 120 153 189 231 282 343
#     4  10  21  36  57  84 115 149 188 232 281 336
#     4   9  19  34  49  69  98 135 177 221 268 326
#     4  12  25  41  60  86 119 157 200 244 288 337
#     4  10  21  36  55  80 112 146 182 227 282 336
#     4   9  15  24  39  57  81 113 154 200 244 290
#     4  10  21  39  61  86 115 152 196 245 295 344
#
# _framework density 19.840047999999999
#
# number of rings (size 3 to 8) (size 9 to 14) (size 15 to 20)
#    0.000    1.875    0.000    5.625    0.000    6.500 
#    0.000    3.750    0.000    0.375    0.000    2.625 
#    0.000    0.000    0.000    0.000    0.000    0.000 
#
# Total GULP energy -357097.572057 kJ/mol
# GULP energy per Si atom -5579.649563 kJ/mol
# Density = 1.979489 g / cm^3
# Si number density = 19.840048 Si / 1000 Ang^3
#
#
#
# Elastic Constant Matrix: (Units=GPa)
#
#
# Indices 1 2 3 4 5 6 
#
# 1 98.7347 41.1950 54.7408 0.0000 0.0000 0.0000
# 2 41.1950 44.8243 25.7872 0.0000 0.0000 0.0000
# 3 54.7408 25.7872 105.1969 0.0000 0.0000 0.0000
# 4 0.0000 0.0000 0.0000 23.9903 0.0000 0.0000
# 5 0.0000 0.0000 0.0000 0.0000 36.2077 0.0000
# 6 0.0000 0.0000 0.0000 0.0000 0.0000 -11.5127
#
#
#
# Elastic Compliance Matrix: (Units=1/GPa)
#
#
# Indices 1 2 3 4 5 6 
#
# 1 0.019916 -0.014367 -0.006842 0.000000 0.000000 0.000000
# 2 -0.014367 0.036337 -0.001431 0.000000 0.000000 0.000000
# 3 -0.006842 -0.001431 0.013417 0.000000 0.000000 0.000000
# 4 0.000000 0.000000 0.000000 0.041684 0.000000 0.000000
# 5 0.000000 0.000000 0.000000 0.000000 0.027618 0.000000
# 6 0.000000 0.000000 0.000000 0.000000 0.000000 -0.086860
#
#
# Mechanical properties :
#
#
# Convention : Reuss Voigt Hill
#
# Bulk Modulus (GPa) = 41.00140 54.68910 47.84525
# Shear Modulus (GPa) = 47.38430 18.20591 32.79511
#
# Velocity S-wave (km/s) = 4.89234 3.03253 4.07009
# Velocity P-wave (km/s) = 7.25425 6.31558 6.80113
#
# Compressibility (1/GPa) = 0.02438941
#
# Stress axis : x y z
#
# Youngs Moduli (GPa) = 50.21166 27.52051 74.53293
#
# Poissons Ratio (x) = 0.39539 0.50992
# Poissons Ratio (y) = 0.72140 0.10666
# Poissons Ratio (z) = 0.34353 0.03938
#
# Static dielectric constant tensor:
#      x y z
#    x 1.731490 0.000000 0.000000 
#    y 0.000000 1.712950 0.000000 
#    z 0.000000 0.000000 1.670600 
# 
# From -- ./inp_files/6553.got.cif
#   From: 2010.05.17/outbox.cif.g08.bks.cpg/sg49_4_cif.got.tgz:6553.got - 2010.06.03 21:02:19.
