data_PCOD9394856
_publ_section_title
;
Structure prediction by ZEFSAII (Michael W. Deem and Ramdas Pophale) SiO2 
 PCOD9394856
Probable space group: P C C M
;
_chemical_formula_sum "Si O2"
_cell_formula_units_Z 34
_cell_length_a 5.062349
_cell_length_b 14.168198
_cell_length_c 20.598307
_cell_angle_alpha 90.000000
_cell_angle_beta 90.000000
_cell_angle_gamma 90.000000
_cell_volume 1477.400448
_symmetry_space_group_name_H-M "P C C M"
_symmetry_group_IT_number 49
_symmetry_cell_setting 'orthorhombic'
loop_
_space_group_symop_operation_xyz
x,y,z
-x,-y,z
x,-y,1/2-z
-x,y,1/2-z
-x,-y,-z
x,y,-z
-x,y,1/2+z
x,-y,1/2+z
loop_
_atom_site_type_symbol
_atom_site_label
_atom_site_fract_x
_atom_site_fract_y
_atom_site_fract_z
Si Si1 0.741413 0.561149 0.377941
Si Si2 0.500000 0.500000 0.750000
Si Si3 0.082238 0.786459 0.681069
Si Si4 0.443589 0.890535 0.137295
Si Si5 0.598885 0.283088 0.428630
O O1 0.677917 0.560001 0.300302
O O2 0.186358 0.708543 0.370562
O O3 0.664550 0.661671 0.407651
O O4 0.000000 0.500000 0.390815
O O5 0.848125 0.854560 0.655713
O O6 0.000000 0.745923 0.750000
O O7 0.341139 0.851572 0.688671
O O8 0.528743 0.827832 0.075219
O O9 0.500000 0.000000 0.128957
O O10 0.500000 0.500000 0.406785
O O11 0.690156 0.309938 0.500000
#
# Coordination Sequence:
#
# PCOD9394856 Si02
#       5
#     8   2   8   8   8
#     4  10  23  43  68 100 136 178 233 301 362 438
#     4   8  22  40  68  96 132 172 230 294 370 424
#     4  10  23  42  68  99 139 187 239 301 364 430
#     4  10  23  41  66 103 140 185 238 303 364 435
#     4  10  26  45  69 101 142 192 241 294 368 448
#
# _framework density 23.013396
#
# number of rings (size 3 to 8) (size 9 to 14) (size 15 to 20)
#    2.118    0.000    0.000    1.765    3.294    7.059 
#    0.000    1.176    0.000    0.000    0.000    0.000 
#    0.000    0.000    0.000    0.000    0.000    0.235 
#
# Total GULP energy -189296.530160 kJ/mol
# GULP energy per Si atom -5567.545005 kJ/mol
# Density = 2.296102 g / cm^3
# Si number density = 23.013396 Si / 1000 Ang^3
#
#
#
# Elastic Constant Matrix: (Units=GPa)
#
#
# Indices 1 2 3 4 5 6 
#
# 1 165.0526 37.6632 35.4526 0.0000 0.0000 0.0000
# 2 37.6632 117.5915 36.7518 0.0000 0.0000 0.0000
# 3 35.4526 36.7518 152.1599 0.0000 0.0000 0.0000
# 4 0.0000 0.0000 0.0000 -3.4042 0.0000 0.0000
# 5 0.0000 0.0000 0.0000 0.0000 1.0978 0.0000
# 6 0.0000 0.0000 0.0000 0.0000 0.0000 30.0697
#
#
#
# Elastic Compliance Matrix: (Units=1/GPa)
#
#
# Indices 1 2 3 4 5 6 
#
# 1 0.006711 -0.001796 -0.001130 0.000000 0.000000 0.000000
# 2 -0.001796 0.009679 -0.001919 0.000000 0.000000 0.000000
# 3 -0.001130 -0.001919 0.007299 0.000000 0.000000 0.000000
# 4 0.000000 0.000000 0.000000 -0.293757 0.000000 0.000000
# 5 0.000000 0.000000 0.000000 0.000000 0.910899 0.000000
# 6 0.000000 0.000000 0.000000 0.000000 0.000000 0.033256
#
#
# Mechanical properties :
#
#
# Convention : Reuss Voigt Hill
#
# Bulk Modulus (GPa) = 71.43729 72.72658 72.08193
# Shear Modulus (GPa) = 7.26275 27.21509 17.23892
#
# Velocity S-wave (km/s) = 1.77841 3.44259 2.73991
# Velocity P-wave (km/s) = 5.94357 6.89002 6.43422
#
# Compressibility (1/GPa) = 0.01399829
#
# Stress axis : x y z
#
# Youngs Moduli (GPa) = 149.00287 103.31385 137.00794
#
# Poissons Ratio (x) = 0.18560 0.15479
# Poissons Ratio (y) = 0.26767 0.26296
# Poissons Ratio (z) = 0.16834 0.19829
#
# Static dielectric constant tensor:
#      x y z
#    x 1.979610 0.000000 0.000000 
#    y 0.000000 2.024250 0.000000 
#    z 0.000000 0.000000 1.879010 
# 
# From -- ./inp_files/21619.got.cif
#   From: 2010.05.17/outbox.cif.g08.bks.cpg/sg49_11_cif.got.tgz:21619.got - 2010.06.03 21:02:19.
