data_PCOD9394941
_publ_section_title
;
Structure prediction by ZEFSAII (Michael W. Deem and Ramdas Pophale) SiO2 
 PCOD9394941
Probable space group: P C C M
;
_chemical_formula_sum "Si O2"
_cell_formula_units_Z 30
_cell_length_a 5.243231
_cell_length_b 23.504390
_cell_length_c 11.552535
_cell_angle_alpha 90.000000
_cell_angle_beta 90.000000
_cell_angle_gamma 90.000000
_cell_volume 1423.722240
_symmetry_space_group_name_H-M "P C C M"
_symmetry_group_IT_number 49
_symmetry_cell_setting 'orthorhombic'
loop_
_space_group_symop_operation_xyz
x,y,z
-x,-y,z
x,-y,1/2-z
-x,y,1/2-z
-x,-y,-z
x,y,-z
-x,y,1/2+z
x,-y,1/2+z
loop_
_atom_site_type_symbol
_atom_site_label
_atom_site_fract_x
_atom_site_fract_y
_atom_site_fract_z
Si Si1 0.747302 0.859647 0.677960
Si Si2 0.099473 0.310030 0.000000
Si Si3 0.244742 0.960989 0.000000
Si Si4 0.336854 0.405694 0.867254
Si Si5 0.393384 0.762478 0.000000
Si Si6 0.000000 0.500000 0.750000
O O1 0.500000 0.872241 0.750000
O O2 0.779647 0.916777 0.604825
O O3 0.672920 0.803669 0.606091
O O4 0.000000 0.848189 0.750000
O O5 0.158953 0.350957 0.108888
O O6 0.317762 0.260966 0.000000
O O7 0.813036 0.287870 0.000000
O O8 0.500000 0.000000 0.000000
O O9 0.000000 0.000000 0.000000
O O10 0.500000 0.395478 0.750000
O O11 0.172724 0.460593 0.832230
O O12 0.454069 0.413542 0.000000
#
# Coordination Sequence:
#
# PCOD9394941 Si02
#       6
#     8   4   4   8   4   2
#     4  11  24  42  68  98 136 184 231 282 358 412
#     4  10  26  44  73 100 140 176 239 293 359 433
#     4  11  24  41  64  98 142 181 236 290 335 413
#     4  10  26  45  70 102 139 186 235 296 365 444
#     4  11  24  48  66 103 133 181 227 294 351 421
#     4  12  24  44  72 100 146 184 238 294 370 444
#
# _framework density 21.071527
#
# number of rings (size 3 to 8) (size 9 to 14) (size 15 to 20)
#    0.800    0.533    0.000    4.000    3.733   13.867 
#    0.000    0.000    0.000    0.000    0.000    0.000 
#    0.000    0.000    0.000    0.000    0.000    0.000 
#
# Total GULP energy -167344.703782 kJ/mol
# GULP energy per Si atom -5578.156793 kJ/mol
# Density = 2.102357 g / cm^3
# Si number density = 21.071527 Si / 1000 Ang^3
#
#
#
# Elastic Constant Matrix: (Units=GPa)
#
#
# Indices 1 2 3 4 5 6 
#
# 1 54.5472 -5.8842 14.9960 0.0000 0.0000 0.0000
# 2 -5.8842 86.8148 18.6148 0.0000 0.0000 0.0000
# 3 14.9960 18.6148 115.6806 0.0000 0.0000 0.0000
# 4 0.0000 0.0000 0.0000 98.1192 0.0000 0.0000
# 5 0.0000 0.0000 0.0000 0.0000 26.1999 0.0000
# 6 0.0000 0.0000 0.0000 0.0000 0.0000 52.9065
#
#
#
# Elastic Compliance Matrix: (Units=1/GPa)
#
#
# Indices 1 2 3 4 5 6 
#
# 1 0.019312 0.001912 -0.002811 0.000000 0.000000 0.000000
# 2 0.001912 0.012120 -0.002198 0.000000 0.000000 0.000000
# 3 -0.002811 -0.002198 0.009363 0.000000 0.000000 0.000000
# 4 0.000000 0.000000 0.000000 0.010192 0.000000 0.000000
# 5 0.000000 0.000000 0.000000 0.000000 0.038168 0.000000
# 6 0.000000 0.000000 0.000000 0.000000 0.000000 0.018901
#
#
# Mechanical properties :
#
#
# Convention : Reuss Voigt Hill
#
# Bulk Modulus (GPa) = 28.90246 34.72177 31.81211
# Shear Modulus (GPa) = 39.75099 50.73284 45.24191
#
# Velocity S-wave (km/s) = 4.34807 4.91210 4.63867
# Velocity P-wave (km/s) = 6.24130 6.97750 6.61964
#
# Compressibility (1/GPa) = 0.03459913
#
# Stress axis : x y z
#
# Youngs Moduli (GPa) = 51.78188 82.51061 106.80794
#
# Poissons Ratio (x) = -0.15773 0.30024
# Poissons Ratio (y) = -0.09899 0.23477
# Poissons Ratio (z) = 0.14556 0.18136
#
# Static dielectric constant tensor:
#      x y z
#    x 1.727090 0.000000 0.000000 
#    y 0.000000 1.701570 0.000000 
#    z 0.000000 0.000000 1.818570 
# 
# From -- ./inp_files/7444.got.cif
#   From: 2010.05.17/outbox.cif.g08.bks.cpg/sg49_4_cif.got.tgz:7444.got - 2010.06.03 21:02:19.
