data_PCOD9394665
_publ_section_title
;
Structure prediction by ZEFSAII (Michael W. Deem and Ramdas Pophale) SiO2 
 PCOD9394665
Probable space group: P C C M
;
_chemical_formula_sum "Si O2"
_cell_formula_units_Z 58
_cell_length_a 16.997027
_cell_length_b 10.231499
_cell_length_c 15.857401
_cell_angle_alpha 90.000000
_cell_angle_beta 90.000000
_cell_angle_gamma 90.000000
_cell_volume 2757.682348
_symmetry_space_group_name_H-M "P C C M"
_symmetry_group_IT_number 49
_symmetry_cell_setting 'orthorhombic'
loop_
_space_group_symop_operation_xyz
x,y,z
-x,-y,z
x,-y,1/2-z
-x,y,1/2-z
-x,-y,-z
x,y,-z
-x,y,1/2+z
x,-y,1/2+z
loop_
_atom_site_type_symbol
_atom_site_label
_atom_site_fract_x
_atom_site_fract_y
_atom_site_fract_z
Si Si1 0.677028 0.779076 0.901846
Si Si2 0.002485 0.291399 0.845480
Si Si3 0.159285 0.837313 0.898022
Si Si4 0.587598 0.970463 0.349020
Si Si5 0.000000 0.500000 0.500000
Si Si6 0.323373 0.279404 0.599227
Si Si7 0.155219 0.857510 0.602451
Si Si8 0.587380 0.470496 0.651399
O O1 0.766875 0.777916 0.870409
O O2 0.617959 0.676435 0.860086
O O3 0.645965 0.926555 0.892011
O O4 0.678503 0.744561 0.000000
O O5 0.920510 0.216443 0.859394
O O6 0.000000 0.345990 0.750000
O O7 0.076853 0.194991 0.854742
O O8 0.010239 0.389666 0.924216
O O9 0.236136 0.756709 0.869429
O O10 0.168784 0.990069 0.878328
O O11 0.153215 0.824343 0.000000
O O12 0.614780 0.822453 0.361876
O O13 0.500000 0.000000 0.381140
O O14 0.589084 0.000000 0.250000
O O15 0.323426 0.252487 0.500000
O O16 0.350573 0.426884 0.613664
O O17 0.148369 0.846965 0.500000
O O18 0.500000 0.500000 0.615938
O O19 0.584207 0.500000 0.750000
#
# Coordination Sequence:
#
# PCOD9394665 Si02
#       8
#     8   8   8   8   2   8   8   8
#     4  11  23  41  67  97 129 174 225 282 338 402
#     4  12  26  44  74 105 135 188 234 274 343 408
#     4  10  21  43  70  99 140 177 216 281 355 403
#     4  11  23  39  61  92 133 176 219 281 348 396
#     4  12  26  52  66  94 144 184 224 298 320 402
#     4  11  23  41  67  97 129 174 225 282 338 402
#     4  10  21  43  70  99 140 177 216 281 355 403
#     4  11  25  44  63  90 133 179 222 275 348 415
#
# _framework density 21.032153999999998
#
# number of rings (size 3 to 8) (size 9 to 14) (size 15 to 20)
#    0.000    1.103    2.759    3.103    0.000   11.034 
#    0.000    0.000    0.000    0.000    0.000    0.000 
#    0.000    0.000    0.000    0.000    0.000    0.000 
#
# Total GULP energy -323704.852463 kJ/mol
# GULP energy per Si atom -5581.118146 kJ/mol
# Density = 2.098428 g / cm^3
# Si number density = 21.032154 Si / 1000 Ang^3
#
#
#
# Elastic Constant Matrix: (Units=GPa)
#
#
# Indices 1 2 3 4 5 6 
#
# 1 127.4824 10.0015 9.8504 0.0000 0.0000 0.0000
# 2 10.0015 61.9673 6.3939 0.0000 0.0000 0.0000
# 3 9.8504 6.3939 80.2440 0.0000 0.0000 0.0000
# 4 0.0000 0.0000 0.0000 15.7904 0.0000 0.0000
# 5 0.0000 0.0000 0.0000 0.0000 17.2596 0.0000
# 6 0.0000 0.0000 0.0000 0.0000 0.0000 2342.0493
#
#
#
# Elastic Compliance Matrix: (Units=1/GPa)
#
#
# Indices 1 2 3 4 5 6 
#
# 1 0.008007 -0.001201 -0.000887 0.000000 0.000000 0.000000
# 2 -0.001201 0.016451 -0.001163 0.000000 0.000000 0.000000
# 3 -0.000887 -0.001163 0.012664 0.000000 0.000000 0.000000
# 4 0.000000 0.000000 0.000000 0.063330 0.000000 0.000000
# 5 0.000000 0.000000 0.000000 0.000000 0.057939 0.000000
# 6 0.000000 0.000000 0.000000 0.000000 0.000000 0.000427
#
#
# Mechanical properties :
#
#
# Convention : Reuss Voigt Hill
#
# Bulk Modulus (GPa) = 32.65939 35.79836 34.22887
# Shear Modulus (GPa) = 28.48571 491.24972 259.86772
#
# Velocity S-wave (km/s) = 3.68419 15.29960 11.12769
# Velocity P-wave (km/s) = 5.80170 18.14281 13.46888
#
# Compressibility (1/GPa) = 0.03061907
#
# Stress axis : x y z
#
# Youngs Moduli (GPa) = 124.89098 60.78515 78.96643
#
# Poissons Ratio (x) = 0.07299 0.07006
# Poissons Ratio (y) = 0.14997 0.09187
# Poissons Ratio (z) = 0.11081 0.07072
#
# Static dielectric constant tensor:
#      x y z
#    x 1.762810 0.000000 0.000000 
#    y 0.000000 1.724350 0.000000 
#    z 0.000000 0.000000 1.760990 
# 
# From -- ./inp_files/18180.got.cif
#   From: 2010.05.17/outbox.cif.g08.bks.cpg/sg49_10_cif.got.tgz:18180.got - 2010.06.03 21:02:19.
