data_PCOD9394504
_publ_section_title
;
Structure prediction by ZEFSAII (Michael W. Deem and Ramdas Pophale) SiO2 
 PCOD9394504
Probable space group: P C C M
;
_chemical_formula_sum "Si O2"
_cell_formula_units_Z 58
_cell_length_a 9.101770
_cell_length_b 21.974920
_cell_length_c 14.467753
_cell_angle_alpha 90.000000
_cell_angle_beta 90.000000
_cell_angle_gamma 90.000000
_cell_volume 2893.704936
_symmetry_space_group_name_H-M "P C C M"
_symmetry_group_IT_number 49
_symmetry_cell_setting 'orthorhombic'
loop_
_space_group_symop_operation_xyz
x,y,z
-x,-y,z
x,-y,1/2-z
-x,y,1/2-z
-x,-y,-z
x,y,-z
-x,y,1/2+z
x,-y,1/2+z
loop_
_atom_site_type_symbol
_atom_site_label
_atom_site_fract_x
_atom_site_fract_y
_atom_site_fract_z
Si Si1 0.151085 0.859720 0.606451
Si Si2 0.172474 0.685354 0.777848
Si Si3 0.313747 0.266465 0.104074
Si Si4 0.000000 0.500000 0.000000
Si Si5 0.147328 0.550328 0.813919
Si Si6 0.353961 0.784447 0.109869
Si Si7 0.660192 0.908514 0.729935
Si Si8 0.893891 0.057501 0.104750
O O1 0.171368 0.879471 0.500000
O O2 0.196881 0.789364 0.610807
O O3 0.260094 0.892407 0.675395
O O4 0.987350 0.882074 0.631375
O O5 0.265190 0.688214 0.683195
O O6 0.202339 0.619254 0.821410
O O7 0.237491 0.738072 0.843996
O O8 0.000000 0.694099 0.750000
O O9 0.478796 0.241234 0.118918
O O10 0.305476 0.291174 0.000000
O O11 0.108183 0.526052 0.915672
O O12 0.230693 0.500000 0.750000
O O13 0.000000 0.559413 0.750000
O O14 0.349414 0.846972 0.167367
O O15 0.326033 0.792884 0.000000
O O16 0.500000 0.930612 0.750000
O O17 0.759838 0.952626 0.671052
O O18 0.843884 0.065022 0.000000
O O19 0.000000 0.000000 0.109999
#
# Coordination Sequence:
#
# PCOD9394504 Si02
#       8
#     8   8   8   2   8   8   8   8
#     4  10  21  38  62  85 119 166 208 249 315 380
#     4  11  22  35  58  95 125 152 210 264 316 371
#     4  10  21  40  58  83 125 173 203 247 319 381
#     4   8  14  32  60  70 124 170 194 252 318 362
#     4   8  17  34  52  82 118 162 203 249 315 371
#     4  11  23  39  61  88 126 169 209 252 315 385
#     4  12  22  38  65  92 124 164 208 257 312 388
#     4  10  24  45  67  92 126 162 203 264 323 370
#
# _framework density 20.043510000000001
#
# number of rings (size 3 to 8) (size 9 to 14) (size 15 to 20)
#    0.000    1.931    2.759    1.241    2.897    2.207 
#    9.931    1.379    0.000    4.138    0.000    1.931 
#    0.000    0.000    0.000    0.000    0.000    0.000 
#
# Total GULP energy -323179.382424 kJ/mol
# GULP energy per Si atom -5572.058318 kJ/mol
# Density = 1.999789 g / cm^3
# Si number density = 20.043510 Si / 1000 Ang^3
#
#
#
# Elastic Constant Matrix: (Units=GPa)
#
#
# Indices 1 2 3 4 5 6 
#
# 1 85.1871 20.7681 51.5518 0.0000 0.0000 0.0000
# 2 20.7681 80.3963 34.4578 0.0000 0.0000 0.0000
# 3 51.5518 34.4578 143.8367 0.0000 0.0000 0.0000
# 4 0.0000 0.0000 0.0000 18.9854 0.0000 0.0000
# 5 0.0000 0.0000 0.0000 0.0000 22.1481 0.0000
# 6 0.0000 0.0000 0.0000 0.0000 0.0000 9.3616
#
#
#
# Elastic Compliance Matrix: (Units=1/GPa)
#
#
# Indices 1 2 3 4 5 6 
#
# 1 0.015214 -0.001775 -0.005028 0.000000 0.000000 0.000000
# 2 -0.001775 0.014069 -0.002734 0.000000 0.000000 0.000000
# 3 -0.005028 -0.002734 0.009409 0.000000 0.000000 0.000000
# 4 0.000000 0.000000 0.000000 0.052672 0.000000 0.000000
# 5 0.000000 0.000000 0.000000 0.000000 0.045151 0.000000
# 6 0.000000 0.000000 0.000000 0.000000 0.000000 0.106819
#
#
# Mechanical properties :
#
#
# Convention : Reuss Voigt Hill
#
# Bulk Modulus (GPa) = 50.97283 58.10838 54.54060
# Shear Modulus (GPa) = 18.59101 23.60853 21.09977
#
# Velocity S-wave (km/s) = 3.04885 3.43573 3.24805
# Velocity P-wave (km/s) = 6.15469 6.69276 6.42936
#
# Compressibility (1/GPa) = 0.01961829
#
# Stress axis : x y z
#
# Youngs Moduli (GPa) = 65.72835 71.07928 106.27909
#
# Poissons Ratio (x) = 0.12619 0.53432
# Poissons Ratio (y) = 0.11669 0.29057
# Poissons Ratio (z) = 0.33045 0.19433
#
# Static dielectric constant tensor:
#      x y z
#    x 1.738070 0.000000 0.000000 
#    y 0.000000 1.792180 0.000000 
#    z 0.000000 0.000000 1.693190 
# 
# From -- ./inp_files/12086.got.cif
#   From: 2010.05.17/outbox.cif.g08.bks.cpg/sg49_7_cif.got.tgz:12086.got - 2010.06.03 21:02:19.
