data_PCOD9394073
_publ_section_title
;
Structure prediction by ZEFSAII (Michael W. Deem and Ramdas Pophale) SiO2 
 PCOD9394073
Probable space group: P C C M
;
_chemical_formula_sum "Si O2"
_cell_formula_units_Z 64
_cell_length_a 17.891533
_cell_length_b 20.945771
_cell_length_c 8.883567
_cell_angle_alpha 90.000000
_cell_angle_beta 90.000000
_cell_angle_gamma 90.000000
_cell_volume 3329.134083
_symmetry_space_group_name_H-M "P C C M"
_symmetry_group_IT_number 49
_symmetry_cell_setting 'orthorhombic'
loop_
_space_group_symop_operation_xyz
x,y,z
-x,-y,z
x,-y,1/2-z
-x,y,1/2-z
-x,-y,-z
x,y,-z
-x,y,1/2+z
x,-y,1/2+z
loop_
_atom_site_type_symbol
_atom_site_label
_atom_site_fract_x
_atom_site_fract_y
_atom_site_fract_z
Si Si1 0.076495 0.198106 0.681547
Si Si2 0.373707 0.697998 0.181347
Si Si3 0.200266 0.434580 0.826628
Si Si4 0.704696 0.933983 0.318445
Si Si5 0.382619 0.565729 0.673278
Si Si6 0.130022 0.932561 0.680873
Si Si7 0.800736 0.302217 0.819524
Si Si8 0.424709 0.164859 0.680285
O O1 0.073055 0.193598 0.500000
O O2 0.087723 0.128429 0.753329
O O3 0.146015 0.243750 0.723695
O O4 0.000000 0.225228 0.750000
O O5 0.404029 0.631831 0.247251
O O6 0.286111 0.706383 0.224250
O O7 0.413890 0.762310 0.233330
O O8 0.377013 0.694367 0.000000
O O9 0.174810 0.500000 0.750000
O O10 0.291405 0.434787 0.819493
O O11 0.174273 0.369991 0.746927
O O12 0.178733 0.433865 0.000000
O O13 0.714534 0.938526 0.500000
O O14 0.784726 0.924786 0.239961
O O15 0.648059 0.876891 0.284503
O O16 0.674102 0.000000 0.250000
O O17 0.407951 0.500000 0.750000
O O18 0.405388 0.566499 0.500000
O O19 0.127228 0.934564 0.500000
O O20 0.103211 0.000000 0.750000
O O21 0.802253 0.306344 0.000000
O O22 0.500000 0.137440 0.750000
O O23 0.431329 0.165771 0.500000
#
# Coordination Sequence:
#
# PCOD9394073 Si02
#       8
#     8   8   8   8   8   8   8   8
#     4  11  23  39  57  80 111 146 182 222 267 318
#     4   9  17  32  52  74 100 135 174 215 262 313
#     4   9  16  26  44  72 105 135 170 214 263 315
#     4  10  20  37  59  84 111 141 177 219 266 316
#     4   9  16  26  43  71 102 132 165 209 259 310
#     4  11  22  38  61  87 112 141 177 219 266 318
#     4   9  18  33  54  76 103 138 176 218 266 316
#     4  10  22  37  54  76 107 144 181 220 266 316
#
# _framework density 19.224216999999999
#
# number of rings (size 3 to 8) (size 9 to 14) (size 15 to 20)
#    0.000    2.250    0.000    4.125    0.000    8.000 
#    0.000    5.000    0.000    0.750    0.000    5.250 
#    0.000    0.000    0.000    0.000    0.000    0.000 
#
# Total GULP energy -357297.343414 kJ/mol
# GULP energy per Si atom -5582.770991 kJ/mol
# Density = 1.918046 g / cm^3
# Si number density = 19.224217 Si / 1000 Ang^3
#
#
#
# Elastic Constant Matrix: (Units=GPa)
#
#
# Indices 1 2 3 4 5 6 
#
# 1 51.5157 31.2794 23.8047 0.0000 0.0000 0.0000
# 2 31.2794 107.0682 35.0637 0.0000 0.0000 0.0000
# 3 23.8047 35.0637 58.3380 0.0000 0.0000 0.0000
# 4 0.0000 0.0000 0.0000 27.3251 0.0000 0.0000
# 5 0.0000 0.0000 0.0000 0.0000 21.6655 0.0000
# 6 0.0000 0.0000 0.0000 0.0000 0.0000 -17.6979
#
#
#
# Elastic Compliance Matrix: (Units=1/GPa)
#
#
# Indices 1 2 3 4 5 6 
#
# 1 0.026006 -0.005133 -0.007527 0.000000 0.000000 0.000000
# 2 -0.005133 0.012642 -0.005504 0.000000 0.000000 0.000000
# 3 -0.007527 -0.005504 0.023521 0.000000 0.000000 0.000000
# 4 0.000000 0.000000 0.000000 0.036596 0.000000 0.000000
# 5 0.000000 0.000000 0.000000 0.000000 0.046156 0.000000
# 6 0.000000 0.000000 0.000000 0.000000 0.000000 -0.056504
#
#
# Mechanical properties :
#
#
# Convention : Reuss Voigt Hill
#
# Bulk Modulus (GPa) = 38.69660 44.13528 41.41594
# Shear Modulus (GPa) = 37.49311 14.71016 26.10164
#
# Velocity S-wave (km/s) = 4.42102 2.76921 3.68876
# Velocity P-wave (km/s) = 6.79951 5.76478 6.30341
#
# Compressibility (1/GPa) = 0.02584206
#
# Stress axis : x y z
#
# Youngs Moduli (GPa) = 38.45276 79.10290 42.51547
#
# Poissons Ratio (x) = 0.40600 0.32000
# Poissons Ratio (y) = 0.19736 0.23400
# Poissons Ratio (z) = 0.28942 0.43538
#
# Static dielectric constant tensor:
#      x y z
#    x 1.666490 0.000000 0.000000 
#    y 0.000000 1.673190 0.000000 
#    z 0.000000 0.000000 1.643470 
# 
# From -- ./inp_files/5267.got.cif
#   From: 2010.05.17/outbox.cif.g08.bks.cpg/sg49_3_cif.got.tgz:5267.got - 2010.06.03 21:02:19.
