data_PCOD9394090
_publ_section_title
;
Structure prediction by ZEFSAII (Michael W. Deem and Ramdas Pophale) SiO2 
 PCOD9394090
Probable space group: P C C M
;
_chemical_formula_sum "Si O2"
_cell_formula_units_Z 64
_cell_length_a 19.232689
_cell_length_b 11.843628
_cell_length_c 14.890857
_cell_angle_alpha 90.000000
_cell_angle_beta 90.000000
_cell_angle_gamma 90.000000
_cell_volume 3391.911091
_symmetry_space_group_name_H-M "P C C M"
_symmetry_group_IT_number 49
_symmetry_cell_setting 'orthorhombic'
loop_
_space_group_symop_operation_xyz
x,y,z
-x,-y,z
x,-y,1/2-z
-x,y,1/2-z
-x,-y,-z
x,y,-z
-x,y,1/2+z
x,-y,1/2+z
loop_
_atom_site_type_symbol
_atom_site_label
_atom_site_fract_x
_atom_site_fract_y
_atom_site_fract_z
Si Si1 0.504394 0.688977 0.396516
Si Si2 0.079729 0.000474 0.390572
Si Si3 0.192071 0.188692 0.397167
Si Si4 0.436954 0.064518 0.896896
Si Si5 0.825653 0.202781 0.602462
Si Si6 0.767499 0.362860 0.254571
Si Si7 0.281929 0.984867 0.352096
Si Si8 0.609791 0.369598 0.259586
O O1 0.519614 0.654574 0.500000
O O2 0.467600 0.810601 0.400114
O O3 0.443034 0.625747 0.343663
O O4 0.569555 0.681513 0.327449
O O5 0.081690 0.000507 0.500000
O O6 0.115271 0.882911 0.362695
O O7 0.127951 0.107723 0.365499
O O8 0.000000 0.000000 0.361703
O O9 0.179239 0.223149 0.500000
O O10 0.206809 0.295314 0.333819
O O11 0.257960 0.102288 0.396321
O O12 0.363004 0.043949 0.853674
O O13 0.500000 0.000000 0.851651
O O14 0.428222 0.023626 0.000000
O O15 0.840173 0.235159 0.500000
O O16 0.811343 0.309808 0.664049
O O17 0.758684 0.119556 0.604428
O O18 0.772961 0.500000 0.250000
O O19 0.687140 0.321234 0.270502
O O20 0.258634 0.000000 0.250000
O O21 0.625082 0.500000 0.250000
#
# Coordination Sequence:
#
# PCOD9394090 Si02
#       8
#     8   8   8   8   8   8   8   8
#     4  10  21  37  57  76 101 136 178 233 298 356
#     4   8  16  34  63  98 126 151 190 233 282 349
#     4  10  21  37  60  87 119 156 191 237 291 343
#     4  10  22  34  46  73 105 136 176 220 273 346
#     4  10  20  37  60  86 118 153 188 235 293 344
#     4  11  24  40  57  82 115 154 206 249 283 344
#     4  11  20  33  56  81 112 147 183 232 290 355
#     4  10  23  39  55  76 101 136 188 245 289 331
#
# _framework density 18.868418999999999
#
# number of rings (size 3 to 8) (size 9 to 14) (size 15 to 20)
#    0.000    2.000    1.250    3.375    1.750    4.750 
#    0.000    3.750    0.000    1.500    0.000    3.500 
#    0.000    0.000    0.000    0.000    0.000    0.000 
#
# Total GULP energy -356535.037484 kJ/mol
# GULP energy per Si atom -5570.859961 kJ/mol
# Density = 1.882547 g / cm^3
# Si number density = 18.868419 Si / 1000 Ang^3
#
#
#
# Elastic Constant Matrix: (Units=GPa)
#
#
# Indices 1 2 3 4 5 6 
#
# 1 118.4716 38.1658 13.1254 0.0000 0.0000 0.0000
# 2 38.1658 91.5466 28.9777 0.0000 0.0000 0.0000
# 3 13.1254 28.9777 94.5061 0.0000 0.0000 0.0000
# 4 0.0000 0.0000 0.0000 40.3392 0.0000 0.0000
# 5 0.0000 0.0000 0.0000 0.0000 -3.7297 0.0000
# 6 0.0000 0.0000 0.0000 0.0000 0.0000 19.9765
#
#
#
# Elastic Compliance Matrix: (Units=1/GPa)
#
#
# Indices 1 2 3 4 5 6 
#
# 1 0.009752 -0.004028 -0.000119 0.000000 0.000000 0.000000
# 2 -0.004028 0.013761 -0.003660 0.000000 0.000000 0.000000
# 3 -0.000119 -0.003660 0.011720 0.000000 0.000000 0.000000
# 4 0.000000 0.000000 0.000000 0.024790 0.000000 0.000000
# 5 0.000000 0.000000 0.000000 0.000000 -0.268122 0.000000
# 6 0.000000 0.000000 0.000000 0.000000 0.000000 0.050059
#
#
# Mechanical properties :
#
#
# Convention : Reuss Voigt Hill
#
# Bulk Modulus (GPa) = 50.97198 51.67356 51.32277
# Shear Modulus (GPa) = -36.79542 26.26757 -5.26393
#
# Velocity S-wave (km/s) = -4.42079 3.73519 -1.67208
# Velocity P-wave (km/s) = 1.00758 6.78586 4.85094
#
# Compressibility (1/GPa) = 0.01961862
#
# Stress axis : x y z
#
# Youngs Moduli (GPa) = 102.54744 72.66881 85.32301
#
# Poissons Ratio (x) = 0.29268 0.01019
# Poissons Ratio (y) = 0.41303 0.31229
# Poissons Ratio (z) = 0.01224 0.26597
#
# Static dielectric constant tensor:
#      x y z
#    x 1.653950 0.000000 0.000000 
#    y 0.000000 1.624310 0.000000 
#    z 0.000000 0.000000 1.795600 
# 
# From -- ./inp_files/14188.got.cif
#   From: 2010.05.17/outbox.cif.g08.bks.cpg/sg49_8_cif.got.tgz:14188.got - 2010.06.03 21:02:19.
