data_PCOD9394893
_publ_section_title
;
Structure prediction by ZEFSAII (Michael W. Deem and Ramdas Pophale) SiO2 
 PCOD9394893
Probable space group: P C C M
;
_chemical_formula_sum "Si O2"
_cell_formula_units_Z 32
_cell_length_a 10.571972
_cell_length_b 8.458200
_cell_length_c 18.396244
_cell_angle_alpha 90.000000
_cell_angle_beta 90.000000
_cell_angle_gamma 90.000000
_cell_volume 1644.989445
_symmetry_space_group_name_H-M "P C C M"
_symmetry_group_IT_number 49
_symmetry_cell_setting 'orthorhombic'
loop_
_space_group_symop_operation_xyz
x,y,z
-x,-y,z
x,-y,1/2-z
-x,y,1/2-z
-x,-y,-z
x,y,-z
-x,y,1/2+z
x,-y,1/2+z
loop_
_atom_site_type_symbol
_atom_site_label
_atom_site_fract_x
_atom_site_fract_y
_atom_site_fract_z
Si Si1 0.114494 0.602148 0.381582
Si Si2 0.475374 0.807772 0.500000
Si Si3 0.353379 0.249253 0.843696
Si Si4 0.022028 0.184606 0.500000
Si Si5 0.500000 0.000000 0.750000
Si Si6 0.500000 0.500000 0.250000
Si Si7 0.257316 0.618034 0.000000
O O1 0.206469 0.710486 0.334859
O O2 0.207378 0.487193 0.430702
O O3 0.000000 0.500000 0.348113
O O4 0.042413 0.724358 0.433534
O O5 0.395320 0.768068 0.572388
O O6 0.600132 0.690200 0.500000
O O7 0.500000 0.000000 0.500000
O O8 0.408461 0.099942 0.801578
O O9 0.419807 0.393513 0.803618
O O10 0.169371 0.226804 0.500000
O O11 0.000000 0.000000 0.500000
#
# Coordination Sequence:
#
# PCOD9394893 Si02
#       7
#     8   4   8   4   2   2   4
#     4   9  19  37  58  85 118 167 208 253 298 375
#     4  12  23  34  64 102 122 156 207 271 304 365
#     4  11  22  41  62  91 129 158 213 249 324 374
#     4   9  18  29  54  87 125 160 192 251 329 354
#     4  10  24  40  56  94 134 168 188 260 344 388
#     4  10  24  40  66  90 124 184 184 260 324 380
#     4   9  19  33  52  89 132 148 196 255 316 363
#
# _framework density 19.453015000000001
#
# number of rings (size 3 to 8) (size 9 to 14) (size 15 to 20)
#    0.000    2.000    1.250    4.500    3.500    1.500 
#    0.000    0.625    0.000    0.000    0.000    0.000 
#    0.000    0.000    0.000    0.000    0.000    0.000 
#
# Total GULP energy -178294.921336 kJ/mol
# GULP energy per Si atom -5571.716292 kJ/mol
# Density = 1.940874 g / cm^3
# Si number density = 19.453015 Si / 1000 Ang^3
#
#
#
# Elastic Constant Matrix: (Units=GPa)
#
#
# Indices 1 2 3 4 5 6 
#
# 1 130.8390 51.4291 32.7159 0.0000 0.0000 0.0000
# 2 51.4291 113.3243 31.1258 0.0000 0.0000 0.0000
# 3 32.7159 31.1258 90.3525 0.0000 0.0000 0.0000
# 4 0.0000 0.0000 0.0000 287.8298 0.0000 0.0000
# 5 0.0000 0.0000 0.0000 0.0000 -0.7616 0.0000
# 6 0.0000 0.0000 0.0000 0.0000 0.0000 45.1783
#
#
#
# Elastic Compliance Matrix: (Units=1/GPa)
#
#
# Indices 1 2 3 4 5 6 
#
# 1 0.009683 -0.003790 -0.002200 0.000000 0.000000 0.000000
# 2 -0.003790 0.011230 -0.002496 0.000000 0.000000 0.000000
# 3 -0.002200 -0.002496 0.012725 0.000000 0.000000 0.000000
# 4 0.000000 0.000000 0.000000 0.003474 0.000000 0.000000
# 5 0.000000 0.000000 0.000000 0.000000 -1.313082 0.000000
# 6 0.000000 0.000000 0.000000 0.000000 0.000000 0.022135
#
#
# Mechanical properties :
#
#
# Convention : Reuss Voigt Hill
#
# Bulk Modulus (GPa) = 60.01033 62.78415 61.39724
# Shear Modulus (GPa) = -4.06072 81.06564 38.50246
#
# Velocity S-wave (km/s) = -1.44637 6.46243 4.45371
# Velocity P-wave (km/s) = 5.30344 9.38237 7.62087
#
# Compressibility (1/GPa) = 0.01666380
#
# Stress axis : x y z
#
# Youngs Moduli (GPa) = 103.27464 89.04858 78.58849
#
# Poissons Ratio (x) = 0.33749 0.17293
# Poissons Ratio (y) = 0.39140 0.19618
# Poissons Ratio (z) = 0.22726 0.22229
#
# Static dielectric constant tensor:
#      x y z
#    x 0.206840 0.000000 0.000000 
#    y 0.000000 1.684880 0.000000 
#    z 0.000000 0.000000 1.648280 
# 
# From -- ./inp_files/16810.got.cif
#   From: 2010.05.17/outbox.cif.g08.bks.cpg/sg49_9_cif.got.tgz:16810.got - 2010.06.03 21:02:19.
