data_PCOD9394352
_publ_section_title
;
Structure prediction by ZEFSAII (Michael W. Deem and Ramdas Pophale) SiO2 
 PCOD9394352
Probable space group: P C C M
;
_chemical_formula_sum "Si O2"
_cell_formula_units_Z 64
_cell_length_a 11.065709
_cell_length_b 15.796129
_cell_length_c 14.441554
_cell_angle_alpha 90.000000
_cell_angle_beta 90.000000
_cell_angle_gamma 90.000000
_cell_volume 2524.316729
_symmetry_space_group_name_H-M "P C C M"
_symmetry_group_IT_number 49
_symmetry_cell_setting 'orthorhombic'
loop_
_space_group_symop_operation_xyz
x,y,z
-x,-y,z
x,-y,1/2-z
-x,y,1/2-z
-x,-y,-z
x,y,-z
-x,y,1/2+z
x,-y,1/2+z
loop_
_atom_site_type_symbol
_atom_site_label
_atom_site_fract_x
_atom_site_fract_y
_atom_site_fract_z
Si Si1 0.218986 0.234210 0.388663
Si Si2 0.880102 0.949316 0.113292
Si Si3 0.619002 0.961884 0.894049
Si Si4 0.949401 0.234012 0.613125
Si Si5 0.271870 0.424302 0.612808
Si Si6 0.532432 0.389521 0.605323
Si Si7 0.195011 0.600987 0.386783
Si Si8 0.521810 0.199292 0.142482
O O1 0.213950 0.235259 0.500000
O O2 0.235472 0.331277 0.355700
O O3 0.336101 0.177639 0.367699
O O4 0.085432 0.212374 0.355717
O O5 0.749836 0.981875 0.145015
O O6 0.877718 0.850218 0.138612
O O7 0.881028 0.952724 0.000000
O O8 0.000000 0.000000 0.142731
O O9 0.579424 0.863430 0.896265
O O10 0.500000 0.000000 0.848079
O O11 0.623111 0.993626 0.000000
O O12 0.950622 0.238295 0.500000
O O13 0.893396 0.323737 0.644655
O O14 0.273722 0.421745 0.500000
O O15 0.412307 0.436775 0.642583
O O16 0.182997 0.501387 0.638082
O O17 0.551959 0.418576 0.500000
O O18 0.666687 0.384029 0.646525
O O19 0.490415 0.292154 0.600644
O O20 0.190940 0.604796 0.500000
O O21 0.500000 0.207322 0.250000
#
# Coordination Sequence:
#
# PCOD9394352 Si02
#       8
#     8   8   8   8   8   8   8   8
#     4   9  18  32  51  75 106 145 186 225 270 332
#     4   9  18  32  52  82 113 136 170 221 269 319
#     4  10  21  36  59  88 110 138 178 222 276 334
#     4   9  17  27  45  74 109 145 175 216 272 326
#     4   8  14  24  41  71 105 137 175 223 277 323
#     4   9  16  29  50  73 101 139 183 229 273 327
#     4   9  15  24  44  74 106 138 176 229 283 328
#     4  11  22  35  53  76 106 143 181 229 278 322
#
# _framework density 25.353396
#
# number of rings (size 3 to 8) (size 9 to 14) (size 15 to 20)
#    0.000    2.750    0.000    3.000    1.750    4.250 
#    0.000    2.500    0.000    9.000    0.000    0.000 
#    0.000    8.000    0.000    0.500    0.000    0.000 
#
# Total GULP energy -357223.451717 kJ/mol
# GULP energy per Si atom -5581.616433 kJ/mol
# Density = 2.529569 g / cm^3
# Si number density = 25.353396 Si / 1000 Ang^3
#
#
#
# Elastic Constant Matrix: (Units=GPa)
#
#
# Indices 1 2 3 4 5 6 
#
# 1 165.9654 33.4589 10.6764 0.0000 0.0000 0.0000
# 2 33.4589 74.2299 -1.6764 0.0000 0.0000 0.0000
# 3 10.6764 -1.6764 92.8926 0.0000 0.0000 0.0000
# 4 0.0000 0.0000 0.0000 6.3553 0.0000 0.0000
# 5 0.0000 0.0000 0.0000 0.0000 -10.7609 0.0000
# 6 0.0000 0.0000 0.0000 0.0000 0.0000 43.6621
#
#
#
# Elastic Compliance Matrix: (Units=1/GPa)
#
#
# Indices 1 2 3 4 5 6 
#
# 1 0.006690 -0.003034 -0.000824 0.000000 0.000000 0.000000
# 2 -0.003034 0.014853 0.000617 0.000000 0.000000 0.000000
# 3 -0.000824 0.000617 0.010871 0.000000 0.000000 0.000000
# 4 0.000000 0.000000 0.000000 0.157348 0.000000 0.000000
# 5 0.000000 0.000000 0.000000 0.000000 -0.092929 0.000000
# 6 0.000000 0.000000 0.000000 0.000000 0.000000 0.022903
#
#
# Mechanical properties :
#
#
# Convention : Reuss Voigt Hill
#
# Bulk Modulus (GPa) = 38.56216 46.44506 42.50361
# Shear Modulus (GPa) = 37.07480 27.22659 32.15069
#
# Velocity S-wave (km/s) = 3.82818 3.28057 3.56491
# Velocity P-wave (km/s) = 5.89770 5.71912 5.80910
#
# Compressibility (1/GPa) = 0.02593215
#
# Stress axis : x y z
#
# Youngs Moduli (GPa) = 149.47644 67.32556 91.98857
#
# Poissons Ratio (x) = 0.20427 0.07577
# Poissons Ratio (y) = 0.45353 -0.05674
# Poissons Ratio (z) = 0.12312 -0.04152
#
# Static dielectric constant tensor:
#      x y z
#    x 2.033010 0.000000 0.000000 
#    y 0.000000 2.078910 0.000000 
#    z 0.000000 0.000000 2.020950 
# 
# From -- ./inp_files/17279.got.cif
#   From: 2010.05.17/outbox.cif.g08.bks.cpg/sg49_9_cif.got.tgz:17279.got - 2010.06.03 21:02:19.
