data_PCOD9394848
_publ_section_title
;
Structure prediction by ZEFSAII (Michael W. Deem and Ramdas Pophale) SiO2 
 PCOD9394848
Probable space group: P C C M
;
_chemical_formula_sum "Si O2"
_cell_formula_units_Z 48
_cell_length_a 31.324837
_cell_length_b 9.299625
_cell_length_c 8.585572
_cell_angle_alpha 90.000000
_cell_angle_beta 90.000000
_cell_angle_gamma 90.000000
_cell_volume 2501.056431
_symmetry_space_group_name_H-M "P C C M"
_symmetry_group_IT_number 49
_symmetry_cell_setting 'orthorhombic'
loop_
_space_group_symop_operation_xyz
x,y,z
-x,-y,z
x,-y,1/2-z
-x,y,1/2-z
-x,-y,-z
x,y,-z
-x,y,1/2+z
x,-y,1/2+z
loop_
_atom_site_type_symbol
_atom_site_label
_atom_site_fract_x
_atom_site_fract_y
_atom_site_fract_z
Si Si1 0.452886 0.340092 0.813339
Si Si2 0.706163 0.338156 0.687688
Si Si3 0.209560 0.161360 0.812431
Si Si4 0.874188 0.338989 0.312465
Si Si5 0.374266 0.839065 0.813652
Si Si6 0.046704 0.160611 0.686344
O O1 0.442595 0.500000 0.750000
O O2 0.500000 0.303806 0.750000
O O3 0.417642 0.230375 0.751853
O O4 0.453393 0.343151 0.000000
O O5 0.708138 0.500000 0.750000
O O6 0.703703 0.339855 0.500000
O O7 0.748632 0.250915 0.735306
O O8 0.664982 0.257608 0.754848
O O9 0.166646 0.243975 0.763047
O O10 0.210764 0.000000 0.750000
O O11 0.209426 0.155776 0.000000
O O12 0.869537 0.500000 0.250000
O O13 0.875980 0.340593 0.500000
O O14 0.916864 0.266542 0.246409
O O15 0.369044 0.000000 0.750000
O O16 0.375317 0.840323 0.000000
O O17 0.045800 0.156879 0.500000
O O18 0.000000 0.202158 0.750000
O O19 0.055619 0.000000 0.750000
#
# Coordination Sequence:
#
# PCOD9394848 Si02
#       6
#     8   8   8   8   8   8
#     4  11  22  40  64  92 123 160 202 249 300 357
#     4  11  23  41  63  91 122 159 201 247 298 354
#     4  10  23  40  62  89 121 157 199 245 297 354
#     4  11  23  40  60  88 121 158 200 247 298 355
#     4  12  25  42  62  89 122 160 202 250 301 357
#     4  11  22  39  62  89 119 156 198 246 297 355
#
# _framework density 19.191891999999999
#
# number of rings (size 3 to 8) (size 9 to 14) (size 15 to 20)
#    0.000    1.000    0.000    8.500    0.000    6.000 
#    0.000    3.333    0.000    0.000    0.000    0.000 
#    0.000    0.000    0.000    0.000    0.000    0.000 
#
# Total GULP energy -268652.321150 kJ/mol
# GULP energy per Si atom -5596.923357 kJ/mol
# Density = 1.914821 g / cm^3
# Si number density = 19.191892 Si / 1000 Ang^3
#
#
#
# Elastic Constant Matrix: (Units=GPa)
#
#
# Indices 1 2 3 4 5 6 
#
# 1 135.6879 122.4494 61.3232 0.0000 0.0000 0.0000
# 2 122.4494 190.0896 65.7751 0.0000 0.0000 0.0000
# 3 61.3232 65.7751 147.0019 0.0000 0.0000 0.0000
# 4 0.0000 0.0000 0.0000 40.5578 0.0000 0.0000
# 5 0.0000 0.0000 0.0000 0.0000 29.9413 0.0000
# 6 0.0000 0.0000 0.0000 0.0000 0.0000 44.9611
#
#
#
# Elastic Compliance Matrix: (Units=1/GPa)
#
#
# Indices 1 2 3 4 5 6 
#
# 1 0.018546 -0.010968 -0.002829 0.000000 0.000000 0.000000
# 2 -0.010968 0.012711 -0.001112 0.000000 0.000000 0.000000
# 3 -0.002829 -0.001112 0.008480 0.000000 0.000000 0.000000
# 4 0.000000 0.000000 0.000000 0.024656 0.000000 0.000000
# 5 0.000000 0.000000 0.000000 0.000000 0.033399 0.000000
# 6 0.000000 0.000000 0.000000 0.000000 0.000000 0.022241
#
#
# Mechanical properties :
#
#
# Convention : Reuss Voigt Hill
#
# Bulk Modulus (GPa) = 100.81498 107.98609 104.40054
# Shear Modulus (GPa) = 32.64595 37.97415 35.31005
#
# Velocity S-wave (km/s) = 4.12883 4.45303 4.29399
# Velocity P-wave (km/s) = 8.68180 9.10099 8.89386
#
# Compressibility (1/GPa) = 0.00991916
#
# Stress axis : x y z
#
# Youngs Moduli (GPa) = 53.91883 78.67431 117.91916
#
# Poissons Ratio (x) = 0.86290 0.33362
# Poissons Ratio (y) = 0.59138 0.13111
# Poissons Ratio (z) = 0.15255 0.08748
#
# Static dielectric constant tensor:
#      x y z
#    x 1.647630 0.000000 0.000000 
#    y 0.000000 1.628310 0.000000 
#    z 0.000000 0.000000 1.644910 
# 
# From -- ./inp_files/2085.got.cif
#   From: 2010.05.17/outbox.cif.g08.bks.cpg/sg49_2_cif.got.tgz:2085.got - 2010.06.03 21:02:19.
