data_PCOD9394943
_publ_section_title
;
Structure prediction by ZEFSAII (Michael W. Deem and Ramdas Pophale) SiO2 
 PCOD9394943
Probable space group: P C C M
;
_chemical_formula_sum "Si O2"
_cell_formula_units_Z 18
_cell_length_a 5.605200
_cell_length_b 5.110317
_cell_length_c 26.735860
_cell_angle_alpha 90.000000
_cell_angle_beta 90.000000
_cell_angle_gamma 90.000000
_cell_volume 765.831301
_symmetry_space_group_name_H-M "P C C M"
_symmetry_group_IT_number 49
_symmetry_cell_setting 'orthorhombic'
loop_
_space_group_symop_operation_xyz
x,y,z
-x,-y,z
x,-y,1/2-z
-x,y,1/2-z
-x,-y,-z
x,y,-z
-x,y,1/2+z
x,-y,1/2+z
loop_
_atom_site_type_symbol
_atom_site_label
_atom_site_fract_x
_atom_site_fract_y
_atom_site_fract_z
Si Si1 0.000000 0.500000 0.750000
Si Si2 0.825446 0.750877 0.500000
Si Si3 0.345565 0.238199 0.174735
Si Si4 0.500000 0.000000 0.580251
O O1 0.137955 0.311505 0.788131
O O2 0.646168 0.793988 0.453121
O O3 0.000000 0.500000 0.500000
O O4 0.000000 0.000000 0.500000
O O5 0.500000 0.500000 0.171877
O O6 0.311112 0.141805 0.117611
O O7 0.500000 0.000000 0.195637
#
# Coordination Sequence:
#
# PCOD9394943 Si02
#       4
#     2   4   8   4
#     4  12  26  50  80 110 144 214 258 310 388 458
#     4  11  26  43  82 111 145 199 256 300 391 465
#     4  10  26  47  73 106 152 194 252 315 378 446
#     4   9  26  52  71 108 162 186 247 333 368 448
#
# _framework density 23.503869000000002
#
# number of rings (size 3 to 8) (size 9 to 14) (size 15 to 20)
#    1.333    0.444    0.000    0.667    6.222   12.444 
#    0.000    4.444    0.000    0.000    0.000    0.000 
#    0.000    0.000    0.000    0.000    0.000    0.000 
#
# Total GULP energy -100487.365714 kJ/mol
# GULP energy per Si atom -5582.631429 kJ/mol
# Density = 2.345037 g / cm^3
# Si number density = 23.503869 Si / 1000 Ang^3
#
#
#
# Elastic Constant Matrix: (Units=GPa)
#
#
# Indices 1 2 3 4 5 6 
#
# 1 102.7200 67.6698 95.2899 0.0000 0.0000 0.0000
# 2 67.6698 192.8880 76.2507 0.0000 0.0000 0.0000
# 3 95.2899 76.2507 221.9852 0.0000 0.0000 0.0000
# 4 0.0000 0.0000 0.0000 26.6430 0.0000 0.0000
# 5 0.0000 0.0000 0.0000 0.0000 94.5741 0.0000
# 6 0.0000 0.0000 0.0000 0.0000 0.0000 57.6250
#
#
#
# Elastic Compliance Matrix: (Units=1/GPa)
#
#
# Indices 1 2 3 4 5 6 
#
# 1 0.018351 -0.003846 -0.006556 0.000000 0.000000 0.000000
# 2 -0.003846 0.006805 -0.000686 0.000000 0.000000 0.000000
# 3 -0.006556 -0.000686 0.007555 0.000000 0.000000 0.000000
# 4 0.000000 0.000000 0.000000 0.037533 0.000000 0.000000
# 5 0.000000 0.000000 0.000000 0.000000 0.010574 0.000000
# 6 0.000000 0.000000 0.000000 0.000000 0.000000 0.017354
#
#
# Mechanical properties :
#
#
# Convention : Reuss Voigt Hill
#
# Bulk Modulus (GPa) = 94.93815 110.66821 102.80318
# Shear Modulus (GPa) = 40.36795 54.32727 47.34761
#
# Velocity S-wave (km/s) = 4.14877 4.81294 4.49314
# Velocity P-wave (km/s) = 7.96430 8.83590 8.41140
#
# Compressibility (1/GPa) = 0.01053317
#
# Stress axis : x y z
#
# Youngs Moduli (GPa) = 54.49280 146.94915 132.36349
#
# Poissons Ratio (x) = 0.56520 0.86781
# Poissons Ratio (y) = 0.20959 0.09086
# Poissons Ratio (z) = 0.35727 0.10087
#
# Static dielectric constant tensor:
#      x y z
#    x 1.940190 0.000000 0.000000 
#    y 0.000000 1.831980 0.000000 
#    z 0.000000 0.000000 1.943520 
# 
# From -- ./inp_files/25264.got.cif
#   From: 2010.05.17/outbox.cif.g08.bks.cpg/sg49_13_cif.got.tgz:25264.got - 2010.06.03 21:02:19.
