data_PCOD9394949
_publ_section_title
;
Structure prediction by ZEFSAII (Michael W. Deem and Ramdas Pophale) SiO2 
 PCOD9394949
Probable space group: P C C M
;
_chemical_formula_sum "Si O2"
_cell_formula_units_Z 56
_cell_length_a 13.403140
_cell_length_b 9.960473
_cell_length_c 21.702572
_cell_angle_alpha 90.000000
_cell_angle_beta 90.000000
_cell_angle_gamma 90.000000
_cell_volume 2897.328392
_symmetry_space_group_name_H-M "P C C M"
_symmetry_group_IT_number 49
_symmetry_cell_setting 'orthorhombic'
loop_
_space_group_symop_operation_xyz
x,y,z
-x,-y,z
x,-y,1/2-z
-x,y,1/2-z
-x,-y,-z
x,y,-z
-x,y,1/2+z
x,-y,1/2+z
loop_
_atom_site_type_symbol
_atom_site_label
_atom_site_fract_x
_atom_site_fract_y
_atom_site_fract_z
Si Si1 0.113747 0.840288 0.259084
Si Si2 0.389184 0.072860 0.188597
Si Si3 0.617040 0.351123 0.243045
Si Si4 0.069975 0.128278 0.109454
Si Si5 0.760392 0.727062 0.353474
Si Si6 0.071064 0.625658 0.071562
Si Si7 0.734849 0.993289 0.569614
O O1 0.128613 0.815816 0.330977
O O2 0.181506 0.772833 0.208195
O O3 0.000000 0.796012 0.250000
O O4 0.119587 0.000000 0.250000
O O5 0.371938 0.228070 0.208459
O O6 0.336414 0.050853 0.123309
O O7 0.500000 0.000000 0.184331
O O8 0.344996 0.000000 0.250000
O O9 0.664894 0.500000 0.250000
O O10 0.500000 0.368916 0.250000
O O11 0.652839 0.306592 0.174851
O O12 0.159240 0.070959 0.068472
O O13 0.995055 0.240621 0.084276
O O14 0.000000 0.000000 0.126926
O O15 0.831409 0.619200 0.385704
O O16 0.755731 0.844984 0.403605
O O17 0.000000 0.500000 0.083289
O O18 0.100422 0.625844 0.000000
O O19 0.694262 0.991535 0.500000
#
# Coordination Sequence:
#
# PCOD9394949 Si02
#       7
#     8   8   8   8   8   8   8
#     4  11  17  32  55  89 119 160 199 258 320 362
#     4  11  21  43  70  97 126 163 210 276 338 388
#     4  11  24  43  68  98 128 163 211 266 336 403
#     4  12  21  36  59  85 121 159 214 258 304 368
#     4  12  22  37  61  91 126 165 214 264 322 381
#     4  11  25  42  57  81 131 184 217 257 320 389
#     4  12  24  35  62 100 130 169 222 275 323 382
#
# _framework density 19.328151999999999
#
# number of rings (size 3 to 8) (size 9 to 14) (size 15 to 20)
#    0.000    0.571    8.571    1.714    0.000    3.143 
#    0.000    0.714    0.000    0.857    0.000    6.000 
#    0.000    0.000    0.000    0.000    0.000    0.000 
#
# Total GULP energy -311967.111038 kJ/mol
# GULP energy per Si atom -5570.841269 kJ/mol
# Density = 1.928416 g / cm^3
# Si number density = 19.328152 Si / 1000 Ang^3
#
#
#
# Elastic Constant Matrix: (Units=GPa)
#
#
# Indices 1 2 3 4 5 6 
#
# 1 92.0859 21.1496 50.6148 0.0000 0.0000 0.0000
# 2 21.1496 78.2930 33.2329 0.0000 0.0000 0.0000
# 3 50.6148 33.2329 147.5085 0.0000 0.0000 0.0000
# 4 0.0000 0.0000 0.0000 14.8129 0.0000 0.0000
# 5 0.0000 0.0000 0.0000 0.0000 18.9095 0.0000
# 6 0.0000 0.0000 0.0000 0.0000 0.0000 3.9216
#
#
#
# Elastic Compliance Matrix: (Units=1/GPa)
#
#
# Indices 1 2 3 4 5 6 
#
# 1 0.013628 -0.001876 -0.004254 0.000000 0.000000 0.000000
# 2 -0.001876 0.014381 -0.002596 0.000000 0.000000 0.000000
# 3 -0.004254 -0.002596 0.008824 0.000000 0.000000 0.000000
# 4 0.000000 0.000000 0.000000 0.067509 0.000000 0.000000
# 5 0.000000 0.000000 0.000000 0.000000 0.052883 0.000000
# 6 0.000000 0.000000 0.000000 0.000000 0.000000 0.254999
#
#
# Mechanical properties :
#
#
# Convention : Reuss Voigt Hill
#
# Bulk Modulus (GPa) = 51.59547 58.65356 55.12451
# Shear Modulus (GPa) = 11.46427 21.72147 16.59287
#
# Velocity S-wave (km/s) = 2.43809 3.35599 2.93317
# Velocity P-wave (km/s) = 5.88881 6.74010 6.32878
#
# Compressibility (1/GPa) = 0.01938155
#
# Stress axis : x y z
#
# Youngs Moduli (GPa) = 73.37685 69.53452 113.33014
#
# Poissons Ratio (x) = 0.13044 0.48207
# Poissons Ratio (y) = 0.13765 0.29425
# Poissons Ratio (z) = 0.31212 0.18054
#
# Static dielectric constant tensor:
#      x y z
#    x 1.849430 0.000000 0.000000 
#    y 0.000000 1.790050 0.000000 
#    z 0.000000 0.000000 1.676920 
# 
# From -- ./inp_files/20853.got.cif
#   From: 2010.05.17/outbox.cif.g08.bks.cpg/sg49_11_cif.got.tgz:20853.got - 2010.06.03 21:02:19.
