data_PCOD9394245
_publ_section_title
;
Structure prediction by ZEFSAII (Michael W. Deem and Ramdas Pophale) SiO2 
 PCOD9394245
Probable space group: P C C M
;
_chemical_formula_sum "Si O2"
_cell_formula_units_Z 30
_cell_length_a 8.311143
_cell_length_b 5.615077
_cell_length_c 30.693865
_cell_angle_alpha 90.000000
_cell_angle_beta 90.000000
_cell_angle_gamma 90.000000
_cell_volume 1432.412326
_symmetry_space_group_name_H-M "P C C M"
_symmetry_group_IT_number 49
_symmetry_cell_setting 'orthorhombic'
loop_
_space_group_symop_operation_xyz
x,y,z
-x,-y,z
x,-y,1/2-z
-x,y,1/2-z
-x,-y,-z
x,y,-z
-x,y,1/2+z
x,-y,1/2+z
loop_
_atom_site_type_symbol
_atom_site_label
_atom_site_fract_x
_atom_site_fract_y
_atom_site_fract_z
Si Si1 0.500000 0.000000 0.126898
Si Si2 0.830902 0.857621 0.094387
Si Si3 0.902936 0.745420 0.000000
Si Si4 0.500000 0.500000 0.320545
Si Si5 0.000000 0.000000 0.250000
Si Si6 0.839471 0.642544 0.811175
O O1 0.667788 0.006827 0.100901
O O2 0.498783 0.752950 0.153813
O O3 0.836406 0.687782 0.136703
O O4 0.815411 0.743348 0.046671
O O5 0.000000 0.000000 0.095756
O O6 0.000000 0.500000 0.000000
O O7 0.000000 0.000000 0.000000
O O8 0.325642 0.514994 0.298380
O O9 0.125215 0.123289 0.216473
O O10 0.000000 0.500000 0.801186
#
# Coordination Sequence:
#
# PCOD9394245 Si02
#       6
#     4   8   4   4   2   8
#     4  10  22  39  66 105 124 182 224 259 334 403
#     4  10  20  40  69  92 139 173 219 274 328 394
#     4  10  22  37  62 103 129 174 225 260 327 401
#     4  10  24  42  73  95 136 174 226 267 342 405
#     4  12  26  44  70 104 132 170 254 272 360 410
#     4  11  23  44  70  96 134 179 221 285 340 405
#
# _framework density 20.943691999999999
#
# number of rings (size 3 to 8) (size 9 to 14) (size 15 to 20)
#    0.000    1.600    1.333    2.800    3.733    6.933 
#    0.000    4.000    0.000   20.000    0.000    0.000 
#    0.000    0.000    0.000    0.000    0.000    0.000 
#
# Total GULP energy -167027.552544 kJ/mol
# GULP energy per Si atom -5567.585085 kJ/mol
# Density = 2.089602 g / cm^3
# Si number density = 20.943692 Si / 1000 Ang^3
#
#
#
# Elastic Constant Matrix: (Units=GPa)
#
#
# Indices 1 2 3 4 5 6 
#
# 1 207.9249 34.9592 29.2681 0.0000 0.0000 0.0000
# 2 34.9592 90.1789 34.7619 0.0000 0.0000 0.0000
# 3 29.2681 34.7619 153.6914 0.0000 0.0000 0.0000
# 4 0.0000 0.0000 0.0000 -68.7216 0.0000 0.0000
# 5 0.0000 0.0000 0.0000 0.0000 -161.8496 0.0000
# 6 0.0000 0.0000 0.0000 0.0000 0.0000 35.9665
#
#
#
# Elastic Compliance Matrix: (Units=1/GPa)
#
#
# Indices 1 2 3 4 5 6 
#
# 1 0.005192 -0.001788 -0.000584 0.000000 0.000000 0.000000
# 2 -0.001788 0.012764 -0.002546 0.000000 0.000000 0.000000
# 3 -0.000584 -0.002546 0.007194 0.000000 0.000000 0.000000
# 4 0.000000 0.000000 0.000000 -0.014551 0.000000 0.000000
# 5 0.000000 0.000000 0.000000 0.000000 -0.006179 0.000000
# 6 0.000000 0.000000 0.000000 0.000000 0.000000 0.027804
#
#
# Mechanical properties :
#
#
# Convention : Reuss Voigt Hill
#
# Bulk Modulus (GPa) = 65.30522 72.19707 68.75114
# Shear Modulus (GPa) = 106.01188 -15.40054 45.30567
#
# Velocity S-wave (km/s) = 7.12232 -2.71464 4.65608
# Velocity P-wave (km/s) = 9.94413 4.97203 7.86151
#
# Compressibility (1/GPa) = 0.01531271
#
# Stress axis : x y z
#
# Youngs Moduli (GPa) = 192.59478 78.34758 139.00847
#
# Poissons Ratio (x) = 0.14005 0.08125
# Poissons Ratio (y) = 0.34427 0.35398
# Poissons Ratio (z) = 0.11257 0.19951
#
# Static dielectric constant tensor:
#      x y z
#    x 1.779490 0.000000 0.000000 
#    y 0.000000 2.245270 0.000000 
#    z 0.000000 0.000000 1.783460 
# 
# From -- ./inp_files/26048.got.cif
#   From: 2010.05.17/outbox.cif.g08.bks.cpg/sg49_14_cif.got.tgz:26048.got - 2010.06.03 21:02:19.
