data_PCOD9394335
_publ_section_title
;
Structure prediction by ZEFSAII (Michael W. Deem and Ramdas Pophale) SiO2 
 PCOD9394335
Probable space group: P C C M
;
_chemical_formula_sum "Si O2"
_cell_formula_units_Z 56
_cell_length_a 23.695570
_cell_length_b 8.070946
_cell_length_c 14.507363
_cell_angle_alpha 90.000000
_cell_angle_beta 90.000000
_cell_angle_gamma 90.000000
_cell_volume 2774.470298
_symmetry_space_group_name_H-M "P C C M"
_symmetry_group_IT_number 49
_symmetry_cell_setting 'orthorhombic'
loop_
_space_group_symop_operation_xyz
x,y,z
-x,-y,z
x,-y,1/2-z
-x,y,1/2-z
-x,-y,-z
x,y,-z
-x,y,1/2+z
x,-y,1/2+z
loop_
_atom_site_type_symbol
_atom_site_label
_atom_site_fract_x
_atom_site_fract_y
_atom_site_fract_z
Si Si1 0.925957 0.898073 0.389608
Si Si2 0.650737 0.314893 0.603573
Si Si3 0.966348 0.670961 0.104485
Si Si4 0.660034 0.713255 0.604637
Si Si5 0.252173 0.700841 0.740650
Si Si6 0.564137 0.197860 0.246803
Si Si7 0.124560 0.779399 0.279416
O O1 0.918369 0.904295 0.500000
O O2 0.888859 0.772906 0.329123
O O3 0.989068 0.821293 0.373621
O O4 0.903135 0.064678 0.337765
O O5 0.646457 0.251851 0.500000
O O6 0.657556 0.513410 0.601572
O O7 0.705506 0.253898 0.658165
O O8 0.597500 0.267855 0.665397
O O9 0.913250 0.644499 0.170121
O O10 0.000000 0.500000 0.105254
O O11 0.947112 0.703686 0.000000
O O12 0.662793 0.776130 0.500000
O O13 0.714568 0.758783 0.667105
O O14 0.602970 0.761137 0.658541
O O15 0.246664 0.500000 0.750000
O O16 0.191311 0.772715 0.716329
O O17 0.500000 0.261433 0.250000
O O18 0.562180 0.000000 0.250000
#
# Coordination Sequence:
#
# PCOD9394335 Si02
#       7
#     8   8   8   8   8   8   8
#     4  10  23  41  56  81 117 149 189 236 289 358
#     4   9  19  38  61  84 115 156 201 249 297 345
#     4  10  22  39  61  89 117 147 189 242 298 360
#     4   9  19  39  63  85 116 159 202 250 302 344
#     4   9  20  37  59  88 116 147 196 250 292 351
#     4  10  21  36  56  87 127 161 196 242 293 355
#     4  11  22  37  63  84 111 158 190 235 300 355
#
# _framework density 20.184031999999998
#
# number of rings (size 3 to 8) (size 9 to 14) (size 15 to 20)
#    0.000    2.286    0.000    2.571    2.000    6.857 
#   10.286    2.857    0.000    0.000    0.000    0.000 
#    0.000    0.000    0.000    0.000    0.000    0.000 
#
# Total GULP energy -311906.673044 kJ/mol
# GULP energy per Si atom -5569.762019 kJ/mol
# Density = 2.013809 g / cm^3
# Si number density = 20.184032 Si / 1000 Ang^3
#
#
#
# Elastic Constant Matrix: (Units=GPa)
#
#
# Indices 1 2 3 4 5 6 
#
# 1 203.1196 23.6462 107.1467 0.0000 0.0000 0.0000
# 2 23.6462 39.9219 24.8697 0.0000 0.0000 0.0000
# 3 107.1467 24.8697 176.3348 0.0000 0.0000 0.0000
# 4 0.0000 0.0000 0.0000 8.7412 0.0000 0.0000
# 5 0.0000 0.0000 0.0000 0.0000 2.9852 0.0000
# 6 0.0000 0.0000 0.0000 0.0000 0.0000 12.0701
#
#
#
# Elastic Compliance Matrix: (Units=1/GPa)
#
#
# Indices 1 2 3 4 5 6 
#
# 1 0.007352 -0.001723 -0.004224 0.000000 0.000000 0.000000
# 2 -0.001723 0.027866 -0.002883 0.000000 0.000000 0.000000
# 3 -0.004224 -0.002883 0.008645 0.000000 0.000000 0.000000
# 4 0.000000 0.000000 0.000000 0.114401 0.000000 0.000000
# 5 0.000000 0.000000 0.000000 0.000000 0.334991 0.000000
# 6 0.000000 0.000000 0.000000 0.000000 0.000000 0.082850
#
#
# Mechanical properties :
#
#
# Convention : Reuss Voigt Hill
#
# Bulk Modulus (GPa) = 38.16635 81.18904 59.67769
# Shear Modulus (GPa) = 8.29878 22.34020 15.31949
#
# Velocity S-wave (km/s) = 2.02990 3.33051 2.75797
# Velocity P-wave (km/s) = 4.94411 7.42303 6.30657
#
# Compressibility (1/GPa) = 0.02620109
#
# Stress axis : x y z
#
# Youngs Moduli (GPa) = 136.01353 35.88664 115.68014
#
# Poissons Ratio (x) = 0.06184 0.48868
# Poissons Ratio (y) = 0.23437 0.33351
# Poissons Ratio (z) = 0.57458 0.10346
#
# Static dielectric constant tensor:
#      x y z
#    x 1.714620 0.000000 0.000000 
#    y 0.000000 1.921680 0.000000 
#    z 0.000000 0.000000 1.742440 
# 
# From -- ./inp_files/14362.got.cif
#   From: 2010.05.17/outbox.cif.g08.bks.cpg/sg49_8_cif.got.tgz:14362.got - 2010.06.03 21:02:19.
