data_PCOD9394636
_publ_section_title
;
Structure prediction by ZEFSAII (Michael W. Deem and Ramdas Pophale) SiO2 
 PCOD9394636
Probable space group: P C C M
;
_chemical_formula_sum "Si O2"
_cell_formula_units_Z 38
_cell_length_a 6.116783
_cell_length_b 14.960377
_cell_length_c 19.410615
_cell_angle_alpha 90.000000
_cell_angle_beta 90.000000
_cell_angle_gamma 90.000000
_cell_volume 1776.253338
_symmetry_space_group_name_H-M "P C C M"
_symmetry_group_IT_number 49
_symmetry_cell_setting 'orthorhombic'
loop_
_space_group_symop_operation_xyz
x,y,z
-x,-y,z
x,-y,1/2-z
-x,y,1/2-z
-x,-y,-z
x,y,-z
-x,y,1/2+z
x,-y,1/2+z
loop_
_atom_site_type_symbol
_atom_site_label
_atom_site_fract_x
_atom_site_fract_y
_atom_site_fract_z
Si Si1 0.147511 0.863029 0.857914
Si Si2 0.255410 0.953359 0.000000
Si Si3 0.138151 0.410203 0.425069
Si Si4 0.796003 0.753694 0.078165
Si Si5 0.412253 0.687807 0.825528
Si Si6 0.000000 0.000000 0.250000
O O1 0.256373 0.774776 0.826026
O O2 0.902276 0.835774 0.880817
O O3 0.142111 0.938610 0.800538
O O4 0.253276 0.895454 0.929596
O O5 0.500000 0.000000 0.000000
O O6 0.000000 0.000000 0.000000
O O7 0.254615 0.410834 0.500000
O O8 0.291117 0.395562 0.360093
O O9 0.000000 0.500000 0.420085
O O10 0.978603 0.324294 0.425889
O O11 0.600115 0.714288 0.121244
O O12 0.737911 0.778959 0.000000
O O13 0.500000 0.670141 0.750000
#
# Coordination Sequence:
#
# PCOD9394636 Si02
#       6
#     8   4   8   8   8   2
#     4  11  25  42  66  95 134 182 234 298 363 438
#     4  12  28  46  70 106 141 186 253 318 370 440
#     4   9  20  41  67  98 132 173 227 285 344 418
#     4  10  21  40  68  94 128 173 229 282 346 418
#     4  11  24  40  64  98 135 180 225 286 360 442
#     4  12  24  46  66  92 140 178 230 292 378 430
#
# _framework density 21.393343999999999
#
# number of rings (size 3 to 8) (size 9 to 14) (size 15 to 20)
#    0.000    1.474    2.105    1.895    5.895    5.053 
#    0.000    7.368    0.000    0.000    0.000    0.000 
#    0.000    0.000    0.000    0.000    0.000    0.000 
#
# Total GULP energy -212211.162035 kJ/mol
# GULP energy per Si atom -5584.504264 kJ/mol
# Density = 2.134465 g / cm^3
# Si number density = 21.393344 Si / 1000 Ang^3
#
#
#
# Elastic Constant Matrix: (Units=GPa)
#
#
# Indices 1 2 3 4 5 6 
#
# 1 53.8936 7.3695 42.3646 0.0000 0.0000 0.0000
# 2 7.3695 71.9579 57.2009 0.0000 0.0000 0.0000
# 3 42.3646 57.2009 190.3174 0.0000 0.0000 0.0000
# 4 0.0000 0.0000 0.0000 -38.2649 0.0000 0.0000
# 5 0.0000 0.0000 0.0000 0.0000 23.9039 0.0000
# 6 0.0000 0.0000 0.0000 0.0000 0.0000 22.4067
#
#
#
# Elastic Compliance Matrix: (Units=1/GPa)
#
#
# Indices 1 2 3 4 5 6 
#
# 1 0.022759 0.002229 -0.005736 0.000000 0.000000 0.000000
# 2 0.002229 0.018478 -0.006050 0.000000 0.000000 0.000000
# 3 -0.005736 -0.006050 0.008350 0.000000 0.000000 0.000000
# 4 0.000000 0.000000 0.000000 -0.026134 0.000000 0.000000
# 5 0.000000 0.000000 0.000000 0.000000 0.041834 0.000000
# 6 0.000000 0.000000 0.000000 0.000000 0.000000 0.044629
#
#
# Mechanical properties :
#
#
# Convention : Reuss Voigt Hill
#
# Bulk Modulus (GPa) = 32.81625 58.89323 45.85474
# Shear Modulus (GPa) = 35.92256 15.55807 25.74031
#
# Velocity S-wave (km/s) = 4.10218 2.69966 3.47247
# Velocity P-wave (km/s) = 6.14898 6.10787 6.12846
#
# Compressibility (1/GPa) = 0.03047271
#
# Stress axis : x y z
#
# Youngs Moduli (GPa) = 43.93802 54.11892 119.76725
#
# Poissons Ratio (x) = -0.12063 0.68700
# Poissons Ratio (y) = -0.09793 0.72456
# Poissons Ratio (z) = 0.25203 0.32741
#
# Static dielectric constant tensor:
#      x y z
#    x 1.794730 0.000000 0.000000 
#    y 0.000000 1.797960 0.000000 
#    z 0.000000 0.000000 1.735520 
# 
# From -- ./inp_files/15301.got.cif
#   From: 2010.05.17/outbox.cif.g08.bks.cpg/sg49_8_cif.got.tgz:15301.got - 2010.06.03 21:02:19.
