data_PCOD9394559
_publ_section_title
;
Structure prediction by ZEFSAII (Michael W. Deem and Ramdas Pophale) SiO2 
 PCOD9394559
Probable space group: P C C M
;
_chemical_formula_sum "Si O2"
_cell_formula_units_Z 54
_cell_length_a 5.067558
_cell_length_b 19.154568
_cell_length_c 26.321051
_cell_angle_alpha 90.000000
_cell_angle_beta 90.000000
_cell_angle_gamma 90.000000
_cell_volume 2554.902412
_symmetry_space_group_name_H-M "P C C M"
_symmetry_group_IT_number 49
_symmetry_cell_setting 'orthorhombic'
loop_
_space_group_symop_operation_xyz
x,y,z
-x,-y,z
x,-y,1/2-z
-x,y,1/2-z
-x,-y,-z
x,y,-z
-x,y,1/2+z
x,-y,1/2+z
loop_
_atom_site_type_symbol
_atom_site_label
_atom_site_fract_x
_atom_site_fract_y
_atom_site_fract_z
Si Si1 0.739493 0.179186 0.394260
Si Si2 0.040849 0.668691 0.590758
Si Si3 0.500000 0.000000 0.000000
Si Si4 0.834726 0.619823 0.801544
Si Si5 0.265720 0.771880 0.717469
Si Si6 0.568084 0.403660 0.057015
Si Si7 0.500000 0.500000 0.144932
Si Si8 0.773204 0.122462 0.943878
O O1 0.840459 0.254501 0.413250
O O2 0.766432 0.186025 0.334063
O O3 0.442775 0.163080 0.410816
O O4 0.941030 0.124093 0.418640
O O5 0.998554 0.646450 0.649766
O O6 0.267309 0.617918 0.568367
O O7 0.765118 0.661057 0.562787
O O8 0.343092 0.953379 0.043331
O O9 0.663222 0.690399 0.794362
O O10 0.669094 0.552611 0.820119
O O11 0.000000 0.606059 0.750000
O O12 0.500000 0.802912 0.750000
O O13 0.000000 0.769418 0.750000
O O14 0.657913 0.454511 0.102880
O O15 0.596968 0.430634 0.000000
O O16 0.796498 0.156420 0.000000
#
# Coordination Sequence:
#
# PCOD9394559 Si02
#       8
#     8   8   2   8   8   8   4   8
#     4  11  21  37  62  93 121 167 210 252 306 359
#     4  10  23  39  59  88 118 145 204 255 307 372
#     4   8  24  42  60  98 146 174 208 236 292 350
#     4   9  21  41  60  80 114 154 193 258 327 374
#     4  10  21  39  62  88 122 157 202 263 323 375
#     4  11  23  41  60  80 113 156 194 259 319 366
#     4  10  23  42  61  84 108 148 214 252 300 410
#     4  10  22  37  61  92 135 169 206 244 283 359
#
# _framework density 21.135836999999999
#
# number of rings (size 3 to 8) (size 9 to 14) (size 15 to 20)
#    0.444    1.481    0.000    2.889    0.000   16.593 
#    0.000   12.963    0.000    0.000    0.000    7.778 
#    0.000    0.000    0.000    0.000    0.000    0.000 
#
# Total GULP energy -300849.799370 kJ/mol
# GULP energy per Si atom -5571.292581 kJ/mol
# Density = 2.108773 g / cm^3
# Si number density = 21.135837 Si / 1000 Ang^3
#
#
#
# Elastic Constant Matrix: (Units=GPa)
#
#
# Indices 1 2 3 4 5 6 
#
# 1 65.0895 -4.6558 23.3819 0.0000 0.0000 0.0000
# 2 -4.6558 31.6909 9.4706 0.0000 0.0000 0.0000
# 3 23.3819 9.4706 111.9082 0.0000 0.0000 0.0000
# 4 0.0000 0.0000 0.0000 -5.5818 0.0000 0.0000
# 5 0.0000 0.0000 0.0000 0.0000 45.8451 0.0000
# 6 0.0000 0.0000 0.0000 0.0000 0.0000 27.8907
#
#
#
# Elastic Compliance Matrix: (Units=1/GPa)
#
#
# Indices 1 2 3 4 5 6 
#
# 1 0.017013 0.003654 -0.003864 0.000000 0.000000 0.000000
# 2 0.003654 0.033158 -0.003570 0.000000 0.000000 0.000000
# 3 -0.003864 -0.003570 0.010045 0.000000 0.000000 0.000000
# 4 0.000000 0.000000 0.000000 -0.179154 0.000000 0.000000
# 5 0.000000 0.000000 0.000000 0.000000 0.021813 0.000000
# 6 0.000000 0.000000 0.000000 0.000000 0.000000 0.035854
#
#
# Mechanical properties :
#
#
# Convention : Reuss Voigt Hill
#
# Bulk Modulus (GPa) = 18.99056 29.45355 24.22205
# Shear Modulus (GPa) = -138.27857 25.66360 -56.30748
#
# Velocity S-wave (km/s) = -8.09727 3.48835 -5.16707
# Velocity P-wave (km/s) = 8.85531 5.49458 4.91051
#
# Compressibility (1/GPa) = 0.05265774
#
# Stress axis : x y z
#
# Youngs Moduli (GPa) = 58.77919 30.15826 99.54906
#
# Poissons Ratio (x) = -0.11020 0.38464
# Poissons Ratio (y) = -0.21478 0.35535
# Poissons Ratio (z) = 0.22711 0.10765
#
# Static dielectric constant tensor:
#      x y z
#    x 1.779470 0.000000 0.000000 
#    y 0.000000 1.815830 0.000000 
#    z 0.000000 0.000000 1.763460 
# 
# From -- ./inp_files/21902.got.cif
#   From: 2010.05.17/outbox.cif.g08.bks.cpg/sg49_11_cif.got.tgz:21902.got - 2010.06.03 21:02:19.
