data_PCOD9394986
_publ_section_title
;
Structure prediction by ZEFSAII (Michael W. Deem and Ramdas Pophale) SiO2 
 PCOD9394986
Probable space group: P C C M
;
_chemical_formula_sum "Si O2"
_cell_formula_units_Z 48
_cell_length_a 7.689490
_cell_length_b 33.710105
_cell_length_c 8.593516
_cell_angle_alpha 90.000000
_cell_angle_beta 90.000000
_cell_angle_gamma 90.000000
_cell_volume 2227.555491
_symmetry_space_group_name_H-M "P C C M"
_symmetry_group_IT_number 49
_symmetry_cell_setting 'orthorhombic'
loop_
_space_group_symop_operation_xyz
x,y,z
-x,-y,z
x,-y,1/2-z
-x,y,1/2-z
-x,-y,-z
x,y,-z
-x,y,1/2+z
x,-y,1/2+z
loop_
_atom_site_type_symbol
_atom_site_label
_atom_site_fract_x
_atom_site_fract_y
_atom_site_fract_z
Si Si1 0.694650 0.040239 0.685501
Si Si2 0.801236 0.540595 0.313606
Si Si3 0.806587 0.874789 0.685405
Si Si4 0.800827 0.794117 0.186949
Si Si5 0.198580 0.707809 0.686174
Si Si6 0.198765 0.626674 0.186394
O O1 0.500000 0.038552 0.750000
O O2 0.699821 0.039124 0.500000
O O3 0.754045 0.082904 0.745639
O O4 0.783799 0.000000 0.750000
O O5 0.719593 0.500000 0.250000
O O6 0.806786 0.538435 0.500000
O O7 0.724516 0.583634 0.268186
O O8 0.000000 0.541106 0.250000
O O9 0.799581 0.876492 0.500000
O O10 0.717095 0.834028 0.743017
O O11 0.000000 0.870312 0.750000
O O12 0.723561 0.750908 0.229132
O O13 0.000000 0.792009 0.250000
O O14 0.805468 0.797860 0.000000
O O15 0.191979 0.705591 0.500000
O O16 0.280544 0.667266 0.750011
O O17 0.000000 0.708166 0.750000
O O18 0.000000 0.626115 0.250000
O O19 0.193240 0.628852 0.000000
#
# Coordination Sequence:
#
# PCOD9394986 Si02
#       6
#     8   8   8   8   8   8
#     4  11  22  39  59  80 104 132 164 198 235 279
#     4   9  15  20  25  32  42  60  87 125 172 224
#     4  11  21  34  52  76 102 131 163 198 239 282
#     4   9  16  26  39  58  82 109 138 172 213 260
#     4   9  15  21  31  45  63  87 116 148 189 239
#     4   9  15  20  26  36  50  69  98 134 177 228
#
# _framework density 21.548283000000001
#
# number of rings (size 3 to 8) (size 9 to 14) (size 15 to 20)
#    0.000    2.333    0.000    8.000    0.000    4.333 
#    0.000    1.667    0.000    0.000    0.000    0.000 
#    0.000    0.000    0.000    0.000    0.000    0.000 
#
# Total GULP energy -267464.800642 kJ/mol
# GULP energy per Si atom -5572.183347 kJ/mol
# Density = 2.149924 g / cm^3
# Si number density = 21.548283 Si / 1000 Ang^3
#
#
#
# Elastic Constant Matrix: (Units=GPa)
#
#
# Indices 1 2 3 4 5 6 
#
# 1 29.4595 21.7901 1.7694 0.0000 0.0000 0.0000
# 2 21.7901 315.5676 96.7978 0.0000 0.0000 0.0000
# 3 1.7694 96.7978 140.2580 0.0000 0.0000 0.0000
# 4 0.0000 0.0000 0.0000 42.7226 0.0000 0.0000
# 5 0.0000 0.0000 0.0000 0.0000 4.1207 0.0000
# 6 0.0000 0.0000 0.0000 0.0000 0.0000 102.8841
#
#
#
# Elastic Compliance Matrix: (Units=1/GPa)
#
#
# Indices 1 2 3 4 5 6 
#
# 1 0.036054 -0.002981 0.001603 0.000000 0.000000 0.000000
# 2 -0.002981 0.004266 -0.002907 0.000000 0.000000 0.000000
# 3 0.001603 -0.002907 0.009116 0.000000 0.000000 0.000000
# 4 0.000000 0.000000 0.000000 0.023407 0.000000 0.000000
# 5 0.000000 0.000000 0.000000 0.000000 0.242678 0.000000
# 6 0.000000 0.000000 0.000000 0.000000 0.000000 0.009720
#
#
# Mechanical properties :
#
#
# Convention : Reuss Voigt Hill
#
# Bulk Modulus (GPa) = 24.47087 80.66661 52.56874
# Shear Modulus (GPa) = 14.39129 54.27402 34.33266
#
# Velocity S-wave (km/s) = 2.58711 5.02413 3.99593
# Velocity P-wave (km/s) = 4.50612 8.43637 6.76304
#
# Compressibility (1/GPa) = 0.04086491
#
# Stress axis : x y z
#
# Youngs Moduli (GPa) = 27.73648 234.39117 109.70208
#
# Poissons Ratio (x) = 0.69874 -0.17580
# Poissons Ratio (y) = 0.08268 0.31888
# Poissons Ratio (z) = -0.04445 0.68133
#
# Static dielectric constant tensor:
#      x y z
#    x 1.081780 0.000000 0.000000 
#    y 0.000000 1.986400 0.000000 
#    z 0.000000 0.000000 1.714530 
# 
# From -- ./inp_files/3041.got.cif
#   From: 2010.05.17/outbox.cif.g08.bks.cpg/sg49_2_cif.got.tgz:3041.got - 2010.06.03 21:02:19.
