data_PCOD9394953
_publ_section_title
;
Structure prediction by ZEFSAII (Michael W. Deem and Ramdas Pophale) SiO2 
 PCOD9394953
Probable space group: P C C M
;
_chemical_formula_sum "Si O2"
_cell_formula_units_Z 42
_cell_length_a 11.915830
_cell_length_b 10.855979
_cell_length_c 17.686939
_cell_angle_alpha 90.000000
_cell_angle_beta 90.000000
_cell_angle_gamma 90.000000
_cell_volume 2287.947060
_symmetry_space_group_name_H-M "P C C M"
_symmetry_group_IT_number 49
_symmetry_cell_setting 'orthorhombic'
loop_
_space_group_symop_operation_xyz
x,y,z
-x,-y,z
x,-y,1/2-z
-x,y,1/2-z
-x,-y,-z
x,y,-z
-x,y,1/2+z
x,-y,1/2+z
loop_
_atom_site_type_symbol
_atom_site_label
_atom_site_fract_x
_atom_site_fract_y
_atom_site_fract_z
Si Si1 0.966488 0.633727 0.159770
Si Si2 0.554550 0.832634 0.830820
Si Si3 0.352523 0.061261 0.586161
Si Si4 0.850881 0.811746 0.654571
Si Si5 0.270172 0.358792 0.779553
Si Si6 0.000000 0.000000 0.750000
O O1 0.833398 0.647481 0.161372
O O2 0.000000 0.500000 0.132393
O O3 0.000000 0.639729 0.250000
O O4 0.047891 0.730848 0.121094
O O5 0.500000 0.861299 0.750000
O O6 0.451004 0.843717 0.889128
O O7 0.622358 0.706393 0.817298
O O8 0.635367 0.942740 0.859008
O O9 0.368538 0.022763 0.500000
O O10 0.233482 0.124403 0.597717
O O11 0.773355 0.726311 0.709647
O O12 0.917352 0.913755 0.702322
O O13 0.284425 0.500000 0.750000
#
# Coordination Sequence:
#
# PCOD9394953 Si02
#       6
#     8   8   8   8   8   2
#     4   9  15  31  52  83 117 150 177 226 306 357
#     4  11  22  37  61  90 112 147 207 255 298 346
#     4  11  24  42  59  80 123 169 196 240 302 362
#     4  11  20  32  56  90 120 151 190 244 298 359
#     4  11  19  34  58  93 124 145 190 256 305 344
#     4  12  20  28  60  98 124 144 190 266 302 340
#
# _framework density 18.357068999999999
#
# number of rings (size 3 to 8) (size 9 to 14) (size 15 to 20)
#    0.000    1.333    8.571    3.429    0.000    0.381 
#    0.000    0.476    0.000    4.000    0.000    0.000 
#    0.000    0.000    0.000    0.000    0.000    0.000 
#
# Total GULP energy -234004.446445 kJ/mol
# GULP energy per Si atom -5571.534439 kJ/mol
# Density = 1.831529 g / cm^3
# Si number density = 18.357069 Si / 1000 Ang^3
#
#
#
# Elastic Constant Matrix: (Units=GPa)
#
#
# Indices 1 2 3 4 5 6 
#
# 1 96.3689 64.9673 22.0107 0.0000 0.0000 0.0000
# 2 64.9673 121.5692 27.0292 0.0000 0.0000 0.0000
# 3 22.0107 27.0292 51.8708 0.0000 0.0000 0.0000
# 4 0.0000 0.0000 0.0000 2.8270 0.0000 0.0000
# 5 0.0000 0.0000 0.0000 0.0000 8.5255 0.0000
# 6 0.0000 0.0000 0.0000 0.0000 0.0000 38.5970
#
#
#
# Elastic Compliance Matrix: (Units=1/GPa)
#
#
# Indices 1 2 3 4 5 6 
#
# 1 0.016556 -0.008240 -0.002731 0.000000 0.000000 0.000000
# 2 -0.008240 0.013405 -0.003489 0.000000 0.000000 0.000000
# 3 -0.002731 -0.003489 0.022256 0.000000 0.000000 0.000000
# 4 0.000000 0.000000 0.000000 0.353730 0.000000 0.000000
# 5 0.000000 0.000000 0.000000 0.000000 0.117296 0.000000
# 6 0.000000 0.000000 0.000000 0.000000 0.000000 0.025909
#
#
# Mechanical properties :
#
#
# Convention : Reuss Voigt Hill
#
# Bulk Modulus (GPa) = 42.92571 55.31370 49.11970
# Shear Modulus (GPa) = 8.53481 20.37669 14.45575
#
# Velocity S-wave (km/s) = 2.15857 3.33531 2.80924
# Velocity P-wave (km/s) = 5.44491 6.71043 6.11052
#
# Compressibility (1/GPa) = 0.02329606
#
# Stress axis : x y z
#
# Youngs Moduli (GPa) = 60.40178 74.59891 44.93265
#
# Poissons Ratio (x) = 0.61471 0.12273
# Poissons Ratio (y) = 0.49772 0.15675
# Poissons Ratio (z) = 0.16498 0.26024
#
# Static dielectric constant tensor:
#      x y z
#    x 1.687150 0.000000 0.000000 
#    y 0.000000 1.713230 0.000000 
#    z 0.000000 0.000000 1.620230 
# 
# From -- ./inp_files/16976.got.cif
#   From: 2010.05.17/outbox.cif.g08.bks.cpg/sg49_9_cif.got.tgz:16976.got - 2010.06.03 21:02:19.
