data_PCOD9394023
_publ_section_title
;
Structure prediction by ZEFSAII (Michael W. Deem and Ramdas Pophale) SiO2 
 PCOD9394023
Probable space group: P C C M
;
_chemical_formula_sum "Si O2"
_cell_formula_units_Z 26
_cell_length_a 9.954105
_cell_length_b 7.231105
_cell_length_c 18.938446
_cell_angle_alpha 90.000000
_cell_angle_beta 90.000000
_cell_angle_gamma 90.000000
_cell_volume 1363.173784
_symmetry_space_group_name_H-M "P C C M"
_symmetry_group_IT_number 49
_symmetry_cell_setting 'orthorhombic'
loop_
_space_group_symop_operation_xyz
x,y,z
-x,-y,z
x,-y,1/2-z
-x,y,1/2-z
-x,-y,-z
x,y,-z
-x,y,1/2+z
x,-y,1/2+z
loop_
_atom_site_type_symbol
_atom_site_label
_atom_site_fract_x
_atom_site_fract_y
_atom_site_fract_z
Si Si1 0.876663 0.753940 0.369119
Si Si2 0.350511 0.971758 0.415845
Si Si3 0.000000 0.000000 0.750000
Si Si4 0.838393 0.352620 0.417022
O O1 0.843833 0.536145 0.369705
O O2 0.910664 0.863317 0.297721
O O3 0.018967 0.754022 0.411053
O O4 0.751592 0.860643 0.402557
O O5 0.362119 0.950044 0.500000
O O6 0.276636 0.785453 0.391463
O O7 0.500000 0.000000 0.386573
O O8 0.820294 0.403784 0.500000
#
# Coordination Sequence:
#
# PCOD9394023 Si02
#       4
#     8   8   2   8
#     4  11  21  38  56  87 117 156 204 248 290 351
#     4  10  20  36  60  91 125 154 187 243 308 363
#     4  12  24  38  60  84 114 172 206 256 288 340
#     4  10  20  36  63  92 117 151 194 255 313 351
#
# _framework density 19.073138
#
# number of rings (size 3 to 8) (size 9 to 14) (size 15 to 20)
#    0.000    1.538    3.077    3.692    0.000    6.154 
#    0.000    5.385    0.000    0.000   16.000    0.000 
#    0.000    0.000    0.000    0.000    0.000    0.000 
#
# Total GULP energy -144961.924790 kJ/mol
# GULP energy per Si atom -5575.458646 kJ/mol
# Density = 1.902973 g / cm^3
# Si number density = 19.073138 Si / 1000 Ang^3
#
#
#
# Elastic Constant Matrix: (Units=GPa)
#
#
# Indices 1 2 3 4 5 6 
#
# 1 149.6676 89.4822 12.3205 0.0000 0.0000 0.0000
# 2 89.4822 147.3132 35.3948 0.0000 0.0000 0.0000
# 3 12.3205 35.3948 30.4154 0.0000 0.0000 0.0000
# 4 0.0000 0.0000 0.0000 99.4336 0.0000 0.0000
# 5 0.0000 0.0000 0.0000 0.0000 -2.3300 0.0000
# 6 0.0000 0.0000 0.0000 0.0000 0.0000 10.6077
#
#
#
# Elastic Compliance Matrix: (Units=1/GPa)
#
#
# Indices 1 2 3 4 5 6 
#
# 1 0.010933 -0.007741 0.004580 0.000000 0.000000 0.000000
# 2 -0.007741 0.014904 -0.014209 0.000000 0.000000 0.000000
# 3 0.004580 -0.014209 0.047558 0.000000 0.000000 0.000000
# 4 0.000000 0.000000 0.000000 0.010057 0.000000 0.000000
# 5 0.000000 0.000000 0.000000 0.000000 -0.429180 0.000000
# 6 0.000000 0.000000 0.000000 0.000000 0.000000 0.094271
#
#
# Mechanical properties :
#
#
# Convention : Reuss Voigt Hill
#
# Bulk Modulus (GPa) = 25.86983 66.86568 46.36776
# Shear Modulus (GPa) = -24.52994 34.22217 4.84612
#
# Velocity S-wave (km/s) = -3.59011 4.24047 1.59572
# Velocity P-wave (km/s) = 1.89533 7.68824 5.26862
#
# Compressibility (1/GPa) = 0.03865506
#
# Stress axis : x y z
#
# Youngs Moduli (GPa) = 91.46799 67.09383 21.02708
#
# Poissons Ratio (x) = 0.51940 -0.09631
# Poissons Ratio (y) = 0.70809 0.29877
# Poissons Ratio (z) = -0.41894 0.95332
#
# Static dielectric constant tensor:
#      x y z
#    x 1.690390 0.000000 0.000000 
#    y 0.000000 1.676210 0.000000 
#    z 0.000000 0.000000 1.677400 
# 
# From -- ./inp_files/15724.got.cif
#   From: 2010.05.17/outbox.cif.g08.bks.cpg/sg49_8_cif.got.tgz:15724.got - 2010.06.03 21:02:19.
