data_PCOD9394043
_publ_section_title
;
Structure prediction by ZEFSAII (Michael W. Deem and Ramdas Pophale) SiO2 
 PCOD9394043
Probable space group: P C C M
;
_chemical_formula_sum "Si O2"
_cell_formula_units_Z 64
_cell_length_a 16.842407
_cell_length_b 9.472328
_cell_length_c 19.978111
_cell_angle_alpha 90.000000
_cell_angle_beta 90.000000
_cell_angle_gamma 90.000000
_cell_volume 3187.243967
_symmetry_space_group_name_H-M "P C C M"
_symmetry_group_IT_number 49
_symmetry_cell_setting 'orthorhombic'
loop_
_space_group_symop_operation_xyz
x,y,z
-x,-y,z
x,-y,1/2-z
-x,y,1/2-z
-x,-y,-z
x,y,-z
-x,y,1/2+z
x,-y,1/2+z
loop_
_atom_site_type_symbol
_atom_site_label
_atom_site_fract_x
_atom_site_fract_y
_atom_site_fract_z
Si Si1 0.275772 0.640813 0.715412
Si Si2 0.892049 0.249043 0.426529
Si Si3 0.797762 0.248568 0.158407
Si Si4 0.980861 0.665805 0.672776
Si Si5 0.542897 0.347936 0.311196
Si Si6 0.567755 0.880986 0.920692
Si Si7 0.251583 0.026129 0.078618
Si Si8 0.231415 0.525731 0.423062
O O1 0.240131 0.500000 0.750000
O O2 0.237268 0.753573 0.765505
O O3 0.369603 0.637265 0.718926
O O4 0.264679 0.625695 0.636007
O O5 0.925656 0.218968 0.500000
O O6 0.816855 0.145630 0.416962
O O7 0.856812 0.408780 0.427221
O O8 0.958963 0.242668 0.371340
O O9 0.890329 0.289610 0.160646
O O10 0.761271 0.371558 0.109926
O O11 0.777500 0.102441 0.123508
O O12 0.000000 0.500000 0.659667
O O13 0.000000 0.688948 0.750000
O O14 0.500000 0.500000 0.321835
O O15 0.500000 0.270019 0.250000
O O16 0.545608 0.255556 0.377469
O O17 0.658194 0.928115 0.902710
O O18 0.500000 0.000000 0.909007
O O19 0.568285 0.850169 0.000000
O O20 0.255610 0.985678 0.000000
O O21 0.262836 0.533996 0.500000
#
# Coordination Sequence:
#
# PCOD9394043 Si02
#       8
#     8   8   8   8   8   8   8   8
#     4  10  21  38  60  90 132 164 206 271 323 377
#     4  10  21  39  63  93 131 168 214 276 334 387
#     4  11  23  39  66  94 128 177 224 271 331 399
#     4  11  23  40  63  94 132 172 221 279 335 392
#     4  11  23  42  66  98 133 168 217 274 329 394
#     4  10  24  45  69  98 136 175 220 276 334 402
#     4  10  23  44  66  95 136 176 217 273 336 399
#     4  10  20  36  62  92 121 166 220 265 323 394
#
# _framework density 20.080044999999998
#
# number of rings (size 3 to 8) (size 9 to 14) (size 15 to 20)
#    0.000    1.625    2.500    1.875    5.250    3.750 
#    0.000    8.125    0.000    0.000    0.000    0.000 
#    0.000    0.000    0.000    0.000    0.000    0.000 
#
# Total GULP energy -356531.807243 kJ/mol
# GULP energy per Si atom -5570.809488 kJ/mol
# Density = 2.003434 g / cm^3
# Si number density = 20.080045 Si / 1000 Ang^3
#
#
#
# Elastic Constant Matrix: (Units=GPa)
#
#
# Indices 1 2 3 4 5 6 
#
# 1 123.9715 32.5573 74.4916 0.0000 0.0000 0.0000
# 2 32.5573 79.9099 59.7038 0.0000 0.0000 0.0000
# 3 74.4916 59.7038 129.8464 0.0000 0.0000 0.0000
# 4 0.0000 0.0000 0.0000 32.5575 0.0000 0.0000
# 5 0.0000 0.0000 0.0000 0.0000 21.9588 0.0000
# 6 0.0000 0.0000 0.0000 0.0000 0.0000 14.7418
#
#
#
# Elastic Compliance Matrix: (Units=1/GPa)
#
#
# Indices 1 2 3 4 5 6 
#
# 1 0.012318 0.000398 -0.007250 0.000000 0.000000 0.000000
# 2 0.000398 0.019076 -0.008999 0.000000 0.000000 0.000000
# 3 -0.007250 -0.008999 0.015998 0.000000 0.000000 0.000000
# 4 0.000000 0.000000 0.000000 0.030715 0.000000 0.000000
# 5 0.000000 0.000000 0.000000 0.000000 0.045540 0.000000
# 6 0.000000 0.000000 0.000000 0.000000 0.000000 0.067834
#
#
# Mechanical properties :
#
#
# Convention : Reuss Voigt Hill
#
# Bulk Modulus (GPa) = 63.73543 74.13703 68.93623
# Shear Modulus (GPa) = 21.89014 24.98330 23.43672
#
# Velocity S-wave (km/s) = 3.30531 3.53113 3.42009
# Velocity P-wave (km/s) = 6.81002 7.32298 7.07115
#
# Compressibility (1/GPa) = 0.01568986
#
# Stress axis : x y z
#
# Youngs Moduli (GPa) = 81.18166 52.42254 62.50624
#
# Poissons Ratio (x) = -0.02085 0.45315
# Poissons Ratio (y) = -0.03230 0.56251
# Poissons Ratio (z) = 0.58854 0.47177
#
# Static dielectric constant tensor:
#      x y z
#    x 1.757640 0.000000 0.000000 
#    y 0.000000 1.739230 0.000000 
#    z 0.000000 0.000000 1.846390 
# 
# From -- ./inp_files/21053.got.cif
#   From: 2010.05.17/outbox.cif.g08.bks.cpg/sg49_11_cif.got.tgz:21053.got - 2010.06.03 21:02:19.
