data_PCOD9394273
_publ_section_title
;
Structure prediction by ZEFSAII (Michael W. Deem and Ramdas Pophale) SiO2 
 PCOD9394273
Probable space group: P C C M
;
_chemical_formula_sum "Si O2"
_cell_formula_units_Z 56
_cell_length_a 5.674781
_cell_length_b 26.329075
_cell_length_c 19.772377
_cell_angle_alpha 90.000000
_cell_angle_beta 90.000000
_cell_angle_gamma 90.000000
_cell_volume 2954.225144
_symmetry_space_group_name_H-M "P C C M"
_symmetry_group_IT_number 49
_symmetry_cell_setting 'orthorhombic'
loop_
_space_group_symop_operation_xyz
x,y,z
-x,-y,z
x,-y,1/2-z
-x,y,1/2-z
-x,-y,-z
x,y,-z
-x,y,1/2+z
x,-y,1/2+z
loop_
_atom_site_type_symbol
_atom_site_label
_atom_site_fract_x
_atom_site_fract_y
_atom_site_fract_z
Si Si1 0.047048 0.940540 0.918421
Si Si2 0.551964 0.896676 0.080204
Si Si3 0.680592 0.687548 0.076520
Si Si4 0.755062 0.519419 0.328553
Si Si5 0.618272 0.369159 0.177864
Si Si6 0.356703 0.212564 0.573900
Si Si7 0.073745 0.731721 0.175678
O O1 0.808534 0.912869 0.892525
O O2 0.306278 0.922026 0.893571
O O3 0.055544 0.932331 0.000000
O O4 0.000000 0.000000 0.906615
O O5 0.517782 0.836195 0.085292
O O6 0.558973 0.909922 0.000000
O O7 0.556575 0.641072 0.115249
O O8 0.500561 0.734938 0.071205
O O9 0.878140 0.708061 0.126775
O O10 0.760841 0.675841 0.000000
O O11 0.500000 0.500000 0.355356
O O12 0.755564 0.500000 0.250000
O O13 0.765925 0.580268 0.333843
O O14 0.000000 0.500000 0.359518
O O15 0.500000 0.378967 0.250000
O O16 0.752378 0.315996 0.186186
O O17 0.238856 0.205533 0.500000
O O18 0.180621 0.221337 0.634915
O O19 0.000000 0.747727 0.250000
#
# Coordination Sequence:
#
# PCOD9394273 Si02
#       7
#     8   8   8   8   8   8   8
#     4   9  16  26  42  69 103 142 189 235 283 338
#     4   9  17  28  46  68 100 149 189 229 284 347
#     4  10  22  38  58  82 116 156 194 241 294 358
#     4  10  21  33  57  89 118 147 188 246 294 336
#     4  11  21  37  58  88 116 150 193 245 293 349
#     4   9  20  35  50  76 112 152 197 235 291 360
#     4  11  22  33  58  82 111 149 194 247 293 348
#
# _framework density 18.955901000000001
#
# number of rings (size 3 to 8) (size 9 to 14) (size 15 to 20)
#    0.000    2.143    2.857    0.857    6.000    2.286 
#    0.000    0.000    0.000    0.857    0.000    0.000 
#    0.000    0.571    0.857    0.000    0.286    0.000 
#
# Total GULP energy -311810.332021 kJ/mol
# GULP energy per Si atom -5568.041643 kJ/mol
# Density = 1.891276 g / cm^3
# Si number density = 18.955901 Si / 1000 Ang^3
#
#
#
# Elastic Constant Matrix: (Units=GPa)
#
#
# Indices 1 2 3 4 5 6 
#
# 1 85.8280 21.9319 27.6254 0.0000 0.0000 0.0000
# 2 21.9319 51.5267 11.2818 0.0000 0.0000 0.0000
# 3 27.6254 11.2818 75.8193 0.0000 0.0000 0.0000
# 4 0.0000 0.0000 0.0000 9.1576 0.0000 0.0000
# 5 0.0000 0.0000 0.0000 0.0000 12.3306 0.0000
# 6 0.0000 0.0000 0.0000 0.0000 0.0000 20.1384
#
#
#
# Elastic Compliance Matrix: (Units=1/GPa)
#
#
# Indices 1 2 3 4 5 6 
#
# 1 0.014411 -0.005152 -0.004484 0.000000 0.000000 0.000000
# 2 -0.005152 0.021903 -0.001382 0.000000 0.000000 0.000000
# 3 -0.004484 -0.001382 0.015029 0.000000 0.000000 0.000000
# 4 0.000000 0.000000 0.000000 0.109199 0.000000 0.000000
# 5 0.000000 0.000000 0.000000 0.000000 0.081099 0.000000
# 6 0.000000 0.000000 0.000000 0.000000 0.000000 0.049656
#
#
# Mechanical properties :
#
#
# Convention : Reuss Voigt Hill
#
# Bulk Modulus (GPa) = 34.12233 37.20580 35.66406
# Shear Modulus (GPa) = 15.47498 18.48099 16.97798
#
# Velocity S-wave (km/s) = 2.86031 3.12580 2.99600
# Velocity P-wave (km/s) = 5.38038 5.71819 5.55185
#
# Compressibility (1/GPa) = 0.02930632
#
# Stress axis : x y z
#
# Youngs Moduli (GPa) = 69.39119 45.65598 66.53927
#
# Poissons Ratio (x) = 0.23522 0.29837
# Poissons Ratio (y) = 0.35751 0.09195
# Poissons Ratio (z) = 0.31116 0.06309
#
# Static dielectric constant tensor:
#      x y z
#    x 1.633800 0.000000 0.000000 
#    y 0.000000 1.682870 0.000000 
#    z 0.000000 0.000000 1.649580 
# 
# From -- ./inp_files/19098.got.cif
#   From: 2010.05.17/outbox.cif.g08.bks.cpg/sg49_10_cif.got.tgz:19098.got - 2010.06.03 21:02:19.
