data_PCOD9394599
_publ_section_title
;
Structure prediction by ZEFSAII (Michael W. Deem and Ramdas Pophale) SiO2 
 PCOD9394599
Probable space group: P C C M
;
_chemical_formula_sum "Si O2"
_cell_formula_units_Z 24
_cell_length_a 7.073616
_cell_length_b 7.100812
_cell_length_c 16.940532
_cell_angle_alpha 90.000000
_cell_angle_beta 90.000000
_cell_angle_gamma 90.000000
_cell_volume 850.896112
_symmetry_space_group_name_H-M "P C C M"
_symmetry_group_IT_number 49
_symmetry_cell_setting 'orthorhombic'
loop_
_space_group_symop_operation_xyz
x,y,z
-x,-y,z
x,-y,1/2-z
-x,y,1/2-z
-x,-y,-z
x,y,-z
-x,y,1/2+z
x,-y,1/2+z
loop_
_atom_site_type_symbol
_atom_site_label
_atom_site_fract_x
_atom_site_fract_y
_atom_site_fract_z
Si Si1 0.837626 0.138470 0.404256
Si Si2 0.191355 0.516545 0.906783
Si Si3 0.483302 0.812672 0.155616
O O1 0.821144 0.110896 0.500000
O O2 0.977665 0.346683 0.398654
O O3 0.651626 0.008603 0.367805
O O4 0.000000 0.000000 0.372351
O O5 0.328196 0.312491 0.883956
O O6 0.321714 0.659409 0.861116
O O7 0.230669 0.539789 0.000000
O O8 0.500000 0.806303 0.250000
#
# Coordination Sequence:
#
# PCOD9394599 Si02
#       3
#     8   8   8
#     4  10  21  39  65  96 129 170 226 291 356 426
#     4  10  21  39  65  96 128 170 229 291 354 427
#     4  11  24  41  60  91 136 183 231 290 362 433
#
# _framework density 28.205558
#
# number of rings (size 3 to 8) (size 9 to 14) (size 15 to 20)
#    0.000    1.667    0.000    4.000    0.000   10.667 
#    0.000   13.333    0.000    0.000    0.000    0.000 
#    0.000    0.000    0.000    0.000    0.000    0.333 
#
# Total GULP energy -133989.917956 kJ/mol
# GULP energy per Si atom -5582.913248 kJ/mol
# Density = 2.814136 g / cm^3
# Si number density = 28.205558 Si / 1000 Ang^3
#
#
#
# Elastic Constant Matrix: (Units=GPa)
#
#
# Indices 1 2 3 4 5 6 
#
# 1 364.6091 74.2156 132.9974 0.0000 0.0000 0.0000
# 2 74.2156 388.9421 101.5578 0.0000 0.0000 0.0000
# 3 132.9974 101.5578 131.2283 0.0000 0.0000 0.0000
# 4 0.0000 0.0000 0.0000 -20.7623 0.0000 0.0000
# 5 0.0000 0.0000 0.0000 0.0000 -27.8070 0.0000
# 6 0.0000 0.0000 0.0000 0.0000 0.0000 82.4927
#
#
#
# Elastic Compliance Matrix: (Units=1/GPa)
#
#
# Indices 1 2 3 4 5 6 
#
# 1 0.004402 0.000407 -0.004777 0.000000 0.000000 0.000000
# 2 0.000407 0.003260 -0.002936 0.000000 0.000000 0.000000
# 3 -0.004777 -0.002936 0.014733 0.000000 0.000000 0.000000
# 4 0.000000 0.000000 0.000000 -0.048164 0.000000 0.000000
# 5 0.000000 0.000000 0.000000 0.000000 -0.035962 0.000000
# 6 0.000000 0.000000 0.000000 0.000000 0.000000 0.012122
#
#
# Mechanical properties :
#
#
# Convention : Reuss Voigt Hill
#
# Bulk Modulus (GPa) = 128.44766 166.92457 147.68612
# Shear Modulus (GPa) = -154.30205 45.18528 -54.55839
#
# Velocity S-wave (km/s) = -7.40439 4.00684 -4.40285
# Velocity P-wave (km/s) = 5.24036 8.98422 5.16018
#
# Compressibility (1/GPa) = 0.00778527
#
# Stress axis : x y z
#
# Youngs Moduli (GPa) = 227.16258 306.75943 67.87389
#
# Poissons Ratio (x) = -0.12493 0.32421
# Poissons Ratio (y) = -0.09251 0.19925
# Poissons Ratio (z) = 1.08508 0.90052
#
# Static dielectric constant tensor:
#      x y z
#    x 2.428210 0.000000 0.000000 
#    y 0.000000 2.496340 0.000000 
#    z 0.000000 0.000000 1.862830 
# 
# From -- ./inp_files/15621.got.cif
#   From: 2010.05.17/outbox.cif.g08.bks.cpg/sg49_8_cif.got.tgz:15621.got - 2010.06.03 21:02:19.
