data_PCOD9394224
_publ_section_title
;
Structure prediction by ZEFSAII (Michael W. Deem and Ramdas Pophale) SiO2 
 PCOD9394224
Probable space group: P C C M
;
_chemical_formula_sum "Si O2"
_cell_formula_units_Z 40
_cell_length_a 8.814465
_cell_length_b 12.416395
_cell_length_c 16.029847
_cell_angle_alpha 90.000000
_cell_angle_beta 90.000000
_cell_angle_gamma 90.000000
_cell_volume 1754.368638
_symmetry_space_group_name_H-M "P C C M"
_symmetry_group_IT_number 49
_symmetry_cell_setting 'orthorhombic'
loop_
_space_group_symop_operation_xyz
x,y,z
-x,-y,z
x,-y,1/2-z
-x,y,1/2-z
-x,-y,-z
x,y,-z
-x,y,1/2+z
x,-y,1/2+z
loop_
_atom_site_type_symbol
_atom_site_label
_atom_site_fract_x
_atom_site_fract_y
_atom_site_fract_z
Si Si1 0.170350 0.030870 0.152976
Si Si2 0.914997 0.653079 0.337832
Si Si3 0.790743 0.554430 0.095326
Si Si4 0.647938 0.231101 0.398879
Si Si5 0.687518 0.174919 0.903722
O O1 0.223965 0.152343 0.138053
O O2 0.182751 0.000000 0.250000
O O3 0.280083 0.951279 0.103277
O O4 0.000000 0.000000 0.126282
O O5 0.805803 0.549559 0.346982
O O6 0.818951 0.758861 0.357010
O O7 0.000000 0.659048 0.250000
O O8 0.049325 0.620034 0.401566
O O9 0.673172 0.644668 0.123449
O O10 0.759760 0.521038 0.000000
O O11 0.657845 0.223093 0.500000
O O12 0.480892 0.196526 0.371103
O O13 0.693185 0.209957 0.000000
#
# Coordination Sequence:
#
# PCOD9394224 Si02
#       5
#     8   8   8   8   8
#     4  11  25  42  65  97 134 177 225 276 330 393
#     4  11  23  39  63  95 130 170 218 275 326 388
#     4  10  20  39  66  93 127 170 219 269 324 391
#     4  10  23  42  66  98 134 175 224 275 331 398
#     4  11  24  42  67  97 134 178 222 273 334 400
#
# _framework density 22.800225999999999
#
# number of rings (size 3 to 8) (size 9 to 14) (size 15 to 20)
#    0.000    1.400    0.000    6.000    5.600    7.200 
#    3.600    3.000    0.000    4.800    0.000    0.000 
#    0.000    0.000    0.000    0.000    0.000    0.000 
#
# Total GULP energy -223810.396295 kJ/mol
# GULP energy per Si atom -5595.259907 kJ/mol
# Density = 2.274833 g / cm^3
# Si number density = 22.800226 Si / 1000 Ang^3
#
#
#
# Elastic Constant Matrix: (Units=GPa)
#
#
# Indices 1 2 3 4 5 6 
#
# 1 57.9952 2.5571 14.1489 0.0000 0.0000 0.0000
# 2 2.5571 81.7048 21.1278 0.0000 0.0000 0.0000
# 3 14.1489 21.1278 64.7164 0.0000 0.0000 0.0000
# 4 0.0000 0.0000 0.0000 31.4233 0.0000 0.0000
# 5 0.0000 0.0000 0.0000 0.0000 12.5181 0.0000
# 6 0.0000 0.0000 0.0000 0.0000 0.0000 44.8817
#
#
#
# Elastic Compliance Matrix: (Units=1/GPa)
#
#
# Indices 1 2 3 4 5 6 
#
# 1 0.018233 0.000503 -0.004150 0.000000 0.000000 0.000000
# 2 0.000503 0.013382 -0.004479 0.000000 0.000000 0.000000
# 3 -0.004150 -0.004479 0.017822 0.000000 0.000000 0.000000
# 4 0.000000 0.000000 0.000000 0.031823 0.000000 0.000000
# 5 0.000000 0.000000 0.000000 0.000000 0.079884 0.000000
# 6 0.000000 0.000000 0.000000 0.000000 0.000000 0.022281
#
#
# Mechanical properties :
#
#
# Convention : Reuss Voigt Hill
#
# Bulk Modulus (GPa) = 30.13532 31.12043 30.62787
# Shear Modulus (GPa) = 23.72604 28.87013 26.29809
#
# Velocity S-wave (km/s) = 3.22934 3.56226 3.39988
# Velocity P-wave (km/s) = 5.21063 5.53158 5.37350
#
# Compressibility (1/GPa) = 0.03318366
#
# Stress axis : x y z
#
# Youngs Moduli (GPa) = 54.84498 74.72978 56.11189
#
# Poissons Ratio (x) = -0.03756 0.23289
# Poissons Ratio (y) = -0.02757 0.25130
# Poissons Ratio (z) = 0.22763 0.33468
#
# Static dielectric constant tensor:
#      x y z
#    x 1.858720 0.000000 0.000000 
#    y 0.000000 1.834640 0.000000 
#    z 0.000000 0.000000 1.865580 
# 
# From -- ./inp_files/16023.got.cif
#   From: 2010.05.17/outbox.cif.g08.bks.cpg/sg49_9_cif.got.tgz:16023.got - 2010.06.03 21:02:19.
