data_PCOD9394861
_publ_section_title
;
Structure prediction by ZEFSAII (Michael W. Deem and Ramdas Pophale) SiO2 
 PCOD9394861
Probable space group: P C C M
;
_chemical_formula_sum "Si O2"
_cell_formula_units_Z 36
_cell_length_a 16.176217
_cell_length_b 5.264427
_cell_length_c 19.881328
_cell_angle_alpha 90.000000
_cell_angle_beta 90.000000
_cell_angle_gamma 90.000000
_cell_volume 1693.064340
_symmetry_space_group_name_H-M "P C C M"
_symmetry_group_IT_number 49
_symmetry_cell_setting 'orthorhombic'
loop_
_space_group_symop_operation_xyz
x,y,z
-x,-y,z
x,-y,1/2-z
-x,y,1/2-z
-x,-y,-z
x,y,-z
-x,y,1/2+z
x,-y,1/2+z
loop_
_atom_site_type_symbol
_atom_site_label
_atom_site_fract_x
_atom_site_fract_y
_atom_site_fract_z
Si Si1 0.312166 0.123867 0.815080
Si Si2 0.178719 0.500000 0.250000
Si Si3 0.902624 0.519293 0.389197
Si Si4 0.805639 0.999741 0.926191
Si Si5 0.555974 0.748359 0.077413
O O1 0.240733 0.290785 0.780155
O O2 0.262159 0.949439 0.868199
O O3 0.374872 0.264305 0.864801
O O4 0.355244 0.000000 0.750000
O O5 0.119935 0.425599 0.311396
O O6 0.855729 0.259742 0.410348
O O7 0.000000 0.500000 0.399352
O O8 0.866298 0.762169 0.426533
O O9 0.767273 0.974572 0.000000
O O10 0.500000 0.500000 0.082563
O O11 0.500000 0.000000 0.087538
O O12 0.587719 0.757438 0.000000
#
# Coordination Sequence:
#
# PCOD9394861 Si02
#       5
#     8   4   8   8   8
#     4  11  23  43  67  95 131 174 216 272 315 392
#     4  10  23  42  61  94 130 166 220 262 327 388
#     4  11  23  40  64  91 128 170 215 273 330 385
#     4  11  24  41  64  94 127 170 219 269 326 384
#     4  10  24  45  69  99 133 170 211 260 326 392
#
# _framework density 21.263218999999999
#
# number of rings (size 3 to 8) (size 9 to 14) (size 15 to 20)
#    0.000    1.333    2.222    2.333    3.111    3.111 
#    0.000    6.667    0.000    0.000    0.000    0.000 
#    0.000    0.000    0.000    0.000    0.000    0.000 
#
# Total GULP energy -201010.159351 kJ/mol
# GULP energy per Si atom -5583.615538 kJ/mol
# Density = 2.121482 g / cm^3
# Si number density = 21.263219 Si / 1000 Ang^3
#
#
#
# Elastic Constant Matrix: (Units=GPa)
#
#
# Indices 1 2 3 4 5 6 
#
# 1 77.1621 32.1033 45.6631 0.0000 0.0000 0.0000
# 2 32.1033 111.6852 31.3452 0.0000 0.0000 0.0000
# 3 45.6631 31.3452 184.8065 0.0000 0.0000 0.0000
# 4 0.0000 0.0000 0.0000 21.4733 0.0000 0.0000
# 5 0.0000 0.0000 0.0000 0.0000 -306.9366 0.0000
# 6 0.0000 0.0000 0.0000 0.0000 0.0000 26.4717
#
#
#
# Elastic Compliance Matrix: (Units=1/GPa)
#
#
# Indices 1 2 3 4 5 6 
#
# 1 0.016583 -0.003798 -0.003453 0.000000 0.000000 0.000000
# 2 -0.003798 0.010271 -0.000804 0.000000 0.000000 0.000000
# 3 -0.003453 -0.000804 0.006401 0.000000 0.000000 0.000000
# 4 0.000000 0.000000 0.000000 0.046569 0.000000 0.000000
# 5 0.000000 0.000000 0.000000 0.000000 -0.003258 0.000000
# 6 0.000000 0.000000 0.000000 0.000000 0.000000 0.037776
#
#
# Mechanical properties :
#
#
# Convention : Reuss Voigt Hill
#
# Bulk Modulus (GPa) = 58.32428 65.76412 62.04420
# Shear Modulus (GPa) = 36.71957 -34.16218 1.27869
#
# Velocity S-wave (km/s) = 4.16011 -4.01263 0.77632
# Velocity P-wave (km/s) = 7.11088 3.08666 5.48143
#
# Compressibility (1/GPa) = 0.01714552
#
# Stress axis : x y z
#
# Youngs Moduli (GPa) = 60.30128 97.36235 156.23347
#
# Poissons Ratio (x) = 0.36974 0.53954
# Poissons Ratio (y) = 0.22900 0.12557
# Poissons Ratio (z) = 0.20825 0.07825
#
# Static dielectric constant tensor:
#      x y z
#    x 1.718790 0.000000 0.000000 
#    y 0.000000 1.767860 0.000000 
#    z 0.000000 0.000000 1.793420 
# 
# From -- ./inp_files/20677.got.cif
#   From: 2010.05.17/outbox.cif.g08.bks.cpg/sg49_11_cif.got.tgz:20677.got - 2010.06.03 21:02:19.
