data_PCOD9394282
_publ_section_title
;
Structure prediction by ZEFSAII (Michael W. Deem and Ramdas Pophale) SiO2 
 PCOD9394282
Probable space group: P C C M
;
_chemical_formula_sum "Si O2"
_cell_formula_units_Z 64
_cell_length_a 9.513628
_cell_length_b 12.317591
_cell_length_c 27.445548
_cell_angle_alpha 90.000000
_cell_angle_beta 90.000000
_cell_angle_gamma 90.000000
_cell_volume 3216.205956
_symmetry_space_group_name_H-M "P C C M"
_symmetry_group_IT_number 49
_symmetry_cell_setting 'orthorhombic'
loop_
_space_group_symop_operation_xyz
x,y,z
-x,-y,z
x,-y,1/2-z
-x,y,1/2-z
-x,-y,-z
x,y,-z
-x,y,1/2+z
x,-y,1/2+z
loop_
_atom_site_type_symbol
_atom_site_label
_atom_site_fract_x
_atom_site_fract_y
_atom_site_fract_z
Si Si1 0.554136 0.776621 0.851126
Si Si2 0.994329 0.327694 0.805171
Si Si3 0.073081 0.115815 0.341657
Si Si4 0.912226 0.112426 0.052570
Si Si5 0.332132 0.985564 0.692890
Si Si6 0.284354 0.592501 0.317869
Si Si7 0.679140 0.651223 0.294927
Si Si8 0.576696 0.884620 0.445825
O O1 0.667749 0.865065 0.830936
O O2 0.636566 0.664278 0.857113
O O3 0.433826 0.739129 0.812306
O O4 0.480570 0.816104 0.900464
O O5 0.118424 0.395965 0.829211
O O6 0.000000 0.368386 0.750000
O O7 0.010494 0.197752 0.806894
O O8 0.831083 0.330289 0.819488
O O9 0.053394 0.165589 0.395724
O O10 0.233792 0.076589 0.331967
O O11 0.000000 0.000000 0.338766
O O12 0.744235 0.095082 0.055268
O O13 0.942092 0.165945 0.000000
O O14 0.000000 0.000000 0.052556
O O15 0.500000 0.000000 0.687649
O O16 0.298410 0.000000 0.750000
O O17 0.345696 0.472843 0.311112
O O18 0.305720 0.648023 0.263889
O O19 0.544873 0.838716 0.500000
O O20 0.500000 0.000000 0.442078
#
# Coordination Sequence:
#
# PCOD9394282 Si02
#       8
#     8   8   8   8   8   8   8   8
#     4  12  22  36  57  83 111 150 191 231 287 342
#     4  10  21  34  56  76 109 149 190 230 280 337
#     4  11  22  34  51  79 113 147 184 227 275 337
#     4   9  18  34  54  74 100 139 187 233 272 317
#     4  11  25  34  48  73 116 154 184 218 264 337
#     4  10  22  37  56  83 110 145 193 245 288 338
#     4  10  21  38  58  79 110 147 195 245 289 332
#     4  10  21  38  58  82 113 149 189 235 286 343
#
# _framework density 19.899224
#
# number of rings (size 3 to 8) (size 9 to 14) (size 15 to 20)
#    0.000    1.625    0.000    5.250    8.750    3.500 
#    0.000    0.000    0.000    1.500    0.000    0.000 
#    0.000    5.000    0.000    0.000    0.000    0.000 
#
# Total GULP energy -356367.824526 kJ/mol
# GULP energy per Si atom -5568.247258 kJ/mol
# Density = 1.985393 g / cm^3
# Si number density = 19.899224 Si / 1000 Ang^3
#
#
#
# Elastic Constant Matrix: (Units=GPa)
#
#
# Indices 1 2 3 4 5 6 
#
# 1 90.4206 19.2752 16.1968 0.0000 0.0000 0.0000
# 2 19.2752 64.3643 23.3446 0.0000 0.0000 0.0000
# 3 16.1968 23.3446 98.5119 0.0000 0.0000 0.0000
# 4 0.0000 0.0000 0.0000 11.5327 0.0000 0.0000
# 5 0.0000 0.0000 0.0000 0.0000 12.6576 0.0000
# 6 0.0000 0.0000 0.0000 0.0000 0.0000 26.6003
#
#
#
# Elastic Compliance Matrix: (Units=1/GPa)
#
#
# Indices 1 2 3 4 5 6 
#
# 1 0.011946 -0.003135 -0.001221 0.000000 0.000000 0.000000
# 2 -0.003135 0.017820 -0.003707 0.000000 0.000000 0.000000
# 3 -0.001221 -0.003707 0.011230 0.000000 0.000000 0.000000
# 4 0.000000 0.000000 0.000000 0.086710 0.000000 0.000000
# 5 0.000000 0.000000 0.000000 0.000000 0.079004 0.000000
# 6 0.000000 0.000000 0.000000 0.000000 0.000000 0.037594
#
#
# Mechanical properties :
#
#
# Convention : Reuss Voigt Hill
#
# Bulk Modulus (GPa) = 40.20917 41.21445 40.71181
# Shear Modulus (GPa) = 18.60665 23.12348 20.86506
#
# Velocity S-wave (km/s) = 3.06117 3.41255 3.24162
# Velocity P-wave (km/s) = 5.72229 6.02361 5.87488
#
# Compressibility (1/GPa) = 0.02486995
#
# Stress axis : x y z
#
# Youngs Moduli (GPa) = 83.70711 56.11683 89.04381
#
# Poissons Ratio (x) = 0.17590 0.10875
# Poissons Ratio (y) = 0.26239 0.33013
# Poissons Ratio (z) = 0.10224 0.20805
#
# Static dielectric constant tensor:
#      x y z
#    x 1.833340 0.000000 0.000000 
#    y 0.000000 1.831120 0.000000 
#    z 0.000000 0.000000 1.742520 
# 
# From -- ./inp_files/26445.got.cif
#   From: 2010.05.17/outbox.cif.g08.bks.cpg/sg49_14_cif.got.tgz:26445.got - 2010.06.03 21:02:19.
