data_PCOD9394376
_publ_section_title
;
Structure prediction by ZEFSAII (Michael W. Deem and Ramdas Pophale) SiO2 
 PCOD9394376
Probable space group: P C C M
;
_chemical_formula_sum "Si O2"
_cell_formula_units_Z 64
_cell_length_a 17.201628
_cell_length_b 21.107613
_cell_length_c 8.939295
_cell_angle_alpha 90.000000
_cell_angle_beta 90.000000
_cell_angle_gamma 90.000000
_cell_volume 3245.726668
_symmetry_space_group_name_H-M "P C C M"
_symmetry_group_IT_number 49
_symmetry_cell_setting 'orthorhombic'
loop_
_space_group_symop_operation_xyz
x,y,z
-x,-y,z
x,-y,1/2-z
-x,y,1/2-z
-x,-y,-z
x,y,-z
-x,y,1/2+z
x,-y,1/2+z
loop_
_atom_site_type_symbol
_atom_site_label
_atom_site_fract_x
_atom_site_fract_y
_atom_site_fract_z
Si Si1 0.865711 0.224450 0.332596
Si Si2 0.076781 0.360542 0.169829
Si Si3 0.418506 0.703905 0.319631
Si Si4 0.291931 0.200663 0.678330
Si Si5 0.612241 0.567363 0.674173
Si Si6 0.799062 0.435463 0.829692
Si Si7 0.257511 0.065616 0.818134
Si Si8 0.079367 0.084949 0.828865
O O1 0.828611 0.224518 0.500000
O O2 0.919919 0.284896 0.323523
O O3 0.795905 0.223431 0.214902
O O4 0.915151 0.160975 0.323124
O O5 0.156923 0.380776 0.244599
O O6 0.000000 0.385072 0.250000
O O7 0.076274 0.382027 0.000000
O O8 0.500000 0.727010 0.250000
O O9 0.418334 0.705462 0.500000
O O10 0.350756 0.748936 0.253456
O O11 0.410814 0.630780 0.263124
O O12 0.304618 0.197874 0.500000
O O13 0.295210 0.129968 0.751587
O O14 0.589884 0.500000 0.750000
O O15 0.586182 0.569791 0.500000
O O16 0.706249 0.569119 0.674739
O O17 0.822284 0.500000 0.750000
O O18 0.824475 0.435806 0.000000
O O19 0.165609 0.067176 0.771827
O O20 0.289727 0.000000 0.750000
O O21 0.261367 0.066575 0.000000
O O22 0.000000 0.065955 0.750000
O O23 0.075632 0.063297 0.000000
#
# Coordination Sequence:
#
# PCOD9394376 Si02
#       8
#     8   8   8   8   8   8   8   8
#     4   9  19  35  53  76 106 143 185 231 281 338
#     4  11  22  34  50  72 101 136 179 231 289 343
#     4  12  25  42  64  92 126 160 194 236 283 338
#     4  11  22  38  62  90 118 153 194 238 289 348
#     4  10  21  39  63  92 123 158 197 237 283 340
#     4  10  21  37  56  76 101 134 178 227 277 334
#     4  10  21  38  58  84 116 154 200 249 298 350
#     4   9  18  31  48  73 109 149 190 235 287 341
#
# _framework density 19.718233999999999
#
# number of rings (size 3 to 8) (size 9 to 14) (size 15 to 20)
#    0.000    1.750    0.000    5.625    0.000    7.750 
#    0.000    3.750    0.000    0.375    0.000    2.625 
#    0.000    0.000    0.000    0.000    0.000    0.000 
#
# Total GULP energy -357230.377750 kJ/mol
# GULP energy per Si atom -5581.724652 kJ/mol
# Density = 1.967335 g / cm^3
# Si number density = 19.718234 Si / 1000 Ang^3
#
#
#
# Elastic Constant Matrix: (Units=GPa)
#
#
# Indices 1 2 3 4 5 6 
#
# 1 57.3569 29.7311 47.6975 0.0000 0.0000 0.0000
# 2 29.7311 97.3262 53.4479 0.0000 0.0000 0.0000
# 3 47.6975 53.4479 153.9841 0.0000 0.0000 0.0000
# 4 0.0000 0.0000 0.0000 11.1677 0.0000 0.0000
# 5 0.0000 0.0000 0.0000 0.0000 15.0197 0.0000
# 6 0.0000 0.0000 0.0000 0.0000 0.0000 22.4653
#
#
#
# Elastic Compliance Matrix: (Units=1/GPa)
#
#
# Indices 1 2 3 4 5 6 
#
# 1 0.024766 -0.004142 -0.006234 0.000000 0.000000 0.000000
# 2 -0.004142 0.013387 -0.003364 0.000000 0.000000 0.000000
# 3 -0.006234 -0.003364 0.009593 0.000000 0.000000 0.000000
# 4 0.000000 0.000000 0.000000 0.089544 0.000000 0.000000
# 5 0.000000 0.000000 0.000000 0.000000 0.066579 0.000000
# 6 0.000000 0.000000 0.000000 0.000000 0.000000 0.044513
#
#
# Mechanical properties :
#
#
# Convention : Reuss Voigt Hill
#
# Bulk Modulus (GPa) = 49.34198 63.38000 56.36099
# Shear Modulus (GPa) = 17.69187 21.58326 19.63757
#
# Velocity S-wave (km/s) = 2.99864 3.31204 3.15923
# Velocity P-wave (km/s) = 6.08826 6.84388 6.47710
#
# Compressibility (1/GPa) = 0.02026672
#
# Stress axis : x y z
#
# Youngs Moduli (GPa) = 40.37867 74.69793 104.24722
#
# Poissons Ratio (x) = 0.30941 0.64983
# Poissons Ratio (y) = 0.16725 0.35065
# Poissons Ratio (z) = 0.25170 0.25126
#
# Static dielectric constant tensor:
#      x y z
#    x 1.685150 0.000000 0.000000 
#    y 0.000000 1.723830 0.000000 
#    z 0.000000 0.000000 1.689520 
# 
# From -- ./inp_files/5295.got.cif
#   From: 2010.05.17/outbox.cif.g08.bks.cpg/sg49_3_cif.got.tgz:5295.got - 2010.06.03 21:02:19.
