data_PCOD9394429
_publ_section_title
;
Structure prediction by ZEFSAII (Michael W. Deem and Ramdas Pophale) SiO2 
 PCOD9394429
Probable space group: P C C M
;
_chemical_formula_sum "Si O2"
_cell_formula_units_Z 40
_cell_length_a 26.048568
_cell_length_b 9.309549
_cell_length_c 8.598970
_cell_angle_alpha 90.000000
_cell_angle_beta 90.000000
_cell_angle_gamma 90.000000
_cell_volume 2085.253838
_symmetry_space_group_name_H-M "P C C M"
_symmetry_group_IT_number 49
_symmetry_cell_setting 'orthorhombic'
loop_
_space_group_symop_operation_xyz
x,y,z
-x,-y,z
x,-y,1/2-z
-x,y,1/2-z
-x,-y,-z
x,y,-z
-x,y,1/2+z
x,-y,1/2+z
loop_
_atom_site_type_symbol
_atom_site_label
_atom_site_fract_x
_atom_site_fract_y
_atom_site_fract_z
Si Si1 0.344080 0.661300 0.187178
Si Si2 0.848977 0.660789 0.686276
Si Si3 0.056700 0.159595 0.813428
Si Si4 0.555310 0.839652 0.686079
Si Si5 0.247567 0.838475 0.686148
O O1 0.341596 0.500000 0.250000
O O2 0.398200 0.735280 0.229872
O O3 0.298037 0.754071 0.258328
O O4 0.339513 0.661328 0.000000
O O5 0.842974 0.500000 0.750000
O O6 0.849753 0.659741 0.500000
O O7 0.901161 0.730460 0.751134
O O8 0.801818 0.756780 0.746133
O O9 0.000000 0.195185 0.750000
O O10 0.069237 0.000000 0.750000
O O11 0.056206 0.156860 0.000000
O O12 0.500000 0.792045 0.750000
O O13 0.552560 0.847464 0.500000
O O14 0.565024 0.000000 0.750000
O O15 0.244899 0.840134 0.500000
O O16 0.249031 0.000000 0.750000
#
# Coordination Sequence:
#
# PCOD9394429 Si02
#       5
#     8   8   8   8   8
#     4  11  24  41  61  89 122 160 200 247 302 360
#     4  12  25  43  64  91 125 162 202 250 304 361
#     4  11  22  40  64  93 125 163 207 253 302 357
#     4  10  21  37  60  87 118 155 200 247 298 354
#     4  12  25  43  66  92 121 158 201 249 299 358
#
# _framework density 19.182317999999999
#
# number of rings (size 3 to 8) (size 9 to 14) (size 15 to 20)
#    0.000    0.800    0.000    9.600    0.000    5.600 
#    0.000    4.000    0.000    0.000    0.000    0.000 
#    0.000    0.000    0.000    0.000    0.000    0.000 
#
# Total GULP energy -223937.057606 kJ/mol
# GULP energy per Si atom -5598.426440 kJ/mol
# Density = 1.913866 g / cm^3
# Si number density = 19.182318 Si / 1000 Ang^3
#
#
#
# Elastic Constant Matrix: (Units=GPa)
#
#
# Indices 1 2 3 4 5 6 
#
# 1 137.6403 119.7147 75.8907 0.0000 0.0000 0.0000
# 2 119.7147 177.0648 79.2420 0.0000 0.0000 0.0000
# 3 75.8907 79.2420 180.3002 0.0000 0.0000 0.0000
# 4 0.0000 0.0000 0.0000 13.5388 0.0000 0.0000
# 5 0.0000 0.0000 0.0000 0.0000 41.3155 0.0000
# 6 0.0000 0.0000 0.0000 0.0000 0.0000 125.8583
#
#
#
# Elastic Compliance Matrix: (Units=1/GPa)
#
#
# Indices 1 2 3 4 5 6 
#
# 1 0.018775 -0.011399 -0.002893 0.000000 0.000000 0.000000
# 2 -0.011399 0.013952 -0.001334 0.000000 0.000000 0.000000
# 3 -0.002893 -0.001334 0.007350 0.000000 0.000000 0.000000
# 4 0.000000 0.000000 0.000000 0.073862 0.000000 0.000000
# 5 0.000000 0.000000 0.000000 0.000000 0.024204 0.000000
# 6 0.000000 0.000000 0.000000 0.000000 0.000000 0.007945
#
#
# Mechanical properties :
#
#
# Convention : Reuss Voigt Hill
#
# Bulk Modulus (GPa) = 113.30891 116.07778 114.69335
# Shear Modulus (GPa) = 27.73449 50.81972 39.27711
#
# Velocity S-wave (km/s) = 3.80654 5.15272 4.52992
# Velocity P-wave (km/s) = 8.86100 9.80025 9.34244
#
# Compressibility (1/GPa) = 0.00882543
#
# Stress axis : x y z
#
# Youngs Moduli (GPa) = 53.26247 71.67606 136.05496
#
# Poissons Ratio (x) = 0.81706 0.39355
# Poissons Ratio (y) = 0.60716 0.18145
# Poissons Ratio (z) = 0.15407 0.09559
#
# Static dielectric constant tensor:
#      x y z
#    x 1.647880 0.000000 0.000000 
#    y 0.000000 1.628590 0.000000 
#    z 0.000000 0.000000 1.640890 
# 
# From -- ./inp_files/1701.got.cif
#   From: 2010.05.17/outbox.cif.g08.bks.cpg/sg49_1_cif.got.tgz:1701.got - 2010.06.03 21:02:19.
