data_PCOD9394173
_publ_section_title
;
Structure prediction by ZEFSAII (Michael W. Deem and Ramdas Pophale) SiO2 
 PCOD9394173
Probable space group: P C C M
;
_chemical_formula_sum "Si O2"
_cell_formula_units_Z 32
_cell_length_a 9.511989
_cell_length_b 13.130453
_cell_length_c 11.135752
_cell_angle_alpha 90.000000
_cell_angle_beta 90.000000
_cell_angle_gamma 90.000000
_cell_volume 1390.818950
_symmetry_space_group_name_H-M "P C C M"
_symmetry_group_IT_number 49
_symmetry_cell_setting 'orthorhombic'
loop_
_space_group_symop_operation_xyz
x,y,z
-x,-y,z
x,-y,1/2-z
-x,y,1/2-z
-x,-y,-z
x,y,-z
-x,y,1/2+z
x,-y,1/2+z
loop_
_atom_site_type_symbol
_atom_site_label
_atom_site_fract_x
_atom_site_fract_y
_atom_site_fract_z
Si Si1 0.837680 0.041003 0.372302
Si Si2 0.645932 0.569809 0.130757
Si Si3 0.840618 0.733197 0.215118
Si Si4 0.569775 0.760884 0.633886
O O1 0.775171 0.009695 0.500000
O O2 0.835140 0.162146 0.358946
O O3 0.771395 0.000000 0.250000
O O4 0.000000 0.000000 0.372804
O O5 0.643074 0.500000 0.250000
O O6 0.783669 0.638325 0.141739
O O7 0.521441 0.655246 0.129170
O O8 0.646944 0.517212 0.000000
O O9 0.731305 0.743361 0.326992
O O10 0.000000 0.718304 0.250000
O O11 0.500000 0.815818 0.750000
O O12 0.558256 0.804872 0.500000
#
# Coordination Sequence:
#
# PCOD9394173 Si02
#       4
#     8   8   8   8
#     4  10  20  38  62  94 130 174 219 266 329 404
#     4  10  23  45  68  94 131 181 232 278 330 399
#     4  11  22  39  64 103 138 174 218 283 341 400
#     4   9  21  40  65  93 127 174 227 275 329 394
#
# _framework density 23.008025
#
# number of rings (size 3 to 8) (size 9 to 14) (size 15 to 20)
#    0.000    2.000    2.500    0.750    0.000   13.000 
#    0.000   17.500    0.000    6.750    0.000   24.500 
#    0.000    0.000    0.000    0.000    0.000    0.000 
#
# Total GULP energy -178467.663573 kJ/mol
# GULP energy per Si atom -5577.114487 kJ/mol
# Density = 2.295566 g / cm^3
# Si number density = 23.008025 Si / 1000 Ang^3
#
#
#
# Elastic Constant Matrix: (Units=GPa)
#
#
# Indices 1 2 3 4 5 6 
#
# 1 128.4471 13.4793 47.1826 0.0000 0.0000 0.0000
# 2 13.4793 75.4875 37.7154 0.0000 0.0000 0.0000
# 3 47.1826 37.7154 256.5793 0.0000 0.0000 0.0000
# 4 0.0000 0.0000 0.0000 156.3324 0.0000 0.0000
# 5 0.0000 0.0000 0.0000 0.0000 -8.5033 0.0000
# 6 0.0000 0.0000 0.0000 0.0000 0.0000 26.2902
#
#
#
# Elastic Compliance Matrix: (Units=1/GPa)
#
#
# Indices 1 2 3 4 5 6 
#
# 1 0.008392 -0.000785 -0.001428 0.000000 0.000000 0.000000
# 2 -0.000785 0.014371 -0.001968 0.000000 0.000000 0.000000
# 3 -0.001428 -0.001968 0.004449 0.000000 0.000000 0.000000
# 4 0.000000 0.000000 0.000000 0.006397 0.000000 0.000000
# 5 0.000000 0.000000 0.000000 0.000000 -0.117602 0.000000
# 6 0.000000 0.000000 0.000000 0.000000 0.000000 0.038037
#
#
# Mechanical properties :
#
#
# Convention : Reuss Voigt Hill
#
# Bulk Modulus (GPa) = 53.04993 73.02983 63.03988
# Shear Modulus (GPa) = -159.69000 58.96630 -50.36185
#
# Velocity S-wave (km/s) = -8.34008 5.06796 -4.68362
# Velocity P-wave (km/s) = 8.34478 8.12746 1.33787
#
# Compressibility (1/GPa) = 0.01885016
#
# Stress axis : x y z
#
# Youngs Moduli (GPa) = 119.15838 69.58606 224.75543
#
# Poissons Ratio (x) = 0.05464 0.32091
# Poissons Ratio (y) = 0.09356 0.44232
# Poissons Ratio (z) = 0.17014 0.13695
#
# Static dielectric constant tensor:
#      x y z
#    x 1.890200 0.000000 0.000000 
#    y 0.000000 2.011640 0.000000 
#    z 0.000000 0.000000 1.953640 
# 
# From -- ./inp_files/8026.got.cif
#   From: 2010.05.17/outbox.cif.g08.bks.cpg/sg49_5_cif.got.tgz:8026.got - 2010.06.03 21:02:19.
