data_PCOD9394589
_publ_section_title
;
Structure prediction by ZEFSAII (Michael W. Deem and Ramdas Pophale) SiO2 
 PCOD9394589
Probable space group: P C C M
;
_chemical_formula_sum "Si O2"
_cell_formula_units_Z 48
_cell_length_a 5.559577
_cell_length_b 14.647218
_cell_length_c 29.453191
_cell_angle_alpha 90.000000
_cell_angle_beta 90.000000
_cell_angle_gamma 90.000000
_cell_volume 2398.442155
_symmetry_space_group_name_H-M "P C C M"
_symmetry_group_IT_number 49
_symmetry_cell_setting 'orthorhombic'
loop_
_space_group_symop_operation_xyz
x,y,z
-x,-y,z
x,-y,1/2-z
-x,y,1/2-z
-x,-y,-z
x,y,-z
-x,y,1/2+z
x,-y,1/2+z
loop_
_atom_site_type_symbol
_atom_site_label
_atom_site_fract_x
_atom_site_fract_y
_atom_site_fract_z
Si Si1 0.028424 0.693392 0.196855
Si Si2 0.543611 0.892493 0.922022
Si Si3 0.519958 0.259863 0.647573
Si Si4 0.712728 0.771878 0.500000
Si Si5 0.097311 0.897249 0.500000
Si Si6 0.000000 0.500000 0.843714
Si Si7 0.648935 0.584061 0.918228
Si Si8 0.010837 0.610441 0.500000
O O1 0.273217 0.736660 0.176284
O O2 0.066540 0.585864 0.186976
O O3 0.000000 0.711611 0.250000
O O4 0.773102 0.720113 0.173250
O O5 0.544616 0.838116 0.875812
O O6 0.382054 0.830961 0.957082
O O7 0.500000 0.000000 0.916404
O O8 0.783200 0.894119 0.950947
O O9 0.502372 0.335887 0.607100
O O10 0.988766 0.796943 0.500000
O O11 0.748650 0.662589 0.500000
O O12 0.000000 0.000000 0.500000
O O13 0.792967 0.534145 0.877590
O O14 0.500000 0.500000 0.939235
O O15 0.832984 0.627922 0.954307
O O16 0.000000 0.500000 0.500000
#
# Coordination Sequence:
#
# PCOD9394589 Si02
#       8
#     8   8   8   4   4   4   8   4
#     4  11  24  45  69  99 131 168 215 279 348 416
#     4  11  24  41  65  97 129 173 228 286 329 386
#     4  11  26  41  70  98 131 171 218 277 343 406
#     4  11  24  40  61  90 136 175 234 266 328 373
#     4  11  19  39  65  94 128 179 220 288 326 373
#     4  10  21  39  64  92 128 170 226 275 319 394
#     4  11  22  41  58  90 137 181 232 265 322 390
#     4  12  26  36  61  88 141 199 227 270 320 402
#
# _framework density 20.012989000000001
#
# number of rings (size 3 to 8) (size 9 to 14) (size 15 to 20)
#    0.000    1.000    4.167    2.500    9.333    0.667 
#    0.000    1.667    0.000    3.000    0.000    0.000 
#    0.000    0.000    0.000    0.000    0.000    0.000 
#
# Total GULP energy -267271.061606 kJ/mol
# GULP energy per Si atom -5568.147117 kJ/mol
# Density = 1.996744 g / cm^3
# Si number density = 20.012989 Si / 1000 Ang^3
#
#
#
# Elastic Constant Matrix: (Units=GPa)
#
#
# Indices 1 2 3 4 5 6 
#
# 1 71.2262 33.4226 45.0636 0.0000 0.0000 0.0000
# 2 33.4226 110.7584 45.2029 0.0000 0.0000 0.0000
# 3 45.0636 45.2029 116.8856 0.0000 0.0000 0.0000
# 4 0.0000 0.0000 0.0000 0.3232 0.0000 0.0000
# 5 0.0000 0.0000 0.0000 0.0000 30.3125 0.0000
# 6 0.0000 0.0000 0.0000 0.0000 0.0000 33.9846
#
#
#
# Elastic Compliance Matrix: (Units=1/GPa)
#
#
# Indices 1 2 3 4 5 6 
#
# 1 0.019566 -0.003355 -0.006246 0.000000 0.000000 0.000000
# 2 -0.003355 0.011296 -0.003075 0.000000 0.000000 0.000000
# 3 -0.006246 -0.003075 0.012153 0.000000 0.000000 0.000000
# 4 0.000000 0.000000 0.000000 3.093766 0.000000 0.000000
# 5 0.000000 0.000000 0.000000 0.000000 0.032990 0.000000
# 6 0.000000 0.000000 0.000000 0.000000 0.000000 0.029425
#
#
# Mechanical properties :
#
#
# Convention : Reuss Voigt Hill
#
# Bulk Modulus (GPa) = 56.61695 60.69427 58.65561
# Shear Modulus (GPa) = 1.54778 24.60280 13.07529
#
# Velocity S-wave (km/s) = 0.88038 3.51000 2.55882
# Velocity P-wave (km/s) = 5.42079 6.84252 6.17272
#
# Compressibility (1/GPa) = 0.01766256
#
# Stress axis : x y z
#
# Youngs Moduli (GPa) = 51.10973 88.52625 82.28743
#
# Poissons Ratio (x) = 0.29702 0.51395
# Poissons Ratio (y) = 0.17148 0.25303
# Poissons Ratio (z) = 0.31922 0.27222
#
# Static dielectric constant tensor:
#      x y z
#    x 1.912150 0.000000 0.000000 
#    y 0.000000 1.782500 0.000000 
#    z 0.000000 0.000000 1.681700 
# 
# From -- ./inp_files/23995.got.cif
#   From: 2010.05.17/outbox.cif.g08.bks.cpg/sg49_12_cif.got.tgz:23995.got - 2010.06.03 21:02:19.
