data_PCOD9394517
_publ_section_title
;
Structure prediction by ZEFSAII (Michael W. Deem and Ramdas Pophale) SiO2 
 PCOD9394517
Probable space group: P C C M
;
_chemical_formula_sum "Si O2"
_cell_formula_units_Z 40
_cell_length_a 16.600230
_cell_length_b 5.736342
_cell_length_c 19.526558
_cell_angle_alpha 90.000000
_cell_angle_beta 90.000000
_cell_angle_gamma 90.000000
_cell_volume 1859.408608
_symmetry_space_group_name_H-M "P C C M"
_symmetry_group_IT_number 49
_symmetry_cell_setting 'orthorhombic'
loop_
_space_group_symop_operation_xyz
x,y,z
-x,-y,z
x,-y,1/2-z
-x,y,1/2-z
-x,-y,-z
x,y,-z
-x,y,1/2+z
x,-y,1/2+z
loop_
_atom_site_type_symbol
_atom_site_label
_atom_site_fract_x
_atom_site_fract_y
_atom_site_fract_z
Si Si1 0.413564 0.381572 0.926470
Si Si2 0.328046 0.121088 0.179795
Si Si3 0.738262 0.736684 0.421718
Si Si4 0.046624 0.248114 0.077862
Si Si5 0.170679 0.416362 0.821940
O O1 0.500000 0.500000 0.926249
O O2 0.402944 0.233694 0.858546
O O3 0.338919 0.562627 0.924710
O O4 0.406068 0.251577 0.000000
O O5 0.256152 0.299716 0.196454
O O6 0.350384 0.000000 0.250000
O O7 0.290515 0.954882 0.121927
O O8 0.762415 0.787546 0.500000
O O9 0.808067 0.615658 0.377291
O O10 0.113314 0.244097 0.136844
O O11 0.000000 0.500000 0.087022
O O12 0.080119 0.259615 0.000000
O O13 0.000000 0.000000 0.081791
O O14 0.134595 0.500000 0.750000
#
# Coordination Sequence:
#
# PCOD9394517 Si02
#       5
#     8   8   8   8   8
#     4   9  20  39  61  87 124 167 215 272 331 399
#     4  11  22  38  62  91 126 166 218 276 337 399
#     4  10  21  38  63  92 122 166 218 270 326 396
#     4  10  24  45  69 102 140 179 227 281 339 411
#     4  11  23  41  65  94 130 174 214 275 335 402
#
# _framework density 21.512217
#
# number of rings (size 3 to 8) (size 9 to 14) (size 15 to 20)
#    0.000    1.800    2.000    1.200    2.800    3.600 
#    0.000    7.000    0.000    0.000    0.000    0.000 
#    0.000    0.000    0.000    0.000    0.000    0.000 
#
# Total GULP energy -223279.205913 kJ/mol
# GULP energy per Si atom -5581.980148 kJ/mol
# Density = 2.146325 g / cm^3
# Si number density = 21.512217 Si / 1000 Ang^3
#
#
#
# Elastic Constant Matrix: (Units=GPa)
#
#
# Indices 1 2 3 4 5 6 
#
# 1 52.5166 8.5214 51.5323 0.0000 0.0000 0.0000
# 2 8.5214 62.9457 55.8662 0.0000 0.0000 0.0000
# 3 51.5323 55.8662 201.3072 0.0000 0.0000 0.0000
# 4 0.0000 0.0000 0.0000 33.8834 0.0000 0.0000
# 5 0.0000 0.0000 0.0000 0.0000 10.1085 0.0000
# 6 0.0000 0.0000 0.0000 0.0000 0.0000 17.4869
#
#
#
# Elastic Compliance Matrix: (Units=1/GPa)
#
#
# Indices 1 2 3 4 5 6 
#
# 1 0.025893 0.003154 -0.007504 0.000000 0.000000 0.000000
# 2 0.003154 0.021463 -0.006764 0.000000 0.000000 0.000000
# 3 -0.007504 -0.006764 0.008765 0.000000 0.000000 0.000000
# 4 0.000000 0.000000 0.000000 0.029513 0.000000 0.000000
# 5 0.000000 0.000000 0.000000 0.000000 0.098926 0.000000
# 6 0.000000 0.000000 0.000000 0.000000 0.000000 0.057186
#
#
# Mechanical properties :
#
#
# Convention : Reuss Voigt Hill
#
# Bulk Modulus (GPa) = 29.50286 60.95657 45.22972
# Shear Modulus (GPa) = 18.16396 25.68573 21.92484
#
# Velocity S-wave (km/s) = 2.90893 3.45919 3.19592
# Velocity P-wave (km/s) = 5.00267 6.65973 5.88977
#
# Compressibility (1/GPa) = 0.03389502
#
# Stress axis : x y z
#
# Youngs Moduli (GPa) = 38.62073 46.59239 114.08418
#
# Poissons Ratio (x) = -0.14697 0.85605
# Poissons Ratio (y) = -0.12183 0.77164
# Poissons Ratio (z) = 0.28980 0.31514
#
# Static dielectric constant tensor:
#      x y z
#    x 1.776340 0.000000 0.000000 
#    y 0.000000 1.815350 0.000000 
#    z 0.000000 0.000000 1.761310 
# 
# From -- ./inp_files/15245.got.cif
#   From: 2010.05.17/outbox.cif.g08.bks.cpg/sg49_8_cif.got.tgz:15245.got - 2010.06.03 21:02:19.
