data_PCOD9394120
_publ_section_title
;
Structure prediction by ZEFSAII (Michael W. Deem and Ramdas Pophale) SiO2 
 PCOD9394120
Probable space group: P C C M
;
_chemical_formula_sum "Si O2"
_cell_formula_units_Z 64
_cell_length_a 9.320144
_cell_length_b 20.175933
_cell_length_c 16.916991
_cell_angle_alpha 90.000000
_cell_angle_beta 90.000000
_cell_angle_gamma 90.000000
_cell_volume 3181.114987
_symmetry_space_group_name_H-M "P C C M"
_symmetry_group_IT_number 49
_symmetry_cell_setting 'orthorhombic'
loop_
_space_group_symop_operation_xyz
x,y,z
-x,-y,z
x,-y,1/2-z
-x,y,1/2-z
-x,-y,-z
x,y,-z
-x,y,1/2+z
x,-y,1/2+z
loop_
_atom_site_type_symbol
_atom_site_label
_atom_site_fract_x
_atom_site_fract_y
_atom_site_fract_z
Si Si1 0.598630 0.335725 0.174505
Si Si2 0.983860 0.171157 0.839561
Si Si3 0.167001 0.422116 0.763489
Si Si4 0.668623 0.194736 0.903853
Si Si5 0.657479 0.615213 0.089035
Si Si6 0.873089 0.046053 0.592824
Si Si7 0.212056 0.241036 0.087310
Si Si8 0.593362 0.110255 0.407506
O O1 0.500000 0.317821 0.250000
O O2 0.737118 0.373831 0.208394
O O3 0.627174 0.268093 0.126844
O O4 0.502601 0.387055 0.123817
O O5 0.823485 0.181513 0.866872
O O6 0.000000 0.147302 0.750000
O O7 0.055532 0.117867 0.897652
O O8 0.085718 0.235317 0.849346
O O9 0.190686 0.500000 0.750000
O O10 0.224725 0.413190 0.852303
O O11 0.000000 0.407448 0.750000
O O12 0.561008 0.134937 0.876794
O O13 0.669924 0.194608 0.000000
O O14 0.695511 0.693279 0.090337
O O15 0.665855 0.590237 0.000000
O O16 0.857438 0.028258 0.500000
O O17 0.709144 0.056087 0.624911
O O18 0.000000 0.000000 0.627626
O O19 0.319773 0.179608 0.095764
O O20 0.144459 0.238748 0.000000
O O21 0.572763 0.092480 0.500000
#
# Coordination Sequence:
#
# PCOD9394120 Si02
#       8
#     8   8   8   8   8   8   8   8
#     4  10  22  35  60  88 120 158 198 247 308 383
#     4  11  24  33  51  82 119 155 195 247 307 367
#     4  10  24  45  62  83 121 163 201 254 315 380
#     4  11  21  35  55  87 126 155 195 255 316 370
#     4  10  20  37  62  90 116 153 202 249 299 368
#     4   9  18  37  60  79 107 157 210 246 289 357
#     4   9  17  33  53  77 111 146 184 232 292 356
#     4   8  15  30  54  80 111 147 183 235 295 348
#
# _framework density 20.118731
#
# number of rings (size 3 to 8) (size 9 to 14) (size 15 to 20)
#    0.000    2.250    1.250    2.250    5.250    2.500 
#    0.000    4.375    0.000    3.000    0.000    3.500 
#    0.000    0.000    0.000    0.000    0.000    0.250 
#
# Total GULP energy -356423.973394 kJ/mol
# GULP energy per Si atom -5569.124584 kJ/mol
# Density = 2.007294 g / cm^3
# Si number density = 20.118731 Si / 1000 Ang^3
#
#
#
# Elastic Constant Matrix: (Units=GPa)
#
#
# Indices 1 2 3 4 5 6 
#
# 1 124.4794 14.0653 37.1355 0.0000 0.0000 0.0000
# 2 14.0653 26.1271 8.0733 0.0000 0.0000 0.0000
# 3 37.1355 8.0733 70.4862 0.0000 0.0000 0.0000
# 4 0.0000 0.0000 0.0000 10.9576 0.0000 0.0000
# 5 0.0000 0.0000 0.0000 0.0000 10.5727 0.0000
# 6 0.0000 0.0000 0.0000 0.0000 0.0000 19.5628
#
#
#
# Elastic Compliance Matrix: (Units=1/GPa)
#
#
# Indices 1 2 3 4 5 6 
#
# 1 0.009892 -0.003851 -0.004770 0.000000 0.000000 0.000000
# 2 -0.003851 0.041178 -0.002688 0.000000 0.000000 0.000000
# 3 -0.004770 -0.002688 0.017008 0.000000 0.000000 0.000000
# 4 0.000000 0.000000 0.000000 0.091261 0.000000 0.000000
# 5 0.000000 0.000000 0.000000 0.000000 0.094584 0.000000
# 6 0.000000 0.000000 0.000000 0.000000 0.000000 0.051118
#
#
# Mechanical properties :
#
#
# Convention : Reuss Voigt Hill
#
# Bulk Modulus (GPa) = 21.99725 37.73788 29.86756
# Shear Modulus (GPa) = 14.58528 19.00651 16.79589
#
# Velocity S-wave (km/s) = 2.69543 3.07696 2.89249
# Velocity P-wave (km/s) = 4.54363 5.60552 5.10228
#
# Compressibility (1/GPa) = 0.04546022
#
# Stress axis : x y z
#
# Youngs Moduli (GPa) = 101.09464 24.28473 58.79507
#
# Poissons Ratio (x) = 0.09352 0.28047
# Poissons Ratio (y) = 0.38932 0.15801
# Poissons Ratio (z) = 0.48226 0.06527
#
# Static dielectric constant tensor:
#      x y z
#    x 1.776620 0.000000 0.000000 
#    y 0.000000 1.767260 0.000000 
#    z 0.000000 0.000000 1.740310 
# 
# From -- ./inp_files/16588.got.cif
#   From: 2010.05.17/outbox.cif.g08.bks.cpg/sg49_9_cif.got.tgz:16588.got - 2010.06.03 21:02:19.
