data_PCOD9394825
_publ_section_title
;
Structure prediction by ZEFSAII (Michael W. Deem and Ramdas Pophale) SiO2 
 PCOD9394825
Probable space group: P C C M
;
_chemical_formula_sum "Si O2"
_cell_formula_units_Z 64
_cell_length_a 11.885991
_cell_length_b 16.032858
_cell_length_c 17.097431
_cell_angle_alpha 90.000000
_cell_angle_beta 90.000000
_cell_angle_gamma 90.000000
_cell_volume 3258.195976
_symmetry_space_group_name_H-M "P C C M"
_symmetry_group_IT_number 49
_symmetry_cell_setting 'orthorhombic'
loop_
_space_group_symop_operation_xyz
x,y,z
-x,-y,z
x,-y,1/2-z
-x,y,1/2-z
-x,-y,-z
x,y,-z
-x,y,1/2+z
x,-y,1/2+z
loop_
_atom_site_type_symbol
_atom_site_label
_atom_site_fract_x
_atom_site_fract_y
_atom_site_fract_z
Si Si1 0.736094 0.139534 0.407852
Si Si2 0.500274 0.402067 0.156283
Si Si3 0.502302 0.904020 0.344453
Si Si4 0.710784 0.286158 0.315480
Si Si5 0.733664 0.178549 0.153959
Si Si6 0.121534 0.403858 0.730727
Si Si7 0.742251 0.648463 0.411461
Si Si8 0.130197 0.025646 0.405306
O O1 0.741709 0.137420 0.500000
O O2 0.607899 0.138230 0.378313
O O3 0.777168 0.228033 0.376195
O O4 0.797613 0.055672 0.380050
O O5 0.500000 0.500000 0.128045
O O6 0.500000 0.407829 0.250000
O O7 0.399399 0.332746 0.147004
O O8 0.617645 0.366566 0.124046
O O9 0.500000 0.901306 0.250000
O O10 0.616361 0.861992 0.371603
O O11 0.500000 0.000000 0.369035
O O12 0.706747 0.223958 0.238139
O O13 0.785498 0.361153 0.284224
O O14 0.765725 0.253469 0.097145
O O15 0.825561 0.104776 0.144900
O O16 0.117835 0.500000 0.750000
O O17 0.164637 0.394003 0.642690
O O18 0.000000 0.365883 0.750000
O O19 0.744611 0.619858 0.500000
O O20 0.146770 0.040616 0.500000
O O21 0.000000 0.000000 0.394486
#
# Coordination Sequence:
#
# PCOD9394825 Si02
#       8
#     8   8   8   8   8   8   8   8
#     4  11  24  39  58  89 124 162 210 263 316 369
#     4  11  21  39  66  95 133 176 207 247 321 411
#     4  11  21  35  59  83 121 161 204 255 305 368
#     4  11  23  38  63  96 128 164 209 265 317 388
#     4  11  21  37  63  88 122 168 210 260 314 377
#     4  10  22  44  70  94 122 172 219 255 321 401
#     4  11  24  39  65 102 134 164 214 276 324 379
#     4  10  23  43  61  81 119 171 218 264 321 375
#
# _framework density 19.642772000000001
#
# number of rings (size 3 to 8) (size 9 to 14) (size 15 to 20)
#    0.000    1.250    5.000    1.875    0.000    5.500 
#    0.000    5.625    0.000    0.000    0.000    0.000 
#    0.000    0.000    0.000    0.000    0.000    0.000 
#
# Total GULP energy -356649.087715 kJ/mol
# GULP energy per Si atom -5572.641996 kJ/mol
# Density = 1.959806 g / cm^3
# Si number density = 19.642772 Si / 1000 Ang^3
#
#
#
# Elastic Constant Matrix: (Units=GPa)
#
#
# Indices 1 2 3 4 5 6 
#
# 1 108.4153 38.8242 34.5838 0.0000 0.0000 0.0000
# 2 38.8242 126.1535 27.0366 0.0000 0.0000 0.0000
# 3 34.5838 27.0366 68.7900 0.0000 0.0000 0.0000
# 4 0.0000 0.0000 0.0000 8.4760 0.0000 0.0000
# 5 0.0000 0.0000 0.0000 0.0000 11.8100 0.0000
# 6 0.0000 0.0000 0.0000 0.0000 0.0000 52.3549
#
#
#
# Elastic Compliance Matrix: (Units=1/GPa)
#
#
# Indices 1 2 3 4 5 6 
#
# 1 0.011693 -0.002554 -0.004875 0.000000 0.000000 0.000000
# 2 -0.002554 0.009214 -0.002337 0.000000 0.000000 0.000000
# 3 -0.004875 -0.002337 0.017907 0.000000 0.000000 0.000000
# 4 0.000000 0.000000 0.000000 0.117981 0.000000 0.000000
# 5 0.000000 0.000000 0.000000 0.000000 0.084674 0.000000
# 6 0.000000 0.000000 0.000000 0.000000 0.000000 0.019100
#
#
# Mechanical properties :
#
#
# Convention : Reuss Voigt Hill
#
# Bulk Modulus (GPa) = 51.86406 56.02755 53.94580
# Shear Modulus (GPa) = 17.45024 28.05578 22.75301
#
# Velocity S-wave (km/s) = 2.98380 3.78339 3.40713
# Velocity P-wave (km/s) = 6.19126 6.90438 6.55752
#
# Compressibility (1/GPa) = 0.01928118
#
# Stress axis : x y z
#
# Youngs Moduli (GPa) = 85.51776 108.53346 55.84554
#
# Poissons Ratio (x) = 0.27719 0.27225
# Poissons Ratio (y) = 0.21840 0.13053
# Poissons Ratio (z) = 0.41690 0.25368
#
# Static dielectric constant tensor:
#      x y z
#    x 1.441640 0.000000 0.000000 
#    y 0.000000 1.849370 0.000000 
#    z 0.000000 0.000000 1.728790 
# 
# From -- ./inp_files/17315.got.cif
#   From: 2010.05.17/outbox.cif.g08.bks.cpg/sg49_9_cif.got.tgz:17315.got - 2010.06.03 21:02:19.
