data_PCOD9394127
_publ_section_title
;
Structure prediction by ZEFSAII (Michael W. Deem and Ramdas Pophale) SiO2 
 PCOD9394127
Probable space group: P C C M
;
_chemical_formula_sum "Si O2"
_cell_formula_units_Z 48
_cell_length_a 9.890829
_cell_length_b 12.337388
_cell_length_c 17.594651
_cell_angle_alpha 90.000000
_cell_angle_beta 90.000000
_cell_angle_gamma 90.000000
_cell_volume 2147.022390
_symmetry_space_group_name_H-M "P C C M"
_symmetry_group_IT_number 49
_symmetry_cell_setting 'orthorhombic'
loop_
_space_group_symop_operation_xyz
x,y,z
-x,-y,z
x,-y,1/2-z
-x,y,1/2-z
-x,-y,-z
x,y,-z
-x,y,1/2+z
x,-y,1/2+z
loop_
_atom_site_type_symbol
_atom_site_label
_atom_site_fract_x
_atom_site_fract_y
_atom_site_fract_z
Si Si1 0.366861 0.247144 0.703954
Si Si2 0.323910 0.420292 0.587715
Si Si3 0.097040 0.907385 0.409759
Si Si4 0.016336 0.332711 0.586735
Si Si5 0.781498 0.406617 0.687732
Si Si6 0.652294 0.017197 0.839945
O O1 0.500000 0.211632 0.750000
O O2 0.404021 0.343042 0.645407
O O3 0.269060 0.300317 0.767434
O O4 0.312208 0.145311 0.655488
O O5 0.365845 0.418503 0.500000
O O6 0.313159 0.541183 0.621983
O O7 0.171894 0.367793 0.592249
O O8 0.111710 0.923284 0.500000
O O9 0.022647 0.792867 0.400451
O O10 0.243462 0.932373 0.375402
O O11 0.000000 0.000000 0.377292
O O12 0.973107 0.360143 0.500000
O O13 0.924648 0.390412 0.648503
O O14 0.786577 0.500000 0.750000
O O15 0.500000 0.000000 0.869398
O O16 0.654764 0.000000 0.750000
#
# Coordination Sequence:
#
# PCOD9394127 Si02
#       6
#     8   8   8   8   8   8
#     4  11  23  41  62  87 123 166 210 263 313 372
#     4  10  22  40  63  91 124 165 206 258 316 376
#     4  10  22  40  63  93 128 165 208 263 322 382
#     4  10  20  37  62  91 127 162 204 258 315 375
#     4  10  22  37  61  90 124 164 210 255 315 374
#     4  11  22  40  65  90 126 166 211 261 317 380
#
# _framework density 22.356545000000001
#
# number of rings (size 3 to 8) (size 9 to 14) (size 15 to 20)
#    0.000    1.667    1.667    3.000    0.000   11.667 
#    0.000    7.500    0.000    0.000    0.000    0.000 
#    0.000    0.000    0.000    0.000    0.000    0.000 
#
# Total GULP energy -268165.523903 kJ/mol
# GULP energy per Si atom -5586.781748 kJ/mol
# Density = 2.230566 g / cm^3
# Si number density = 22.356545 Si / 1000 Ang^3
#
#
#
# Elastic Constant Matrix: (Units=GPa)
#
#
# Indices 1 2 3 4 5 6 
#
# 1 78.8131 35.0859 13.3301 0.0000 0.0000 0.0000
# 2 35.0859 93.1664 22.4698 0.0000 0.0000 0.0000
# 3 13.3301 22.4698 68.7731 0.0000 0.0000 0.0000
# 4 0.0000 0.0000 0.0000 12.3421 0.0000 0.0000
# 5 0.0000 0.0000 0.0000 0.0000 29.6977 0.0000
# 6 0.0000 0.0000 0.0000 0.0000 0.0000 34.7399
#
#
#
# Elastic Compliance Matrix: (Units=1/GPa)
#
#
# Indices 1 2 3 4 5 6 
#
# 1 0.015331 -0.005490 -0.001178 0.000000 0.000000 0.000000
# 2 -0.005490 0.013617 -0.003385 0.000000 0.000000 0.000000
# 3 -0.001178 -0.003385 0.015875 0.000000 0.000000 0.000000
# 4 0.000000 0.000000 0.000000 0.081024 0.000000 0.000000
# 5 0.000000 0.000000 0.000000 0.000000 0.033673 0.000000
# 6 0.000000 0.000000 0.000000 0.000000 0.000000 0.028785
#
#
# Mechanical properties :
#
#
# Convention : Reuss Voigt Hill
#
# Bulk Modulus (GPa) = 40.45617 42.50269 41.47943
# Shear Modulus (GPa) = 23.07873 26.68039 24.87956
#
# Velocity S-wave (km/s) = 3.21643 3.45832 3.33957
# Velocity P-wave (km/s) = 5.65058 5.91601 5.78482
#
# Compressibility (1/GPa) = 0.02471811
#
# Stress axis : x y z
#
# Youngs Moduli (GPa) = 65.22591 73.43640 62.99257
#
# Poissons Ratio (x) = 0.40313 0.07421
# Poissons Ratio (y) = 0.35806 0.21323
# Poissons Ratio (z) = 0.07684 0.24859
#
# Static dielectric constant tensor:
#      x y z
#    x 1.858390 0.000000 0.000000 
#    y 0.000000 1.916890 0.000000 
#    z 0.000000 0.000000 1.804610 
# 
# From -- ./inp_files/17071.got.cif
#   From: 2010.05.17/outbox.cif.g08.bks.cpg/sg49_9_cif.got.tgz:17071.got - 2010.06.03 21:02:19.
