data_PCOD9394674
_publ_section_title
;
Structure prediction by ZEFSAII (Michael W. Deem and Ramdas Pophale) SiO2 
 PCOD9394674
Probable space group: P C C M
;
_chemical_formula_sum "Si O2"
_cell_formula_units_Z 56
_cell_length_a 21.371998
_cell_length_b 7.974640
_cell_length_c 15.443501
_cell_angle_alpha 90.000000
_cell_angle_beta 90.000000
_cell_angle_gamma 90.000000
_cell_volume 2632.097497
_symmetry_space_group_name_H-M "P C C M"
_symmetry_group_IT_number 49
_symmetry_cell_setting 'orthorhombic'
loop_
_space_group_symop_operation_xyz
x,y,z
-x,-y,z
x,-y,1/2-z
-x,y,1/2-z
-x,-y,-z
x,y,-z
-x,y,1/2+z
x,-y,1/2+z
loop_
_atom_site_type_symbol
_atom_site_label
_atom_site_fract_x
_atom_site_fract_y
_atom_site_fract_z
Si Si1 0.066530 0.950724 0.850178
Si Si2 0.664235 0.453026 0.850635
Si Si3 0.199649 0.048211 0.351854
Si Si4 0.336644 0.952285 0.149492
Si Si5 0.198132 0.547216 0.149449
Si Si6 0.427638 0.547035 0.000000
Si Si7 0.065275 0.422944 0.398564
Si Si8 0.427936 0.951772 0.000000
O O1 0.132853 0.013797 0.888478
O O2 0.070293 0.751510 0.850131
O O3 0.065087 0.000000 0.750000
O O4 0.000000 0.000000 0.891103
O O5 0.655390 0.500000 0.750000
O O6 0.664635 0.250334 0.853737
O O7 0.733489 0.512558 0.881320
O O8 0.610134 0.512927 0.915012
O O9 0.267708 0.988212 0.382217
O O10 0.199358 0.250536 0.362586
O O11 0.199016 0.000000 0.250000
O O12 0.390680 0.011985 0.085210
O O13 0.345466 0.000000 0.250000
O O14 0.196714 0.500000 0.250000
O O15 0.131693 0.483970 0.112949
O O16 0.500000 0.500000 0.000000
O O17 0.424576 0.749449 0.000000
O O18 0.058672 0.386457 0.500000
O O19 0.000000 0.500000 0.368659
O O20 0.500000 0.000000 0.000000
#
# Coordination Sequence:
#
# PCOD9394674 Si02
#       8
#     8   8   8   8   8   4   8   4
#     4   9  18  33  53  78 104 142 186 231 274 325
#     4   9  19  36  57  85 110 142 186 230 274 325
#     4   8  15  30  50  76 102 130 172 222 268 318
#     4   9  18  35  57  79 109 144 176 225 271 319
#     4   9  18  32  54  80 101 136 183 228 270 321
#     4  10  22  38  58  82 113 150 180 220 271 332
#     4  10  22  36  51  77 113 149 183 230 287 340
#     4  10  22  38  56  82 111 138 184 218 259 330
#
# _framework density 21.275805999999999
#
# number of rings (size 3 to 8) (size 9 to 14) (size 15 to 20)
#    0.000    2.857    0.000    0.000    1.000    8.000 
#    7.714    2.857    0.000    0.000    1.857    0.000 
#    0.000    0.000    0.000    0.000    0.000    0.000 
#
# Total GULP energy -311953.930026 kJ/mol
# GULP energy per Si atom -5570.605893 kJ/mol
# Density = 2.122738 g / cm^3
# Si number density = 21.275806 Si / 1000 Ang^3
#
#
#
# Elastic Constant Matrix: (Units=GPa)
#
#
# Indices 1 2 3 4 5 6 
#
# 1 268.8347 20.3377 81.7764 0.0000 0.0000 0.0000
# 2 20.3377 14.0720 9.0334 0.0000 0.0000 0.0000
# 3 81.7764 9.0334 80.2723 0.0000 0.0000 0.0000
# 4 0.0000 0.0000 0.0000 33.0917 0.0000 0.0000
# 5 0.0000 0.0000 0.0000 0.0000 48.8563 0.0000
# 6 0.0000 0.0000 0.0000 0.0000 0.0000 172.9990
#
#
#
# Elastic Compliance Matrix: (Units=1/GPa)
#
#
# Indices 1 2 3 4 5 6 
#
# 1 0.005681 -0.004845 -0.005242 0.000000 0.000000 0.000000
# 2 -0.004845 0.080729 -0.004149 0.000000 0.000000 0.000000
# 3 -0.005242 -0.004149 0.018265 0.000000 0.000000 0.000000
# 4 0.000000 0.000000 0.000000 0.030219 0.000000 0.000000
# 5 0.000000 0.000000 0.000000 0.000000 0.020468 0.000000
# 6 0.000000 0.000000 0.000000 0.000000 0.000000 0.005780
#
#
# Mechanical properties :
#
#
# Convention : Reuss Voigt Hill
#
# Bulk Modulus (GPa) = 13.12294 65.05268 39.08781
# Shear Modulus (GPa) = 23.25418 67.79152 45.52285
#
# Velocity S-wave (km/s) = 3.30962 5.65087 4.63066
# Velocity P-wave (km/s) = 4.55919 8.55680 6.85584
#
# Compressibility (1/GPa) = 0.07620241
#
# Stress axis : x y z
#
# Youngs Moduli (GPa) = 176.02894 12.38713 54.75022
#
# Poissons Ratio (x) = 0.06002 0.28700
# Poissons Ratio (y) = 0.85290 0.22715
# Poissons Ratio (z) = 0.92276 0.05139
#
# Static dielectric constant tensor:
#      x y z
#    x 1.864290 0.000000 0.000000 
#    y 0.000000 1.796790 0.000000 
#    z 0.000000 0.000000 1.758170 
# 
# From -- ./inp_files/14436.got.cif
#   From: 2010.05.17/outbox.cif.g08.bks.cpg/sg49_8_cif.got.tgz:14436.got - 2010.06.03 21:02:19.
