data_PCOD9394529
_publ_section_title
;
Structure prediction by ZEFSAII (Michael W. Deem and Ramdas Pophale) SiO2 
 PCOD9394529
Probable space group: P C C M
;
_chemical_formula_sum "Si O2"
_cell_formula_units_Z 56
_cell_length_a 14.887077
_cell_length_b 9.368114
_cell_length_c 18.517981
_cell_angle_alpha 90.000000
_cell_angle_beta 90.000000
_cell_angle_gamma 90.000000
_cell_volume 2582.588637
_symmetry_space_group_name_H-M "P C C M"
_symmetry_group_IT_number 49
_symmetry_cell_setting 'orthorhombic'
loop_
_space_group_symop_operation_xyz
x,y,z
-x,-y,z
x,-y,1/2-z
-x,y,1/2-z
-x,-y,-z
x,y,-z
-x,y,1/2+z
x,-y,1/2+z
loop_
_atom_site_type_symbol
_atom_site_label
_atom_site_fract_x
_atom_site_fract_y
_atom_site_fract_z
Si Si1 0.952190 0.346729 0.181035
Si Si2 0.793510 0.981592 0.830321
Si Si3 0.489207 0.168511 0.082116
Si Si4 0.786030 0.506696 0.143188
Si Si5 0.088791 0.762900 0.584244
Si Si6 0.678444 0.748482 0.370828
Si Si7 0.349388 0.737467 0.298633
O O1 0.849653 0.394461 0.187770
O O2 0.000000 0.500000 0.175153
O O3 0.000000 0.277117 0.250000
O O4 0.987505 0.259922 0.113179
O O5 0.863823 0.897001 0.878682
O O6 0.709285 0.877223 0.816578
O O7 0.833439 0.000000 0.750000
O O8 0.751263 0.123720 0.864648
O O9 0.591139 0.221102 0.083019
O O10 0.432050 0.246900 0.145224
O O11 0.500000 0.000000 0.099170
O O12 0.450855 0.183576 0.000000
O O13 0.851423 0.621528 0.104949
O O14 0.727404 0.392662 0.099987
O O15 0.713158 0.602871 0.183197
O O16 0.089397 0.778777 0.500000
O O17 0.639729 0.733126 0.287979
#
# Coordination Sequence:
#
# PCOD9394529 Si02
#       7
#     8   8   8   8   8   8   8
#     4   9  20  35  64  95 127 170 219 265 318 383
#     4   9  20  36  63  97 125 169 222 271 322 390
#     4  11  24  42  61  88 125 170 219 269 335 400
#     4  10  23  38  63  98 128 165 212 270 324 386
#     4  10  22  41  65  95 132 173 216 266 331 398
#     4  11  22  38  66  92 128 166 219 270 324 386
#     4  10  21  38  65  92 125 164 218 273 319 387
#
# _framework density 21.683669999999999
#
# number of rings (size 3 to 8) (size 9 to 14) (size 15 to 20)
#    0.000    2.000    1.429    0.857   12.000    7.143 
#    0.000    2.857    0.000    0.857    0.000    0.000 
#    0.000    0.000    0.000    0.000    0.000    0.000 
#
# Total GULP energy -312261.805301 kJ/mol
# GULP energy per Si atom -5576.103666 kJ/mol
# Density = 2.163432 g / cm^3
# Si number density = 21.683670 Si / 1000 Ang^3
#
#
#
# Elastic Constant Matrix: (Units=GPa)
#
#
# Indices 1 2 3 4 5 6 
#
# 1 97.5286 46.5362 43.3123 0.0000 0.0000 0.0000
# 2 46.5362 93.8862 35.2875 0.0000 0.0000 0.0000
# 3 43.3123 35.2875 115.8114 0.0000 0.0000 0.0000
# 4 0.0000 0.0000 0.0000 0.0833 0.0000 0.0000
# 5 0.0000 0.0000 0.0000 0.0000 21.8278 0.0000
# 6 0.0000 0.0000 0.0000 0.0000 0.0000 12.1034
#
#
#
# Elastic Compliance Matrix: (Units=1/GPa)
#
#
# Indices 1 2 3 4 5 6 
#
# 1 0.014714 -0.005901 -0.003705 0.000000 0.000000 0.000000
# 2 -0.005901 0.014395 -0.002179 0.000000 0.000000 0.000000
# 3 -0.003705 -0.002179 0.010684 0.000000 0.000000 0.000000
# 4 0.000000 0.000000 0.000000 12.004782 0.000000 0.000000
# 5 0.000000 0.000000 0.000000 0.000000 0.045813 0.000000
# 6 0.000000 0.000000 0.000000 0.000000 0.000000 0.082621
#
#
# Mechanical properties :
#
#
# Convention : Reuss Voigt Hill
#
# Bulk Modulus (GPa) = 61.63895 61.94425 61.79160
# Shear Modulus (GPa) = 0.40977 18.94225 9.67601
#
# Velocity S-wave (km/s) = 0.43519 2.95883 2.11472
# Velocity P-wave (km/s) = 5.36103 6.34840 5.87549
#
# Compressibility (1/GPa) = 0.01622351
#
# Stress axis : x y z
#
# Youngs Moduli (GPa) = 67.96033 69.46774 93.59429
#
# Poissons Ratio (x) = 0.40992 0.34677
# Poissons Ratio (y) = 0.40103 0.20397
# Poissons Ratio (z) = 0.25180 0.15139
#
# Static dielectric constant tensor:
#      x y z
#    x 1.796320 0.000000 0.000000 
#    y 0.000000 1.821610 0.000000 
#    z 0.000000 0.000000 1.838260 
# 
# From -- ./inp_files/20848.got.cif
#   From: 2010.05.17/outbox.cif.g08.bks.cpg/sg49_11_cif.got.tgz:20848.got - 2010.06.03 21:02:19.
