data_PCOD9394470
_publ_section_title
;
Structure prediction by ZEFSAII (Michael W. Deem and Ramdas Pophale) SiO2 
 PCOD9394470
Probable space group: P C C M
;
_chemical_formula_sum "Si O2"
_cell_formula_units_Z 64
_cell_length_a 27.180721
_cell_length_b 6.875553
_cell_length_c 18.425045
_cell_angle_alpha 90.000000
_cell_angle_beta 90.000000
_cell_angle_gamma 90.000000
_cell_volume 3443.318248
_symmetry_space_group_name_H-M "P C C M"
_symmetry_group_IT_number 49
_symmetry_cell_setting 'orthorhombic'
loop_
_space_group_symop_operation_xyz
x,y,z
-x,-y,z
x,-y,1/2-z
-x,y,1/2-z
-x,-y,-z
x,y,-z
-x,y,1/2+z
x,-y,1/2+z
loop_
_atom_site_type_symbol
_atom_site_label
_atom_site_fract_x
_atom_site_fract_y
_atom_site_fract_z
Si Si1 0.444465 0.076664 0.171400
Si Si2 0.892786 0.449152 0.335229
Si Si3 0.695575 0.168245 0.586527
Si Si4 0.617831 0.435007 0.668766
Si Si5 0.043113 0.854791 0.416514
Si Si6 0.810148 0.810874 0.087612
Si Si7 0.629369 0.169435 0.084679
Si Si8 0.868796 0.835881 0.418890
O O1 0.413201 0.979144 0.107981
O O2 0.500000 0.000000 0.166269
O O3 0.425553 0.000000 0.250000
O O4 0.432105 0.305525 0.168562
O O5 0.894774 0.500000 0.250000
O O6 0.939372 0.323891 0.365974
O O7 0.845153 0.325780 0.363558
O O8 0.887483 0.657446 0.372926
O O9 0.685501 0.195784 0.500000
O O10 0.660413 0.301854 0.634585
O O11 0.752402 0.218010 0.598789
O O12 0.679855 0.945245 0.603706
O O13 0.628766 0.500000 0.750000
O O14 0.617320 0.631474 0.623730
O O15 0.031470 0.790233 0.500000
O O16 0.089486 0.998876 0.421086
O O17 0.000000 0.000000 0.390552
O O18 0.822395 0.036567 0.105871
O O19 0.820676 0.784899 0.000000
O O20 0.630069 0.205240 0.000000
O O21 0.859157 0.762362 0.500000
#
# Coordination Sequence:
#
# PCOD9394470 Si02
#       8
#     8   8   8   8   8   8   8   8
#     4  10  21  39  59  82 113 153 193 237 292 353
#     4  11  22  35  54  84 121 151 184 236 300 352
#     4   9  20  37  58  83 116 152 192 242 292 343
#     4  11  21  36  58  84 115 152 195 238 291 350
#     4   9  19  37  59  81 107 147 200 247 287 340
#     4   9  19  37  58  82 111 153 201 236 277 343
#     4  10  21  38  58  84 115 149 190 244 300 350
#     4   9  18  35  58  79 105 146 192 240 282 332
#
# _framework density 18.586722000000002
#
# number of rings (size 3 to 8) (size 9 to 14) (size 15 to 20)
#    0.000    2.250    1.250    2.250    0.000    5.250 
#    0.000    8.125    0.000    0.000    0.000    0.000 
#    0.000    0.000    0.000    0.000    0.000    0.000 
#
# Total GULP energy -356502.119133 kJ/mol
# GULP energy per Si atom -5570.345611 kJ/mol
# Density = 1.854442 g / cm^3
# Si number density = 18.586722 Si / 1000 Ang^3
#
#
#
# Elastic Constant Matrix: (Units=GPa)
#
#
# Indices 1 2 3 4 5 6 
#
# 1 76.8504 17.0042 22.6595 0.0000 0.0000 0.0000
# 2 17.0042 109.3802 58.1943 0.0000 0.0000 0.0000
# 3 22.6595 58.1943 77.9577 0.0000 0.0000 0.0000
# 4 0.0000 0.0000 0.0000 31.5711 0.0000 0.0000
# 5 0.0000 0.0000 0.0000 0.0000 19.0331 0.0000
# 6 0.0000 0.0000 0.0000 0.0000 0.0000 25.3643
#
#
#
# Elastic Compliance Matrix: (Units=1/GPa)
#
#
# Indices 1 2 3 4 5 6 
#
# 1 0.014232 -0.000019 -0.004122 0.000000 0.000000 0.000000
# 2 -0.000019 0.015166 -0.011315 0.000000 0.000000 0.000000
# 3 -0.004122 -0.011315 0.022472 0.000000 0.000000 0.000000
# 4 0.000000 0.000000 0.000000 0.031675 0.000000 0.000000
# 5 0.000000 0.000000 0.000000 0.000000 0.052540 0.000000
# 6 0.000000 0.000000 0.000000 0.000000 0.000000 0.039426
#
#
# Mechanical properties :
#
#
# Convention : Reuss Voigt Hill
#
# Bulk Modulus (GPa) = 47.71858 51.10046 49.40952
# Shear Modulus (GPa) = 23.42917 26.28238 24.85578
#
# Velocity S-wave (km/s) = 3.55425 3.76445 3.66086
# Velocity P-wave (km/s) = 6.52478 6.81524 6.67159
#
# Compressibility (1/GPa) = 0.02095620
#
# Stress axis : x y z
#
# Youngs Moduli (GPa) = 70.26397 65.93897 44.49914
#
# Poissons Ratio (x) = 0.00127 0.18344
# Poissons Ratio (y) = 0.00135 0.50352
# Poissons Ratio (z) = 0.28965 0.74612
#
# Static dielectric constant tensor:
#      x y z
#    x 1.676550 0.000000 0.000000 
#    y 0.000000 1.663600 0.000000 
#    z 0.000000 0.000000 1.616840 
# 
# From -- ./inp_files/18443.got.cif
#   From: 2010.05.17/outbox.cif.g08.bks.cpg/sg49_10_cif.got.tgz:18443.got - 2010.06.03 21:02:19.
