data_PCOD9394340
_publ_section_title
;
Structure prediction by ZEFSAII (Michael W. Deem and Ramdas Pophale) SiO2 
 PCOD9394340
Probable space group: P C C M
;
_chemical_formula_sum "Si O2"
_cell_formula_units_Z 40
_cell_length_a 8.776974
_cell_length_b 8.417228
_cell_length_c 27.544083
_cell_angle_alpha 90.000000
_cell_angle_beta 90.000000
_cell_angle_gamma 90.000000
_cell_volume 2034.896016
_symmetry_space_group_name_H-M "P C C M"
_symmetry_group_IT_number 49
_symmetry_cell_setting 'orthorhombic'
loop_
_space_group_symop_operation_xyz
x,y,z
-x,-y,z
x,-y,1/2-z
-x,y,1/2-z
-x,-y,-z
x,y,-z
-x,y,1/2+z
x,-y,1/2+z
loop_
_atom_site_type_symbol
_atom_site_label
_atom_site_fract_x
_atom_site_fract_y
_atom_site_fract_z
Si Si1 0.327513 0.439397 0.199708
Si Si2 0.817540 0.428618 0.000000
Si Si3 0.673882 0.941122 0.801520
Si Si4 0.171374 0.060234 0.098409
Si Si5 0.322620 0.935427 0.000000
Si Si6 0.827794 0.440309 0.398969
O O1 0.500000 0.500000 0.199203
O O2 0.255089 0.500000 0.250000
O O3 0.325698 0.249259 0.199860
O O4 0.251880 0.497230 0.150125
O O5 0.755133 0.245037 0.000000
O O6 0.757637 0.497341 0.949237
O O7 0.000000 0.500000 0.000000
O O8 0.757480 0.996636 0.850449
O O9 0.500000 0.000000 0.804005
O O10 0.739715 0.000000 0.750000
O O11 0.173770 0.250603 0.099533
O O12 0.000000 0.000000 0.094812
O O13 0.258483 0.004936 0.050413
O O14 0.500000 0.000000 0.000000
O O15 0.000000 0.500000 0.396772
#
# Coordination Sequence:
#
# PCOD9394340 Si02
#       6
#     8   4   8   8   4   8
#     4  10  21  36  57  83 114 153 195 242 296 354
#     4  10  21  40  64  87 118 159 197 245 307 364
#     4  10  21  37  59  86 119 157 199 250 308 365
#     4  11  23  40  62  89 122 160 204 252 308 372
#     4  12  26  42  65  95 125 161 205 257 312 372
#     4  10  22  39  60  86 116 156 198 243 297 358
#
# _framework density 19.657022999999999
#
# number of rings (size 3 to 8) (size 9 to 14) (size 15 to 20)
#    0.000    1.600    0.000    6.300    0.000   10.400 
#    0.000    5.500    0.000    0.000    0.000    0.000 
#    0.000    0.000    0.000    0.000    0.000    0.000 
#
# Total GULP energy -222932.903309 kJ/mol
# GULP energy per Si atom -5573.322583 kJ/mol
# Density = 1.961228 g / cm^3
# Si number density = 19.657023 Si / 1000 Ang^3
#
#
#
# Elastic Constant Matrix: (Units=GPa)
#
#
# Indices 1 2 3 4 5 6 
#
# 1 85.7535 24.6825 83.8349 0.0000 0.0000 0.0000
# 2 24.6825 72.2221 53.6773 0.0000 0.0000 0.0000
# 3 83.8349 53.6773 256.7178 0.0000 0.0000 0.0000
# 4 0.0000 0.0000 0.0000 45.8343 0.0000 0.0000
# 5 0.0000 0.0000 0.0000 0.0000 52.1429 0.0000
# 6 0.0000 0.0000 0.0000 0.0000 0.0000 22.9666
#
#
#
# Elastic Compliance Matrix: (Units=1/GPa)
#
#
# Indices 1 2 3 4 5 6 
#
# 1 0.017380 -0.002038 -0.005250 0.000000 0.000000 0.000000
# 2 -0.002038 0.016633 -0.002812 0.000000 0.000000 0.000000
# 3 -0.005250 -0.002812 0.006198 0.000000 0.000000 0.000000
# 4 0.000000 0.000000 0.000000 0.021818 0.000000 0.000000
# 5 0.000000 0.000000 0.000000 0.000000 0.019178 0.000000
# 6 0.000000 0.000000 0.000000 0.000000 0.000000 0.043541
#
#
# Mechanical properties :
#
#
# Convention : Reuss Voigt Hill
#
# Bulk Modulus (GPa) = 49.97315 82.12030 66.04673
# Shear Modulus (GPa) = 32.97764 41.02201 36.99982
#
# Velocity S-wave (km/s) = 4.10036 4.57320 4.34322
# Velocity P-wave (km/s) = 6.92062 8.35182 7.66967
#
# Compressibility (1/GPa) = 0.02001075
#
# Stress axis : x y z
#
# Youngs Moduli (GPa) = 57.53707 60.12214 161.35157
#
# Poissons Ratio (x) = 0.12254 0.84702
# Poissons Ratio (y) = 0.11727 0.45375
# Poissons Ratio (z) = 0.30204 0.16907
#
# Static dielectric constant tensor:
#      x y z
#    x 1.693560 0.000000 0.000000 
#    y 0.000000 1.704160 0.000000 
#    z 0.000000 0.000000 1.727710 
# 
# From -- ./inp_files/24388.got.cif
#   From: 2010.05.17/outbox.cif.g08.bks.cpg/sg49_13_cif.got.tgz:24388.got - 2010.06.03 21:02:19.
