data_PCOD9394482
_publ_section_title
;
Structure prediction by ZEFSAII (Michael W. Deem and Ramdas Pophale) SiO2 
 PCOD9394482
Probable space group: P C C M
;
_chemical_formula_sum "Si O2"
_cell_formula_units_Z 56
_cell_length_a 20.849386
_cell_length_b 9.238897
_cell_length_c 14.087659
_cell_angle_alpha 90.000000
_cell_angle_beta 90.000000
_cell_angle_gamma 90.000000
_cell_volume 2713.639961
_symmetry_space_group_name_H-M "P C C M"
_symmetry_group_IT_number 49
_symmetry_cell_setting 'orthorhombic'
loop_
_space_group_symop_operation_xyz
x,y,z
-x,-y,z
x,-y,1/2-z
-x,y,1/2-z
-x,-y,-z
x,y,-z
-x,y,1/2+z
x,-y,1/2+z
loop_
_atom_site_type_symbol
_atom_site_label
_atom_site_fract_x
_atom_site_fract_y
_atom_site_fract_z
Si Si1 0.932294 0.084549 0.611041
Si Si2 0.075183 0.340572 0.740899
Si Si3 0.608669 0.639216 0.386709
Si Si4 0.359851 0.694761 0.388041
Si Si5 0.265683 0.672035 0.766479
Si Si6 0.511397 0.835060 0.884740
Si Si7 0.156110 0.187460 0.391608
O O1 0.939454 0.127079 0.500000
O O2 0.913369 0.217468 0.679367
O O3 0.873241 0.972080 0.618069
O O4 0.000000 0.000000 0.636645
O O5 0.104949 0.500000 0.750000
O O6 0.095188 0.284624 0.637604
O O7 0.000000 0.356018 0.750000
O O8 0.614175 0.660334 0.500000
O O9 0.611699 0.466593 0.369536
O O10 0.672623 0.691360 0.334756
O O11 0.544262 0.722487 0.355225
O O12 0.350224 0.708252 0.500000
O O13 0.293601 0.721952 0.334364
O O14 0.417063 0.796111 0.354465
O O15 0.252362 0.500000 0.750000
O O16 0.208667 0.759897 0.815473
O O17 0.500000 0.000000 0.858067
O O18 0.511661 0.826366 0.000000
O O19 0.177367 0.210794 0.500000
#
# Coordination Sequence:
#
# PCOD9394482 Si02
#       7
#     8   8   8   8   8   8   8
#     4  10  21  41  68  97 131 169 207 252 309 373
#     4  11  23  39  65  99 133 168 208 257 306 363
#     4   9  17  32  56  82 114 156 203 257 318 386
#     4   9  18  34  57  82 112 157 208 259 321 384
#     4  10  21  38  59  87 122 163 212 268 322 385
#     4   9  17  31  52  81 116 153 199 261 321 376
#     4  11  23  40  65  94 127 169 211 258 321 387
#
# _framework density 20.636489000000001
#
# number of rings (size 3 to 8) (size 9 to 14) (size 15 to 20)
#    0.000    2.143    1.429    1.714    0.000    3.429 
#    0.000    8.571    0.000    6.000    0.000    0.000 
#    0.000    0.000    0.000    0.000    0.000    0.000 
#
# Total GULP energy -312204.483823 kJ/mol
# GULP energy per Si atom -5575.080068 kJ/mol
# Density = 2.058952 g / cm^3
# Si number density = 20.636489 Si / 1000 Ang^3
#
#
#
# Elastic Constant Matrix: (Units=GPa)
#
#
# Indices 1 2 3 4 5 6 
#
# 1 118.5195 33.3547 43.7429 0.0000 0.0000 0.0000
# 2 33.3547 85.3640 54.1082 0.0000 0.0000 0.0000
# 3 43.7429 54.1082 112.8312 0.0000 0.0000 0.0000
# 4 0.0000 0.0000 0.0000 2.4230 0.0000 0.0000
# 5 0.0000 0.0000 0.0000 0.0000 33.4841 0.0000
# 6 0.0000 0.0000 0.0000 0.0000 0.0000 12.4591
#
#
#
# Elastic Compliance Matrix: (Units=1/GPa)
#
#
# Indices 1 2 3 4 5 6 
#
# 1 0.010103 -0.002105 -0.002907 0.000000 0.000000 0.000000
# 2 -0.002105 0.017269 -0.007465 0.000000 0.000000 0.000000
# 3 -0.002907 -0.007465 0.013570 0.000000 0.000000 0.000000
# 4 0.000000 0.000000 0.000000 0.412711 0.000000 0.000000
# 5 0.000000 0.000000 0.000000 0.000000 0.029865 0.000000
# 6 0.000000 0.000000 0.000000 0.000000 0.000000 0.080262
#
#
# Mechanical properties :
#
#
# Convention : Reuss Voigt Hill
#
# Bulk Modulus (GPa) = 62.55158 64.34735 63.44947
# Shear Modulus (GPa) = 8.41661 22.04050 15.22855
#
# Velocity S-wave (km/s) = 2.02172 3.27163 2.71946
# Velocity P-wave (km/s) = 5.98555 6.74688 6.37759
#
# Compressibility (1/GPa) = 0.01598681
#
# Stress axis : x y z
#
# Youngs Moduli (GPa) = 98.98245 57.90786 73.69224
#
# Poissons Ratio (x) = 0.12188 0.21425
# Poissons Ratio (y) = 0.20832 0.55014
# Poissons Ratio (z) = 0.28778 0.43230
#
# Static dielectric constant tensor:
#      x y z
#    x 1.752090 0.000000 0.000000 
#    y 0.000000 1.774080 0.000000 
#    z 0.000000 0.000000 1.773320 
# 
# From -- ./inp_files/14388.got.cif
#   From: 2010.05.17/outbox.cif.g08.bks.cpg/sg49_8_cif.got.tgz:14388.got - 2010.06.03 21:02:19.
