data_PCOD9394239
_publ_section_title
;
Structure prediction by ZEFSAII (Michael W. Deem and Ramdas Pophale) SiO2 
 PCOD9394239
Probable space group: P C C M
;
_chemical_formula_sum "Si O2"
_cell_formula_units_Z 40
_cell_length_a 8.768279
_cell_length_b 11.510091
_cell_length_c 18.725745
_cell_angle_alpha 90.000000
_cell_angle_beta 90.000000
_cell_angle_gamma 90.000000
_cell_volume 1889.871268
_symmetry_space_group_name_H-M "P C C M"
_symmetry_group_IT_number 49
_symmetry_cell_setting 'orthorhombic'
loop_
_space_group_symop_operation_xyz
x,y,z
-x,-y,z
x,-y,1/2-z
-x,y,1/2-z
-x,-y,-z
x,y,-z
-x,y,1/2+z
x,-y,1/2+z
loop_
_atom_site_type_symbol
_atom_site_label
_atom_site_fract_x
_atom_site_fract_y
_atom_site_fract_z
Si Si1 0.675720 0.373499 0.225834
Si Si2 0.359673 0.734769 0.919258
Si Si3 0.937201 0.869624 0.417841
Si Si4 0.629160 0.902312 0.083075
Si Si5 0.134460 0.826359 0.697174
O O1 0.728836 0.500000 0.250000
O O2 0.500000 0.359256 0.250000
O O3 0.674858 0.358060 0.140863
O O4 0.775799 0.271552 0.260306
O O5 0.240530 0.842110 0.906934
O O6 0.530877 0.783678 0.913494
O O7 0.334901 0.694548 0.000000
O O8 0.967648 0.849100 0.500000
O O9 0.032417 0.782759 0.368926
O O10 0.000000 0.000000 0.402157
O O11 0.739836 0.901350 0.152365
O O12 0.500000 0.000000 0.088700
O O13 0.692698 0.912691 0.000000
O O14 0.000000 0.874685 0.750000
#
# Coordination Sequence:
#
# PCOD9394239 Si02
#       5
#     8   8   8   8   8
#     4  11  24  46  66  87 123 170 220 284 345 389
#     4  10  20  40  65  92 126 168 219 266 318 393
#     4  10  21  39  61  91 133 175 211 255 322 397
#     4  10  21  40  67  97 133 178 223 266 318 393
#     4  12  23  39  63  98 133 170 214 267 337 393
#
# _framework density 21.165464
#
# number of rings (size 3 to 8) (size 9 to 14) (size 15 to 20)
#    0.000    1.400    4.000    1.800    0.000    4.000 
#    3.600    5.000    0.000    2.400    0.000    0.000 
#    0.000    2.400    0.000    0.000    0.000    0.000 
#
# Total GULP energy -222879.428352 kJ/mol
# GULP energy per Si atom -5571.985709 kJ/mol
# Density = 2.111729 g / cm^3
# Si number density = 21.165464 Si / 1000 Ang^3
#
#
#
# Elastic Constant Matrix: (Units=GPa)
#
#
# Indices 1 2 3 4 5 6 
#
# 1 97.9980 18.3679 51.2923 0.0000 0.0000 0.0000
# 2 18.3679 65.1510 74.1319 0.0000 0.0000 0.0000
# 3 51.2923 74.1319 160.0054 0.0000 0.0000 0.0000
# 4 0.0000 0.0000 0.0000 18.5143 0.0000 0.0000
# 5 0.0000 0.0000 0.0000 0.0000 37.7386 0.0000
# 6 0.0000 0.0000 0.0000 0.0000 0.0000 13.2329
#
#
#
# Elastic Compliance Matrix: (Units=1/GPa)
#
#
# Indices 1 2 3 4 5 6 
#
# 1 0.012405 0.002173 -0.004984 0.000000 0.000000 0.000000
# 2 0.002173 0.032843 -0.015913 0.000000 0.000000 0.000000
# 3 -0.004984 -0.015913 0.015220 0.000000 0.000000 0.000000
# 4 0.000000 0.000000 0.000000 0.054012 0.000000 0.000000
# 5 0.000000 0.000000 0.000000 0.000000 0.026498 0.000000
# 6 0.000000 0.000000 0.000000 0.000000 0.000000 0.075569
#
#
# Mechanical properties :
#
#
# Convention : Reuss Voigt Hill
#
# Bulk Modulus (GPa) = 43.43801 67.85985 55.64893
# Shear Modulus (GPa) = 19.10813 25.85463 22.48138
#
# Velocity S-wave (km/s) = 3.00792 3.49886 3.26263
# Velocity P-wave (km/s) = 5.71236 6.96088 6.36730
#
# Compressibility (1/GPa) = 0.02302131
#
# Stress axis : x y z
#
# Youngs Moduli (GPa) = 80.61016 30.44795 65.70300
#
# Poissons Ratio (x) = -0.06617 0.32743
# Poissons Ratio (y) = -0.17517 1.04554
# Poissons Ratio (z) = 0.40173 0.48452
#
# Static dielectric constant tensor:
#      x y z
#    x 1.860280 0.000000 0.000000 
#    y 0.000000 1.795350 0.000000 
#    z 0.000000 0.000000 1.781040 
# 
# From -- ./inp_files/15971.got.cif
#   From: 2010.05.17/outbox.cif.g08.bks.cpg/sg49_8_cif.got.tgz:15971.got - 2010.06.03 21:02:19.
