data_PCOD9394189
_publ_section_title
;
Structure prediction by ZEFSAII (Michael W. Deem and Ramdas Pophale) SiO2 
 PCOD9394189
Probable space group: P C C M
;
_chemical_formula_sum "Si O2"
_cell_formula_units_Z 34
_cell_length_a 20.282173
_cell_length_b 9.635383
_cell_length_c 8.175771
_cell_angle_alpha 90.000000
_cell_angle_beta 90.000000
_cell_angle_gamma 90.000000
_cell_volume 1597.762352
_symmetry_space_group_name_H-M "P C C M"
_symmetry_group_IT_number 49
_symmetry_cell_setting 'orthorhombic'
loop_
_space_group_symop_operation_xyz
x,y,z
-x,-y,z
x,-y,1/2-z
-x,y,1/2-z
-x,-y,-z
x,y,-z
-x,y,1/2+z
x,-y,1/2+z
loop_
_atom_site_type_symbol
_atom_site_label
_atom_site_fract_x
_atom_site_fract_y
_atom_site_fract_z
Si Si1 0.075541 0.155968 0.304571
Si Si2 0.311830 0.845013 0.810202
Si Si3 0.806561 0.341985 0.308414
Si Si4 0.408327 0.628040 0.698990
Si Si5 0.500000 0.500000 0.500000
O O1 0.080051 0.164984 0.500000
O O2 0.123764 0.267388 0.224386
O O3 0.000000 0.176456 0.250000
O O4 0.094845 0.000000 0.250000
O O5 0.248048 0.750071 0.782948
O O6 0.371812 0.771784 0.714299
O O7 0.299333 0.000000 0.750000
O O8 0.329313 0.846898 0.000000
O O9 0.808413 0.500000 0.250000
O O10 0.790352 0.337642 0.500000
O O11 0.359349 0.500000 0.750000
O O12 0.430318 0.615311 0.500000
O O13 0.457459 0.598226 0.852133
#
# Coordination Sequence:
#
# PCOD9394189 Si02
#       5
#     8   8   8   8   2
#     4  11  22  40  64  94 131 179 231 284 345 412
#     4  12  25  43  66  97 135 176 220 275 338 400
#     4  12  25  43  65  95 132 174 227 285 342 406
#     4  10  20  38  64  98 127 168 210 259 309 383
#     4   8  22  36  70  94 134 164 218 250 318 376
#
# _framework density 21.279761000000001
#
# number of rings (size 3 to 8) (size 9 to 14) (size 15 to 20)
#    0.706    0.235    0.000    9.529    0.000    0.471 
#    0.000    2.353    0.000    4.235    0.000    0.000 
#    0.000    0.000    0.000    0.000    0.000    0.000 
#
# Total GULP energy -189340.466460 kJ/mol
# GULP energy per Si atom -5568.837249 kJ/mol
# Density = 2.123133 g / cm^3
# Si number density = 21.279761 Si / 1000 Ang^3
#
#
#
# Elastic Constant Matrix: (Units=GPa)
#
#
# Indices 1 2 3 4 5 6 
#
# 1 76.9244 71.7503 26.3191 0.0000 0.0000 0.0000
# 2 71.7503 176.7617 36.2576 0.0000 0.0000 0.0000
# 3 26.3191 36.2576 125.9791 0.0000 0.0000 0.0000
# 4 0.0000 0.0000 0.0000 -29.1096 0.0000 0.0000
# 5 0.0000 0.0000 0.0000 0.0000 21.4706 0.0000
# 6 0.0000 0.0000 0.0000 0.0000 0.0000 30.9975
#
#
#
# Elastic Compliance Matrix: (Units=1/GPa)
#
#
# Indices 1 2 3 4 5 6 
#
# 1 0.021430 -0.008268 -0.002097 0.000000 0.000000 0.000000
# 2 -0.008268 0.009203 -0.000921 0.000000 0.000000 0.000000
# 3 -0.002097 -0.000921 0.008641 0.000000 0.000000 0.000000
# 4 0.000000 0.000000 0.000000 -0.034353 0.000000 0.000000
# 5 0.000000 0.000000 0.000000 0.000000 0.046575 0.000000
# 6 0.000000 0.000000 0.000000 0.000000 0.000000 0.032261
#
#
# Mechanical properties :
#
#
# Convention : Reuss Voigt Hill
#
# Bulk Modulus (GPa) = 59.88181 72.03546 65.95863
# Shear Modulus (GPa) = 44.68416 21.02759 32.85587
#
# Velocity S-wave (km/s) = 4.58738 3.14690 3.93363
# Velocity P-wave (km/s) = 7.50067 6.86506 7.18989
#
# Compressibility (1/GPa) = 0.01669956
#
# Stress axis : x y z
#
# Youngs Moduli (GPa) = 46.66441 108.66550 115.72608
#
# Poissons Ratio (x) = 0.89849 0.24271
# Poissons Ratio (y) = 0.38584 0.10660
# Poissons Ratio (z) = 0.09787 0.10010
#
# Static dielectric constant tensor:
#      x y z
#    x 1.882240 0.000000 0.000000 
#    y 0.000000 1.854690 0.000000 
#    z 0.000000 0.000000 1.822670 
# 
# From -- ./inp_files/1553.got.cif
#   From: 2010.05.17/outbox.cif.g08.bks.cpg/sg49_1_cif.got.tgz:1553.got - 2010.06.03 21:02:19.
