data_PCOD9394867
_publ_section_title
;
Structure prediction by ZEFSAII (Michael W. Deem and Ramdas Pophale) SiO2 
 PCOD9394867
Probable space group: P C C M
;
_chemical_formula_sum "Si O2"
_cell_formula_units_Z 28
_cell_length_a 10.716019
_cell_length_b 4.941988
_cell_length_c 20.155697
_cell_angle_alpha 90.000000
_cell_angle_beta 90.000000
_cell_angle_gamma 90.000000
_cell_volume 1067.414216
_symmetry_space_group_name_H-M "P C C M"
_symmetry_group_IT_number 49
_symmetry_cell_setting 'orthorhombic'
loop_
_space_group_symop_operation_xyz
x,y,z
-x,-y,z
x,-y,1/2-z
-x,y,1/2-z
-x,-y,-z
x,y,-z
-x,y,1/2+z
x,-y,1/2+z
loop_
_atom_site_type_symbol
_atom_site_label
_atom_site_fract_x
_atom_site_fract_y
_atom_site_fract_z
Si Si1 0.170174 0.676980 0.000000
Si Si2 0.000000 0.000000 0.250000
Si Si3 0.500000 0.000000 0.750000
Si Si4 0.655197 0.819365 0.000000
Si Si5 0.342855 0.693916 0.640728
Si Si6 0.170133 0.807857 0.859939
O O1 0.223264 0.375764 0.000000
O O2 0.106441 0.737471 0.069874
O O3 0.292536 0.875908 0.000000
O O4 0.917963 0.189796 0.202758
O O5 0.579076 0.194548 0.701842
O O6 0.590749 0.745618 0.069572
O O7 0.288089 0.393943 0.647512
O O8 0.223128 0.889717 0.636795
#
# Coordination Sequence:
#
# PCOD9394867 Si02
#       6
#     4   2   2   4   8   8
#     4   8  16  37  64  87 121 168 215 271 320 369
#     4  12  26  40  68 100 136 180 214 266 344 402
#     4  12  26  40  68 100 136 180 214 266 344 402
#     4   8  16  37  64  87 121 168 215 271 320 369
#     4  10  23  42  64  94 131 170 220 272 322 389
#     4  10  23  42  64  94 131 170 220 272 322 389
#
# _framework density 26.231618000000001
#
# number of rings (size 3 to 8) (size 9 to 14) (size 15 to 20)
#    0.000    2.286    0.000    0.857    0.000   10.286 
#    0.000    0.000    0.000   20.571    0.000    6.000 
#    0.000    0.000    0.000    0.000    0.000    0.000 
#
# Total GULP energy -156900.056378 kJ/mol
# GULP energy per Si atom -5603.573442 kJ/mol
# Density = 2.617191 g / cm^3
# Si number density = 26.231618 Si / 1000 Ang^3
#
#
#
# Elastic Constant Matrix: (Units=GPa)
#
#
# Indices 1 2 3 4 5 6 
#
# 1 54.8290 25.5005 66.9024 0.0000 0.0000 0.0000
# 2 25.5005 105.1141 26.0857 0.0000 0.0000 0.0000
# 3 66.9024 26.0857 289.5856 0.0000 0.0000 0.0000
# 4 0.0000 0.0000 0.0000 -787.1775 0.0000 0.0000
# 5 0.0000 0.0000 0.0000 0.0000 994.8566 0.0000
# 6 0.0000 0.0000 0.0000 0.0000 0.0000 33.8310
#
#
#
# Elastic Compliance Matrix: (Units=1/GPa)
#
#
# Indices 1 2 3 4 5 6 
#
# 1 0.028025 -0.005311 -0.005996 0.000000 0.000000 0.000000
# 2 -0.005311 0.010737 0.000260 0.000000 0.000000 0.000000
# 3 -0.005996 0.000260 0.004815 0.000000 0.000000 0.000000
# 4 0.000000 0.000000 0.000000 -0.001270 0.000000 0.000000
# 5 0.000000 0.000000 0.000000 0.000000 0.001005 0.000000
# 6 0.000000 0.000000 0.000000 0.000000 0.000000 0.029559
#
#
# Mechanical properties :
#
#
# Convention : Reuss Voigt Hill
#
# Bulk Modulus (GPa) = 46.54828 76.27844 61.41336
# Shear Modulus (GPa) = 48.95882 70.37136 59.66509
#
# Velocity S-wave (km/s) = 4.32488 5.18509 4.77440
# Velocity P-wave (km/s) = 6.53629 8.06156 7.33866
#
# Compressibility (1/GPa) = 0.02148307
#
# Stress axis : x y z
#
# Youngs Moduli (GPa) = 35.68233 93.13238 207.67987
#
# Poissons Ratio (x) = 0.49461 1.24529
# Poissons Ratio (y) = 0.18950 -0.05394
# Poissons Ratio (z) = 0.21396 -0.02419
#
# Static dielectric constant tensor:
#      x y z
#    x 2.053240 0.000000 0.000000 
#    y 0.000000 1.957820 0.000000 
#    z 0.000000 0.000000 2.123650 
# 
# From -- ./inp_files/20155.got.cif
#   From: 2010.05.17/outbox.cif.g08.bks.cpg/sg49_11_cif.got.tgz:20155.got - 2010.06.03 21:02:19.
