data_PCOD9394163
_publ_section_title
;
Structure prediction by ZEFSAII (Michael W. Deem and Ramdas Pophale) SiO2 
 PCOD9394163
Probable space group: P C C M
;
_chemical_formula_sum "Si O2"
_cell_formula_units_Z 64
_cell_length_a 25.939706
_cell_length_b 14.934345
_cell_length_c 8.738367
_cell_angle_alpha 90.000000
_cell_angle_beta 90.000000
_cell_angle_gamma 90.000000
_cell_volume 3385.178001
_symmetry_space_group_name_H-M "P C C M"
_symmetry_group_IT_number 49
_symmetry_cell_setting 'orthorhombic'
loop_
_space_group_symop_operation_xyz
x,y,z
-x,-y,z
x,-y,1/2-z
-x,y,1/2-z
-x,-y,-z
x,y,-z
-x,y,1/2+z
x,-y,1/2+z
loop_
_atom_site_type_symbol
_atom_site_label
_atom_site_fract_x
_atom_site_fract_y
_atom_site_fract_z
Si Si1 0.347072 0.901939 0.316521
Si Si2 0.557215 0.212131 0.684044
Si Si3 0.846213 0.099436 0.184482
Si Si4 0.945218 0.214409 0.184931
Si Si5 0.254990 0.213971 0.685148
Si Si6 0.558147 0.589794 0.182976
Si Si7 0.782339 0.406008 0.815990
Si Si8 0.096679 0.594241 0.815890
O O1 0.346193 0.905655 0.500000
O O2 0.402484 0.862855 0.266130
O O3 0.303422 0.834532 0.258684
O O4 0.337881 0.000000 0.250000
O O5 0.500000 0.201179 0.750000
O O6 0.553183 0.209941 0.500000
O O7 0.578704 0.311657 0.724264
O O8 0.898245 0.150504 0.233445
O O9 0.796634 0.158930 0.227044
O O10 0.842825 0.000000 0.250000
O O11 0.846884 0.094583 0.000000
O O12 0.932770 0.316472 0.234724
O O13 0.000000 0.185601 0.250000
O O14 0.946630 0.213967 0.000000
O O15 0.259327 0.211750 0.500000
O O16 0.247626 0.317076 0.733250
O O17 0.583555 0.500000 0.250000
O O18 0.500000 0.591574 0.250000
O O19 0.556001 0.581829 0.000000
O O20 0.763254 0.500000 0.750000
O O21 0.842839 0.396141 0.772157
O O22 0.780805 0.409803 0.000000
O O23 0.077462 0.500000 0.750000
O O24 0.094522 0.590343 0.000000
#
# Coordination Sequence:
#
# PCOD9394163 Si02
#       8
#     8   8   8   8   8   8   8   8
#     4  11  24  41  59  84 115 146 184 234 285 332
#     4   9  20  37  57  81 113 150 187 227 273 326
#     4  10  21  38  58  79 105 138 180 229 280 331
#     4  10  21  37  54  75 108 145 180 225 276 327
#     4  10  20  38  62  85 112 146 183 227 278 331
#     4   9  15  26  46  74 105 139 177 218 261 309
#     4   9  17  32  56  84 113 146 182 222 271 326
#     4   9  17  32  53  77 107 143 179 220 268 321
#
# _framework density 18.905947999999999
#
# number of rings (size 3 to 8) (size 9 to 14) (size 15 to 20)
#    0.000    2.375    1.250    1.500    0.000    5.250 
#    0.000    4.375    0.000    3.000    0.000    0.000 
#    0.000    0.000    0.000    0.000    0.000    0.000 
#
# Total GULP energy -357072.859555 kJ/mol
# GULP energy per Si atom -5579.263431 kJ/mol
# Density = 1.886292 g / cm^3
# Si number density = 18.905948 Si / 1000 Ang^3
#
#
#
# Elastic Constant Matrix: (Units=GPa)
#
#
# Indices 1 2 3 4 5 6 
#
# 1 94.8673 61.1900 22.4757 0.0000 0.0000 0.0000
# 2 61.1900 137.6679 28.3432 0.0000 0.0000 0.0000
# 3 22.4757 28.3432 18.6741 0.0000 0.0000 0.0000
# 4 0.0000 0.0000 0.0000 41.6147 0.0000 0.0000
# 5 0.0000 0.0000 0.0000 0.0000 19.7731 0.0000
# 6 0.0000 0.0000 0.0000 0.0000 0.0000 13.4886
#
#
#
# Elastic Compliance Matrix: (Units=1/GPa)
#
#
# Indices 1 2 3 4 5 6 
#
# 1 0.016647 -0.004762 -0.012808 0.000000 0.000000 0.000000
# 2 -0.004762 0.011928 -0.012372 0.000000 0.000000 0.000000
# 3 -0.012808 -0.012372 0.087743 0.000000 0.000000 0.000000
# 4 0.000000 0.000000 0.000000 0.024030 0.000000 0.000000
# 5 0.000000 0.000000 0.000000 0.000000 0.050574 0.000000
# 6 0.000000 0.000000 0.000000 0.000000 0.000000 0.074136
#
#
# Mechanical properties :
#
#
# Convention : Reuss Voigt Hill
#
# Bulk Modulus (GPa) = 17.71985 52.80298 35.26142
# Shear Modulus (GPa) = 14.54529 24.25532 19.40030
#
# Velocity S-wave (km/s) = 2.77672 3.58571 3.20683
# Velocity P-wave (km/s) = 4.43545 6.71811 5.69237
#
# Compressibility (1/GPa) = 0.05643387
#
# Stress axis : x y z
#
# Youngs Moduli (GPa) = 60.07008 83.83823 11.39689
#
# Poissons Ratio (x) = 0.39927 0.14597
# Poissons Ratio (y) = 0.28608 0.14100
# Poissons Ratio (z) = 0.76938 1.03723
#
# Static dielectric constant tensor:
#      x y z
#    x 1.642220 0.000000 0.000000 
#    y 0.000000 1.671240 0.000000 
#    z 0.000000 0.000000 1.640730 
# 
# From -- ./inp_files/4370.got.cif
#   From: 2010.05.17/outbox.cif.g08.bks.cpg/sg49_3_cif.got.tgz:4370.got - 2010.06.03 21:02:19.
