data_PCOD9394144
_publ_section_title
;
Structure prediction by ZEFSAII (Michael W. Deem and Ramdas Pophale) SiO2 
 PCOD9394144
Probable space group: P C C M
;
_chemical_formula_sum "Si O2"
_cell_formula_units_Z 64
_cell_length_a 9.145938
_cell_length_b 12.985068
_cell_length_c 28.708154
_cell_angle_alpha 90.000000
_cell_angle_beta 90.000000
_cell_angle_gamma 90.000000
_cell_volume 3409.398365
_symmetry_space_group_name_H-M "P C C M"
_symmetry_group_IT_number 49
_symmetry_cell_setting 'orthorhombic'
loop_
_space_group_symop_operation_xyz
x,y,z
-x,-y,z
x,-y,1/2-z
-x,y,1/2-z
-x,-y,-z
x,y,-z
-x,y,1/2+z
x,-y,1/2+z
loop_
_atom_site_type_symbol
_atom_site_label
_atom_site_fract_x
_atom_site_fract_y
_atom_site_fract_z
Si Si1 0.579304 0.892564 0.618923
Si Si2 0.838984 0.015764 0.825729
Si Si3 0.348183 0.722844 0.947383
Si Si4 0.175812 0.396438 0.868087
Si Si5 0.385725 0.578707 0.447807
Si Si6 0.161069 0.219220 0.271585
Si Si7 0.326402 0.797254 0.681942
Si Si8 0.830727 0.629840 0.640460
O O1 0.731432 0.921212 0.641909
O O2 0.620640 0.835372 0.571927
O O3 0.478432 0.826998 0.655783
O O4 0.500000 0.000000 0.610497
O O5 0.852481 0.097263 0.783379
O O6 0.767692 0.903318 0.820435
O O7 0.000000 0.000000 0.845035
O O8 0.511933 0.677285 0.949625
O O9 0.254610 0.666288 0.906421
O O10 0.286663 0.715850 0.000000
O O11 0.240488 0.405437 0.919703
O O12 0.257642 0.300735 0.844321
O O13 0.206898 0.510539 0.846974
O O14 0.004392 0.374101 0.868690
O O15 0.500000 0.500000 0.424318
O O16 0.354742 0.540240 0.500000
O O17 0.297943 0.230793 0.236169
O O18 0.188933 0.290844 0.316716
O O19 0.000000 0.248553 0.250000
#
# Coordination Sequence:
#
# PCOD9394144 Si02
#       8
#     8   8   8   8   8   8   8   8
#     4  10  23  41  63  96 125 162 207 267 323 385
#     4  11  21  38  66  92 123 160 212 262 318 371
#     4  11  22  41  66  89 121 163 213 267 323 383
#     4  11  22  39  61  89 133 169 210 266 311 384
#     4  10  20  37  64  89 114 159 214 266 323 379
#     4  12  22  39  64  90 125 168 215 261 308 382
#     4  11  23  38  60  93 127 166 211 257 315 372
#     4  11  24  39  60  95 127 170 214 262 319 375
#
# _framework density 18.771640999999999
#
# number of rings (size 3 to 8) (size 9 to 14) (size 15 to 20)
#    0.000    1.125    6.250    0.375    0.000    1.750 
#    0.000    3.125    0.000    0.375    0.000    0.000 
#    0.000    0.000    0.000    0.000    0.000    0.000 
#
# Total GULP energy -356339.094537 kJ/mol
# GULP energy per Si atom -5567.798352 kJ/mol
# Density = 1.872892 g / cm^3
# Si number density = 18.771641 Si / 1000 Ang^3
#
#
#
# Elastic Constant Matrix: (Units=GPa)
#
#
# Indices 1 2 3 4 5 6 
#
# 1 56.8856 27.4626 35.1615 0.0000 0.0000 0.0000
# 2 27.4626 99.4685 58.8882 0.0000 0.0000 0.0000
# 3 35.1615 58.8882 102.7385 0.0000 0.0000 0.0000
# 4 0.0000 0.0000 0.0000 22.6120 0.0000 0.0000
# 5 0.0000 0.0000 0.0000 0.0000 29.7300 0.0000
# 6 0.0000 0.0000 0.0000 0.0000 0.0000 24.7833
#
#
#
# Elastic Compliance Matrix: (Units=1/GPa)
#
#
# Indices 1 2 3 4 5 6 
#
# 1 0.022707 -0.002525 -0.006324 0.000000 0.000000 0.000000
# 2 -0.002525 0.015498 -0.008019 0.000000 0.000000 0.000000
# 3 -0.006324 -0.008019 0.016494 0.000000 0.000000 0.000000
# 4 0.000000 0.000000 0.000000 0.044224 0.000000 0.000000
# 5 0.000000 0.000000 0.000000 0.000000 0.033636 0.000000
# 6 0.000000 0.000000 0.000000 0.000000 0.000000 0.040350
#
#
# Mechanical properties :
#
#
# Convention : Reuss Voigt Hill
#
# Bulk Modulus (GPa) = 47.70330 55.79082 51.74706
# Shear Modulus (GPa) = 23.40453 24.59706 24.00080
#
# Velocity S-wave (km/s) = 3.53484 3.62378 3.57958
# Velocity P-wave (km/s) = 6.49059 6.87709 6.68663
#
# Compressibility (1/GPa) = 0.02096291
#
# Stress axis : x y z
#
# Youngs Moduli (GPa) = 44.03902 64.52371 60.62762
#
# Poissons Ratio (x) = 0.16295 0.38340
# Poissons Ratio (y) = 0.11122 0.48617
# Poissons Ratio (z) = 0.27850 0.51742
#
# Static dielectric constant tensor:
#      x y z
#    x 1.658110 0.000000 0.000000 
#    y 0.000000 1.716070 0.000000 
#    z 0.000000 0.000000 1.713270 
# 
# From -- ./inp_files/26441.got.cif
#   From: 2010.05.17/outbox.cif.g08.bks.cpg/sg49_14_cif.got.tgz:26441.got - 2010.06.03 21:02:19.
