data_PCOD9394298
_publ_section_title
;
Structure prediction by ZEFSAII (Michael W. Deem and Ramdas Pophale) SiO2 
 PCOD9394298
Probable space group: P C C M
;
_chemical_formula_sum "Si O2"
_cell_formula_units_Z 48
_cell_length_a 9.431846
_cell_length_b 16.398920
_cell_length_c 15.887443
_cell_angle_alpha 90.000000
_cell_angle_beta 90.000000
_cell_angle_gamma 90.000000
_cell_volume 2457.343982
_symmetry_space_group_name_H-M "P C C M"
_symmetry_group_IT_number 49
_symmetry_cell_setting 'orthorhombic'
loop_
_space_group_symop_operation_xyz
x,y,z
-x,-y,z
x,-y,1/2-z
-x,y,1/2-z
-x,-y,-z
x,y,-z
-x,y,1/2+z
x,-y,1/2+z
loop_
_atom_site_type_symbol
_atom_site_label
_atom_site_fract_x
_atom_site_fract_y
_atom_site_fract_z
Si Si1 0.429381 0.078098 0.156246
Si Si2 0.080460 0.757648 0.663502
Si Si3 0.917025 0.419873 0.601835
Si Si4 0.883912 0.068112 0.598484
Si Si5 0.596560 0.428422 0.400218
Si Si6 0.421228 0.254497 0.161296
O O1 0.500000 0.082172 0.250000
O O2 0.260200 0.063747 0.153316
O O3 0.456955 0.167762 0.118633
O O4 0.500000 0.000000 0.113600
O O5 0.030549 0.669759 0.628659
O O6 0.059048 0.839279 0.608637
O O7 0.250908 0.749045 0.673573
O O8 0.000000 0.772318 0.750000
O O9 0.917511 0.419639 0.500000
O O10 0.756157 0.430272 0.633212
O O11 0.000000 0.500000 0.630572
O O12 0.847282 0.055212 0.500000
O O13 0.000000 0.000000 0.622453
O O14 0.500000 0.500000 0.363938
O O15 0.607605 0.442160 0.500000
O O16 0.541055 0.337082 0.386584
O O17 0.500000 0.258528 0.250000
#
# Coordination Sequence:
#
# PCOD9394298 Si02
#       6
#     8   8   8   8   8   8
#     4   9  19  36  57  82 112 146 184 226 277 336
#     4  10  21  35  55  79 107 143 181 225 276 332
#     4   9  18  34  54  75 103 139 178 221 270 326
#     4  10  22  39  59  84 114 149 190 235 283 339
#     4   9  18  33  52  73  97 131 173 213 259 314
#     4   9  19  34  51  74 104 136 171 212 262 317
#
# _framework density 19.533284999999999
#
# number of rings (size 3 to 8) (size 9 to 14) (size 15 to 20)
#    0.000    2.667    0.000    0.500    0.000   13.333 
#    0.000    3.333    0.000    5.000    0.000    0.000 
#    0.000    0.000    0.000    0.000    0.000    0.000 
#
# Total GULP energy -267270.104613 kJ/mol
# GULP energy per Si atom -5568.127179 kJ/mol
# Density = 1.948883 g / cm^3
# Si number density = 19.533285 Si / 1000 Ang^3
#
#
#
# Elastic Constant Matrix: (Units=GPa)
#
#
# Indices 1 2 3 4 5 6 
#
# 1 46.2429 68.5140 21.1851 0.0000 0.0000 0.0000
# 2 68.5140 187.6613 8.2378 0.0000 0.0000 0.0000
# 3 21.1851 8.2378 29.4226 0.0000 0.0000 0.0000
# 4 0.0000 0.0000 0.0000 12.8603 0.0000 0.0000
# 5 0.0000 0.0000 0.0000 0.0000 10.1103 0.0000
# 6 0.0000 0.0000 0.0000 0.0000 0.0000 31.1393
#
#
#
# Elastic Compliance Matrix: (Units=1/GPa)
#
#
# Indices 1 2 3 4 5 6 
#
# 1 0.101432 -0.034247 -0.063445 0.000000 0.000000 0.000000
# 2 -0.034247 0.016958 0.019911 0.000000 0.000000 0.000000
# 3 -0.063445 0.019911 0.074095 0.000000 0.000000 0.000000
# 4 0.000000 0.000000 0.000000 0.077759 0.000000 0.000000
# 5 0.000000 0.000000 0.000000 0.000000 0.098909 0.000000
# 6 0.000000 0.000000 0.000000 0.000000 0.000000 0.032114
#
#
# Mechanical properties :
#
#
# Convention : Reuss Voigt Hill
#
# Bulk Modulus (GPa) = 27.08393 51.02229 39.05311
# Shear Modulus (GPa) = 8.78524 21.84797 15.31661
#
# Velocity S-wave (km/s) = 2.12305 3.34803 2.80327
# Velocity P-wave (km/s) = 4.46155 6.41273 5.52397
#
# Compressibility (1/GPa) = 0.03692227
#
# Stress axis : x y z
#
# Youngs Moduli (GPa) = 9.85886 58.96900 13.49615
#
# Poissons Ratio (x) = 2.01951 0.85627
# Poissons Ratio (y) = 0.33764 -0.26872
# Poissons Ratio (z) = 0.62550 -1.17412
#
# Static dielectric constant tensor:
#      x y z
#    x 1.685950 0.000000 0.000000 
#    y 0.000000 1.737250 0.000000 
#    z 0.000000 0.000000 1.680530 
# 
# From -- ./inp_files/11854.got.cif
#   From: 2010.05.17/outbox.cif.g08.bks.cpg/sg49_6_cif.got.tgz:11854.got - 2010.06.03 21:02:19.
