data_PCOD9394423
_publ_section_title
;
Structure prediction by ZEFSAII (Michael W. Deem and Ramdas Pophale) SiO2 
 PCOD9394423
Probable space group: P C C M
;
_chemical_formula_sum "Si O2"
_cell_formula_units_Z 40
_cell_length_a 9.256395
_cell_length_b 27.170500
_cell_length_c 8.688841
_cell_angle_alpha 90.000000
_cell_angle_beta 90.000000
_cell_angle_gamma 90.000000
_cell_volume 2185.251161
_symmetry_space_group_name_H-M "P C C M"
_symmetry_group_IT_number 49
_symmetry_cell_setting 'orthorhombic'
loop_
_space_group_symop_operation_xyz
x,y,z
-x,-y,z
x,-y,1/2-z
-x,y,1/2-z
-x,-y,-z
x,y,-z
-x,y,1/2+z
x,-y,1/2+z
loop_
_atom_site_type_symbol
_atom_site_label
_atom_site_fract_x
_atom_site_fract_y
_atom_site_fract_z
Si Si1 0.838870 0.051951 0.184272
Si Si2 0.836326 0.657372 0.315202
Si Si3 0.162857 0.241103 0.816221
Si Si4 0.163770 0.450125 0.684063
Si Si5 0.660754 0.850672 0.684927
O O1 0.741391 0.098501 0.226451
O O2 0.000000 0.059098 0.250000
O O3 0.783711 0.000000 0.250000
O O4 0.847132 0.048621 0.000000
O O5 0.841187 0.662122 0.500000
O O6 0.772424 0.706849 0.242841
O O7 0.771217 0.603588 0.276850
O O8 0.000000 0.656024 0.250000
O O9 0.253276 0.195301 0.754711
O O10 0.000000 0.237197 0.750000
O O11 0.156483 0.241236 0.000000
O O12 0.232939 0.500000 0.750000
O O13 0.155930 0.453866 0.500000
O O14 0.000000 0.449101 0.750000
O O15 0.500000 0.851200 0.750000
O O16 0.659401 0.846585 0.500000
#
# Coordination Sequence:
#
# PCOD9394423 Si02
#       5
#     8   8   8   8   8
#     4  10  21  37  60  86 112 142 177 215 256 303
#     4   9  16  26  40  61  89 123 164 209 255 306
#     4  11  21  34  54  77 102 136 176 220 265 313
#     4   9  15  21  32  51  80 118 157 198 247 302
#     4  11  24  40  57  80 109 142 177 217 264 314
#
# _framework density 18.304532999999999
#
# number of rings (size 3 to 8) (size 9 to 14) (size 15 to 20)
#    0.000    2.000    0.000    7.200    0.000    7.600 
#    0.000    2.000    0.000    0.000    0.000    0.000 
#    0.000    0.800    0.000    8.400    0.000    7.600 
#
# Total GULP energy -223114.889230 kJ/mol
# GULP energy per Si atom -5577.872231 kJ/mol
# Density = 1.826287 g / cm^3
# Si number density = 18.304533 Si / 1000 Ang^3
#
#
#
# Elastic Constant Matrix: (Units=GPa)
#
#
# Indices 1 2 3 4 5 6 
#
# 1 46.2262 69.8385 29.7772 0.0000 0.0000 0.0000
# 2 69.8385 240.9010 85.3100 0.0000 0.0000 0.0000
# 3 29.7772 85.3100 101.7676 0.0000 0.0000 0.0000
# 4 0.0000 0.0000 0.0000 -234.5490 0.0000 0.0000
# 5 0.0000 0.0000 0.0000 0.0000 16.0285 0.0000
# 6 0.0000 0.0000 0.0000 0.0000 0.0000 -8.0530
#
#
#
# Elastic Compliance Matrix: (Units=1/GPa)
#
#
# Indices 1 2 3 4 5 6 
#
# 1 0.039026 -0.010339 -0.002752 0.000000 0.000000 0.000000
# 2 -0.010339 0.008643 -0.004220 0.000000 0.000000 0.000000
# 3 -0.002752 -0.004220 0.014169 0.000000 0.000000 0.000000
# 4 0.000000 0.000000 0.000000 -0.004264 0.000000 0.000000
# 5 0.000000 0.000000 0.000000 0.000000 0.062389 0.000000
# 6 0.000000 0.000000 0.000000 0.000000 0.000000 -0.124178
#
#
# Mechanical properties :
#
#
# Convention : Reuss Voigt Hill
#
# Bulk Modulus (GPa) = 36.74325 84.30515 60.52420
# Shear Modulus (GPa) = 126.64846 -31.71676 47.46585
#
# Velocity S-wave (km/s) = 8.32706 -4.16712 5.09779
# Velocity P-wave (km/s) = 10.60990 4.79623 8.23328
#
# Compressibility (1/GPa) = 0.02721588
#
# Stress axis : x y z
#
# Youngs Moduli (GPa) = 25.62394 115.70175 70.57700
#
# Poissons Ratio (x) = 1.19628 0.19421
# Poissons Ratio (y) = 0.26494 0.29783
# Poissons Ratio (z) = 0.07051 0.48825
#
# Static dielectric constant tensor:
#      x y z
#    x 1.618250 0.000000 0.000000 
#    y 0.000000 1.694010 0.000000 
#    z 0.000000 0.000000 1.613570 
# 
# From -- ./inp_files/1923.got.cif
#   From: 2010.05.17/outbox.cif.g08.bks.cpg/sg49_1_cif.got.tgz:1923.got - 2010.06.03 21:02:19.
