data_PCOD9394025
_publ_section_title
;
Structure prediction by ZEFSAII (Michael W. Deem and Ramdas Pophale) SiO2 
 PCOD9394025
Probable space group: P C C M
;
_chemical_formula_sum "Si O2"
_cell_formula_units_Z 40
_cell_length_a 14.042409
_cell_length_b 8.111630
_cell_length_c 14.180638
_cell_angle_alpha 90.000000
_cell_angle_beta 90.000000
_cell_angle_gamma 90.000000
_cell_volume 1615.271467
_symmetry_space_group_name_H-M "P C C M"
_symmetry_group_IT_number 49
_symmetry_cell_setting 'orthorhombic'
loop_
_space_group_symop_operation_xyz
x,y,z
-x,-y,z
x,-y,1/2-z
-x,y,1/2-z
-x,-y,-z
x,y,-z
-x,y,1/2+z
x,-y,1/2+z
loop_
_atom_site_type_symbol
_atom_site_label
_atom_site_fract_x
_atom_site_fract_y
_atom_site_fract_z
Si Si1 0.834617 0.536933 0.612453
Si Si2 0.343409 0.697577 0.107751
Si Si3 0.468801 0.822722 0.641873
Si Si4 0.893174 0.226841 0.267639
Si Si5 0.731759 0.945841 0.887362
O O1 0.850519 0.526873 0.500000
O O2 0.721342 0.545049 0.638875
O O3 0.887465 0.389385 0.665179
O O4 0.864882 0.706509 0.663396
O O5 0.456939 0.686120 0.107769
O O6 0.311513 0.877517 0.147401
O O7 0.314206 0.715006 0.000000
O O8 0.500000 0.828172 0.750000
O O9 0.356636 0.818307 0.626206
O O10 0.500000 0.000000 0.599510
O O11 0.822113 0.108259 0.325767
O O12 0.000000 0.170651 0.250000
O O13 0.753381 0.948157 0.000000
#
# Coordination Sequence:
#
# PCOD9394025 Si02
#       5
#     8   8   8   8   8
#     4  10  21  39  61  84 114 152 199 254 311 374
#     4   9  18  34  58  89 124 161 200 244 298 366
#     4   9  16  28  52  87 127 167 203 238 289 362
#     4  11  24  40  59  84 111 153 210 262 315 368
#     4  10  20  36  60  91 128 167 207 252 304 365
#
# _framework density 24.763638
#
# number of rings (size 3 to 8) (size 9 to 14) (size 15 to 20)
#    0.000    2.200    0.000    3.600    0.000    7.200 
#    0.000    4.000    0.000   10.800    0.000    0.000 
#    0.000    0.000    0.000    0.000    0.000    0.000 
#
# Total GULP energy -222966.517215 kJ/mol
# GULP energy per Si atom -5574.162930 kJ/mol
# Density = 2.470727 g / cm^3
# Si number density = 24.763638 Si / 1000 Ang^3
#
#
#
# Elastic Constant Matrix: (Units=GPa)
#
#
# Indices 1 2 3 4 5 6 
#
# 1 198.2617 57.4861 43.1710 0.0000 0.0000 0.0000
# 2 57.4861 98.2937 30.0945 0.0000 0.0000 0.0000
# 3 43.1710 30.0945 173.3764 0.0000 0.0000 0.0000
# 4 0.0000 0.0000 0.0000 20.4992 0.0000 0.0000
# 5 0.0000 0.0000 0.0000 0.0000 8.0119 0.0000
# 6 0.0000 0.0000 0.0000 0.0000 0.0000 28.5848
#
#
#
# Elastic Compliance Matrix: (Units=1/GPa)
#
#
# Indices 1 2 3 4 5 6 
#
# 1 0.006224 -0.003343 -0.000970 0.000000 0.000000 0.000000
# 2 -0.003343 0.012541 -0.001344 0.000000 0.000000 0.000000
# 3 -0.000970 -0.001344 0.006243 0.000000 0.000000 0.000000
# 4 0.000000 0.000000 0.000000 0.048782 0.000000 0.000000
# 5 0.000000 0.000000 0.000000 0.000000 0.124814 0.000000
# 6 0.000000 0.000000 0.000000 0.000000 0.000000 0.034984
#
#
# Mechanical properties :
#
#
# Convention : Reuss Voigt Hill
#
# Bulk Modulus (GPa) = 73.02982 81.27055 77.15018
# Shear Modulus (GPa) = 20.04278 34.03120 27.03699
#
# Velocity S-wave (km/s) = 2.84802 3.71110 3.30783
# Velocity P-wave (km/s) = 6.35372 7.15910 6.76840
#
# Compressibility (1/GPa) = 0.01369304
#
# Stress axis : x y z
#
# Youngs Moduli (GPa) = 160.65853 79.74140 160.19103
#
# Poissons Ratio (x) = 0.26661 0.15531
# Poissons Ratio (y) = 0.53715 0.21534
# Poissons Ratio (z) = 0.15576 0.10719
#
# Static dielectric constant tensor:
#      x y z
#    x 2.075710 0.000000 0.000000 
#    y 0.000000 2.052300 0.000000 
#    z 0.000000 0.000000 2.030770 
# 
# From -- ./inp_files/16857.got.cif
#   From: 2010.05.17/outbox.cif.g08.bks.cpg/sg49_9_cif.got.tgz:16857.got - 2010.06.03 21:02:19.
