data_PCOD9394957
_publ_section_title
;
Structure prediction by ZEFSAII (Michael W. Deem and Ramdas Pophale) SiO2 
 PCOD9394957
Probable space group: P C C M
;
_chemical_formula_sum "Si O2"
_cell_formula_units_Z 56
_cell_length_a 30.359755
_cell_length_b 13.929256
_cell_length_c 8.780529
_cell_angle_alpha 90.000000
_cell_angle_beta 90.000000
_cell_angle_gamma 90.000000
_cell_volume 3713.187368
_symmetry_space_group_name_H-M "P C C M"
_symmetry_group_IT_number 49
_symmetry_cell_setting 'orthorhombic'
loop_
_space_group_symop_operation_xyz
x,y,z
-x,-y,z
x,-y,1/2-z
-x,y,1/2-z
-x,-y,-z
x,y,-z
-x,y,1/2+z
x,-y,1/2+z
loop_
_atom_site_type_symbol
_atom_site_label
_atom_site_fract_x
_atom_site_fract_y
_atom_site_fract_z
Si Si1 0.317155 0.700500 0.183738
Si Si2 0.362891 0.102054 0.316941
Si Si3 0.230798 0.392499 0.818534
Si Si4 0.859203 0.392055 0.817361
Si Si5 0.546877 0.800519 0.316311
Si Si6 0.955695 0.608068 0.682151
Si Si7 0.590957 0.397140 0.817008
O O1 0.331559 0.808731 0.224621
O O2 0.273064 0.666274 0.263991
O O3 0.358974 0.633221 0.224592
O O4 0.311965 0.695373 0.000000
O O5 0.363049 0.096963 0.500000
O O6 0.412408 0.132228 0.268242
O O7 0.350211 0.000000 0.250000
O O8 0.235037 0.500000 0.750000
O O9 0.184963 0.349121 0.754615
O O10 0.228782 0.398982 0.000000
O O11 0.860457 0.500000 0.750000
O O12 0.907466 0.348559 0.781916
O O13 0.854722 0.396723 0.000000
O O14 0.500000 0.828500 0.250000
O O15 0.545202 0.801982 0.500000
O O16 0.560049 0.691726 0.269053
O O17 0.954508 0.500000 0.750000
O O18 0.959704 0.601925 0.500000
O O19 0.000000 0.654242 0.750000
O O20 0.579220 0.500000 0.750000
O O21 0.589298 0.401868 0.000000
#
# Coordination Sequence:
#
# PCOD9394957 Si02
#       7
#     8   8   8   8   8   8   8
#     4   9  18  33  48  63  85 110 136 170 207 246
#     4   9  19  35  53  70  89 110 134 167 206 246
#     4  11  20  28  41  61  84 111 141 175 212 251
#     4   9  16  25  35  49  71 101 136 173 212 252
#     4   9  19  34  48  66  90 114 138 166 200 239
#     4   9  15  21  31  45  63  91 129 172 214 250
#     4   9  18  31  46  63  85 112 141 169 200 237
#
# _framework density 15.081384
#
# number of rings (size 3 to 8) (size 9 to 14) (size 15 to 20)
#    0.000    2.714    0.000    5.571    0.000    5.714 
#    0.000    5.714    0.000    0.000    0.000    0.000 
#    0.000    0.000    0.000    0.000    0.000    0.714 
#
# Total GULP energy -311924.619383 kJ/mol
# GULP energy per Si atom -5570.082489 kJ/mol
# Density = 1.504706 g / cm^3
# Si number density = 15.081384 Si / 1000 Ang^3
#
#
#
# Elastic Constant Matrix: (Units=GPa)
#
#
# Indices 1 2 3 4 5 6 
#
# 1 117.4303 14.2153 37.2559 0.0000 0.0000 0.0000
# 2 14.2153 47.1123 12.6259 0.0000 0.0000 0.0000
# 3 37.2559 12.6259 47.5729 0.0000 0.0000 0.0000
# 4 0.0000 0.0000 0.0000 16.2508 0.0000 0.0000
# 5 0.0000 0.0000 0.0000 0.0000 34.2729 0.0000
# 6 0.0000 0.0000 0.0000 0.0000 0.0000 5.7719
#
#
#
# Elastic Compliance Matrix: (Units=1/GPa)
#
#
# Indices 1 2 3 4 5 6 
#
# 1 0.011386 -0.001126 -0.008618 0.000000 0.000000 0.000000
# 2 -0.001126 0.022963 -0.005213 0.000000 0.000000 0.000000
# 3 -0.008618 -0.005213 0.029153 0.000000 0.000000 0.000000
# 4 0.000000 0.000000 0.000000 0.061535 0.000000 0.000000
# 5 0.000000 0.000000 0.000000 0.000000 0.029178 0.000000
# 6 0.000000 0.000000 0.000000 0.000000 0.000000 0.173255
#
#
# Mechanical properties :
#
#
# Convention : Reuss Voigt Hill
#
# Bulk Modulus (GPa) = 29.77208 37.81219 33.79214
# Shear Modulus (GPa) = 13.56565 21.12701 17.34633
#
# Velocity S-wave (km/s) = 3.00241 3.74688 3.39511
# Velocity P-wave (km/s) = 5.63943 6.62158 6.15014
#
# Compressibility (1/GPa) = 0.03358851
#
# Stress axis : x y z
#
# Youngs Moduli (GPa) = 87.82608 43.54915 34.30202
#
# Poissons Ratio (x) = 0.04904 0.29562
# Poissons Ratio (y) = 0.09889 0.17880
# Poissons Ratio (z) = 0.75689 0.22700
#
# Static dielectric constant tensor:
#      x y z
#    x 1.545750 0.000000 0.000000 
#    y 0.000000 1.472510 0.000000 
#    z 0.000000 0.000000 1.504380 
# 
# From -- ./inp_files/4491.got.cif
#   From: 2010.05.17/outbox.cif.g08.bks.cpg/sg49_3_cif.got.tgz:4491.got - 2010.06.03 21:02:19.
