data_PCOD9394439
_publ_section_title
;
Structure prediction by ZEFSAII (Michael W. Deem and Ramdas Pophale) SiO2 
 PCOD9394439
Probable space group: P C C M
;
_chemical_formula_sum "Si O2"
_cell_formula_units_Z 48
_cell_length_a 7.395461
_cell_length_b 10.867064
_cell_length_c 23.809978
_cell_angle_alpha 90.000000
_cell_angle_beta 90.000000
_cell_angle_gamma 90.000000
_cell_volume 1913.535264
_symmetry_space_group_name_H-M "P C C M"
_symmetry_group_IT_number 49
_symmetry_cell_setting 'orthorhombic'
loop_
_space_group_symop_operation_xyz
x,y,z
-x,-y,z
x,-y,1/2-z
-x,y,1/2-z
-x,-y,-z
x,y,-z
-x,y,1/2+z
x,-y,1/2+z
loop_
_atom_site_type_symbol
_atom_site_label
_atom_site_fract_x
_atom_site_fract_y
_atom_site_fract_z
Si Si1 0.356674 0.714416 0.936764
Si Si2 0.733340 0.412055 0.828420
Si Si3 0.286079 0.036819 0.623082
Si Si4 0.139623 0.331609 0.823113
Si Si5 0.782358 0.785881 0.064324
Si Si6 0.309125 0.171176 0.268328
O O1 0.307094 0.606167 0.894012
O O2 0.267169 0.840631 0.914500
O O3 0.570236 0.746757 0.935873
O O4 0.303680 0.685469 0.000000
O O5 0.722574 0.554707 0.812806
O O6 0.632999 0.297379 0.800717
O O7 0.937542 0.375085 0.811139
O O8 0.224220 0.080400 0.685181
O O9 0.500000 0.000000 0.627116
O O10 0.199513 0.921810 0.591276
O O11 0.133757 0.302076 0.889026
O O12 0.196024 0.215723 0.785407
O O13 0.846146 0.780845 0.000000
O O14 0.500000 0.120481 0.250000
#
# Coordination Sequence:
#
# PCOD9394439 Si02
#       6
#     8   8   8   8   8   8
#     4   9  18  35  60  87 115 152 198 242 284 337
#     4  10  23  40  57  82 119 162 196 236 293 344
#     4   9  18  35  59  88 118 147 185 237 298 349
#     4  11  23  39  58  83 121 160 196 237 290 351
#     4  10  21  37  61  90 117 151 196 242 286 340
#     4  11  22  37  62  89 113 148 195 244 291 345
#
# _framework density 25.084461000000001
#
# number of rings (size 3 to 8) (size 9 to 14) (size 15 to 20)
#    0.000    2.000    0.000    4.500    0.000   10.333 
#    0.000    6.667    0.000   17.000    0.000    0.000 
#    0.000    0.000    0.000    0.000    0.000    0.000 
#
# Total GULP energy -268565.886317 kJ/mol
# GULP energy per Si atom -5595.122632 kJ/mol
# Density = 2.502737 g / cm^3
# Si number density = 25.084461 Si / 1000 Ang^3
#
#
#
# Elastic Constant Matrix: (Units=GPa)
#
#
# Indices 1 2 3 4 5 6 
#
# 1 43.9409 24.7866 18.8765 0.0000 0.0000 0.0000
# 2 24.7866 111.3299 38.0930 0.0000 0.0000 0.0000
# 3 18.8765 38.0930 189.6471 0.0000 0.0000 0.0000
# 4 0.0000 0.0000 0.0000 25.5946 0.0000 0.0000
# 5 0.0000 0.0000 0.0000 0.0000 15.4536 0.0000
# 6 0.0000 0.0000 0.0000 0.0000 0.0000 14.3963
#
#
#
# Elastic Compliance Matrix: (Units=1/GPa)
#
#
# Indices 1 2 3 4 5 6 
#
# 1 0.026448 -0.005356 -0.001557 0.000000 0.000000 0.000000
# 2 -0.005356 0.010730 -0.001622 0.000000 0.000000 0.000000
# 3 -0.001557 -0.001622 0.005754 0.000000 0.000000 0.000000
# 4 0.000000 0.000000 0.000000 0.039071 0.000000 0.000000
# 5 0.000000 0.000000 0.000000 0.000000 0.064710 0.000000
# 6 0.000000 0.000000 0.000000 0.000000 0.000000 0.069462
#
#
# Mechanical properties :
#
#
# Convention : Reuss Voigt Hill
#
# Bulk Modulus (GPa) = 38.66661 56.49223 47.57942
# Shear Modulus (GPa) = 20.67278 28.63301 24.65289
#
# Velocity S-wave (km/s) = 2.87388 3.38222 3.13836
# Velocity P-wave (km/s) = 5.14395 6.14998 5.66933
#
# Compressibility (1/GPa) = 0.02586210
#
# Stress axis : x y z
#
# Youngs Moduli (GPa) = 37.81046 93.19891 173.80052
#
# Poissons Ratio (x) = 0.49915 0.27056
# Poissons Ratio (y) = 0.20250 0.28193
# Poissons Ratio (z) = 0.05886 0.15118
#
# Static dielectric constant tensor:
#      x y z
#    x 2.028910 0.000000 0.000000 
#    y 0.000000 2.018460 0.000000 
#    z 0.000000 0.000000 1.989400 
# 
# From -- ./inp_files/22412.got.cif
#   From: 2010.05.17/outbox.cif.g08.bks.cpg/sg49_12_cif.got.tgz:22412.got - 2010.06.03 21:02:19.
