data_PCOD9394617
_publ_section_title
;
Structure prediction by ZEFSAII (Michael W. Deem and Ramdas Pophale) SiO2 
 PCOD9394617
Probable space group: P C C M
;
_chemical_formula_sum "Si O2"
_cell_formula_units_Z 38
_cell_length_a 21.317452
_cell_length_b 10.251016
_cell_length_c 9.066063
_cell_angle_alpha 90.000000
_cell_angle_beta 90.000000
_cell_angle_gamma 90.000000
_cell_volume 1981.166327
_symmetry_space_group_name_H-M "P C C M"
_symmetry_group_IT_number 49
_symmetry_cell_setting 'orthorhombic'
loop_
_space_group_symop_operation_xyz
x,y,z
-x,-y,z
x,-y,1/2-z
-x,y,1/2-z
-x,-y,-z
x,y,-z
-x,y,1/2+z
x,-y,1/2+z
loop_
_atom_site_type_symbol
_atom_site_label
_atom_site_fract_x
_atom_site_fract_y
_atom_site_fract_z
Si Si1 0.647063 0.363966 0.673550
Si Si2 0.000000 0.295714 0.750000
Si Si3 0.431852 0.861436 0.821489
Si Si4 0.000000 0.500000 0.500000
Si Si5 0.875813 0.859914 0.672707
Si Si6 0.798134 0.635202 0.828136
O O1 0.628505 0.500000 0.750000
O O2 0.629332 0.360167 0.500000
O O3 0.615450 0.248243 0.764762
O O4 0.722606 0.355163 0.681269
O O5 0.055968 0.205469 0.691801
O O6 0.977870 0.393925 0.624681
O O7 0.500000 0.832550 0.750000
O O8 0.412915 0.000000 0.750000
O O9 0.435312 0.868639 0.000000
O O10 0.861644 0.873043 0.500000
O O11 0.828588 0.758058 0.748069
O O12 0.873660 0.000000 0.750000
O O13 0.817591 0.500000 0.750000
O O14 0.815635 0.631025 0.000000
#
# Coordination Sequence:
#
# PCOD9394617 Si02
#       6
#     8   4   8   2   8   8
#     4  10  21  40  62  91 123 159 201 251 304 356
#     4  11  25  42  66  94 124 156 200 250 302 362
#     4  11  22  38  61  89 122 162 204 251 300 360
#     4  10  24  42  66  98 120 154 202 246 298 366
#     4  12  27  43  64  90 125 162 201 250 307 362
#     4  10  23  41  66  91 122 159 203 251 299 360
#
# _framework density 19.180620000000001
#
# number of rings (size 3 to 8) (size 9 to 14) (size 15 to 20)
#    0.000    1.263    1.053    4.737    5.895    4.632 
#    0.000    2.105    0.000    0.000    0.000    0.000 
#    0.000    0.000    0.000    0.000    0.000    0.000 
#
# Total GULP energy -211848.971768 kJ/mol
# GULP energy per Si atom -5574.972941 kJ/mol
# Density = 1.913696 g / cm^3
# Si number density = 19.180620 Si / 1000 Ang^3
#
#
#
# Elastic Constant Matrix: (Units=GPa)
#
#
# Indices 1 2 3 4 5 6 
#
# 1 36.5632 54.4717 46.5873 0.0000 0.0000 0.0000
# 2 54.4717 150.4869 85.6161 0.0000 0.0000 0.0000
# 3 46.5873 85.6161 223.9708 0.0000 0.0000 0.0000
# 4 0.0000 0.0000 0.0000 -25.9966 0.0000 0.0000
# 5 0.0000 0.0000 0.0000 0.0000 31.7785 0.0000
# 6 0.0000 0.0000 0.0000 0.0000 0.0000 7.0888
#
#
#
# Elastic Compliance Matrix: (Units=1/GPa)
#
#
# Indices 1 2 3 4 5 6 
#
# 1 0.064691 -0.020141 -0.005757 0.000000 0.000000 0.000000
# 2 -0.020141 0.014763 -0.001454 0.000000 0.000000 0.000000
# 3 -0.005757 -0.001454 0.006218 0.000000 0.000000 0.000000
# 4 0.000000 0.000000 0.000000 -0.038467 0.000000 0.000000
# 5 0.000000 0.000000 0.000000 0.000000 0.031468 0.000000
# 6 0.000000 0.000000 0.000000 0.000000 0.000000 0.141068
#
#
# Mechanical properties :
#
#
# Convention : Reuss Voigt Hill
#
# Bulk Modulus (GPa) = 32.29107 87.15235 59.72171
# Shear Modulus (GPa) = 17.55824 17.53052 17.54438
#
# Velocity S-wave (km/s) = 3.02887 3.02647 3.02767
# Velocity P-wave (km/s) = 5.39480 7.59928 6.58988
#
# Compressibility (1/GPa) = 0.03096831
#
# Stress axis : x y z
#
# Youngs Moduli (GPa) = 15.45815 67.73894 160.82119
#
# Poissons Ratio (x) = 1.36432 0.92584
# Poissons Ratio (y) = 0.31134 0.23380
# Poissons Ratio (z) = 0.08899 0.09848
#
# Static dielectric constant tensor:
#      x y z
#    x 1.681330 0.000000 0.000000 
#    y 0.000000 1.635980 0.000000 
#    z 0.000000 0.000000 1.654970 
# 
# From -- ./inp_files/1764.got.cif
#   From: 2010.05.17/outbox.cif.g08.bks.cpg/sg49_1_cif.got.tgz:1764.got - 2010.06.03 21:02:19.
