data_PCOD9394318
_publ_section_title
;
Structure prediction by ZEFSAII (Michael W. Deem and Ramdas Pophale) SiO2 
 PCOD9394318
Probable space group: P C C M
;
_chemical_formula_sum "Si O2"
_cell_formula_units_Z 48
_cell_length_a 16.040448
_cell_length_b 9.301132
_cell_length_c 15.003220
_cell_angle_alpha 90.000000
_cell_angle_beta 90.000000
_cell_angle_gamma 90.000000
_cell_volume 2238.395269
_symmetry_space_group_name_H-M "P C C M"
_symmetry_group_IT_number 49
_symmetry_cell_setting 'orthorhombic'
loop_
_space_group_symop_operation_xyz
x,y,z
-x,-y,z
x,-y,1/2-z
-x,y,1/2-z
-x,-y,-z
x,y,-z
-x,y,1/2+z
x,-y,1/2+z
loop_
_atom_site_type_symbol
_atom_site_label
_atom_site_fract_x
_atom_site_fract_y
_atom_site_fract_z
Si Si1 0.257797 0.087367 0.604858
Si Si2 0.580428 0.072535 0.653343
Si Si3 0.082916 0.431306 0.651965
Si Si4 0.074770 0.897691 0.108762
Si Si5 0.728430 0.592609 0.395554
Si Si6 0.578642 0.397131 0.607847
O O1 0.247815 0.112993 0.500000
O O2 0.165766 0.041852 0.635169
O O3 0.279472 0.245704 0.643936
O O4 0.330716 0.973563 0.614734
O O5 0.569524 0.242406 0.652491
O O6 0.500000 0.000000 0.606944
O O7 0.583061 0.000000 0.750000
O O8 0.087822 0.500000 0.750000
O O9 0.068858 0.260560 0.649863
O O10 0.174918 0.453165 0.611181
O O11 0.000000 0.500000 0.608557
O O12 0.070684 0.882449 0.000000
O O13 0.000000 0.000000 0.136074
O O14 0.706422 0.602977 0.500000
O O15 0.662332 0.477950 0.360321
O O16 0.500000 0.500000 0.624984
O O17 0.582232 0.372217 0.500000
#
# Coordination Sequence:
#
# PCOD9394318 Si02
#       6
#     8   8   8   8   8   8
#     4   9  18  36  61  86 113 147 190 239 287 337
#     4  11  24  39  54  81 118 154 194 232 281 344
#     4  10  21  36  54  82 118 154 193 233 285 345
#     4   9  19  37  61  87 114 148 192 240 288 338
#     4   9  19  36  59  86 112 144 190 239 286 336
#     4  10  21  38  62  90 116 147 190 238 288 341
#
# _framework density 21.443933999999999
#
# number of rings (size 3 to 8) (size 9 to 14) (size 15 to 20)
#    0.000    2.333    0.000    3.000    0.000    8.000 
#    0.000   13.333    0.000    0.000    0.000    0.000 
#    0.000    0.000    0.000    0.000    0.000    0.000 
#
# Total GULP energy -267846.308304 kJ/mol
# GULP energy per Si atom -5580.131423 kJ/mol
# Density = 2.139513 g / cm^3
# Si number density = 21.443934 Si / 1000 Ang^3
#
#
#
# Elastic Constant Matrix: (Units=GPa)
#
#
# Indices 1 2 3 4 5 6 
#
# 1 169.4537 107.7149 0.5301 0.0000 0.0000 0.0000
# 2 107.7149 153.7007 24.0777 0.0000 0.0000 0.0000
# 3 0.5301 24.0777 45.2564 0.0000 0.0000 0.0000
# 4 0.0000 0.0000 0.0000 22.4612 0.0000 0.0000
# 5 0.0000 0.0000 0.0000 0.0000 48.9055 0.0000
# 6 0.0000 0.0000 0.0000 0.0000 0.0000 39.0618
#
#
#
# Elastic Compliance Matrix: (Units=1/GPa)
#
#
# Indices 1 2 3 4 5 6 
#
# 1 0.011425 -0.008712 0.004501 0.000000 0.000000 0.000000
# 2 -0.008712 0.013741 -0.007208 0.000000 0.000000 0.000000
# 3 0.004501 -0.007208 0.025879 0.000000 0.000000 0.000000
# 4 0.000000 0.000000 0.000000 0.044521 0.000000 0.000000
# 5 0.000000 0.000000 0.000000 0.000000 0.020448 0.000000
# 6 0.000000 0.000000 0.000000 0.000000 0.000000 0.025600
#
#
# Mechanical properties :
#
#
# Convention : Reuss Voigt Hill
#
# Bulk Modulus (GPa) = 35.45326 70.33958 52.89642
# Shear Modulus (GPa) = 28.75976 37.82492 33.29234
#
# Velocity S-wave (km/s) = 3.66616 4.20444 3.94449
# Velocity P-wave (km/s) = 5.87281 7.51282 6.74286
#
# Compressibility (1/GPa) = 0.02820615
#
# Stress axis : x y z
#
# Youngs Moduli (GPa) = 87.52717 72.77631 38.64181
#
# Poissons Ratio (x) = 0.63402 -0.17393
# Poissons Ratio (y) = 0.76253 0.27855
# Poissons Ratio (z) = -0.39397 0.52460
#
# Static dielectric constant tensor:
#      x y z
#    x 1.830410 0.000000 0.000000 
#    y 0.000000 1.713280 0.000000 
#    z 0.000000 0.000000 1.873580 
# 
# From -- ./inp_files/17747.got.cif
#   From: 2010.05.17/outbox.cif.g08.bks.cpg/sg49_9_cif.got.tgz:17747.got - 2010.06.03 21:02:19.
