data_PCOD9394326
_publ_section_title
;
Structure prediction by ZEFSAII (Michael W. Deem and Ramdas Pophale) SiO2 
 PCOD9394326
Probable space group: P C C M
;
_chemical_formula_sum "Si O2"
_cell_formula_units_Z 40
_cell_length_a 25.905262
_cell_length_b 9.713599
_cell_length_c 8.590708
_cell_angle_alpha 90.000000
_cell_angle_beta 90.000000
_cell_angle_gamma 90.000000
_cell_volume 2161.708436
_symmetry_space_group_name_H-M "P C C M"
_symmetry_group_IT_number 49
_symmetry_cell_setting 'orthorhombic'
loop_
_space_group_symop_operation_xyz
x,y,z
-x,-y,z
x,-y,1/2-z
-x,y,1/2-z
-x,-y,-z
x,y,-z
-x,y,1/2+z
x,-y,1/2+z
loop_
_atom_site_type_symbol
_atom_site_label
_atom_site_fract_x
_atom_site_fract_y
_atom_site_fract_z
Si Si1 0.849716 0.347085 0.187403
Si Si2 0.353777 0.154834 0.313712
Si Si3 0.442137 0.350168 0.186600
Si Si4 0.737306 0.345149 0.313686
Si Si5 0.054785 0.154264 0.313697
O O1 0.860365 0.500000 0.250000
O O2 0.794850 0.304188 0.259554
O O3 0.896625 0.247474 0.231188
O O4 0.844933 0.350495 0.000000
O O5 0.355208 0.153665 0.500000
O O6 0.403796 0.234026 0.248149
O O7 0.304595 0.241597 0.255299
O O8 0.351717 0.000000 0.250000
O O9 0.425011 0.500000 0.250000
O O10 0.500000 0.327948 0.250000
O O11 0.442598 0.353262 0.000000
O O12 0.728314 0.500000 0.250000
O O13 0.734156 0.347257 0.500000
O O14 0.051980 0.149166 0.500000
O O15 0.000000 0.207731 0.250000
O O16 0.061320 0.000000 0.250000
#
# Coordination Sequence:
#
# PCOD9394326 Si02
#       5
#     8   8   8   8   8
#     4  10  21  37  57  84 113 146 187 235 284 337
#     4  12  25  42  61  87 120 155 194 240 290 344
#     4  11  22  40  64  92 121 156 198 241 287 340
#     4  11  22  39  62  87 115 152 192 237 286 341
#     4  10  21  36  56  80 110 146 187 229 278 336
#
# _framework density 18.503882000000001
#
# number of rings (size 3 to 8) (size 9 to 14) (size 15 to 20)
#    0.000    1.200    0.000    9.600    0.000    4.800 
#    0.000    6.000    0.000    0.000    0.000    0.000 
#    0.000    0.000    0.000    0.000    0.000    0.000 
#
# Total GULP energy -223710.347352 kJ/mol
# GULP energy per Si atom -5592.758684 kJ/mol
# Density = 1.846177 g / cm^3
# Si number density = 18.503882 Si / 1000 Ang^3
#
#
#
# Elastic Constant Matrix: (Units=GPa)
#
#
# Indices 1 2 3 4 5 6 
#
# 1 142.6137 109.5372 71.6248 0.0000 0.0000 0.0000
# 2 109.5372 122.4669 66.0131 0.0000 0.0000 0.0000
# 3 71.6248 66.0131 171.7193 0.0000 0.0000 0.0000
# 4 0.0000 0.0000 0.0000 1129.1756 0.0000 0.0000
# 5 0.0000 0.0000 0.0000 0.0000 37.6155 0.0000
# 6 0.0000 0.0000 0.0000 0.0000 0.0000 448.4652
#
#
#
# Elastic Compliance Matrix: (Units=1/GPa)
#
#
# Indices 1 2 3 4 5 6 
#
# 1 0.023000 -0.019426 -0.002126 0.000000 0.000000 0.000000
# 2 -0.019426 0.026707 -0.002164 0.000000 0.000000 0.000000
# 3 -0.002126 -0.002164 0.007542 0.000000 0.000000 0.000000
# 4 0.000000 0.000000 0.000000 0.000886 0.000000 0.000000
# 5 0.000000 0.000000 0.000000 0.000000 0.026585 0.000000
# 6 0.000000 0.000000 0.000000 0.000000 0.000000 0.002230
#
#
# Mechanical properties :
#
#
# Convention : Reuss Voigt Hill
#
# Bulk Modulus (GPa) = 101.85801 103.46112 102.65956
# Shear Modulus (GPa) = 36.32321 335.69293 186.00807
#
# Velocity S-wave (km/s) = 4.43539 13.48375 10.03703
# Velocity P-wave (km/s) = 9.02200 17.27570 13.78126
#
# Compressibility (1/GPa) = 0.00981759
#
# Stress axis : x y z
#
# Youngs Moduli (GPa) = 43.47841 37.44333 132.59060
#
# Poissons Ratio (x) = 0.72737 0.28183
# Poissons Ratio (y) = 0.84461 0.28695
# Poissons Ratio (z) = 0.09242 0.08103
#
# Static dielectric constant tensor:
#      x y z
#    x 1.630470 0.000000 0.000000 
#    y 0.000000 1.605320 0.000000 
#    z 0.000000 0.000000 1.617080 
# 
# From -- ./inp_files/6673.got.cif
#   From: 2010.05.17/outbox.cif.g08.bks.cpg/sg49_4_cif.got.tgz:6673.got - 2010.06.03 21:02:19.
