data_PCOD9394511
_publ_section_title
;
Structure prediction by ZEFSAII (Michael W. Deem and Ramdas Pophale) SiO2 
 PCOD9394511
Probable space group: P C C M
;
_chemical_formula_sum "Si O2"
_cell_formula_units_Z 48
_cell_length_a 8.407870
_cell_length_b 17.376230
_cell_length_c 15.901762
_cell_angle_alpha 90.000000
_cell_angle_beta 90.000000
_cell_angle_gamma 90.000000
_cell_volume 2323.201042
_symmetry_space_group_name_H-M "P C C M"
_symmetry_group_IT_number 49
_symmetry_cell_setting 'orthorhombic'
loop_
_space_group_symop_operation_xyz
x,y,z
-x,-y,z
x,-y,1/2-z
-x,y,1/2-z
-x,-y,-z
x,y,-z
-x,y,1/2+z
x,-y,1/2+z
loop_
_atom_site_type_symbol
_atom_site_label
_atom_site_fract_x
_atom_site_fract_y
_atom_site_fract_z
Si Si1 0.117026 0.838838 0.668105
Si Si2 0.710927 0.692074 0.903944
Si Si3 0.811031 0.410414 0.260745
Si Si4 0.682795 0.023740 0.601187
Si Si5 0.611382 0.280693 0.170529
Si Si6 0.199369 0.858897 0.906090
O O1 0.206231 0.759082 0.651533
O O2 0.245603 0.906511 0.655282
O O3 0.000000 0.842208 0.750000
O O4 0.987507 0.845468 0.594542
O O5 0.758306 0.615778 0.853661
O O6 0.520373 0.701747 0.899864
O O7 0.764826 0.694766 0.000000
O O8 0.772843 0.500000 0.250000
O O9 0.718037 0.354111 0.196208
O O10 0.000000 0.399428 0.250000
O O11 0.698722 0.040458 0.500000
O O12 0.500000 0.000000 0.616491
O O13 0.776751 0.946061 0.623140
O O14 0.500000 0.263081 0.250000
O O15 0.715143 0.206829 0.147333
O O16 0.267852 0.855017 0.000000
#
# Coordination Sequence:
#
# PCOD9394511 Si02
#       6
#     8   8   8   8   8   8
#     4  12  24  40  61  89 124 165 210 261 316 373
#     4  11  22  39  65  95 126 165 215 263 312 376
#     4  10  22  43  67  91 126 167 204 254 322 386
#     4  10  22  40  61  86 121 164 210 263 318 371
#     4  10  21  38  62  92 126 165 208 256 314 376
#     4  11  22  37  58  86 121 161 204 252 308 367
#
# _framework density 20.661147
#
# number of rings (size 3 to 8) (size 9 to 14) (size 15 to 20)
#    0.000    1.333    0.000    7.000    0.000    7.000 
#    0.000    5.833    0.000    0.000    0.000    0.000 
#    0.000    0.000    0.000    0.000    0.000    0.000 
#
# Total GULP energy -268095.475491 kJ/mol
# GULP energy per Si atom -5585.322406 kJ/mol
# Density = 2.061412 g / cm^3
# Si number density = 20.661147 Si / 1000 Ang^3
#
#
#
# Elastic Constant Matrix: (Units=GPa)
#
#
# Indices 1 2 3 4 5 6 
#
# 1 95.4857 50.4968 24.7360 0.0000 0.0000 0.0000
# 2 50.4968 146.5175 56.0732 0.0000 0.0000 0.0000
# 3 24.7360 56.0732 107.1047 0.0000 0.0000 0.0000
# 4 0.0000 0.0000 0.0000 -198.4571 0.0000 0.0000
# 5 0.0000 0.0000 0.0000 0.0000 26.4734 0.0000
# 6 0.0000 0.0000 0.0000 0.0000 0.0000 -28.4344
#
#
#
# Elastic Compliance Matrix: (Units=1/GPa)
#
#
# Indices 1 2 3 4 5 6 
#
# 1 0.012863 -0.004122 -0.000813 0.000000 0.000000 0.000000
# 2 -0.004122 0.009856 -0.004208 0.000000 0.000000 0.000000
# 3 -0.000813 -0.004208 0.011727 0.000000 0.000000 0.000000
# 4 0.000000 0.000000 0.000000 -0.005039 0.000000 0.000000
# 5 0.000000 0.000000 0.000000 0.000000 0.037774 0.000000
# 6 0.000000 0.000000 0.000000 0.000000 0.000000 -0.035169
#
#
# Mechanical properties :
#
#
# Convention : Reuss Voigt Hill
#
# Bulk Modulus (GPa) = 61.87723 67.96887 64.92305
# Shear Modulus (GPa) = 89.78865 -25.56349 32.11258
#
# Velocity S-wave (km/s) = 6.59940 -3.52131 3.94667
# Velocity P-wave (km/s) = 9.38526 4.05408 7.22906
#
# Compressibility (1/GPa) = 0.01616103
#
# Stress axis : x y z
#
# Youngs Moduli (GPa) = 77.74034 101.45765 85.27015
#
# Poissons Ratio (x) = 0.41824 0.06929
# Poissons Ratio (y) = 0.32047 0.35883
# Poissons Ratio (z) = 0.06317 0.42694
#
# Static dielectric constant tensor:
#      x y z
#    x 1.806880 0.000000 0.000000 
#    y 0.000000 1.728030 0.000000 
#    z 0.000000 0.000000 1.819020 
# 
# From -- ./inp_files/16311.got.cif
#   From: 2010.05.17/outbox.cif.g08.bks.cpg/sg49_9_cif.got.tgz:16311.got - 2010.06.03 21:02:19.
