data_PCOD9394682
_publ_section_title
;
Structure prediction by ZEFSAII (Michael W. Deem and Ramdas Pophale) SiO2 
 PCOD9394682
Probable space group: P C C M
;
_chemical_formula_sum "Si O2"
_cell_formula_units_Z 56
_cell_length_a 16.064560
_cell_length_b 11.525578
_cell_length_c 14.259502
_cell_angle_alpha 90.000000
_cell_angle_beta 90.000000
_cell_angle_gamma 90.000000
_cell_volume 2640.194412
_symmetry_space_group_name_H-M "P C C M"
_symmetry_group_IT_number 49
_symmetry_cell_setting 'orthorhombic'
loop_
_space_group_symop_operation_xyz
x,y,z
-x,-y,z
x,-y,1/2-z
-x,y,1/2-z
-x,-y,-z
x,y,-z
-x,y,1/2+z
x,-y,1/2+z
loop_
_atom_site_type_symbol
_atom_site_label
_atom_site_fract_x
_atom_site_fract_y
_atom_site_fract_z
Si Si1 0.840724 0.041265 0.105409
Si Si2 0.095100 0.177010 0.219825
Si Si3 0.619618 0.207381 0.606014
Si Si4 0.237476 0.328648 0.797202
Si Si5 0.353278 0.037952 0.356827
Si Si6 0.446639 0.281060 0.612105
Si Si7 0.295368 0.432917 0.388492
O O1 0.861126 0.135283 0.184255
O O2 0.740521 0.033565 0.104236
O O3 0.885642 0.924976 0.144817
O O4 0.869380 0.067013 0.000000
O O5 0.143378 0.290261 0.184075
O O6 0.000000 0.190538 0.250000
O O7 0.638025 0.248176 0.500000
O O8 0.700565 0.227514 0.669236
O O9 0.540462 0.273224 0.649662
O O10 0.597863 0.071444 0.600319
O O11 0.246058 0.354905 0.686807
O O12 0.270813 0.438463 0.855982
O O13 0.395660 0.162994 0.366644
O O14 0.349096 0.000000 0.250000
O O15 0.458290 0.279915 0.500000
O O16 0.390447 0.393346 0.632019
O O17 0.280463 0.414937 0.500000
#
# Coordination Sequence:
#
# PCOD9394682 Si02
#       7
#     8   8   8   8   8   8   8
#     4  11  21  38  63  93 134 177 210 252 324 404
#     4  11  24  42  63  96 130 159 213 272 329 408
#     4  11  22  37  59  91 131 172 222 272 323 385
#     4  11  23  42  67  90 118 168 214 266 339 387
#     4  12  21  34  56  90 132 176 220 265 319 385
#     4  10  22  37  56  88 129 176 223 273 316 366
#     4  10  23  43  65  89 121 163 219 271 319 386
#
# _framework density 21.210557999999999
#
# number of rings (size 3 to 8) (size 9 to 14) (size 15 to 20)
#    0.000    1.143    2.857    4.714    0.000    8.000 
#    0.000    5.000    0.000    0.857    0.000    0.000 
#    0.000    0.000    0.000    0.000    0.000    0.000 
#
# Total GULP energy -312680.275471 kJ/mol
# GULP energy per Si atom -5583.576348 kJ/mol
# Density = 2.116228 g / cm^3
# Si number density = 21.210558 Si / 1000 Ang^3
#
#
#
# Elastic Constant Matrix: (Units=GPa)
#
#
# Indices 1 2 3 4 5 6 
#
# 1 102.4829 29.2052 -7.6498 0.0000 0.0000 0.0000
# 2 29.2052 71.3251 12.8908 0.0000 0.0000 0.0000
# 3 -7.6498 12.8908 97.9142 0.0000 0.0000 0.0000
# 4 0.0000 0.0000 0.0000 29.5351 0.0000 0.0000
# 5 0.0000 0.0000 0.0000 0.0000 -0.2588 0.0000
# 6 0.0000 0.0000 0.0000 0.0000 0.0000 23.1647
#
#
#
# Elastic Compliance Matrix: (Units=1/GPa)
#
#
# Indices 1 2 3 4 5 6 
#
# 1 0.011264 -0.004888 0.001524 0.000000 0.000000 0.000000
# 2 -0.004888 0.016483 -0.002552 0.000000 0.000000 0.000000
# 3 0.001524 -0.002552 0.010668 0.000000 0.000000 0.000000
# 4 0.000000 0.000000 0.000000 0.033858 0.000000 0.000000
# 5 0.000000 0.000000 0.000000 0.000000 -3.864328 0.000000
# 6 0.000000 0.000000 0.000000 0.000000 0.000000 0.043169
#
#
# Mechanical properties :
#
#
# Convention : Reuss Voigt Hill
#
# Bulk Modulus (GPa) = 37.61793 37.84608 37.73200
# Shear Modulus (GPa) = -1.34113 26.30659 12.48273
#
# Velocity S-wave (km/s) = -0.79603 3.52555 2.42856
# Velocity P-wave (km/s) = 4.11450 5.86979 5.06871
#
# Compressibility (1/GPa) = 0.02658307
#
# Stress axis : x y z
#
# Youngs Moduli (GPa) = 88.77575 60.66895 93.73809
#
# Poissons Ratio (x) = 0.29653 -0.14281
# Poissons Ratio (y) = 0.43391 0.23921
# Poissons Ratio (z) = -0.13525 0.15482
#
# Static dielectric constant tensor:
#      x y z
#    x 1.781110 0.000000 0.000000 
#    y 0.000000 1.833080 0.000000 
#    z 0.000000 0.000000 1.860860 
# 
# From -- ./inp_files/13612.got.cif
#   From: 2010.05.17/outbox.cif.g08.bks.cpg/sg49_7_cif.got.tgz:13612.got - 2010.06.03 21:02:19.
