data_PCOD9394645
_publ_section_title
;
Structure prediction by ZEFSAII (Michael W. Deem and Ramdas Pophale) SiO2 
 PCOD9394645
Probable space group: P C C M
;
_chemical_formula_sum "Si O2"
_cell_formula_units_Z 64
_cell_length_a 20.763558
_cell_length_b 7.941000
_cell_length_c 17.283765
_cell_angle_alpha 90.000000
_cell_angle_beta 90.000000
_cell_angle_gamma 90.000000
_cell_volume 2849.806181
_symmetry_space_group_name_H-M "P C C M"
_symmetry_group_IT_number 49
_symmetry_cell_setting 'orthorhombic'
loop_
_space_group_symop_operation_xyz
x,y,z
-x,-y,z
x,-y,1/2-z
-x,y,1/2-z
-x,-y,-z
x,y,-z
-x,y,1/2+z
x,-y,1/2+z
loop_
_atom_site_type_symbol
_atom_site_label
_atom_site_fract_x
_atom_site_fract_y
_atom_site_fract_z
Si Si1 0.672853 0.852462 0.359142
Si Si2 0.827390 0.620972 0.188925
Si Si3 0.932756 0.300368 0.410787
Si Si4 0.564710 0.892683 0.085488
Si Si5 0.385652 0.324502 0.789920
Si Si6 0.809394 0.134074 0.810129
Si Si7 0.923912 0.710741 0.590030
Si Si8 0.711492 0.515360 0.089351
O O1 0.641676 0.798270 0.276638
O O2 0.744601 0.929389 0.350810
O O3 0.685663 0.675627 0.402993
O O4 0.624540 0.981252 0.399575
O O5 0.864955 0.500000 0.250000
O O6 0.874959 0.746373 0.144942
O O7 0.784651 0.717497 0.252253
O O8 0.783078 0.532355 0.125221
O O9 0.924146 0.250042 0.500000
O O10 0.926204 0.505757 0.407865
O O11 0.003385 0.242914 0.384776
O O12 0.561522 0.765400 0.157310
O O13 0.500000 0.000000 0.084952
O O14 0.571776 0.812587 0.000000
O O15 0.404924 0.500000 0.750000
O O16 0.331982 0.372468 0.854177
O O17 0.865951 0.205914 0.863361
O O18 0.835159 0.000000 0.750000
O O19 0.917054 0.757039 0.500000
O O20 0.711473 0.566486 0.000000
#
# Coordination Sequence:
#
# PCOD9394645 Si02
#       8
#     8   8   8   8   8   8   8   8
#     4  11  22  41  66  94 131 176 220 273 335 398
#     4  12  20  37  59  89 127 164 217 279 334 387
#     4   9  18  35  61  88 115 158 215 269 323 385
#     4  11  25  45  69 102 141 182 228 274 326 399
#     4  10  21  41  67  96 136 172 222 275 330 393
#     4  12  24  39  59  92 133 165 211 271 333 403
#     4   9  19  37  59  87 119 159 213 267 320 387
#     4  11  21  37  63  97 132 173 222 281 342 396
#
# _framework density 22.457666
#
# number of rings (size 3 to 8) (size 9 to 14) (size 15 to 20)
#    0.000    1.375    3.750    3.375    0.000    3.500 
#    0.000    6.875    0.000    8.250    0.000    0.000 
#    0.000    0.000    0.000    0.000    0.000    0.000 
#
# Total GULP energy -357314.321221 kJ/mol
# GULP energy per Si atom -5583.036269 kJ/mol
# Density = 2.240655 g / cm^3
# Si number density = 22.457666 Si / 1000 Ang^3
#
#
#
# Elastic Constant Matrix: (Units=GPa)
#
#
# Indices 1 2 3 4 5 6 
#
# 1 97.2986 19.9136 43.0596 0.0000 0.0000 0.0000
# 2 19.9136 42.0157 28.0660 0.0000 0.0000 0.0000
# 3 43.0596 28.0660 127.8310 0.0000 0.0000 0.0000
# 4 0.0000 0.0000 0.0000 28.0390 0.0000 0.0000
# 5 0.0000 0.0000 0.0000 0.0000 31.5533 0.0000
# 6 0.0000 0.0000 0.0000 0.0000 0.0000 22.0596
#
#
#
# Elastic Compliance Matrix: (Units=1/GPa)
#
#
# Indices 1 2 3 4 5 6 
#
# 1 0.012540 -0.003658 -0.003421 0.000000 0.000000 0.000000
# 2 -0.003658 0.028958 -0.005126 0.000000 0.000000 0.000000
# 3 -0.003421 -0.005126 0.010101 0.000000 0.000000 0.000000
# 4 0.000000 0.000000 0.000000 0.035665 0.000000 0.000000
# 5 0.000000 0.000000 0.000000 0.000000 0.031692 0.000000
# 6 0.000000 0.000000 0.000000 0.000000 0.000000 0.045332
#
#
# Mechanical properties :
#
#
# Convention : Reuss Voigt Hill
#
# Bulk Modulus (GPa) = 36.77925 49.91375 43.34650
# Shear Modulus (GPa) = 25.28301 28.07077 26.67689
#
# Velocity S-wave (km/s) = 3.35895 3.53929 3.45029
# Velocity P-wave (km/s) = 5.60857 6.24308 5.93431
#
# Compressibility (1/GPa) = 0.02718924
#
# Stress axis : x y z
#
# Youngs Moduli (GPa) = 79.74269 34.53228 99.00465
#
# Poissons Ratio (x) = 0.12633 0.33869
# Poissons Ratio (y) = 0.29173 0.50746
# Poissons Ratio (z) = 0.27280 0.17700
#
# Static dielectric constant tensor:
#      x y z
#    x 1.840660 0.000000 0.000000 
#    y 0.000000 1.945610 0.000000 
#    z 0.000000 0.000000 1.825400 
# 
# From -- ./inp_files/18336.got.cif
#   From: 2010.05.17/outbox.cif.g08.bks.cpg/sg49_10_cif.got.tgz:18336.got - 2010.06.03 21:02:19.
