data_PCOD9394252
_publ_section_title
;
Structure prediction by ZEFSAII (Michael W. Deem and Ramdas Pophale) SiO2 
 PCOD9394252
Probable space group: P C C M
;
_chemical_formula_sum "Si O2"
_cell_formula_units_Z 48
_cell_length_a 14.407785
_cell_length_b 9.682076
_cell_length_c 15.501938
_cell_angle_alpha 90.000000
_cell_angle_beta 90.000000
_cell_angle_gamma 90.000000
_cell_volume 2162.478021
_symmetry_space_group_name_H-M "P C C M"
_symmetry_group_IT_number 49
_symmetry_cell_setting 'orthorhombic'
loop_
_space_group_symop_operation_xyz
x,y,z
-x,-y,z
x,-y,1/2-z
-x,y,1/2-z
-x,-y,-z
x,y,-z
-x,y,1/2+z
x,-y,1/2+z
loop_
_atom_site_type_symbol
_atom_site_label
_atom_site_fract_x
_atom_site_fract_y
_atom_site_fract_z
Si Si1 0.074304 0.614146 0.398944
Si Si2 0.725256 0.535059 0.852889
Si Si3 0.703943 0.989634 0.403465
Si Si4 0.091573 0.070789 0.155113
Si Si5 0.604850 0.282191 0.137643
Si Si6 0.597748 0.225827 0.659475
O O1 0.055370 0.646213 0.500000
O O2 0.172793 0.537129 0.391087
O O3 0.079273 0.762245 0.349212
O O4 0.000000 0.500000 0.368244
O O5 0.734756 0.500000 0.750000
O O6 0.648660 0.427762 0.886238
O O7 0.682507 0.683564 0.874877
O O8 0.680143 0.032206 0.500000
O O9 0.810144 0.028900 0.386086
O O10 0.631545 0.069855 0.343513
O O11 0.679519 0.830199 0.391690
O O12 0.097018 0.000000 0.250000
O O13 0.000000 0.000000 0.114249
O O14 0.595242 0.273733 0.241299
O O15 0.499074 0.251657 0.111304
#
# Coordination Sequence:
#
# PCOD9394252 Si02
#       6
#     8   8   8   8   8   8
#     4  11  26  47  71 102 143 182 220 276 351 417
#     4  10  22  39  67  96 130 172 225 282 330 398
#     4  12  25  40  63  95 136 176 218 273 336 404
#     4  11  26  46  73 100 129 173 227 282 334 407
#     4  10  22  38  64  97 128 174 228 279 332 393
#     4  10  20  41  64  91 131 174 225 282 335 390
#
# _framework density 22.196757999999999
#
# number of rings (size 3 to 8) (size 9 to 14) (size 15 to 20)
#    0.000    1.333    1.667    3.000    4.667    8.333 
#    0.000    0.000    0.000    3.000    0.000    0.000 
#    0.000    0.000    0.000    0.000    0.000    0.000 
#
# Total GULP energy -267928.688089 kJ/mol
# GULP energy per Si atom -5581.847669 kJ/mol
# Density = 2.214624 g / cm^3
# Si number density = 22.196758 Si / 1000 Ang^3
#
#
#
# Elastic Constant Matrix: (Units=GPa)
#
#
# Indices 1 2 3 4 5 6 
#
# 1 144.0581 8.7664 10.7202 0.0000 0.0000 0.0000
# 2 8.7664 56.8494 27.9145 0.0000 0.0000 0.0000
# 3 10.7202 27.9145 49.1239 0.0000 0.0000 0.0000
# 4 0.0000 0.0000 0.0000 20.1424 0.0000 0.0000
# 5 0.0000 0.0000 0.0000 0.0000 27.5657 0.0000
# 6 0.0000 0.0000 0.0000 0.0000 0.0000 -21.7017
#
#
#
# Elastic Compliance Matrix: (Units=1/GPa)
#
#
# Indices 1 2 3 4 5 6 
#
# 1 0.007065 -0.000461 -0.001280 0.000000 0.000000 0.000000
# 2 -0.000461 0.024428 -0.013781 0.000000 0.000000 0.000000
# 3 -0.001280 -0.013781 0.028467 0.000000 0.000000 0.000000
# 4 0.000000 0.000000 0.000000 0.049647 0.000000 0.000000
# 5 0.000000 0.000000 0.000000 0.000000 0.036277 0.000000
# 6 0.000000 0.000000 0.000000 0.000000 0.000000 -0.046079
#
#
# Mechanical properties :
#
#
# Convention : Reuss Voigt Hill
#
# Bulk Modulus (GPa) = 34.58176 38.31483 36.44829
# Shear Modulus (GPa) = 35.59085 18.70997 27.15041
#
# Velocity S-wave (km/s) = 4.00862 2.90645 3.50118
# Velocity P-wave (km/s) = 6.08596 5.34436 5.72718
#
# Compressibility (1/GPa) = 0.02891698
#
# Stress axis : x y z
#
# Youngs Moduli (GPa) = 141.54417 40.93660 35.12877
#
# Poissons Ratio (x) = 0.01887 0.04496
# Poissons Ratio (y) = 0.06526 0.48409
# Poissons Ratio (z) = 0.18115 0.56413
#
# Static dielectric constant tensor:
#      x y z
#    x 1.852650 0.000000 0.000000 
#    y 0.000000 1.784220 0.000000 
#    z 0.000000 0.000000 1.918150 
# 
# From -- ./inp_files/17723.got.cif
#   From: 2010.05.17/outbox.cif.g08.bks.cpg/sg49_9_cif.got.tgz:17723.got - 2010.06.03 21:02:19.
