data_PCOD9394055
_publ_section_title
;
Structure prediction by ZEFSAII (Michael W. Deem and Ramdas Pophale) SiO2 
 PCOD9394055
Probable space group: P C C M
;
_chemical_formula_sum "Si O2"
_cell_formula_units_Z 58
_cell_length_a 14.818174
_cell_length_b 25.928647
_cell_length_c 9.185862
_cell_angle_alpha 90.000000
_cell_angle_beta 90.000000
_cell_angle_gamma 90.000000
_cell_volume 3529.347832
_symmetry_space_group_name_H-M "P C C M"
_symmetry_group_IT_number 49
_symmetry_cell_setting 'orthorhombic'
loop_
_space_group_symop_operation_xyz
x,y,z
-x,-y,z
x,-y,1/2-z
-x,y,1/2-z
-x,-y,-z
x,y,-z
-x,y,1/2+z
x,-y,1/2+z
loop_
_atom_site_type_symbol
_atom_site_label
_atom_site_fract_x
_atom_site_fract_y
_atom_site_fract_z
Si Si1 0.000000 0.500000 0.750000
Si Si2 0.598321 0.950650 0.826114
Si Si3 0.849162 0.579415 0.335397
Si Si4 0.263441 0.744918 0.674057
Si Si5 0.331259 0.551702 0.326214
Si Si6 0.402213 0.834264 0.673905
Si Si7 0.905149 0.697998 0.326596
Si Si8 0.588523 0.659403 0.827700
O O1 0.932298 0.539372 0.669088
O O2 0.500000 0.948333 0.750000
O O3 0.633405 0.892691 0.801482
O O4 0.644687 0.000000 0.750000
O O5 0.590937 0.958911 0.000000
O O6 0.811747 0.579540 0.500000
O O7 0.771405 0.561793 0.225558
O O8 0.880191 0.637563 0.299250
O O9 0.245995 0.748625 0.500000
O O10 0.326238 0.793164 0.718174
O O11 0.171936 0.734570 0.760166
O O12 0.325683 0.694940 0.700551
O O13 0.363990 0.500000 0.250000
O O14 0.333660 0.547073 0.500000
O O15 0.388382 0.601521 0.280389
O O16 0.500000 0.827380 0.750000
O O17 0.416871 0.828261 0.500000
O O18 0.911446 0.704288 0.500000
O O19 0.000000 0.708357 0.250000
O O20 0.500000 0.679828 0.750000
O O21 0.572897 0.659477 0.000000
#
# Coordination Sequence:
#
# PCOD9394055 Si02
#       8
#     2   8   8   8   8   8   8   8
#     4  12  22  36  56  82 104 120 154 192 248 304
#     4   9  15  24  39  64  97 139 180 218 256 298
#     4  11  23  36  53  77 101 125 153 190 240 299
#     4  10  20  37  55  75 103 135 169 212 256 299
#     4  11  23  38  55  74  97 124 156 196 243 295
#     4   9  18  30  48  73 105 141 182 221 260 300
#     4  11  23  38  56  79 102 130 164 202 249 305
#     4  10  22  37  55  76  98 128 163 203 249 296
#
# _framework density 16.433631999999999
#
# number of rings (size 3 to 8) (size 9 to 14) (size 15 to 20)
#    0.000    1.793    2.759    2.276    0.000    4.138 
#    0.000    1.379    0.000    0.000    0.000    0.000 
#    0.000    0.552    0.000    6.345    0.000    1.931 
#
# Total GULP energy -323507.953049 kJ/mol
# GULP energy per Si atom -5577.723328 kJ/mol
# Density = 1.639623 g / cm^3
# Si number density = 16.433632 Si / 1000 Ang^3
#
#
#
# Elastic Constant Matrix: (Units=GPa)
#
#
# Indices 1 2 3 4 5 6 
#
# 1 64.7284 35.2110 31.0130 0.0000 0.0000 0.0000
# 2 35.2110 114.7252 39.6733 0.0000 0.0000 0.0000
# 3 31.0130 39.6733 50.5342 0.0000 0.0000 0.0000
# 4 0.0000 0.0000 0.0000 11.7402 0.0000 0.0000
# 5 0.0000 0.0000 0.0000 0.0000 21.0874 0.0000
# 6 0.0000 0.0000 0.0000 0.0000 0.0000 31.9825
#
#
#
# Elastic Compliance Matrix: (Units=1/GPa)
#
#
# Indices 1 2 3 4 5 6 
#
# 1 0.022582 -0.002935 -0.011554 0.000000 0.000000 0.000000
# 2 -0.002935 0.012346 -0.007892 0.000000 0.000000 0.000000
# 3 -0.011554 -0.007892 0.033075 0.000000 0.000000 0.000000
# 4 0.000000 0.000000 0.000000 0.085177 0.000000 0.000000
# 5 0.000000 0.000000 0.000000 0.000000 0.047422 0.000000
# 6 0.000000 0.000000 0.000000 0.000000 0.000000 0.031267
#
#
# Mechanical properties :
#
#
# Convention : Reuss Voigt Hill
#
# Bulk Modulus (GPa) = 43.02694 49.08696 46.05695
# Shear Modulus (GPa) = 17.58226 21.23474 19.40850
#
# Velocity S-wave (km/s) = 3.27447 3.59855 3.44033
# Velocity P-wave (km/s) = 6.36674 6.87028 6.62329
#
# Compressibility (1/GPa) = 0.02324125
#
# Stress axis : x y z
#
# Youngs Moduli (GPa) = 44.28365 80.99595 30.23443
#
# Poissons Ratio (x) = 0.23773 0.34933
# Poissons Ratio (y) = 0.12998 0.23860
# Poissons Ratio (z) = 0.51166 0.63918
#
# Static dielectric constant tensor:
#      x y z
#    x 1.556510 0.000000 0.000000 
#    y 0.000000 1.592820 0.000000 
#    z 0.000000 0.000000 1.554940 
# 
# From -- ./inp_files/4238.got.cif
#   From: 2010.05.17/outbox.cif.g08.bks.cpg/sg49_3_cif.got.tgz:4238.got - 2010.06.03 21:02:19.
