data_PCOD9394176
_publ_section_title
;
Structure prediction by ZEFSAII (Michael W. Deem and Ramdas Pophale) SiO2 
 PCOD9394176
Probable space group: P C C M
;
_chemical_formula_sum "Si O2"
_cell_formula_units_Z 64
_cell_length_a 18.814840
_cell_length_b 11.391405
_cell_length_c 13.873498
_cell_angle_alpha 90.000000
_cell_angle_beta 90.000000
_cell_angle_gamma 90.000000
_cell_volume 2973.471622
_symmetry_space_group_name_H-M "P C C M"
_symmetry_group_IT_number 49
_symmetry_cell_setting 'orthorhombic'
loop_
_space_group_symop_operation_xyz
x,y,z
-x,-y,z
x,-y,1/2-z
-x,y,1/2-z
-x,-y,-z
x,y,-z
-x,y,1/2+z
x,-y,1/2+z
loop_
_atom_site_type_symbol
_atom_site_label
_atom_site_fract_x
_atom_site_fract_y
_atom_site_fract_z
Si Si1 0.952319 0.886717 0.882652
Si Si2 0.952243 0.386341 0.382443
Si Si3 0.206214 0.389865 0.109872
Si Si4 0.650571 0.113699 0.286304
Si Si5 0.542007 0.277667 0.614614
Si Si6 0.382453 0.254619 0.611811
Si Si7 0.207179 0.108435 0.891256
Si Si8 0.644188 0.529672 0.113225
O O1 0.971732 0.750242 0.855021
O O2 0.871392 0.912435 0.850294
O O3 0.049160 0.116079 0.000000
O O4 0.000000 0.000000 0.856295
O O5 0.950483 0.383434 0.500000
O O6 0.871636 0.410581 0.347075
O O7 0.000000 0.500000 0.356884
O O8 0.213082 0.249770 0.103989
O O9 0.279325 0.435199 0.155054
O O10 0.203206 0.438284 0.000000
O O11 0.602818 0.184437 0.361329
O O12 0.664697 0.190997 0.191406
O O13 0.723323 0.071851 0.334573
O O14 0.609252 0.000000 0.250000
O O15 0.530827 0.290495 0.500000
O O16 0.463890 0.241632 0.648231
O O17 0.576942 0.398471 0.652920
O O18 0.374481 0.214832 0.500000
O O19 0.367157 0.392350 0.615118
O O20 0.209636 0.060791 0.000000
O O21 0.647861 0.565309 0.000000
#
# Coordination Sequence:
#
# PCOD9394176 Si02
#       8
#     8   8   8   8   8   8   8   8
#     4   8  14  26  49  82 115 147 191 243 292 351
#     4   8  13  21  37  69 112 149 182 224 278 342
#     4   8  13  25  49  77 107 147 187 225 273 344
#     4  12  25  39  56  80 113 153 205 244 285 354
#     4  10  20  38  63  85 109 147 194 242 299 362
#     4  10  23  39  56  84 119 149 185 248 312 353
#     4   9  17  34  58  83 112 151 201 247 287 342
#     4   9  16  32  58  85 112 142 186 239 298 358
#
# _framework density 21.523662000000002
#
# number of rings (size 3 to 8) (size 9 to 14) (size 15 to 20)
#    0.000    2.750    1.250    2.625    0.000    4.000 
#    0.000    3.750    0.000    4.875    0.000    0.000 
#    0.000    0.500    0.000    0.000    0.000    2.000 
#
# Total GULP energy -356672.033739 kJ/mol
# GULP energy per Si atom -5573.000527 kJ/mol
# Density = 2.147467 g / cm^3
# Si number density = 21.523662 Si / 1000 Ang^3
#
#
#
# Elastic Constant Matrix: (Units=GPa)
#
#
# Indices 1 2 3 4 5 6 
#
# 1 106.0006 35.4423 14.6021 0.0000 0.0000 0.0000
# 2 35.4423 69.1434 2.1784 0.0000 0.0000 0.0000
# 3 14.6021 2.1784 57.3537 0.0000 0.0000 0.0000
# 4 0.0000 0.0000 0.0000 11.4638 0.0000 0.0000
# 5 0.0000 0.0000 0.0000 0.0000 1.4789 0.0000
# 6 0.0000 0.0000 0.0000 0.0000 0.0000 16.5433
#
#
#
# Elastic Compliance Matrix: (Units=1/GPa)
#
#
# Indices 1 2 3 4 5 6 
#
# 1 0.011812 -0.005967 -0.002781 0.000000 0.000000 0.000000
# 2 -0.005967 0.017495 0.000855 0.000000 0.000000 0.000000
# 3 -0.002781 0.000855 0.018111 0.000000 0.000000 0.000000
# 4 0.000000 0.000000 0.000000 0.087231 0.000000 0.000000
# 5 0.000000 0.000000 0.000000 0.000000 0.676166 0.000000
# 6 0.000000 0.000000 0.000000 0.000000 0.000000 0.060447
#
#
# Mechanical properties :
#
#
# Convention : Reuss Voigt Hill
#
# Bulk Modulus (GPa) = 31.61402 37.43815 34.52609
# Shear Modulus (GPa) = 5.57046 17.91552 11.74299
#
# Velocity S-wave (km/s) = 1.61049 2.88820 2.33831
# Velocity P-wave (km/s) = 4.26359 5.34359 4.83385
#
# Compressibility (1/GPa) = 0.03163153
#
# Stress axis : x y z
#
# Youngs Moduli (GPa) = 84.65856 57.16082 55.21457
#
# Poissons Ratio (x) = 0.34109 0.15353
# Poissons Ratio (y) = 0.50517 -0.04719
# Poissons Ratio (z) = 0.23541 -0.04886
#
# Static dielectric constant tensor:
#      x y z
#    x 1.815500 0.000000 0.000000 
#    y 0.000000 1.854580 0.000000 
#    z 0.000000 0.000000 1.843520 
# 
# From -- ./inp_files/14221.got.cif
#   From: 2010.05.17/outbox.cif.g08.bks.cpg/sg49_8_cif.got.tgz:14221.got - 2010.06.03 21:02:19.
