data_PCOD9394513
_publ_section_title
;
Structure prediction by ZEFSAII (Michael W. Deem and Ramdas Pophale) SiO2 
 PCOD9394513
Probable space group: P C C M
;
_chemical_formula_sum "Si O2"
_cell_formula_units_Z 48
_cell_length_a 17.823167
_cell_length_b 8.950102
_cell_length_c 14.630795
_cell_angle_alpha 90.000000
_cell_angle_beta 90.000000
_cell_angle_gamma 90.000000
_cell_volume 2333.892167
_symmetry_space_group_name_H-M "P C C M"
_symmetry_group_IT_number 49
_symmetry_cell_setting 'orthorhombic'
loop_
_space_group_symop_operation_xyz
x,y,z
-x,-y,z
x,-y,1/2-z
-x,y,1/2-z
-x,-y,-z
x,y,-z
-x,y,1/2+z
x,-y,1/2+z
loop_
_atom_site_type_symbol
_atom_site_label
_atom_site_fract_x
_atom_site_fract_y
_atom_site_fract_z
Si Si1 0.826704 0.860960 0.897041
Si Si2 0.344760 0.834314 0.400737
Si Si3 0.563009 0.114973 0.894838
Si Si4 0.793793 0.210523 0.891015
Si Si5 0.646763 0.670433 0.281539
Si Si6 0.088007 0.322624 0.259237
O O1 0.742763 0.796594 0.900847
O O2 0.871822 0.772809 0.820538
O O3 0.810378 0.034641 0.875349
O O4 0.859456 0.851361 0.000000
O O5 0.375771 0.788835 0.500000
O O6 0.373639 0.758726 0.310617
O O7 0.362191 0.010823 0.392449
O O8 0.581582 0.271077 0.848594
O O9 0.500000 0.000000 0.858189
O O10 0.544539 0.141669 0.000000
O O11 0.725225 0.277338 0.829893
O O12 0.870460 0.283772 0.853892
O O13 0.780154 0.232779 0.000000
O O14 0.651154 0.500000 0.250000
O O15 0.097493 0.500000 0.250000
O O16 0.000000 0.288176 0.250000
#
# Coordination Sequence:
#
# PCOD9394513 Si02
#       6
#     8   8   8   8   8   8
#     4  10  21  39  65  92 124 170 223 268 318 388
#     4  10  21  38  62  93 127 172 220 263 313 382
#     4  10  22  43  70  98 131 177 226 269 321 388
#     4  11  23  40  64  96 131 172 224 276 327 393
#     4  12  24  39  64 101 140 173 215 275 334 395
#     4  11  25  43  62  92 131 171 215 271 342 405
#
# _framework density 20.566503000000001
#
# number of rings (size 3 to 8) (size 9 to 14) (size 15 to 20)
#    0.000    1.333    3.333    2.000    0.000    5.333 
#    0.000    5.000    0.000    3.000    0.000    0.000 
#    0.000    0.000    0.000    0.000    0.000    0.000 
#
# Total GULP energy -267689.670223 kJ/mol
# GULP energy per Si atom -5576.868130 kJ/mol
# Density = 2.051969 g / cm^3
# Si number density = 20.566503 Si / 1000 Ang^3
#
#
#
# Elastic Constant Matrix: (Units=GPa)
#
#
# Indices 1 2 3 4 5 6 
#
# 1 100.1201 52.8321 44.4071 0.0000 0.0000 0.0000
# 2 52.8321 101.1491 71.1715 0.0000 0.0000 0.0000
# 3 44.4071 71.1715 131.4051 0.0000 0.0000 0.0000
# 4 0.0000 0.0000 0.0000 -65.6968 0.0000 0.0000
# 5 0.0000 0.0000 0.0000 0.0000 12.9429 0.0000
# 6 0.0000 0.0000 0.0000 0.0000 0.0000 24.6678
#
#
#
# Elastic Compliance Matrix: (Units=1/GPa)
#
#
# Indices 1 2 3 4 5 6 
#
# 1 0.013912 -0.006396 -0.001237 0.000000 0.000000 0.000000
# 2 -0.006396 0.018915 -0.008083 0.000000 0.000000 0.000000
# 3 -0.001237 -0.008083 0.012406 0.000000 0.000000 0.000000
# 4 0.000000 0.000000 0.000000 -0.015221 0.000000 0.000000
# 5 0.000000 0.000000 0.000000 0.000000 0.077262 0.000000
# 6 0.000000 0.000000 0.000000 0.000000 0.000000 0.040539
#
#
# Mechanical properties :
#
#
# Convention : Reuss Voigt Hill
#
# Bulk Modulus (GPa) = 72.46298 74.38839 73.42569
# Shear Modulus (GPa) = 27.19695 5.33372 16.26533
#
# Velocity S-wave (km/s) = 3.64041 1.61215 2.81528
# Velocity P-wave (km/s) = 7.27875 6.30187 6.80785
#
# Compressibility (1/GPa) = 0.01380015
#
# Stress axis : x y z
#
# Youngs Moduli (GPa) = 71.88170 52.86945 80.60548
#
# Poissons Ratio (x) = 0.33814 0.09973
# Poissons Ratio (y) = 0.45974 0.65154
# Poissons Ratio (z) = 0.08894 0.42735
#
# Static dielectric constant tensor:
#      x y z
#    x 1.781400 0.000000 0.000000 
#    y 0.000000 1.740190 0.000000 
#    z 0.000000 0.000000 1.771660 
# 
# From -- ./inp_files/14032.got.cif
#   From: 2010.05.17/outbox.cif.g08.bks.cpg/sg49_8_cif.got.tgz:14032.got - 2010.06.03 21:02:19.
