data_PCOD9394367
_publ_section_title
;
Structure prediction by ZEFSAII (Michael W. Deem and Ramdas Pophale) SiO2 
 PCOD9394367
Probable space group: P C C M
;
_chemical_formula_sum "Si O2"
_cell_formula_units_Z 58
_cell_length_a 13.324381
_cell_length_b 26.456670
_cell_length_c 8.791931
_cell_angle_alpha 90.000000
_cell_angle_beta 90.000000
_cell_angle_gamma 90.000000
_cell_volume 3099.320536
_symmetry_space_group_name_H-M "P C C M"
_symmetry_group_IT_number 49
_symmetry_cell_setting 'orthorhombic'
loop_
_space_group_symop_operation_xyz
x,y,z
-x,-y,z
x,-y,1/2-z
-x,y,1/2-z
-x,-y,-z
x,y,-z
-x,y,1/2+z
x,-y,1/2+z
loop_
_atom_site_type_symbol
_atom_site_label
_atom_site_fract_x
_atom_site_fract_y
_atom_site_fract_z
Si Si1 0.809429 0.205083 0.181962
Si Si2 0.894955 0.893616 0.181030
Si Si3 0.395828 0.443672 0.682825
Si Si4 0.178146 0.581864 0.322676
Si Si5 0.399049 0.843686 0.180997
Si Si6 0.106907 0.313045 0.681640
Si Si7 0.301230 0.945711 0.182846
Si Si8 0.000000 0.500000 0.750000
O O1 0.878142 0.164916 0.269863
O O2 0.697227 0.188887 0.223182
O O3 0.825874 0.263873 0.212085
O O4 0.824510 0.196669 0.000000
O O5 0.805398 0.926079 0.254307
O O6 0.000000 0.910827 0.250000
O O7 0.893172 0.898014 0.000000
O O8 0.397971 0.500000 0.750000
O O9 0.500000 0.419249 0.750000
O O10 0.402077 0.443064 0.500000
O O11 0.283391 0.426670 0.732922
O O12 0.204091 0.583499 0.500000
O O13 0.138998 0.635416 0.262107
O O14 0.085705 0.540800 0.309659
O O15 0.500000 0.823461 0.250000
O O16 0.377695 0.901367 0.230133
O O17 0.406157 0.843810 0.000000
O O18 0.101921 0.321253 0.500000
O O19 0.000000 0.298910 0.750000
O O20 0.326209 0.000000 0.250000
O O21 0.297318 0.947799 0.000000
#
# Coordination Sequence:
#
# PCOD9394367 Si02
#       8
#     8   8   8   8   8   8   8   2
#     4   9  20  39  59  82 113 149 189 239 292 346
#     4  11  21  34  55  81 109 146 189 233 284 344
#     4  11  22  39  63  89 119 155 201 248 297 351
#     4  12  25  41  63  92 127 165 210 255 308 369
#     4   9  19  36  58  83 112 146 189 237 290 347
#     4  11  23  39  60  87 122 158 197 244 299 357
#     4  10  21  37  54  78 113 149 189 238 287 343
#     4  12  26  40  66  90 130 168 210 254 308 368
#
# _framework density 18.713778000000001
#
# number of rings (size 3 to 8) (size 9 to 14) (size 15 to 20)
#    0.000    1.517    1.379    5.586    0.000    6.621 
#    0.000    3.448    0.000    1.655    0.000    0.000 
#    0.000    0.000    0.000    0.000    0.000    0.000 
#
# Total GULP energy -323283.852304 kJ/mol
# GULP energy per Si atom -5573.859522 kJ/mol
# Density = 1.867118 g / cm^3
# Si number density = 18.713778 Si / 1000 Ang^3
#
#
#
# Elastic Constant Matrix: (Units=GPa)
#
#
# Indices 1 2 3 4 5 6 
#
# 1 117.3541 24.0009 38.9299 0.0000 0.0000 0.0000
# 2 24.0009 90.3766 33.6125 0.0000 0.0000 0.0000
# 3 38.9299 33.6125 96.5615 0.0000 0.0000 0.0000
# 4 0.0000 0.0000 0.0000 23.9982 0.0000 0.0000
# 5 0.0000 0.0000 0.0000 0.0000 29.2705 0.0000
# 6 0.0000 0.0000 0.0000 0.0000 0.0000 0.7451
#
#
#
# Elastic Compliance Matrix: (Units=1/GPa)
#
#
# Indices 1 2 3 4 5 6 
#
# 1 0.009973 -0.001325 -0.003560 0.000000 0.000000 0.000000
# 2 -0.001325 0.012886 -0.003952 0.000000 0.000000 0.000000
# 3 -0.003560 -0.003952 0.013167 0.000000 0.000000 0.000000
# 4 0.000000 0.000000 0.000000 0.041670 0.000000 0.000000
# 5 0.000000 0.000000 0.000000 0.000000 0.034164 0.000000
# 6 0.000000 0.000000 0.000000 0.000000 0.000000 1.342166
#
#
# Mechanical properties :
#
#
# Convention : Reuss Voigt Hill
#
# Bulk Modulus (GPa) = 54.48320 55.26431 54.87375
# Shear Modulus (GPa) = 3.38337 24.65269 14.01803
#
# Velocity S-wave (km/s) = 1.34606 3.63348 2.73989
# Velocity P-wave (km/s) = 5.62076 6.87010 6.27660
#
# Compressibility (1/GPa) = 0.01835428
#
# Stress axis : x y z
#
# Youngs Moduli (GPa) = 100.27122 77.60211 75.94902
#
# Poissons Ratio (x) = 0.10279 0.27035
# Poissons Ratio (y) = 0.13282 0.30012
# Poissons Ratio (z) = 0.35693 0.30665
#
# Static dielectric constant tensor:
#      x y z
#    x 1.692050 0.000000 0.000000 
#    y 0.000000 1.641830 0.000000 
#    z 0.000000 0.000000 1.639930 
# 
# From -- ./inp_files/3028.got.cif
#   From: 2010.05.17/outbox.cif.g08.bks.cpg/sg49_2_cif.got.tgz:3028.got - 2010.06.03 21:02:19.
