data_PCOD9394966
_publ_section_title
;
Structure prediction by ZEFSAII (Michael W. Deem and Ramdas Pophale) SiO2 
 PCOD9394966
Probable space group: P C C M
;
_chemical_formula_sum "Si O2"
_cell_formula_units_Z 56
_cell_length_a 15.680151
_cell_length_b 20.494007
_cell_length_c 8.464552
_cell_angle_alpha 90.000000
_cell_angle_beta 90.000000
_cell_angle_gamma 90.000000
_cell_volume 2720.076373
_symmetry_space_group_name_H-M "P C C M"
_symmetry_group_IT_number 49
_symmetry_cell_setting 'orthorhombic'
loop_
_space_group_symop_operation_xyz
x,y,z
-x,-y,z
x,-y,1/2-z
-x,y,1/2-z
-x,-y,-z
x,y,-z
-x,y,1/2+z
x,-y,1/2+z
loop_
_atom_site_type_symbol
_atom_site_label
_atom_site_fract_x
_atom_site_fract_y
_atom_site_fract_z
Si Si1 0.588205 0.621355 0.312141
Si Si2 0.908678 0.323551 0.310653
Si Si3 0.809910 0.207714 0.185646
Si Si4 0.224833 0.930350 0.686336
Si Si5 0.409863 0.900778 0.183760
Si Si6 0.372391 0.763756 0.684096
Si Si7 0.766526 0.570090 0.189432
O O1 0.500000 0.591145 0.250000
O O2 0.585392 0.627285 0.500000
O O3 0.595591 0.693274 0.235118
O O4 0.673524 0.584176 0.261093
O O5 0.909113 0.317767 0.500000
O O6 0.887602 0.253736 0.233084
O O7 0.833411 0.373592 0.264646
O O8 0.000000 0.347089 0.250000
O O9 0.817713 0.131645 0.228511
O O10 0.729185 0.233407 0.286555
O O11 0.790665 0.214146 0.000000
O O12 0.212545 0.925110 0.500000
O O13 0.326334 0.925037 0.724185
O O14 0.194910 0.000000 0.750000
O O15 0.500000 0.924508 0.250000
O O16 0.407923 0.822444 0.209695
O O17 0.400659 0.916661 0.000000
O O18 0.391063 0.776444 0.500000
O O19 0.796689 0.500000 0.250000
O O20 0.759507 0.570165 0.000000
#
# Coordination Sequence:
#
# PCOD9394966 Si02
#       7
#     8   8   8   8   8   8   8
#     4  12  24  39  61  89 124 168 218 269 322 378
#     4  11  24  43  70 102 135 169 211 263 319 383
#     4  11  21  37  63  93 125 164 208 257 316 375
#     4  11  22  38  58  84 118 160 208 257 313 378
#     4  11  21  34  50  75 110 153 204 260 319 375
#     4  11  20  34  55  83 118 158 206 260 318 375
#     4  11  25  45  68  95 132 173 216 265 322 381
#
# _framework density 20.587655999999999
#
# number of rings (size 3 to 8) (size 9 to 14) (size 15 to 20)
#    0.000    0.857    1.429    9.429    0.000    2.571 
#    0.000    4.286    0.000    0.429    0.000    3.000 
#    0.000    0.000    0.000    0.000    0.000    0.000 
#
# Total GULP energy -313407.035915 kJ/mol
# GULP energy per Si atom -5596.554213 kJ/mol
# Density = 2.054080 g / cm^3
# Si number density = 20.587656 Si / 1000 Ang^3
#
#
#
# Elastic Constant Matrix: (Units=GPa)
#
#
# Indices 1 2 3 4 5 6 
#
# 1 84.5457 28.8738 19.5766 0.0000 0.0000 0.0000
# 2 28.8738 104.8796 14.9484 0.0000 0.0000 0.0000
# 3 19.5766 14.9484 102.0674 0.0000 0.0000 0.0000
# 4 0.0000 0.0000 0.0000 40.0083 0.0000 0.0000
# 5 0.0000 0.0000 0.0000 0.0000 26.3025 0.0000
# 6 0.0000 0.0000 0.0000 0.0000 0.0000 -23.0720
#
#
#
# Elastic Compliance Matrix: (Units=1/GPa)
#
#
# Indices 1 2 3 4 5 6 
#
# 1 0.013476 -0.003413 -0.002085 0.000000 0.000000 0.000000
# 2 -0.003413 0.010602 -0.000898 0.000000 0.000000 0.000000
# 3 -0.002085 -0.000898 0.010329 0.000000 0.000000 0.000000
# 4 0.000000 0.000000 0.000000 0.024995 0.000000 0.000000
# 5 0.000000 0.000000 0.000000 0.000000 0.038019 0.000000
# 6 0.000000 0.000000 0.000000 0.000000 0.000000 -0.043343
#
#
# Mechanical properties :
#
#
# Convention : Reuss Voigt Hill
#
# Bulk Modulus (GPa) = 46.26315 46.47669 46.36992
# Shear Modulus (GPa) = 67.49818 23.85402 45.67610
#
# Velocity S-wave (km/s) = 5.73210 3.40760 4.71533
# Velocity P-wave (km/s) = 8.14428 6.17303 7.22619
#
# Compressibility (1/GPa) = 0.02161548
#
# Stress axis : x y z
#
# Youngs Moduli (GPa) = 74.20457 94.31870 96.81592
#
# Poissons Ratio (x) = 0.32190 0.20185
# Poissons Ratio (y) = 0.25325 0.08696
# Poissons Ratio (z) = 0.15471 0.08471
#
# Static dielectric constant tensor:
#      x y z
#    x 1.752810 0.000000 0.000000 
#    y 0.000000 1.746870 0.000000 
#    z 0.000000 0.000000 1.690130 
# 
# From -- ./inp_files/4039.got.cif
#   From: 2010.05.17/outbox.cif.g08.bks.cpg/sg49_3_cif.got.tgz:4039.got - 2010.06.03 21:02:19.
