data_PCOD9394585
_publ_section_title
;
Structure prediction by ZEFSAII (Michael W. Deem and Ramdas Pophale) SiO2 
 PCOD9394585
Probable space group: P C C M
;
_chemical_formula_sum "Si O2"
_cell_formula_units_Z 48
_cell_length_a 16.747332
_cell_length_b 8.667034
_cell_length_c 17.488140
_cell_angle_alpha 90.000000
_cell_angle_beta 90.000000
_cell_angle_gamma 90.000000
_cell_volume 2538.398202
_symmetry_space_group_name_H-M "P C C M"
_symmetry_group_IT_number 49
_symmetry_cell_setting 'orthorhombic'
loop_
_space_group_symop_operation_xyz
x,y,z
-x,-y,z
x,-y,1/2-z
-x,y,1/2-z
-x,-y,-z
x,y,-z
-x,y,1/2+z
x,-y,1/2+z
loop_
_atom_site_type_symbol
_atom_site_label
_atom_site_fract_x
_atom_site_fract_y
_atom_site_fract_z
Si Si1 0.348679 0.807770 0.408662
Si Si2 0.490735 0.319091 0.659396
Si Si3 0.781539 0.392345 0.319742
Si Si4 0.090947 0.180786 0.267819
Si Si5 0.835219 0.678606 0.411540
Si Si6 0.337980 0.165031 0.410886
O O1 0.338151 0.787000 0.500000
O O2 0.438984 0.769505 0.384685
O O3 0.289025 0.697309 0.362182
O O4 0.331534 0.985967 0.388586
O O5 0.500000 0.500000 0.641164
O O6 0.500000 0.299039 0.750000
O O7 0.405121 0.254254 0.635577
O O8 0.750459 0.500000 0.250000
O O9 0.845315 0.276406 0.282104
O O10 0.826172 0.506428 0.378423
O O11 0.108920 0.223392 0.355609
O O12 0.000000 0.225723 0.250000
O O13 0.100335 0.000000 0.250000
O O14 0.859010 0.680678 0.500000
O O15 0.747147 0.753196 0.404446
O O16 0.362255 0.168447 0.500000
#
# Coordination Sequence:
#
# PCOD9394585 Si02
#       6
#     8   8   8   8   8   8
#     4  11  23  39  60  86 118 157 201 247 297 351
#     4  11  25  38  56  83 119 158 203 247 296 350
#     4  10  22  37  62  90 121 157 197 244 297 358
#     4  10  22  42  65  91 123 161 198 244 300 359
#     4  10  21  39  64  91 123 159 202 248 299 355
#     4  10  22  40  60  85 117 157 200 247 296 346
#
# _framework density 18.909562999999999
#
# number of rings (size 3 to 8) (size 9 to 14) (size 15 to 20)
#    0.000    1.667    0.000    3.500    7.000    8.333 
#    0.000    5.000    0.000    0.000    0.000    0.000 
#    0.000    0.000    0.000    0.000    0.000    0.000 
#
# Total GULP energy -268356.885908 kJ/mol
# GULP energy per Si atom -5590.768456 kJ/mol
# Density = 1.886652 g / cm^3
# Si number density = 18.909563 Si / 1000 Ang^3
#
#
#
# Elastic Constant Matrix: (Units=GPa)
#
#
# Indices 1 2 3 4 5 6 
#
# 1 65.7431 22.9362 50.6426 0.0000 0.0000 0.0000
# 2 22.9362 83.8556 55.7668 0.0000 0.0000 0.0000
# 3 50.6426 55.7668 116.1642 0.0000 0.0000 0.0000
# 4 0.0000 0.0000 0.0000 -17.9328 0.0000 0.0000
# 5 0.0000 0.0000 0.0000 0.0000 30.1505 0.0000
# 6 0.0000 0.0000 0.0000 0.0000 0.0000 40.9540
#
#
#
# Elastic Compliance Matrix: (Units=1/GPa)
#
#
# Indices 1 2 3 4 5 6 
#
# 1 0.022919 0.000552 -0.010257 0.000000 0.000000 0.000000
# 2 0.000552 0.017531 -0.008657 0.000000 0.000000 0.000000
# 3 -0.010257 -0.008657 0.017236 0.000000 0.000000 0.000000
# 4 0.000000 0.000000 0.000000 -0.055764 0.000000 0.000000
# 5 0.000000 0.000000 0.000000 0.000000 0.033167 0.000000
# 6 0.000000 0.000000 0.000000 0.000000 0.000000 0.024418
#
#
# Mechanical properties :
#
#
# Convention : Reuss Voigt Hill
#
# Bulk Modulus (GPa) = 47.70243 58.27266 52.98755
# Shear Modulus (GPa) = 48.44090 19.72880 34.08485
#
# Velocity S-wave (km/s) = 5.06683 3.23356 4.25021
# Velocity P-wave (km/s) = 7.71438 6.69512 7.22275
#
# Compressibility (1/GPa) = 0.02096329
#
# Stress axis : x y z
#
# Youngs Moduli (GPa) = 43.63189 57.04037 58.01784
#
# Poissons Ratio (x) = -0.03151 0.59508
# Poissons Ratio (y) = -0.02410 0.50227
# Poissons Ratio (z) = 0.44753 0.49380
#
# Static dielectric constant tensor:
#      x y z
#    x 1.614220 0.000000 0.000000 
#    y 0.000000 1.656860 0.000000 
#    z 0.000000 0.000000 1.652220 
# 
# From -- ./inp_files/14043.got.cif
#   From: 2010.05.17/outbox.cif.g08.bks.cpg/sg49_8_cif.got.tgz:14043.got - 2010.06.03 21:02:19.
