data_PCOD9394175
_publ_section_title
;
Structure prediction by ZEFSAII (Michael W. Deem and Ramdas Pophale) SiO2 
 PCOD9394175
Probable space group: P C C M
;
_chemical_formula_sum "Si O2"
_cell_formula_units_Z 56
_cell_length_a 9.282299
_cell_length_b 22.981138
_cell_length_c 14.077653
_cell_angle_alpha 90.000000
_cell_angle_beta 90.000000
_cell_angle_gamma 90.000000
_cell_volume 3003.013887
_symmetry_space_group_name_H-M "P C C M"
_symmetry_group_IT_number 49
_symmetry_cell_setting 'orthorhombic'
loop_
_space_group_symop_operation_xyz
x,y,z
-x,-y,z
x,-y,1/2-z
-x,y,1/2-z
-x,-y,-z
x,y,-z
-x,y,1/2+z
x,-y,1/2+z
loop_
_atom_site_type_symbol
_atom_site_label
_atom_site_fract_x
_atom_site_fract_y
_atom_site_fract_z
Si Si1 0.088229 0.059765 0.390095
Si Si2 0.341479 0.931443 0.741333
Si Si3 0.330058 0.661267 0.610194
Si Si4 0.327972 0.672490 0.113095
Si Si5 0.183142 0.859484 0.392031
Si Si6 0.673941 0.434509 0.750228
Si Si7 0.828675 0.248976 0.259696
O O1 0.134247 0.051153 0.500000
O O2 0.218509 0.077850 0.321268
O O3 0.716241 0.087104 0.361523
O O4 0.000000 0.000000 0.362742
O O5 0.500000 0.903932 0.750000
O O6 0.207304 0.812683 0.691361
O O7 0.357470 0.000000 0.750000
O O8 0.307786 0.663235 0.500000
O O9 0.498807 0.676203 0.629166
O O10 0.293848 0.598483 0.652755
O O11 0.228607 0.705776 0.663107
O O12 0.285058 0.611687 0.166432
O O13 0.249012 0.726996 0.164140
O O14 0.301870 0.670430 0.000000
O O15 0.209431 0.838715 0.500000
O O16 0.024147 0.886878 0.387371
O O17 0.732503 0.500000 0.750000
O O18 0.500000 0.438770 0.750000
O O19 0.000000 0.251604 0.250000
#
# Coordination Sequence:
#
# PCOD9394175 Si02
#       7
#     8   8   8   8   8   8   8
#     4  10  20  38  63  84 110 150 189 224 272 333
#     4  11  23  37  59  90 121 148 178 224 278 336
#     4   9  18  34  55  80 112 152 190 231 287 345
#     4   9  19  35  56  81 113 152 192 233 287 342
#     4  11  24  41  61  85 110 146 189 233 280 338
#     4   8  14  26  48  81 116 147 187 238 286 333
#     4  11  22  37  57  81 110 144 187 240 281 335
#
# _framework density 18.647932000000001
#
# number of rings (size 3 to 8) (size 9 to 14) (size 15 to 20)
#    0.000    2.143    1.429    3.000    0.000    3.429 
#    0.000    5.000    0.000    6.857    0.000    8.000 
#    0.000    0.000    0.000    0.000    0.000    0.000 
#
# Total GULP energy -311784.957722 kJ/mol
# GULP energy per Si atom -5567.588531 kJ/mol
# Density = 1.860549 g / cm^3
# Si number density = 18.647932 Si / 1000 Ang^3
#
#
#
# Elastic Constant Matrix: (Units=GPa)
#
#
# Indices 1 2 3 4 5 6 
#
# 1 52.3050 6.6262 33.6891 0.0000 0.0000 0.0000
# 2 6.6262 75.9211 25.6329 0.0000 0.0000 0.0000
# 3 33.6891 25.6329 121.7805 0.0000 0.0000 0.0000
# 4 0.0000 0.0000 0.0000 12.6755 0.0000 0.0000
# 5 0.0000 0.0000 0.0000 0.0000 3.6224 0.0000
# 6 0.0000 0.0000 0.0000 0.0000 0.0000 17.4620
#
#
#
# Elastic Compliance Matrix: (Units=1/GPa)
#
#
# Indices 1 2 3 4 5 6 
#
# 1 0.023265 0.000153 -0.006468 0.000000 0.000000 0.000000
# 2 0.000153 0.014180 -0.003027 0.000000 0.000000 0.000000
# 3 -0.006468 -0.003027 0.010638 0.000000 0.000000 0.000000
# 4 0.000000 0.000000 0.000000 0.078892 0.000000 0.000000
# 5 0.000000 0.000000 0.000000 0.000000 0.276062 0.000000
# 6 0.000000 0.000000 0.000000 0.000000 0.000000 0.057267
#
#
# Mechanical properties :
#
#
# Convention : Reuss Voigt Hill
#
# Bulk Modulus (GPa) = 34.01433 42.43366 38.22399
# Shear Modulus (GPa) = 10.22935 19.02255 14.62595
#
# Velocity S-wave (km/s) = 2.34466 3.19735 2.80361
# Velocity P-wave (km/s) = 5.06061 6.03616 5.56979
#
# Compressibility (1/GPa) = 0.02939937
#
# Stress axis : x y z
#
# Youngs Moduli (GPa) = 42.98225 70.52076 94.00213
#
# Poissons Ratio (x) = -0.01081 0.60804
# Poissons Ratio (y) = -0.00659 0.28456
# Poissons Ratio (z) = 0.27802 0.21348
#
# Static dielectric constant tensor:
#      x y z
#    x 1.677730 0.000000 0.000000 
#    y 0.000000 1.696860 0.000000 
#    z 0.000000 0.000000 1.661610 
# 
# From -- ./inp_files/11980.got.cif
#   From: 2010.05.17/outbox.cif.g08.bks.cpg/sg49_6_cif.got.tgz:11980.got - 2010.06.03 21:02:19.
