data_PCOD9394821
_publ_section_title
;
Structure prediction by ZEFSAII (Michael W. Deem and Ramdas Pophale) SiO2 
 PCOD9394821
Probable space group: P C C M
;
_chemical_formula_sum "Si O2"
_cell_formula_units_Z 42
_cell_length_a 10.007796
_cell_length_b 7.449581
_cell_length_c 22.869783
_cell_angle_alpha 90.000000
_cell_angle_beta 90.000000
_cell_angle_gamma 90.000000
_cell_volume 1705.031216
_symmetry_space_group_name_H-M "P C C M"
_symmetry_group_IT_number 49
_symmetry_cell_setting 'orthorhombic'
loop_
_space_group_symop_operation_xyz
x,y,z
-x,-y,z
x,-y,1/2-z
-x,y,1/2-z
-x,-y,-z
x,y,-z
-x,y,1/2+z
x,-y,1/2+z
loop_
_atom_site_type_symbol
_atom_site_label
_atom_site_fract_x
_atom_site_fract_y
_atom_site_fract_z
Si Si1 0.306625 0.132913 0.335390
Si Si2 0.892703 0.235776 0.935247
Si Si3 0.831555 0.349766 0.405112
Si Si4 0.147837 0.292589 0.232642
Si Si5 0.500000 0.000000 0.000000
Si Si6 0.449153 0.214544 0.110556
O O1 0.185058 0.145919 0.381654
O O2 0.250563 0.180018 0.271846
O O3 0.426171 0.275423 0.349956
O O4 0.374866 0.941654 0.350557
O O5 0.864163 0.447358 0.923685
O O6 0.054328 0.224497 0.933576
O O7 0.845729 0.181465 0.000000
O O8 0.847106 0.305930 0.336724
O O9 0.675368 0.321382 0.415491
O O10 0.163561 0.500000 0.250000
O O11 0.000000 0.230170 0.250000
O O12 0.477026 0.854238 0.947613
#
# Coordination Sequence:
#
# PCOD9394821 Si02
#       6
#     8   8   8   8   2   8
#     4  10  22  44  62  95 131 168 214 269 324 388
#     4  11  23  40  65  98 139 161 219 281 323 374
#     4  11  22  41  63  99 125 174 213 269 327 383
#     4  11  19  40  68  94 132 166 214 268 324 383
#     4   8  20  44  64  76 132 178 200 252 322 386
#     4  10  25  41  64  92 131 175 214 263 333 382
#
# _framework density 24.632981000000001
#
# number of rings (size 3 to 8) (size 9 to 14) (size 15 to 20)
#    0.000    1.714    3.810    2.286    8.000    3.048 
#    0.000    7.619    0.000    0.000    0.000    0.000 
#    0.000    0.000    0.000    0.000    0.000    0.000 
#
# Total GULP energy -233854.922850 kJ/mol
# GULP energy per Si atom -5567.974354 kJ/mol
# Density = 2.457691 g / cm^3
# Si number density = 24.632981 Si / 1000 Ang^3
#
#
#
# Elastic Constant Matrix: (Units=GPa)
#
#
# Indices 1 2 3 4 5 6 
#
# 1 103.1207 19.0613 11.9540 0.0000 0.0000 0.0000
# 2 19.0613 39.0864 0.1577 0.0000 0.0000 0.0000
# 3 11.9540 0.1577 165.5885 0.0000 0.0000 0.0000
# 4 0.0000 0.0000 0.0000 16.2151 0.0000 0.0000
# 5 0.0000 0.0000 0.0000 0.0000 29.1485 0.0000
# 6 0.0000 0.0000 0.0000 0.0000 0.0000 29.3682
#
#
#
# Elastic Compliance Matrix: (Units=1/GPa)
#
#
# Indices 1 2 3 4 5 6 
#
# 1 0.010756 -0.005242 -0.000771 0.000000 0.000000 0.000000
# 2 -0.005242 0.028139 0.000352 0.000000 0.000000 0.000000
# 3 -0.000771 0.000352 0.006094 0.000000 0.000000 0.000000
# 4 0.000000 0.000000 0.000000 0.061671 0.000000 0.000000
# 5 0.000000 0.000000 0.000000 0.000000 0.034307 0.000000
# 6 0.000000 0.000000 0.000000 0.000000 0.000000 0.034050
#
#
# Mechanical properties :
#
#
# Convention : Reuss Voigt Hill
#
# Bulk Modulus (GPa) = 29.70392 41.12684 35.41538
# Shear Modulus (GPa) = 25.30826 33.38787 29.34806
#
# Velocity S-wave (km/s) = 3.20881 3.68559 3.45543
# Velocity P-wave (km/s) = 5.08069 5.90284 5.50713
#
# Compressibility (1/GPa) = 0.03366559
#
# Stress axis : x y z
#
# Youngs Moduli (GPa) = 92.97320 35.53738 164.08434
#
# Poissons Ratio (x) = 0.18629 0.12659
# Poissons Ratio (y) = 0.48738 -0.05770
# Poissons Ratio (z) = 0.07173 -0.01250
#
# Static dielectric constant tensor:
#      x y z
#    x 2.077110 0.000000 0.000000 
#    y 0.000000 2.107120 0.000000 
#    z 0.000000 0.000000 1.869000 
# 
# From -- ./inp_files/22788.got.cif
#   From: 2010.05.17/outbox.cif.g08.bks.cpg/sg49_12_cif.got.tgz:22788.got - 2010.06.03 21:02:19.
