data_PCOD9394386
_publ_section_title
;
Structure prediction by ZEFSAII (Michael W. Deem and Ramdas Pophale) SiO2 
 PCOD9394386
Probable space group: P C C M
;
_chemical_formula_sum "Si O2"
_cell_formula_units_Z 64
_cell_length_a 11.972777
_cell_length_b 10.552981
_cell_length_c 25.915905
_cell_angle_alpha 90.000000
_cell_angle_beta 90.000000
_cell_angle_gamma 90.000000
_cell_volume 3274.435417
_symmetry_space_group_name_H-M "P C C M"
_symmetry_group_IT_number 49
_symmetry_cell_setting 'orthorhombic'
loop_
_space_group_symop_operation_xyz
x,y,z
-x,-y,z
x,-y,1/2-z
-x,y,1/2-z
-x,-y,-z
x,y,-z
-x,y,1/2+z
x,-y,1/2+z
loop_
_atom_site_type_symbol
_atom_site_label
_atom_site_fract_x
_atom_site_fract_y
_atom_site_fract_z
Si Si1 0.675204 0.383834 0.781207
Si Si2 0.901583 0.595424 0.657688
Si Si3 0.632179 0.008536 0.809382
Si Si4 0.985029 0.849586 0.187979
Si Si5 0.605196 0.751597 0.621625
Si Si6 0.594084 0.390282 0.399892
Si Si7 0.265843 0.753974 0.680558
Si Si8 0.766065 0.426128 0.058523
O O1 0.626900 0.500000 0.750000
O O2 0.793151 0.422964 0.806507
O O3 0.597216 0.334130 0.826315
O O4 0.702629 0.276652 0.739516
O O5 0.865740 0.559756 0.599541
O O6 0.000000 0.500000 0.674378
O O7 0.932450 0.744411 0.663470
O O8 0.648502 0.121575 0.850386
O O9 0.500000 0.000000 0.803280
O O10 0.679940 0.000000 0.750000
O O11 0.674973 0.882453 0.835530
O O12 0.864241 0.787292 0.176010
O O13 0.000000 0.846438 0.250000
O O14 0.000000 0.000000 0.173102
O O15 0.485444 0.733541 0.593736
O O16 0.695106 0.690127 0.583293
O O17 0.500000 0.500000 0.394842
O O18 0.677263 0.355935 0.353040
O O19 0.681803 0.453049 0.439480
O O20 0.800308 0.402917 0.000000
#
# Coordination Sequence:
#
# PCOD9394386 Si02
#       8
#     8   8   8   8   8   8   8   8
#     4  11  21  33  54  83 125 171 203 249 303 377
#     4  11  23  41  59  89 125 157 212 270 324 381
#     4  11  22  36  55  87 130 175 206 240 297 372
#     4  11  25  38  59  89 127 178 216 253 308 375
#     4  10  21  37  56  88 123 160 208 251 311 382
#     4  10  21  39  58  92 125 157 206 256 323 381
#     4  12  22  36  59  86 133 175 212 249 300 382
#     4  10  23  42  68  89 113 155 212 276 335 382
#
# _framework density 19.545354
#
# number of rings (size 3 to 8) (size 9 to 14) (size 15 to 20)
#    0.000    1.250    3.750    3.750    5.250    3.000 
#    0.000    5.000    0.000    1.500    0.000    0.000 
#    0.000    0.000    0.000    0.000    0.000    0.000 
#
# Total GULP energy -356395.691880 kJ/mol
# GULP energy per Si atom -5568.682686 kJ/mol
# Density = 1.950087 g / cm^3
# Si number density = 19.545354 Si / 1000 Ang^3
#
#
#
# Elastic Constant Matrix: (Units=GPa)
#
#
# Indices 1 2 3 4 5 6 
#
# 1 60.7909 11.3791 -0.4761 0.0000 0.0000 0.0000
# 2 11.3791 92.2428 20.0621 0.0000 0.0000 0.0000
# 3 -0.4761 20.0621 73.0597 0.0000 0.0000 0.0000
# 4 0.0000 0.0000 0.0000 10.0169 0.0000 0.0000
# 5 0.0000 0.0000 0.0000 0.0000 0.2566 0.0000
# 6 0.0000 0.0000 0.0000 0.0000 0.0000 27.6020
#
#
#
# Elastic Compliance Matrix: (Units=1/GPa)
#
#
# Indices 1 2 3 4 5 6 
#
# 1 0.016875 -0.002239 0.000725 0.000000 0.000000 0.000000
# 2 -0.002239 0.011827 -0.003262 0.000000 0.000000 0.000000
# 3 0.000725 -0.003262 0.014588 0.000000 0.000000 0.000000
# 4 0.000000 0.000000 0.000000 0.099831 0.000000 0.000000
# 5 0.000000 0.000000 0.000000 0.000000 3.897758 0.000000
# 6 0.000000 0.000000 0.000000 0.000000 0.000000 0.036229
#
#
# Mechanical properties :
#
#
# Convention : Reuss Voigt Hill
#
# Bulk Modulus (GPa) = 29.64187 32.00263 30.82225
# Shear Modulus (GPa) = 1.22014 20.58365 10.90189
#
# Velocity S-wave (km/s) = 0.79096 3.24871 2.36429
# Velocity P-wave (km/s) = 4.00409 5.52098 4.82255
#
# Compressibility (1/GPa) = 0.03373606
#
# Stress axis : x y z
#
# Youngs Moduli (GPa) = 59.26041 84.55446 68.54968
#
# Poissons Ratio (x) = 0.18934 -0.04969
# Poissons Ratio (y) = 0.13270 0.22362
# Poissons Ratio (z) = -0.04296 0.27583
#
# Static dielectric constant tensor:
#      x y z
#    x 1.698890 0.000000 0.000000 
#    y 0.000000 1.797120 0.000000 
#    z 0.000000 0.000000 1.658030 
# 
# From -- ./inp_files/23025.got.cif
#   From: 2010.05.17/outbox.cif.g08.bks.cpg/sg49_12_cif.got.tgz:23025.got - 2010.06.03 21:02:19.
