data_PCOD9394057
_publ_section_title
;
Structure prediction by ZEFSAII (Michael W. Deem and Ramdas Pophale) SiO2 
 PCOD9394057
Probable space group: P C C M
;
_chemical_formula_sum "Si O2"
_cell_formula_units_Z 56
_cell_length_a 23.042856
_cell_length_b 15.083901
_cell_length_c 8.604446
_cell_angle_alpha 90.000000
_cell_angle_beta 90.000000
_cell_angle_gamma 90.000000
_cell_volume 2990.700288
_symmetry_space_group_name_H-M "P C C M"
_symmetry_group_IT_number 49
_symmetry_cell_setting 'orthorhombic'
loop_
_space_group_symop_operation_xyz
x,y,z
-x,-y,z
x,-y,1/2-z
-x,y,1/2-z
-x,-y,-z
x,y,-z
-x,y,1/2+z
x,-y,1/2+z
loop_
_atom_site_type_symbol
_atom_site_label
_atom_site_fract_x
_atom_site_fract_y
_atom_site_fract_z
Si Si1 0.237876 0.095498 0.186440
Si Si2 0.162112 0.402352 0.813991
Si Si3 0.434812 0.095884 0.313726
Si Si4 0.709215 0.597345 0.314456
Si Si5 0.338973 0.772344 0.687171
Si Si6 0.102672 0.096294 0.813062
Si Si7 0.938806 0.721375 0.315062
O O1 0.281443 0.172398 0.236502
O O2 0.170762 0.109269 0.231715
O O3 0.256679 0.000000 0.250000
O O4 0.239244 0.092023 0.000000
O O5 0.147190 0.500000 0.750000
O O6 0.226223 0.381403 0.749693
O O7 0.114584 0.333066 0.756397
O O8 0.164415 0.403356 0.000000
O O9 0.500000 0.108241 0.250000
O O10 0.435300 0.093789 0.500000
O O11 0.393154 0.172584 0.251308
O O12 0.414460 0.000000 0.250000
O O13 0.694131 0.500000 0.250000
O O14 0.710926 0.594817 0.500000
O O15 0.667039 0.674082 0.254333
O O16 0.340805 0.769446 0.500000
O O17 0.068287 0.177042 0.738665
O O18 0.084924 0.000000 0.750000
O O19 0.098030 0.098682 0.000000
O O20 0.937736 0.715201 0.500000
O O21 0.000000 0.686998 0.250000
#
# Coordination Sequence:
#
# PCOD9394057 Si02
#       7
#     8   8   8   8   8   8   8
#     4   9  19  32  51  78 111 144 178 220 273 330
#     4  11  22  40  63  88 116 148 183 227 281 341
#     4  11  22  38  58  84 118 160 204 247 290 339
#     4  11  22  38  60  88 118 152 190 234 284 339
#     4  11  21  35  56  85 118 154 193 239 287 338
#     4  10  20  37  57  80 109 145 184 228 278 334
#     4  12  25  41  59  82 108 141 184 232 281 337
#
# _framework density 18.724710999999999
#
# number of rings (size 3 to 8) (size 9 to 14) (size 15 to 20)
#    0.000    1.286    0.000    8.571    0.000    4.571 
#    0.000    2.857    0.000    0.429    0.000    3.000 
#    0.000    0.000    0.000    0.000    0.000    0.000 
#
# Total GULP energy -313230.459626 kJ/mol
# GULP energy per Si atom -5593.401065 kJ/mol
# Density = 1.868209 g / cm^3
# Si number density = 18.724711 Si / 1000 Ang^3
#
#
#
# Elastic Constant Matrix: (Units=GPa)
#
#
# Indices 1 2 3 4 5 6 
#
# 1 70.2568 72.4277 44.0646 0.0000 0.0000 0.0000
# 2 72.4277 134.7008 59.2952 0.0000 0.0000 0.0000
# 3 44.0646 59.2952 157.1315 0.0000 0.0000 0.0000
# 4 0.0000 0.0000 0.0000 34.4914 0.0000 0.0000
# 5 0.0000 0.0000 0.0000 0.0000 32.2236 0.0000
# 6 0.0000 0.0000 0.0000 0.0000 0.0000 17.5742
#
#
#
# Elastic Compliance Matrix: (Units=1/GPa)
#
#
# Indices 1 2 3 4 5 6 
#
# 1 0.033134 -0.016460 -0.003081 0.000000 0.000000 0.000000
# 2 -0.016460 0.017080 -0.001829 0.000000 0.000000 0.000000
# 3 -0.003081 -0.001829 0.007918 0.000000 0.000000 0.000000
# 4 0.000000 0.000000 0.000000 0.028993 0.000000 0.000000
# 5 0.000000 0.000000 0.000000 0.000000 0.031033 0.000000
# 6 0.000000 0.000000 0.000000 0.000000 0.000000 0.056901
#
#
# Mechanical properties :
#
#
# Convention : Reuss Voigt Hill
#
# Bulk Modulus (GPa) = 64.96681 79.29600 72.13141
# Shear Modulus (GPa) = 22.42861 29.27795 25.85328
#
# Velocity S-wave (km/s) = 3.46469 3.95853 3.71981
# Velocity P-wave (km/s) = 7.12576 7.95824 7.55348
#
# Compressibility (1/GPa) = 0.01539247
#
# Stress axis : x y z
#
# Youngs Moduli (GPa) = 30.18031 58.54969 126.29056
#
# Poissons Ratio (x) = 0.96373 0.38904
# Poissons Ratio (y) = 0.49677 0.23102
# Poissons Ratio (z) = 0.09297 0.10710
#
# Static dielectric constant tensor:
#      x y z
#    x 1.648390 0.000000 0.000000 
#    y 0.000000 1.649470 0.000000 
#    z 0.000000 0.000000 1.621460 
# 
# From -- ./inp_files/5771.got.cif
#   From: 2010.05.17/outbox.cif.g08.bks.cpg/sg49_3_cif.got.tgz:5771.got - 2010.06.03 21:02:19.
