data_PCOD9394714
_publ_section_title
;
Structure prediction by ZEFSAII (Michael W. Deem and Ramdas Pophale) SiO2 
 PCOD9394714
Probable space group: P C C M
;
_chemical_formula_sum "Si O2"
_cell_formula_units_Z 34
_cell_length_a 19.523406
_cell_length_b 4.938328
_cell_length_c 13.380763
_cell_angle_alpha 90.000000
_cell_angle_beta 90.000000
_cell_angle_gamma 90.000000
_cell_volume 1290.079269
_symmetry_space_group_name_H-M "P C C M"
_symmetry_group_IT_number 49
_symmetry_cell_setting 'orthorhombic'
loop_
_space_group_symop_operation_xyz
x,y,z
-x,-y,z
x,-y,1/2-z
-x,y,1/2-z
-x,-y,-z
x,y,-z
-x,y,1/2+z
x,-y,1/2+z
loop_
_atom_site_type_symbol
_atom_site_label
_atom_site_fract_x
_atom_site_fract_y
_atom_site_fract_z
Si Si1 0.424656 0.433913 0.612999
Si Si2 0.194900 0.314216 0.120487
Si Si3 0.890860 0.189784 0.119825
Si Si4 0.332399 0.038746 0.114440
Si Si5 0.000000 0.500000 0.750000
O O1 0.500000 0.500000 0.651485
O O2 0.436730 0.326350 0.500000
O O3 0.373884 0.212755 0.661699
O O4 0.384787 0.713955 0.607426
O O5 0.131033 0.116525 0.141660
O O6 0.263827 0.173714 0.157966
O O7 0.174097 0.618129 0.147790
O O8 0.202750 0.322713 0.000000
O O9 0.954359 0.310234 0.178588
O O10 0.901921 0.211898 0.000000
O O11 0.313452 0.947090 0.000000
#
# Coordination Sequence:
#
# PCOD9394714 Si02
#       5
#     8   8   8   8   2
#     4   9  15  21  32  57  94 135 179 223 268 321
#     4   9  18  34  54  76 104 143 190 234 272 324
#     4  10  22  39  59  84 113 145 186 228 273 331
#     4   9  15  24  40  60  89 135 182 220 268 318
#     4  12  26  42  64  88 116 150 176 222 284 340
#
# _framework density 26.354968
#
# number of rings (size 3 to 8) (size 9 to 14) (size 15 to 20)
#    0.000    2.588    0.000    2.471    0.000   11.294 
#    0.000    3.529    0.000    0.000    0.000    0.000 
#    0.000    0.000    0.000   74.118    0.000  181.176 
#
# Total GULP energy -190425.023054 kJ/mol
# GULP energy per Si atom -5600.735972 kJ/mol
# Density = 2.629498 g / cm^3
# Si number density = 26.354968 Si / 1000 Ang^3
#
#
#
# Elastic Constant Matrix: (Units=GPa)
#
#
# Indices 1 2 3 4 5 6 
#
# 1 135.1766 25.9952 29.6976 0.0000 0.0000 0.0000
# 2 25.9952 135.3803 10.5350 0.0000 0.0000 0.0000
# 3 29.6976 10.5350 109.9126 0.0000 0.0000 0.0000
# 4 0.0000 0.0000 0.0000 17.6290 0.0000 0.0000
# 5 0.0000 0.0000 0.0000 0.0000 -48.6217 0.0000
# 6 0.0000 0.0000 0.0000 0.0000 0.0000 45.1779
#
#
#
# Elastic Compliance Matrix: (Units=1/GPa)
#
#
# Indices 1 2 3 4 5 6 
#
# 1 0.008119 -0.001399 -0.002060 0.000000 0.000000 0.000000
# 2 -0.001399 0.007683 -0.000358 0.000000 0.000000 0.000000
# 3 -0.002060 -0.000358 0.009689 0.000000 0.000000 0.000000
# 4 0.000000 0.000000 0.000000 0.056725 0.000000 0.000000
# 5 0.000000 0.000000 0.000000 0.000000 -0.020567 0.000000
# 6 0.000000 0.000000 0.000000 0.000000 0.000000 0.022135
#
#
# Mechanical properties :
#
#
# Convention : Reuss Voigt Hill
#
# Bulk Modulus (GPa) = 55.99893 56.99167 56.49530
# Shear Modulus (GPa) = 51.35048 23.78648 37.56848
#
# Velocity S-wave (km/s) = 4.41888 3.00749 3.77965
# Velocity P-wave (km/s) = 6.87964 5.80789 6.36636
#
# Compressibility (1/GPa) = 0.01785748
#
# Stress axis : x y z
#
# Youngs Moduli (GPa) = 123.16451 130.15620 103.20965
#
# Poissons Ratio (x) = 0.18205 0.21258
# Poissons Ratio (y) = 0.17228 0.03700
# Poissons Ratio (z) = 0.25368 0.04666
#
# Static dielectric constant tensor:
#      x y z
#    x 2.030260 0.000000 0.000000 
#    y 0.000000 1.962480 0.000000 
#    z 0.000000 0.000000 2.176180 
# 
# From -- ./inp_files/14287.got.cif
#   From: 2010.05.17/outbox.cif.g08.bks.cpg/sg49_8_cif.got.tgz:14287.got - 2010.06.03 21:02:19.
