data_PCOD9394838
_publ_section_title
;
Structure prediction by ZEFSAII (Michael W. Deem and Ramdas Pophale) SiO2 
 PCOD9394838
Probable space group: P C C M
;
_chemical_formula_sum "Si O2"
_cell_formula_units_Z 30
_cell_length_a 13.092964
_cell_length_b 5.106695
_cell_length_c 19.685025
_cell_angle_alpha 90.000000
_cell_angle_beta 90.000000
_cell_angle_gamma 90.000000
_cell_volume 1316.175689
_symmetry_space_group_name_H-M "P C C M"
_symmetry_group_IT_number 49
_symmetry_cell_setting 'orthorhombic'
loop_
_space_group_symop_operation_xyz
x,y,z
-x,-y,z
x,-y,1/2-z
-x,y,1/2-z
-x,-y,-z
x,y,-z
-x,y,1/2+z
x,-y,1/2+z
loop_
_atom_site_type_symbol
_atom_site_label
_atom_site_fract_x
_atom_site_fract_y
_atom_site_fract_z
Si Si1 0.152461 0.514880 0.000000
Si Si2 0.381802 0.913319 0.173935
Si Si3 0.951352 0.253449 0.325644
Si Si4 0.000000 0.000000 0.500000
Si Si5 0.269412 0.611308 0.634521
O O1 0.223131 0.502403 0.066392
O O2 0.092234 0.784554 0.000000
O O3 0.084260 0.251773 0.000000
O O4 0.345034 0.613180 0.164394
O O5 0.500000 0.000000 0.168423
O O6 0.350660 0.000000 0.250000
O O7 0.325056 0.113218 0.124106
O O8 0.831622 0.304033 0.321882
O O9 0.000000 0.500000 0.362082
O O10 0.000000 0.247251 0.250000
O O11 0.000000 0.000000 0.361774
#
# Coordination Sequence:
#
# PCOD9394838 Si02
#       5
#     4   8   8   2   8
#     4  11  26  44  67 104 138 198 235 276 350 420
#     4  11  26  47  73 103 135 179 236 303 369 415
#     4  10  23  37  57  95 135 175 225 266 338 406
#     4  10  24  46  64  90 148 190 236 274 320 406
#     4  12  25  44  71 100 145 182 237 290 347 430
#
# _framework density 22.793309000000001
#
# number of rings (size 3 to 8) (size 9 to 14) (size 15 to 20)
#    0.000    1.067    0.000    4.800   16.800    2.133 
#    0.000    4.000    0.000    0.000    0.000    0.000 
#    0.000    0.000    0.000    0.000    0.000    0.000 
#
# Total GULP energy -167138.839942 kJ/mol
# GULP energy per Si atom -5571.294665 kJ/mol
# Density = 2.274143 g / cm^3
# Si number density = 22.793309 Si / 1000 Ang^3
#
#
#
# Elastic Constant Matrix: (Units=GPa)
#
#
# Indices 1 2 3 4 5 6 
#
# 1 131.2387 45.2757 19.5299 0.0000 0.0000 0.0000
# 2 45.2757 219.7073 1.7808 0.0000 0.0000 0.0000
# 3 19.5299 1.7808 64.5337 0.0000 0.0000 0.0000
# 4 0.0000 0.0000 0.0000 22.5964 0.0000 0.0000
# 5 0.0000 0.0000 0.0000 0.0000 16.3417 0.0000
# 6 0.0000 0.0000 0.0000 0.0000 0.0000 62.1293
#
#
#
# Elastic Compliance Matrix: (Units=1/GPa)
#
#
# Indices 1 2 3 4 5 6 
#
# 1 0.008605 -0.001752 -0.002556 0.000000 0.000000 0.000000
# 2 -0.001752 0.004909 0.000395 0.000000 0.000000 0.000000
# 3 -0.002556 0.000395 0.016258 0.000000 0.000000 0.000000
# 4 0.000000 0.000000 0.000000 0.044255 0.000000 0.000000
# 5 0.000000 0.000000 0.000000 0.000000 0.061193 0.000000
# 6 0.000000 0.000000 0.000000 0.000000 0.000000 0.016095
#
#
# Mechanical properties :
#
#
# Convention : Reuss Voigt Hill
#
# Bulk Modulus (GPa) = 45.56671 60.96140 53.26405
# Shear Modulus (GPa) = 30.03766 43.47302 36.75534
#
# Velocity S-wave (km/s) = 3.63413 4.37197 4.02001
# Velocity P-wave (km/s) = 6.13546 7.23110 6.70570
#
# Compressibility (1/GPa) = 0.02194585
#
# Stress axis : x y z
#
# Youngs Moduli (GPa) = 116.21704 203.68913 61.50703
#
# Poissons Ratio (x) = 0.35696 0.15719
# Poissons Ratio (y) = 0.20367 -0.02429
# Poissons Ratio (z) = 0.29701 -0.08043
#
# Static dielectric constant tensor:
#      x y z
#    x 1.915650 0.000000 0.000000 
#    y 0.000000 2.023630 0.000000 
#    z 0.000000 0.000000 3.631370 
# 
# From -- ./inp_files/18763.got.cif
#   From: 2010.05.17/outbox.cif.g08.bks.cpg/sg49_10_cif.got.tgz:18763.got - 2010.06.03 21:02:19.
