data_PCOD9394606
_publ_section_title
;
Structure prediction by ZEFSAII (Michael W. Deem and Ramdas Pophale) SiO2 
 PCOD9394606
Probable space group: P C C M
;
_chemical_formula_sum "Si O2"
_cell_formula_units_Z 56
_cell_length_a 9.027814
_cell_length_b 12.521049
_cell_length_c 21.836721
_cell_angle_alpha 90.000000
_cell_angle_beta 90.000000
_cell_angle_gamma 90.000000
_cell_volume 2468.372749
_symmetry_space_group_name_H-M "P C C M"
_symmetry_group_IT_number 49
_symmetry_cell_setting 'orthorhombic'
loop_
_space_group_symop_operation_xyz
x,y,z
-x,-y,z
x,-y,1/2-z
-x,y,1/2-z
-x,-y,-z
x,y,-z
-x,y,1/2+z
x,-y,1/2+z
loop_
_atom_site_type_symbol
_atom_site_label
_atom_site_fract_x
_atom_site_fract_y
_atom_site_fract_z
Si Si1 0.680465 0.416402 0.431244
Si Si2 0.438642 0.263132 0.432730
Si Si3 0.162406 0.181841 0.929781
Si Si4 0.168558 0.124962 0.258529
Si Si5 0.602234 0.895381 0.155877
Si Si6 0.847885 0.764061 0.627230
Si Si7 0.829108 0.465541 0.817567
O O1 0.711775 0.459714 0.500000
O O2 0.508662 0.380863 0.427043
O O3 0.758395 0.298455 0.428869
O O4 0.741329 0.480365 0.373525
O O5 0.484599 0.221756 0.500000
O O6 0.500666 0.192358 0.377581
O O7 0.263225 0.260303 0.427456
O O8 0.263785 0.096098 0.894061
O O9 0.008359 0.203671 0.896058
O O10 0.140104 0.150267 0.000000
O O11 0.305654 0.152793 0.213732
O O12 0.207278 0.143499 0.328523
O O13 0.000000 0.171340 0.250000
O O14 0.154572 0.000000 0.250000
O O15 0.500000 0.000000 0.168003
O O16 0.834578 0.660578 0.670924
O O17 0.774207 0.500000 0.750000
O O18 0.000000 0.500000 0.821839
#
# Coordination Sequence:
#
# PCOD9394606 Si02
#       7
#     8   8   8   8   8   8   8
#     4   9  20  42  64  92 136 187 236 282 341 430
#     4  10  24  43  66  98 140 184 232 289 355 422
#     4  10  21  39  67  98 135 185 235 288 352 419
#     4  11  25  44  70 100 135 179 230 287 351 424
#     4  11  23  43  71  99 136 179 235 287 360 432
#     4  12  24  42  69  99 140 185 229 299 352 422
#     4  11  25  39  66 102 137 181 237 294 356 420
#
# _framework density 22.687010999999998
#
# number of rings (size 3 to 8) (size 9 to 14) (size 15 to 20)
#    0.000    1.429    2.857    2.571    6.000    5.143 
#    0.000    2.143    0.000    2.571    0.000    0.000 
#    0.000    0.000    0.000    0.000    0.000    0.000 
#
# Total GULP energy -312591.111146 kJ/mol
# GULP energy per Si atom -5581.984128 kJ/mol
# Density = 2.263537 g / cm^3
# Si number density = 22.687011 Si / 1000 Ang^3
#
#
#
# Elastic Constant Matrix: (Units=GPa)
#
#
# Indices 1 2 3 4 5 6 
#
# 1 134.9315 25.9897 69.1649 0.0000 0.0000 0.0000
# 2 25.9897 61.4759 33.9034 0.0000 0.0000 0.0000
# 3 69.1649 33.9034 155.2579 0.0000 0.0000 0.0000
# 4 0.0000 0.0000 0.0000 34.8503 0.0000 0.0000
# 5 0.0000 0.0000 0.0000 0.0000 42.1354 0.0000
# 6 0.0000 0.0000 0.0000 0.0000 0.0000 29.1464
#
#
#
# Elastic Compliance Matrix: (Units=1/GPa)
#
#
# Indices 1 2 3 4 5 6 
#
# 1 0.009811 -0.001975 -0.003939 0.000000 0.000000 0.000000
# 2 -0.001975 0.018891 -0.003245 0.000000 0.000000 0.000000
# 3 -0.003939 -0.003245 0.008904 0.000000 0.000000 0.000000
# 4 0.000000 0.000000 0.000000 0.028694 0.000000 0.000000
# 5 0.000000 0.000000 0.000000 0.000000 0.023733 0.000000
# 6 0.000000 0.000000 0.000000 0.000000 0.000000 0.034310
#
#
# Mechanical properties :
#
#
# Convention : Reuss Voigt Hill
#
# Bulk Modulus (GPa) = 51.84829 67.75348 59.80088
# Shear Modulus (GPa) = 33.53634 36.06691 34.80162
#
# Velocity S-wave (km/s) = 3.84893 3.99151 3.92087
# Velocity P-wave (km/s) = 6.53113 7.15347 6.84937
#
# Compressibility (1/GPa) = 0.01928704
#
# Stress axis : x y z
#
# Youngs Moduli (GPa) = 101.92792 52.93428 112.30328
#
# Poissons Ratio (x) = 0.10456 0.44239
# Poissons Ratio (y) = 0.20133 0.36446
# Poissons Ratio (z) = 0.40152 0.17179
#
# Static dielectric constant tensor:
#      x y z
#    x 1.951120 0.000000 0.000000 
#    y 0.000000 1.769910 0.000000 
#    z 0.000000 0.000000 1.854270 
# 
# From -- ./inp_files/19872.got.cif
#   From: 2010.05.17/outbox.cif.g08.bks.cpg/sg49_10_cif.got.tgz:19872.got - 2010.06.03 21:02:19.
