data_PCOD9394603
_publ_section_title
;
Structure prediction by ZEFSAII (Michael W. Deem and Ramdas Pophale) SiO2 
 PCOD9394603
Probable space group: P C C M
;
_chemical_formula_sum "Si O2"
_cell_formula_units_Z 48
_cell_length_a 15.204788
_cell_length_b 8.482946
_cell_length_c 15.325657
_cell_angle_alpha 90.000000
_cell_angle_beta 90.000000
_cell_angle_gamma 90.000000
_cell_volume 1976.724628
_symmetry_space_group_name_H-M "P C C M"
_symmetry_group_IT_number 49
_symmetry_cell_setting 'orthorhombic'
loop_
_space_group_symop_operation_xyz
x,y,z
-x,-y,z
x,-y,1/2-z
-x,y,1/2-z
-x,-y,-z
x,y,-z
-x,y,1/2+z
x,-y,1/2+z
loop_
_atom_site_type_symbol
_atom_site_label
_atom_site_fract_x
_atom_site_fract_y
_atom_site_fract_z
Si Si1 0.019336 0.175412 0.852572
Si Si2 0.544379 0.670239 0.394866
Si Si3 0.371920 0.174746 0.901530
Si Si4 0.690533 0.123857 0.829194
Si Si5 0.158028 0.308942 0.399240
Si Si6 0.199563 0.660573 0.394350
O O1 0.117902 0.230954 0.868465
O O2 0.000000 0.177511 0.750000
O O3 0.946350 0.287902 0.894564
O O4 0.000000 0.000000 0.886273
O O5 0.500000 0.500000 0.377880
O O6 0.564029 0.676003 0.500000
O O7 0.468662 0.794301 0.366556
O O8 0.630055 0.721587 0.340719
O O9 0.291718 0.272221 0.859896
O O10 0.343583 0.994184 0.904219
O O11 0.379353 0.237839 0.000000
O O12 0.790307 0.178092 0.843693
O O13 0.678955 0.000000 0.750000
O O14 0.186788 0.292799 0.500000
O O15 0.182693 0.482187 0.366663
O O16 0.202022 0.662038 0.500000
#
# Coordination Sequence:
#
# PCOD9394603 Si02
#       6
#     8   8   8   8   8   8
#     4  11  25  41  65  97 138 179 226 286 354 417
#     4  10  21  42  71 100 132 177 233 289 344 416
#     4  10  21  39  66  94 128 174 222 278 340 413
#     4  12  26  41  64  99 140 181 223 286 352 418
#     4  11  24  43  68  96 131 182 237 289 340 415
#     4  10  22  42  67  99 134 175 233 288 345 412
#
# _framework density 24.282595000000001
#
# number of rings (size 3 to 8) (size 9 to 14) (size 15 to 20)
#    0.000    1.333    0.000    5.000    4.667   10.667 
#    0.000    3.333    0.000    0.000    0.000    0.000 
#    0.000    0.000    0.000    0.000    0.000    0.000 
#
# Total GULP energy -268537.172085 kJ/mol
# GULP energy per Si atom -5594.524418 kJ/mol
# Density = 2.422733 g / cm^3
# Si number density = 24.282595 Si / 1000 Ang^3
#
#
#
# Elastic Constant Matrix: (Units=GPa)
#
#
# Indices 1 2 3 4 5 6 
#
# 1 100.9624 3.8005 10.2735 0.0000 0.0000 0.0000
# 2 3.8005 94.7015 14.0459 0.0000 0.0000 0.0000
# 3 10.2735 14.0459 76.4676 0.0000 0.0000 0.0000
# 4 0.0000 0.0000 0.0000 -140.3680 0.0000 0.0000
# 5 0.0000 0.0000 0.0000 0.0000 27.4855 0.0000
# 6 0.0000 0.0000 0.0000 0.0000 0.0000 52.7532
#
#
#
# Elastic Compliance Matrix: (Units=1/GPa)
#
#
# Indices 1 2 3 4 5 6 
#
# 1 0.010046 -0.000209 -0.001311 0.000000 0.000000 0.000000
# 2 -0.000209 0.010860 -0.001967 0.000000 0.000000 0.000000
# 3 -0.001311 -0.001967 0.013615 0.000000 0.000000 0.000000
# 4 0.000000 0.000000 0.000000 -0.007124 0.000000 0.000000
# 5 0.000000 0.000000 0.000000 0.000000 0.036383 0.000000
# 6 0.000000 0.000000 0.000000 0.000000 0.000000 0.018956
#
#
# Mechanical properties :
#
#
# Convention : Reuss Voigt Hill
#
# Bulk Modulus (GPa) = 36.30162 36.48569 36.39365
# Shear Modulus (GPa) = 50.56066 4.24155 27.40111
#
# Velocity S-wave (km/s) = 4.56804 1.32308 3.36285
# Velocity P-wave (km/s) = 6.54253 4.17039 5.48620
#
# Compressibility (1/GPa) = 0.02754698
#
# Stress axis : x y z
#
# Youngs Moduli (GPa) = 99.54238 92.08469 73.44913
#
# Poissons Ratio (x) = 0.01921 0.09632
# Poissons Ratio (y) = 0.02077 0.14445
# Poissons Ratio (z) = 0.13054 0.18110
#
# Static dielectric constant tensor:
#      x y z
#    x 1.881670 0.000000 0.000000 
#    y 0.000000 1.920890 0.000000 
#    z 0.000000 0.000000 2.057050 
# 
# From -- ./inp_files/17720.got.cif
#   From: 2010.05.17/outbox.cif.g08.bks.cpg/sg49_9_cif.got.tgz:17720.got - 2010.06.03 21:02:19.
