data_PCOD9394456
_publ_section_title
;
Structure prediction by ZEFSAII (Michael W. Deem and Ramdas Pophale) SiO2 
 PCOD9394456
Probable space group: P C C M
;
_chemical_formula_sum "Si O2"
_cell_formula_units_Z 38
_cell_length_a 19.549809
_cell_length_b 5.463339
_cell_length_c 16.188613
_cell_angle_alpha 90.000000
_cell_angle_beta 90.000000
_cell_angle_gamma 90.000000
_cell_volume 1729.060976
_symmetry_space_group_name_H-M "P C C M"
_symmetry_group_IT_number 49
_symmetry_cell_setting 'orthorhombic'
loop_
_space_group_symop_operation_xyz
x,y,z
-x,-y,z
x,-y,1/2-z
-x,y,1/2-z
-x,-y,-z
x,y,-z
-x,y,1/2+z
x,-y,1/2+z
loop_
_atom_site_type_symbol
_atom_site_label
_atom_site_fract_x
_atom_site_fract_y
_atom_site_fract_z
Si Si1 0.500000 0.000000 0.500000
Si Si2 0.567042 0.664731 0.632951
Si Si3 0.079772 0.996590 0.101142
Si Si4 0.364774 0.000000 0.750000
Si Si5 0.849904 0.505901 0.901723
Si Si6 0.300327 0.388492 0.842628
O O1 0.449990 0.117872 0.571151
O O2 0.500000 0.500000 0.631925
O O3 0.586254 0.784737 0.719997
O O4 0.634064 0.505266 0.612191
O O5 0.113364 0.249463 0.131133
O O6 0.119213 0.751231 0.130026
O O7 0.083278 0.996809 0.000000
O O8 0.000000 0.000000 0.123508
O O9 0.317895 0.104393 0.823703
O O10 0.769753 0.545848 0.886239
O O11 0.861869 0.501412 0.000000
O O12 0.294137 0.500000 0.750000
#
# Coordination Sequence:
#
# PCOD9394456 Si02
#       6
#     2   8   8   4   8   8
#     4  12  26  42  64  94 132 162 196 290 328 390
#     4  11  25  44  64  93 122 166 218 267 334 388
#     4   9  18  35  61  95 131 168 213 266 325 391
#     4  10  24  45  68  88 121 176 218 278 319 414
#     4  10  21  37  63  96 129 171 217 272 328 385
#     4  10  24  41  63  90 126 171 218 263 328 401
#
# _framework density 21.977247999999999
#
# number of rings (size 3 to 8) (size 9 to 14) (size 15 to 20)
#    0.000    1.895    0.000    2.211    7.368   12.632 
#    1.895    0.000    0.000    3.789    0.000    0.000 
#    0.000    0.000    0.000    0.000    0.000    0.000 
#
# Total GULP energy -211672.716079 kJ/mol
# GULP energy per Si atom -5570.334634 kJ/mol
# Density = 2.192723 g / cm^3
# Si number density = 21.977248 Si / 1000 Ang^3
#
#
#
# Elastic Constant Matrix: (Units=GPa)
#
#
# Indices 1 2 3 4 5 6 
#
# 1 147.3135 71.6467 -9.7199 0.0000 0.0000 0.0000
# 2 71.6467 117.8674 6.5480 0.0000 0.0000 0.0000
# 3 -9.7199 6.5480 13.8165 0.0000 0.0000 0.0000
# 4 0.0000 0.0000 0.0000 -20.3242 0.0000 0.0000
# 5 0.0000 0.0000 0.0000 0.0000 67.0567 0.0000
# 6 0.0000 0.0000 0.0000 0.0000 0.0000 33.1517
#
#
#
# Elastic Compliance Matrix: (Units=1/GPa)
#
#
# Indices 1 2 3 4 5 6 
#
# 1 0.011135 -0.007398 0.011339 0.000000 0.000000 0.000000
# 2 -0.007398 0.013629 -0.011664 0.000000 0.000000 0.000000
# 3 0.011339 -0.011664 0.085883 0.000000 0.000000 0.000000
# 4 0.000000 0.000000 0.000000 -0.049202 0.000000 0.000000
# 5 0.000000 0.000000 0.000000 0.000000 0.014913 0.000000
# 6 0.000000 0.000000 0.000000 0.000000 0.000000 0.030164
#
#
# Mechanical properties :
#
#
# Convention : Reuss Voigt Hill
#
# Bulk Modulus (GPa) = 10.50409 46.21633 28.36021
# Shear Modulus (GPa) = 32.53092 30.01169 31.27130
#
# Velocity S-wave (km/s) = 3.85152 3.69938 3.77622
# Velocity P-wave (km/s) = 4.95670 6.27073 5.65203
#
# Compressibility (1/GPa) = 0.09520097
#
# Stress axis : x y z
#
# Youngs Moduli (GPa) = 89.81022 73.37221 11.64381
#
# Poissons Ratio (x) = 0.54282 -0.13203
# Poissons Ratio (y) = 0.66443 0.13581
# Poissons Ratio (z) = -1.01840 0.85580
#
# Static dielectric constant tensor:
#      x y z
#    x 1.771970 0.000000 0.000000 
#    y 0.000000 1.904090 0.000000 
#    z 0.000000 0.000000 1.759010 
# 
# From -- ./inp_files/18087.got.cif
#   From: 2010.05.17/outbox.cif.g08.bks.cpg/sg49_10_cif.got.tgz:18087.got - 2010.06.03 21:02:19.
