data_PCOD9394115
_publ_section_title
;
Structure prediction by ZEFSAII (Michael W. Deem and Ramdas Pophale) SiO2 
 PCOD9394115
Probable space group: P C C M
;
_chemical_formula_sum "Si O2"
_cell_formula_units_Z 64
_cell_length_a 20.762779
_cell_length_b 8.521938
_cell_length_c 18.171645
_cell_angle_alpha 90.000000
_cell_angle_beta 90.000000
_cell_angle_gamma 90.000000
_cell_volume 3215.274791
_symmetry_space_group_name_H-M "P C C M"
_symmetry_group_IT_number 49
_symmetry_cell_setting 'orthorhombic'
loop_
_space_group_symop_operation_xyz
x,y,z
-x,-y,z
x,-y,1/2-z
-x,y,1/2-z
-x,-y,-z
x,y,-z
-x,y,1/2+z
x,-y,1/2+z
loop_
_atom_site_type_symbol
_atom_site_label
_atom_site_fract_x
_atom_site_fract_y
_atom_site_fract_z
Si Si1 0.990476 0.686781 0.585029
Si Si2 0.763198 0.111324 0.580596
Si Si3 0.135032 0.215182 0.671688
Si Si4 0.116378 0.838674 0.656794
Si Si5 0.264680 0.402788 0.322553
Si Si6 0.567430 0.924534 0.088525
Si Si7 0.326066 0.083051 0.323927
Si Si8 0.649146 0.359755 0.417843
O O1 0.985884 0.740588 0.500000
O O2 0.049110 0.777957 0.624966
O O3 0.000000 0.500000 0.584750
O O4 0.925442 0.713707 0.629685
O O5 0.774399 0.036844 0.500000
O O6 0.824559 0.212040 0.605008
O O7 0.703246 0.226260 0.574624
O O8 0.739637 0.993777 0.644336
O O9 0.127642 0.220946 0.760389
O O10 0.198771 0.316712 0.650029
O O11 0.126044 0.028035 0.654993
O O12 0.247534 0.500000 0.250000
O O13 0.310656 0.258354 0.302663
O O14 0.311119 0.508519 0.373869
O O15 0.589724 0.747726 0.113292
O O16 0.500000 0.000000 0.113456
O O17 0.621299 0.048113 0.114674
O O18 0.566768 0.915453 0.000000
O O19 0.347530 0.000000 0.250000
O O20 0.631607 0.417919 0.500000
#
# Coordination Sequence:
#
# PCOD9394115 Si02
#       8
#     8   8   8   8   8   8   8   8
#     4  11  27  45  61  88 125 163 208 266 336 408
#     4  10  20  37  62  88 119 162 207 259 317 380
#     4  11  25  41  64  89 119 161 215 265 330 396
#     4  11  22  43  65  89 117 158 214 273 320 392
#     4  12  24  38  60  91 128 167 204 269 330 386
#     4   9  19  40  68  94 125 171 220 260 310 383
#     4  11  21  38  61  92 128 164 217 261 311 385
#     4   9  20  36  57  89 127 160 200 258 318 372
#
# _framework density 19.904986999999998
#
# number of rings (size 3 to 8) (size 9 to 14) (size 15 to 20)
#    0.000    1.500    1.250    5.250    3.500    4.750 
#    0.000    0.625    0.000    3.000    0.000    0.000 
#    0.000    0.000    0.000    0.000    0.000    0.000 
#
# Total GULP energy -356462.350561 kJ/mol
# GULP energy per Si atom -5569.724228 kJ/mol
# Density = 1.985968 g / cm^3
# Si number density = 19.904987 Si / 1000 Ang^3
#
#
#
# Elastic Constant Matrix: (Units=GPa)
#
#
# Indices 1 2 3 4 5 6 
#
# 1 125.3268 41.0709 9.6765 0.0000 0.0000 0.0000
# 2 41.0709 87.4962 16.0267 0.0000 0.0000 0.0000
# 3 9.6765 16.0267 34.7715 0.0000 0.0000 0.0000
# 4 0.0000 0.0000 0.0000 29.1018 0.0000 0.0000
# 5 0.0000 0.0000 0.0000 0.0000 30.9103 0.0000
# 6 0.0000 0.0000 0.0000 0.0000 0.0000 31.4031
#
#
#
# Elastic Compliance Matrix: (Units=1/GPa)
#
#
# Indices 1 2 3 4 5 6 
#
# 1 0.009443 -0.004315 -0.000639 0.000000 0.000000 0.000000
# 2 -0.004315 0.014455 -0.005462 0.000000 0.000000 0.000000
# 3 -0.000639 -0.005462 0.031454 0.000000 0.000000 0.000000
# 4 0.000000 0.000000 0.000000 0.034362 0.000000 0.000000
# 5 0.000000 0.000000 0.000000 0.000000 0.032352 0.000000
# 6 0.000000 0.000000 0.000000 0.000000 0.000000 0.031844
#
#
# Mechanical properties :
#
#
# Convention : Reuss Voigt Hill
#
# Bulk Modulus (GPa) = 28.96830 42.34920 35.65875
# Shear Modulus (GPa) = 26.84585 30.33772 28.59178
#
# Velocity S-wave (km/s) = 3.67645 3.90824 3.79412
# Velocity P-wave (km/s) = 5.71022 6.45660 6.09484
#
# Compressibility (1/GPa) = 0.03452049
#
# Stress axis : x y z
#
# Youngs Moduli (GPa) = 105.90235 69.17944 31.79210
#
# Poissons Ratio (x) = 0.29854 0.02031
# Poissons Ratio (y) = 0.45701 0.17364
# Poissons Ratio (z) = 0.06764 0.37784
#
# Static dielectric constant tensor:
#      x y z
#    x 1.737160 0.000000 0.000000 
#    y 0.000000 1.755100 0.000000 
#    z 0.000000 0.000000 1.750630 
# 
# From -- ./inp_files/18334.got.cif
#   From: 2010.05.17/outbox.cif.g08.bks.cpg/sg49_10_cif.got.tgz:18334.got - 2010.06.03 21:02:19.
