data_PCOD9394659
_publ_section_title
;
Structure prediction by ZEFSAII (Michael W. Deem and Ramdas Pophale) SiO2 
 PCOD9394659
Probable space group: P C C M
;
_chemical_formula_sum "Si O2"
_cell_formula_units_Z 40
_cell_length_a 11.755233
_cell_length_b 8.455703
_cell_length_c 18.665077
_cell_angle_alpha 90.000000
_cell_angle_beta 90.000000
_cell_angle_gamma 90.000000
_cell_volume 1855.285489
_symmetry_space_group_name_H-M "P C C M"
_symmetry_group_IT_number 49
_symmetry_cell_setting 'orthorhombic'
loop_
_space_group_symop_operation_xyz
x,y,z
-x,-y,z
x,-y,1/2-z
-x,y,1/2-z
-x,-y,-z
x,y,-z
-x,y,1/2+z
x,-y,1/2+z
loop_
_atom_site_type_symbol
_atom_site_label
_atom_site_fract_x
_atom_site_fract_y
_atom_site_fract_z
Si Si1 0.128906 0.669632 0.720996
Si Si2 0.724699 0.191438 0.913778
Si Si3 0.864252 0.508507 0.077722
Si Si4 0.301463 0.089849 0.185272
Si Si5 0.501382 0.316663 0.663129
O O1 0.170821 0.500000 0.750000
O O2 0.146375 0.642525 0.636615
O O3 0.207583 0.817921 0.732998
O O4 0.000000 0.687066 0.750000
O O5 0.812399 0.337627 0.900543
O O6 0.605990 0.240876 0.876791
O O7 0.751702 0.027149 0.873712
O O8 0.716416 0.173344 0.000000
O O9 0.000000 0.500000 0.072156
O O10 0.814738 0.547312 0.000000
O O11 0.386713 0.213168 0.147815
O O12 0.366710 0.000000 0.250000
O O13 0.500000 0.500000 0.640215
O O14 0.500000 0.319427 0.750000
#
# Coordination Sequence:
#
# PCOD9394659 Si02
#       5
#     8   8   8   8   8
#     4  11  23  41  67  99 130 177 233 285 340 412
#     4  11  25  45  68 101 142 183 230 287 357 426
#     4  10  21  42  69  96 132 180 231 283 341 410
#     4  12  25  40  65  98 141 177 225 289 360 417
#     4  11  24  41  67  96 131 181 234 285 345 419
#
# _framework density 21.560025
#
# number of rings (size 3 to 8) (size 9 to 14) (size 15 to 20)
#    0.000    1.000    4.000    3.000    2.800    3.200 
#    0.000    0.000    0.000    3.600    0.000    0.000 
#    0.000    0.000    0.000    0.000    0.000    0.000 
#
# Total GULP energy -223109.369300 kJ/mol
# GULP energy per Si atom -5577.734232 kJ/mol
# Density = 2.151095 g / cm^3
# Si number density = 21.560025 Si / 1000 Ang^3
#
#
#
# Elastic Constant Matrix: (Units=GPa)
#
#
# Indices 1 2 3 4 5 6 
#
# 1 102.4711 65.8477 40.5419 0.0000 0.0000 0.0000
# 2 65.8477 110.1607 42.9367 0.0000 0.0000 0.0000
# 3 40.5419 42.9367 92.0605 0.0000 0.0000 0.0000
# 4 0.0000 0.0000 0.0000 -0.3073 0.0000 0.0000
# 5 0.0000 0.0000 0.0000 0.0000 27.0944 0.0000
# 6 0.0000 0.0000 0.0000 0.0000 0.0000 16.6781
#
#
#
# Elastic Compliance Matrix: (Units=1/GPa)
#
#
# Indices 1 2 3 4 5 6 
#
# 1 0.016619 -0.008654 -0.003282 0.000000 0.000000 0.000000
# 2 -0.008654 0.015601 -0.003465 0.000000 0.000000 0.000000
# 3 -0.003282 -0.003465 0.013924 0.000000 0.000000 0.000000
# 4 0.000000 0.000000 0.000000 -3.254632 0.000000 0.000000
# 5 0.000000 0.000000 0.000000 0.000000 0.036908 0.000000
# 6 0.000000 0.000000 0.000000 0.000000 0.000000 0.059959
#
#
# Mechanical properties :
#
#
# Convention : Reuss Voigt Hill
#
# Bulk Modulus (GPa) = 65.18700 67.03835 66.11267
# Shear Modulus (GPa) = -1.62564 19.05080 8.71258
#
# Velocity S-wave (km/s) = -0.86928 2.97579 2.01242
# Velocity P-wave (km/s) = 5.41232 6.55503 6.01089
#
# Compressibility (1/GPa) = 0.01534048
#
# Stress axis : x y z
#
# Youngs Moduli (GPa) = 60.17300 64.09694 71.81853
#
# Poissons Ratio (x) = 0.55472 0.23572
# Poissons Ratio (y) = 0.52076 0.24886
# Poissons Ratio (z) = 0.19750 0.22211
#
# Static dielectric constant tensor:
#      x y z
#    x 1.816500 0.000000 0.000000 
#    y 0.000000 1.872270 0.000000 
#    z 0.000000 0.000000 1.916720 
# 
# From -- ./inp_files/16851.got.cif
#   From: 2010.05.17/outbox.cif.g08.bks.cpg/sg49_9_cif.got.tgz:16851.got - 2010.06.03 21:02:19.
