data_PCOD9394833
_publ_section_title
;
Structure prediction by ZEFSAII (Michael W. Deem and Ramdas Pophale) SiO2 
 PCOD9394833
Probable space group: P C C M
;
_chemical_formula_sum "Si O2"
_cell_formula_units_Z 16
_cell_length_a 4.788886
_cell_length_b 5.893306
_cell_length_c 25.510526
_cell_angle_alpha 90.000000
_cell_angle_beta 90.000000
_cell_angle_gamma 90.000000
_cell_volume 719.967519
_symmetry_space_group_name_H-M "P C C M"
_symmetry_group_IT_number 49
_symmetry_cell_setting 'orthorhombic'
loop_
_space_group_symop_operation_xyz
x,y,z
-x,-y,z
x,-y,1/2-z
-x,y,1/2-z
-x,-y,-z
x,y,-z
-x,y,1/2+z
x,-y,1/2+z
loop_
_atom_site_type_symbol
_atom_site_label
_atom_site_fract_x
_atom_site_fract_y
_atom_site_fract_z
Si Si1 0.000000 0.500000 0.750000
Si Si2 0.261370 0.161186 0.667476
Si Si3 0.000000 0.500000 0.500000
Si Si4 0.500000 0.500000 0.081795
O O1 0.827090 0.659465 0.711166
O O2 0.393506 0.295668 0.618572
O O3 0.500000 0.000000 0.688919
O O4 0.000000 0.000000 0.653151
O O5 0.236290 0.560134 0.454495
#
# Coordination Sequence:
#
# PCOD9394833 Si02
#       4
#     2   8   2   4
#     4  12  28  46  72 106 148 190 232 286 344 418
#     4  12  27  46  71 105 142 187 234 284 348 419
#     4  10  22  46  76  96 136 186 226 294 364 400
#     4  11  24  47  70 102 142 179 232 297 346 412
#
# _framework density 22.223224999999999
#
# number of rings (size 3 to 8) (size 9 to 14) (size 15 to 20)
#    0.000    0.500    0.000    8.250    0.000   15.000 
#    0.000   25.000    0.000    0.000    0.000    0.000 
#    0.000    0.000    0.000    0.000    0.000    0.000 
#
# Total GULP energy -89105.616435 kJ/mol
# GULP energy per Si atom -5569.101027 kJ/mol
# Density = 2.217264 g / cm^3
# Si number density = 22.223225 Si / 1000 Ang^3
#
#
#
# Elastic Constant Matrix: (Units=GPa)
#
#
# Indices 1 2 3 4 5 6 
#
# 1 209.7241 95.4566 101.1729 0.0000 0.0000 0.0000
# 2 95.4566 153.5983 96.8286 0.0000 0.0000 0.0000
# 3 101.1729 96.8286 201.8313 0.0000 0.0000 0.0000
# 4 0.0000 0.0000 0.0000 -17.3792 0.0000 0.0000
# 5 0.0000 0.0000 0.0000 0.0000 12.5642 0.0000
# 6 0.0000 0.0000 0.0000 0.0000 0.0000 53.2895
#
#
#
# Elastic Compliance Matrix: (Units=1/GPa)
#
#
# Indices 1 2 3 4 5 6 
#
# 1 0.007222 -0.003163 -0.002103 0.000000 0.000000 0.000000
# 2 -0.003163 0.010718 -0.003557 0.000000 0.000000 0.000000
# 3 -0.002103 -0.003557 0.007715 0.000000 0.000000 0.000000
# 4 0.000000 0.000000 0.000000 -0.057540 0.000000 0.000000
# 5 0.000000 0.000000 0.000000 0.000000 0.079591 0.000000
# 6 0.000000 0.000000 0.000000 0.000000 0.000000 0.018765
#
#
# Mechanical properties :
#
#
# Convention : Reuss Voigt Hill
#
# Bulk Modulus (GPa) = 124.83169 128.00776 126.41972
# Shear Modulus (GPa) = 57.61245 27.80795 42.71020
#
# Velocity S-wave (km/s) = 5.09713 3.54121 4.38867
# Velocity P-wave (km/s) = 9.53596 8.62822 9.09343
#
# Compressibility (1/GPa) = 0.00801079
#
# Stress axis : x y z
#
# Youngs Moduli (GPa) = 138.46281 93.30033 129.61528
#
# Poissons Ratio (x) = 0.29507 0.27258
# Poissons Ratio (y) = 0.43790 0.46100
# Poissons Ratio (z) = 0.29119 0.33184
#
# Static dielectric constant tensor:
#      x y z
#    x 1.847100 0.000000 0.000000 
#    y 0.000000 -0.739090 0.000000 
#    z 0.000000 0.000000 1.783370 
# 
# From -- ./inp_files/21367.got.cif
#   From: 2010.05.17/outbox.cif.g08.bks.cpg/sg49_11_cif.got.tgz:21367.got - 2010.06.03 21:02:19.
