data_PCOD9394681
_publ_section_title
;
Structure prediction by ZEFSAII (Michael W. Deem and Ramdas Pophale) SiO2 
 PCOD9394681
Probable space group: P C C M
;
_chemical_formula_sum "Si O2"
_cell_formula_units_Z 40
_cell_length_a 9.223874
_cell_length_b 11.377722
_cell_length_c 17.278962
_cell_angle_alpha 90.000000
_cell_angle_beta 90.000000
_cell_angle_gamma 90.000000
_cell_volume 1813.369594
_symmetry_space_group_name_H-M "P C C M"
_symmetry_group_IT_number 49
_symmetry_cell_setting 'orthorhombic'
loop_
_space_group_symop_operation_xyz
x,y,z
-x,-y,z
x,-y,1/2-z
-x,y,1/2-z
-x,-y,-z
x,y,-z
-x,y,1/2+z
x,-y,1/2+z
loop_
_atom_site_type_symbol
_atom_site_label
_atom_site_fract_x
_atom_site_fract_y
_atom_site_fract_z
Si Si1 0.831127 0.973943 0.086346
Si Si2 0.841361 0.224065 0.708797
Si Si3 0.609692 0.661368 0.682293
Si Si4 0.566371 0.878171 0.589533
Si Si5 0.839875 0.475296 0.656970
O O1 0.804136 0.889266 0.158637
O O2 0.737423 0.092173 0.092385
O O3 0.798181 0.924329 0.000000
O O4 0.000000 0.000000 0.088355
O O5 0.727729 0.257017 0.774689
O O6 0.827194 0.335840 0.651351
O O7 0.000000 0.217857 0.750000
O O8 0.500000 0.621242 0.750000
O O9 0.529580 0.755142 0.628233
O O10 0.701372 0.558515 0.638634
O O11 0.524255 0.871937 0.500000
O O12 0.500000 0.000000 0.622286
O O13 0.849309 0.500000 0.750000
O O14 0.000000 0.500000 0.623381
#
# Coordination Sequence:
#
# PCOD9394681 Si02
#       5
#     8   8   8   8   8
#     4  10  22  37  55  83 118 156 200 246 297 358
#     4  11  20  35  59  83 115 158 195 245 302 347
#     4  11  22  35  61  94 113 148 209 246 278 360
#     4  10  22  41  59  81 125 165 186 239 316 356
#     4   9  17  35  55  81 117 156 187 236 310 343
#
# _framework density 22.058381000000001
#
# number of rings (size 3 to 8) (size 9 to 14) (size 15 to 20)
#    0.000    1.800    4.000    2.400    0.000    8.400 
#    0.000    1.000    0.000    1.200    0.000   21.000 
#    0.000    0.000    0.000    0.000    0.000    0.000 
#
# Total GULP energy -222920.496193 kJ/mol
# GULP energy per Si atom -5573.012405 kJ/mol
# Density = 2.200818 g / cm^3
# Si number density = 22.058381 Si / 1000 Ang^3
#
#
#
# Elastic Constant Matrix: (Units=GPa)
#
#
# Indices 1 2 3 4 5 6 
#
# 1 111.4189 15.1526 11.9490 0.0000 0.0000 0.0000
# 2 15.1526 98.2057 41.9530 0.0000 0.0000 0.0000
# 3 11.9490 41.9530 37.7637 0.0000 0.0000 0.0000
# 4 0.0000 0.0000 0.0000 0.5057 0.0000 0.0000
# 5 0.0000 0.0000 0.0000 0.0000 11.4995 0.0000
# 6 0.0000 0.0000 0.0000 0.0000 0.0000 28.5307
#
#
#
# Elastic Compliance Matrix: (Units=1/GPa)
#
#
# Indices 1 2 3 4 5 6 
#
# 1 0.009296 -0.000338 -0.002566 0.000000 0.000000 0.000000
# 2 -0.000338 0.019393 -0.021437 0.000000 0.000000 0.000000
# 3 -0.002566 -0.021437 0.051107 0.000000 0.000000 0.000000
# 4 0.000000 0.000000 0.000000 1.977272 0.000000 0.000000
# 5 0.000000 0.000000 0.000000 0.000000 0.086961 0.000000
# 6 0.000000 0.000000 0.000000 0.000000 0.000000 0.035050
#
#
# Mechanical properties :
#
#
# Convention : Reuss Voigt Hill
#
# Bulk Modulus (GPa) = 32.13936 42.83304 37.48620
# Shear Modulus (GPa) = 2.23401 19.99608 11.11504
#
# Velocity S-wave (km/s) = 1.00746 3.01409 2.24719
# Velocity P-wave (km/s) = 3.99438 5.61900 4.87485
#
# Compressibility (1/GPa) = 0.03111449
#
# Stress axis : x y z
#
# Youngs Moduli (GPa) = 107.56967 51.56592 19.56669
#
# Poissons Ratio (x) = 0.01745 0.05020
# Poissons Ratio (y) = 0.03640 0.41945
# Poissons Ratio (z) = 0.27598 1.10541
#
# Static dielectric constant tensor:
#      x y z
#    x 1.927200 0.000000 0.000000 
#    y 0.000000 1.858890 0.000000 
#    z 0.000000 0.000000 1.828430 
# 
# From -- ./inp_files/16028.got.cif
#   From: 2010.05.17/outbox.cif.g08.bks.cpg/sg49_9_cif.got.tgz:16028.got - 2010.06.03 21:02:19.
