data_PCOD9394859
_publ_section_title
;
Structure prediction by ZEFSAII (Michael W. Deem and Ramdas Pophale) SiO2 
 PCOD9394859
Probable space group: P C C M
;
_chemical_formula_sum "Si O2"
_cell_formula_units_Z 48
_cell_length_a 8.708327
_cell_length_b 13.346649
_cell_length_c 20.428238
_cell_angle_alpha 90.000000
_cell_angle_beta 90.000000
_cell_angle_gamma 90.000000
_cell_volume 2374.312488
_symmetry_space_group_name_H-M "P C C M"
_symmetry_group_IT_number 49
_symmetry_cell_setting 'orthorhombic'
loop_
_space_group_symop_operation_xyz
x,y,z
-x,-y,z
x,-y,1/2-z
-x,y,1/2-z
-x,-y,-z
x,y,-z
-x,y,1/2+z
x,-y,1/2+z
loop_
_atom_site_type_symbol
_atom_site_label
_atom_site_fract_x
_atom_site_fract_y
_atom_site_fract_z
Si Si1 0.575320 0.608586 0.429095
Si Si2 0.800283 0.106821 0.679185
Si Si3 0.119551 0.295393 0.576043
Si Si4 0.604867 0.705586 0.814040
Si Si5 0.075869 0.389435 0.184720
Si Si6 0.166754 0.886908 0.835401
O O1 0.500000 0.500000 0.428720
O O2 0.540084 0.655571 0.500000
O O3 0.758905 0.613056 0.423159
O O4 0.505520 0.665872 0.369237
O O5 0.689003 0.195325 0.658712
O O6 0.794045 0.121825 0.758357
O O7 0.980609 0.112540 0.662383
O O8 0.760976 0.996524 0.651749
O O9 0.084763 0.271675 0.500000
O O10 0.201063 0.202767 0.614499
O O11 0.976917 0.331075 0.619854
O O12 0.500000 0.722231 0.750000
O O13 0.742586 0.624149 0.804302
O O14 0.000000 0.500000 0.181084
O O15 0.000000 0.341203 0.250000
#
# Coordination Sequence:
#
# PCOD9394859 Si02
#       6
#     8   8   8   8   8   8
#     4  10  23  42  59  80 119 169 209 251 316 382
#     4   9  18  34  62  89 119 161 201 253 309 367
#     4  11  22  39  63  89 124 170 217 263 311 374
#     4  12  23  37  63  95 127 160 202 264 325 380
#     4  11  23  39  61  92 125 162 216 270 313 374
#     4   9  17  36  60  88 120 158 205 255 304 360
#
# _framework density 20.216377999999999
#
# number of rings (size 3 to 8) (size 9 to 14) (size 15 to 20)
#    0.000    1.667    1.667    5.000    0.000    2.667 
#    0.000    8.333    0.000    2.000    0.000    0.000 
#    0.000    0.000    0.000    0.000    0.000    0.000 
#
# Total GULP energy -267406.551169 kJ/mol
# GULP energy per Si atom -5570.969816 kJ/mol
# Density = 2.017036 g / cm^3
# Si number density = 20.216378 Si / 1000 Ang^3
#
#
#
# Elastic Constant Matrix: (Units=GPa)
#
#
# Indices 1 2 3 4 5 6 
#
# 1 82.2420 18.9170 32.6252 0.0000 0.0000 0.0000
# 2 18.9170 89.3849 22.3180 0.0000 0.0000 0.0000
# 3 32.6252 22.3180 102.8688 0.0000 0.0000 0.0000
# 4 0.0000 0.0000 0.0000 35.0351 0.0000 0.0000
# 5 0.0000 0.0000 0.0000 0.0000 22.1016 0.0000
# 6 0.0000 0.0000 0.0000 0.0000 0.0000 21.7887
#
#
#
# Elastic Compliance Matrix: (Units=1/GPa)
#
#
# Indices 1 2 3 4 5 6 
#
# 1 0.014238 -0.001994 -0.004083 0.000000 0.000000 0.000000
# 2 -0.001994 0.012108 -0.001994 0.000000 0.000000 0.000000
# 3 -0.004083 -0.001994 0.011449 0.000000 0.000000 0.000000
# 4 0.000000 0.000000 0.000000 0.028543 0.000000 0.000000
# 5 0.000000 0.000000 0.000000 0.000000 0.045246 0.000000
# 6 0.000000 0.000000 0.000000 0.000000 0.000000 0.045895
#
#
# Mechanical properties :
#
#
# Convention : Reuss Voigt Hill
#
# Bulk Modulus (GPa) = 46.18615 46.91290 46.54953
# Shear Modulus (GPa) = 27.64922 29.16078 28.40500
#
# Velocity S-wave (km/s) = 3.70221 3.80206 3.75246
# Velocity P-wave (km/s) = 6.41643 6.52150 6.46918
#
# Compressibility (1/GPa) = 0.02165151
#
# Stress axis : x y z
#
# Youngs Moduli (GPa) = 70.23693 82.59342 87.34579
#
# Poissons Ratio (x) = 0.16467 0.35663
# Poissons Ratio (y) = 0.14003 0.17421
# Poissons Ratio (z) = 0.28677 0.16473
#
# Static dielectric constant tensor:
#      x y z
#    x 1.748120 0.000000 0.000000 
#    y 0.000000 1.820220 0.000000 
#    z 0.000000 0.000000 1.740080 
# 
# From -- ./inp_files/19738.got.cif
#   From: 2010.05.17/outbox.cif.g08.bks.cpg/sg49_10_cif.got.tgz:19738.got - 2010.06.03 21:02:19.
