data_PCOD9394299
_publ_section_title
;
Structure prediction by ZEFSAII (Michael W. Deem and Ramdas Pophale) SiO2 
 PCOD9394299
Probable space group: P C C M
;
_chemical_formula_sum "Si O2"
_cell_formula_units_Z 48
_cell_length_a 11.857584
_cell_length_b 12.492515
_cell_length_c 14.837115
_cell_angle_alpha 90.000000
_cell_angle_beta 90.000000
_cell_angle_gamma 90.000000
_cell_volume 2197.837364
_symmetry_space_group_name_H-M "P C C M"
_symmetry_group_IT_number 49
_symmetry_cell_setting 'orthorhombic'
loop_
_space_group_symop_operation_xyz
x,y,z
-x,-y,z
x,-y,1/2-z
-x,y,1/2-z
-x,-y,-z
x,y,-z
-x,y,1/2+z
x,-y,1/2+z
loop_
_atom_site_type_symbol
_atom_site_label
_atom_site_fract_x
_atom_site_fract_y
_atom_site_fract_z
Si Si1 0.071831 0.091380 0.655550
Si Si2 0.418547 0.410325 0.105144
Si Si3 0.328736 0.988397 0.854343
Si Si4 0.171275 0.551220 0.389402
Si Si5 0.515586 0.826465 0.858513
Si Si6 0.945005 0.337116 0.892235
O O1 0.198289 0.043563 0.648909
O O2 0.079611 0.213976 0.626333
O O3 0.000000 0.100628 0.750000
O O4 0.000000 0.000000 0.604527
O O5 0.500000 0.500000 0.145092
O O6 0.292655 0.411763 0.144409
O O7 0.472430 0.293696 0.109113
O O8 0.403237 0.439020 0.000000
O O9 0.407327 0.893839 0.891911
O O10 0.361191 0.000000 0.750000
O O11 0.374626 0.103156 0.888177
O O12 0.169768 0.555851 0.500000
O O13 0.142067 0.429226 0.361973
O O14 0.068594 0.626735 0.358203
O O15 0.500000 0.817223 0.750000
O O16 0.947972 0.347548 0.000000
#
# Coordination Sequence:
#
# PCOD9394299 Si02
#       6
#     8   8   8   8   8   8
#     4  11  22  34  55  81 112 140 176 222 273 315
#     4  10  21  35  55  82 112 142 177 223 275 317
#     4   9  18  38  55  78 104 146 179 214 273 327
#     4   8  17  36  57  77 107 147 177 214 272 328
#     4   9  20  36  61  76 103 144 186 219 260 321
#     4   9  19  36  58  80 106 145 185 217 264 323
#
# _framework density 21.839649999999999
#
# number of rings (size 3 to 8) (size 9 to 14) (size 15 to 20)
#    0.000    2.667    1.667    2.000    4.667    0.667 
#    0.000    4.167    3.667    0.000    0.000    0.000 
#    0.000    0.000    0.000    0.000    0.000    0.000 
#
# Total GULP energy -267313.961184 kJ/mol
# GULP energy per Si atom -5569.040858 kJ/mol
# Density = 2.178994 g / cm^3
# Si number density = 21.839650 Si / 1000 Ang^3
#
#
#
# Elastic Constant Matrix: (Units=GPa)
#
#
# Indices 1 2 3 4 5 6 
#
# 1 143.3611 62.6634 4.9623 0.0000 0.0000 0.0000
# 2 62.6634 157.4682 -12.9598 0.0000 0.0000 0.0000
# 3 4.9623 -12.9598 37.2354 0.0000 0.0000 0.0000
# 4 0.0000 0.0000 0.0000 16.3673 0.0000 0.0000
# 5 0.0000 0.0000 0.0000 0.0000 4.1197 0.0000
# 6 0.0000 0.0000 0.0000 0.0000 0.0000 18.9280
#
#
#
# Elastic Compliance Matrix: (Units=1/GPa)
#
#
# Indices 1 2 3 4 5 6 
#
# 1 0.008651 -0.003642 -0.002420 0.000000 0.000000 0.000000
# 2 -0.003642 0.008071 0.003294 0.000000 0.000000 0.000000
# 3 -0.002420 0.003294 0.028325 0.000000 0.000000 0.000000
# 4 0.000000 0.000000 0.000000 0.061097 0.000000 0.000000
# 5 0.000000 0.000000 0.000000 0.000000 0.242735 0.000000
# 6 0.000000 0.000000 0.000000 0.000000 0.000000 0.052832
#
#
# Mechanical properties :
#
#
# Convention : Reuss Voigt Hill
#
# Bulk Modulus (GPa) = 25.30908 49.71073 37.50990
# Shear Modulus (GPa) = 11.89292 26.77625 19.33459
#
# Velocity S-wave (km/s) = 2.33610 3.50528 2.97862
# Velocity P-wave (km/s) = 4.34629 6.26049 5.38906
#
# Compressibility (1/GPa) = 0.03951151
#
# Stress axis : x y z
#
# Youngs Moduli (GPa) = 115.59329 123.90254 35.30406
#
# Poissons Ratio (x) = 0.45123 0.08545
# Poissons Ratio (y) = 0.42097 -0.11631
# Poissons Ratio (z) = 0.27979 -0.40818
#
# Static dielectric constant tensor:
#      x y z
#    x 1.831430 0.000000 0.000000 
#    y 0.000000 1.783360 0.000000 
#    z 0.000000 0.000000 1.878180 
# 
# From -- ./inp_files/20450.got.cif
#   From: 2010.05.17/outbox.cif.g08.bks.cpg/sg49_11_cif.got.tgz:20450.got - 2010.06.03 21:02:19.
