data_PCOD9394067
_publ_section_title
;
Structure prediction by ZEFSAII (Michael W. Deem and Ramdas Pophale) SiO2 
 PCOD9394067
Probable space group: P C C M
;
_chemical_formula_sum "Si O2"
_cell_formula_units_Z 40
_cell_length_a 13.919871
_cell_length_b 7.233232
_cell_length_c 16.535925
_cell_angle_alpha 90.000000
_cell_angle_beta 90.000000
_cell_angle_gamma 90.000000
_cell_volume 1664.930462
_symmetry_space_group_name_H-M "P C C M"
_symmetry_group_IT_number 49
_symmetry_cell_setting 'orthorhombic'
loop_
_space_group_symop_operation_xyz
x,y,z
-x,-y,z
x,-y,1/2-z
-x,y,1/2-z
-x,-y,-z
x,y,-z
-x,y,1/2+z
x,-y,1/2+z
loop_
_atom_site_type_symbol
_atom_site_label
_atom_site_fract_x
_atom_site_fract_y
_atom_site_fract_z
Si Si1 0.360953 0.306771 0.500000
Si Si2 0.887473 0.147942 0.407284
Si Si3 0.064088 0.240817 0.330300
Si Si4 0.279982 0.682425 0.832565
Si Si5 0.685549 0.735470 0.841351
Si Si6 0.414865 0.255284 0.000000
O O1 0.305452 0.238952 0.579743
O O2 0.371578 0.532921 0.500000
O O3 0.470996 0.246444 0.500000
O O4 0.877243 0.090743 0.500000
O O5 0.792741 0.243904 0.375706
O O6 0.983016 0.272140 0.398186
O O7 0.901659 0.968416 0.350632
O O8 0.164747 0.345633 0.326151
O O9 0.000000 0.260615 0.250000
O O10 0.332199 0.484248 0.834027
O O11 0.313882 0.792527 0.753023
O O12 0.620721 0.819026 0.912810
#
# Coordination Sequence:
#
# PCOD9394067 Si02
#       6
#     4   8   8   8   8   4
#     4   9  20  36  60  85 116 150 191 241 294 353
#     4  11  22  36  55  83 112 159 197 235 280 343
#     4  11  22  37  54  81 117 156 201 227 278 346
#     4  10  22  36  56  87 118 151 189 241 291 340
#     4  10  20  37  58  85 118 149 191 239 293 342
#     4   9  18  38  60  85 114 150 191 241 296 351
#
# _framework density 24.025027999999999
#
# number of rings (size 3 to 8) (size 9 to 14) (size 15 to 20)
#    0.000    1.800    3.000    2.400    2.800    1.600 
#    0.000    5.000    0.000    2.400    0.000    2.800 
#    0.000    0.000    0.000    0.000    0.000    0.000 
#
# Total GULP energy -223204.791547 kJ/mol
# GULP energy per Si atom -5580.119789 kJ/mol
# Density = 2.397035 g / cm^3
# Si number density = 24.025028 Si / 1000 Ang^3
#
#
#
# Elastic Constant Matrix: (Units=GPa)
#
#
# Indices 1 2 3 4 5 6 
#
# 1 83.2752 -9.5024 87.7595 0.0000 0.0000 0.0000
# 2 -9.5024 51.5391 4.9881 0.0000 0.0000 0.0000
# 3 87.7595 4.9881 249.5167 0.0000 0.0000 0.0000
# 4 0.0000 0.0000 0.0000 3.9777 0.0000 0.0000
# 5 0.0000 0.0000 0.0000 0.0000 -149.6873 0.0000
# 6 0.0000 0.0000 0.0000 0.0000 0.0000 -69.5617
#
#
#
# Elastic Compliance Matrix: (Units=1/GPa)
#
#
# Indices 1 2 3 4 5 6 
#
# 1 0.020022 0.004382 -0.007130 0.000000 0.000000 0.000000
# 2 0.004382 0.020399 -0.001949 0.000000 0.000000 0.000000
# 3 -0.007130 -0.001949 0.006554 0.000000 0.000000 0.000000
# 4 0.000000 0.000000 0.000000 0.251404 0.000000 0.000000
# 5 0.000000 0.000000 0.000000 0.000000 -0.006681 0.000000
# 6 0.000000 0.000000 0.000000 0.000000 0.000000 -0.014376
#
#
# Mechanical properties :
#
#
# Convention : Reuss Voigt Hill
#
# Bulk Modulus (GPa) = 26.60886 61.20239 43.90562
# Shear Modulus (GPa) = 16.70876 -22.98190 -3.13657
#
# Velocity S-wave (km/s) = 2.64004 -3.09622 -1.14384
# Velocity P-wave (km/s) = 4.51582 3.57038 4.07064
#
# Compressibility (1/GPa) = 0.03758147
#
# Stress axis : x y z
#
# Youngs Moduli (GPa) = 49.94515 49.02155 152.57056
#
# Poissons Ratio (x) = -0.21479 1.08778
# Poissons Ratio (y) = -0.21884 0.29734
# Poissons Ratio (z) = 0.35609 0.09554
#
# Static dielectric constant tensor:
#      x y z
#    x 1.876080 0.000000 0.000000 
#    y 0.000000 2.033740 0.000000 
#    z 0.000000 0.000000 1.980990 
# 
# From -- ./inp_files/13371.got.cif
#   From: 2010.05.17/outbox.cif.g08.bks.cpg/sg49_7_cif.got.tgz:13371.got - 2010.06.03 21:02:19.
