data_PCOD9394635
_publ_section_title
;
Structure prediction by ZEFSAII (Michael W. Deem and Ramdas Pophale) SiO2 
 PCOD9394635
Probable space group: P C C M
;
_chemical_formula_sum "Si O2"
_cell_formula_units_Z 22
_cell_length_a 5.570482
_cell_length_b 5.250848
_cell_length_c 31.003210
_cell_angle_alpha 90.000000
_cell_angle_beta 90.000000
_cell_angle_gamma 90.000000
_cell_volume 906.836274
_symmetry_space_group_name_H-M "P C C M"
_symmetry_group_IT_number 49
_symmetry_cell_setting 'orthorhombic'
loop_
_space_group_symop_operation_xyz
x,y,z
-x,-y,z
x,-y,1/2-z
-x,y,1/2-z
-x,-y,-z
x,y,-z
-x,y,1/2+z
x,-y,1/2+z
loop_
_atom_site_type_symbol
_atom_site_label
_atom_site_fract_x
_atom_site_fract_y
_atom_site_fract_z
Si Si1 0.500000 0.000000 0.750000
Si Si2 0.837060 0.254148 0.500000
Si Si3 0.257134 0.152120 0.906059
Si Si4 0.848460 0.737729 0.815009
O O1 0.645377 0.815517 0.781746
O O2 0.702409 0.258800 0.545758
O O3 0.000000 0.500000 0.500000
O O4 0.000000 0.000000 0.500000
O O5 0.231583 0.328135 0.863986
O O6 0.500000 0.000000 0.896337
O O7 0.000000 0.000000 0.908586
O O8 0.000000 0.500000 0.799423
O O9 0.000000 0.000000 0.817878
#
# Coordination Sequence:
#
# PCOD9394635 Si02
#       4
#     2   4   8   8
#     4  12  26  50  76 106 144 202 254 326 402 464
#     4  10  21  40  68 106 148 196 248 307 373 455
#     4  10  21  44  70 107 146 197 247 311 379 457
#     4  11  26  47  72 106 145 191 251 315 387 466
#
# _framework density 24.260169000000001
#
# number of rings (size 3 to 8) (size 9 to 14) (size 15 to 20)
#    0.000    1.455    1.818    2.182    0.000    5.818 
#    0.000   25.455    0.000    0.000    0.000    0.000 
#    0.000    0.000    0.000    0.000    0.000    0.000 
#
# Total GULP energy -122961.774827 kJ/mol
# GULP energy per Si atom -5589.171583 kJ/mol
# Density = 2.420495 g / cm^3
# Si number density = 24.260169 Si / 1000 Ang^3
#
#
#
# Elastic Constant Matrix: (Units=GPa)
#
#
# Indices 1 2 3 4 5 6 
#
# 1 117.9904 42.7362 50.4074 0.0000 0.0000 0.0000
# 2 42.7362 127.0923 32.0950 0.0000 0.0000 0.0000
# 3 50.4074 32.0950 253.2153 0.0000 0.0000 0.0000
# 4 0.0000 0.0000 0.0000 -30.2898 0.0000 0.0000
# 5 0.0000 0.0000 0.0000 0.0000 129.1796 0.0000
# 6 0.0000 0.0000 0.0000 0.0000 0.0000 56.3984
#
#
#
# Elastic Compliance Matrix: (Units=1/GPa)
#
#
# Indices 1 2 3 4 5 6 
#
# 1 0.010286 -0.003039 -0.001662 0.000000 0.000000 0.000000
# 2 -0.003039 0.009026 -0.000539 0.000000 0.000000 0.000000
# 3 -0.001662 -0.000539 0.004348 0.000000 0.000000 0.000000
# 4 0.000000 0.000000 0.000000 -0.033014 0.000000 0.000000
# 5 0.000000 0.000000 0.000000 0.000000 0.007741 0.000000
# 6 0.000000 0.000000 0.000000 0.000000 0.000000 0.017731
#
#
# Mechanical properties :
#
#
# Convention : Reuss Voigt Hill
#
# Bulk Modulus (GPa) = 75.87347 83.19726 79.53537
# Shear Modulus (GPa) = 161.32479 55.92826 108.62653
#
# Velocity S-wave (km/s) = 8.16347 4.80662 6.69872
# Velocity P-wave (km/s) = 10.96353 8.07298 9.62736
#
# Compressibility (1/GPa) = 0.01317984
#
# Stress axis : x y z
#
# Youngs Moduli (GPa) = 97.21717 110.78670 229.96495
#
# Poissons Ratio (x) = 0.33669 0.38231
# Poissons Ratio (y) = 0.29545 0.12398
# Poissons Ratio (z) = 0.16162 0.05973
#
# Static dielectric constant tensor:
#      x y z
#    x 3.372330 0.000000 0.000000 
#    y 0.000000 1.807170 0.000000 
#    z 0.000000 0.000000 2.111490 
# 
# From -- ./inp_files/25332.got.cif
#   From: 2010.05.17/outbox.cif.g08.bks.cpg/sg49_13_cif.got.tgz:25332.got - 2010.06.03 21:02:19.
