data_PCOD9394891
_publ_section_title
;
Structure prediction by ZEFSAII (Michael W. Deem and Ramdas Pophale) SiO2 
 PCOD9394891
Probable space group: P C C M
;
_chemical_formula_sum "Si O2"
_cell_formula_units_Z 32
_cell_length_a 5.116311
_cell_length_b 13.492696
_cell_length_c 23.534844
_cell_angle_alpha 90.000000
_cell_angle_beta 90.000000
_cell_angle_gamma 90.000000
_cell_volume 1624.676861
_symmetry_space_group_name_H-M "P C C M"
_symmetry_group_IT_number 49
_symmetry_cell_setting 'orthorhombic'
loop_
_space_group_symop_operation_xyz
x,y,z
-x,-y,z
x,-y,1/2-z
-x,y,1/2-z
-x,-y,-z
x,y,-z
-x,y,1/2+z
x,-y,1/2+z
loop_
_atom_site_type_symbol
_atom_site_label
_atom_site_fract_x
_atom_site_fract_y
_atom_site_fract_z
Si Si1 0.248220 0.430094 0.500000
Si Si2 0.270918 0.255368 0.412294
Si Si3 0.261505 0.193659 0.287372
Si Si4 0.773030 0.125612 0.563007
Si Si5 0.500000 0.000000 0.155207
O O1 0.500000 0.500000 0.500000
O O2 0.241842 0.357325 0.445635
O O3 0.000000 0.500000 0.500000
O O4 0.232764 0.257703 0.344521
O O5 0.552947 0.209988 0.427710
O O6 0.052862 0.177028 0.432639
O O7 0.500000 0.233876 0.250000
O O8 0.358784 0.085182 0.308722
O O9 0.000000 0.186889 0.250000
O O10 0.742636 0.081838 0.500000
O O11 0.711908 0.049799 0.613373
#
# Coordination Sequence:
#
# PCOD9394891 Si02
#       5
#     4   8   8   8   4
#     4  12  24  42  72  97 120 143 188 262 324 392
#     4  11  23  41  62  92 122 159 201 248 321 372
#     4  11  24  41  60  84 126 172 213 253 281 340
#     4  11  20  37  57  85 132 168 201 253 300 366
#     4  10  24  34  58  90 122 175 227 254 284 330
#
# _framework density 19.696224999999998
#
# number of rings (size 3 to 8) (size 9 to 14) (size 15 to 20)
#    0.000    1.000    2.500    5.250    0.000   12.000 
#    0.000    6.250    0.000    4.500    0.000    0.000 
#    0.000    0.000    0.000    0.000    0.000    0.000 
#
# Total GULP energy -179087.551599 kJ/mol
# GULP energy per Si atom -5596.485987 kJ/mol
# Density = 1.965140 g / cm^3
# Si number density = 19.696225 Si / 1000 Ang^3
#
#
#
# Elastic Constant Matrix: (Units=GPa)
#
#
# Indices 1 2 3 4 5 6 
#
# 1 88.5676 29.2886 50.0029 0.0000 0.0000 0.0000
# 2 29.2886 96.3520 52.9169 0.0000 0.0000 0.0000
# 3 50.0029 52.9169 185.9684 0.0000 0.0000 0.0000
# 4 0.0000 0.0000 0.0000 -109.5794 0.0000 0.0000
# 5 0.0000 0.0000 0.0000 0.0000 30.3046 0.0000
# 6 0.0000 0.0000 0.0000 0.0000 0.0000 32.4300
#
#
#
# Elastic Compliance Matrix: (Units=1/GPa)
#
#
# Indices 1 2 3 4 5 6 
#
# 1 0.013825 -0.002561 -0.002988 0.000000 0.000000 0.000000
# 2 -0.002561 0.012775 -0.002947 0.000000 0.000000 0.000000
# 3 -0.002988 -0.002947 0.007019 0.000000 0.000000 0.000000
# 4 0.000000 0.000000 0.000000 -0.009126 0.000000 0.000000
# 5 0.000000 0.000000 0.000000 0.000000 0.032998 0.000000
# 6 0.000000 0.000000 0.000000 0.000000 0.000000 0.030836
#
#
# Mechanical properties :
#
#
# Convention : Reuss Voigt Hill
#
# Bulk Modulus (GPa) = 60.14240 70.58942 65.36591
# Shear Modulus (GPa) = 45.10089 6.54302 25.82196
#
# Velocity S-wave (km/s) = 4.79040 1.82460 3.62472
# Velocity P-wave (km/s) = 7.82295 6.35262 7.12581
#
# Compressibility (1/GPa) = 0.01662721
#
# Stress axis : x y z
#
# Youngs Moduli (GPa) = 72.33285 78.27535 142.46579
#
# Poissons Ratio (x) = 0.20048 0.42575
# Poissons Ratio (y) = 0.18526 0.41979
# Poissons Ratio (z) = 0.21616 0.23064
#
# Static dielectric constant tensor:
#      x y z
#    x 1.689720 0.000000 0.000000 
#    y 0.000000 1.652790 0.000000 
#    z 0.000000 0.000000 1.748770 
# 
# From -- ./inp_files/21591.got.cif
#   From: 2010.05.17/outbox.cif.g08.bks.cpg/sg49_11_cif.got.tgz:21591.got - 2010.06.03 21:02:19.
