data_PCOD9394103
_publ_section_title
;
Structure prediction by ZEFSAII (Michael W. Deem and Ramdas Pophale) SiO2 
 PCOD9394103
Probable space group: P C C M
;
_chemical_formula_sum "Si O2"
_cell_formula_units_Z 64
_cell_length_a 8.320244
_cell_length_b 19.801128
_cell_length_c 18.705861
_cell_angle_alpha 90.000000
_cell_angle_beta 90.000000
_cell_angle_gamma 90.000000
_cell_volume 3081.794648
_symmetry_space_group_name_H-M "P C C M"
_symmetry_group_IT_number 49
_symmetry_cell_setting 'orthorhombic'
loop_
_space_group_symop_operation_xyz
x,y,z
-x,-y,z
x,-y,1/2-z
-x,y,1/2-z
-x,-y,-z
x,y,-z
-x,y,1/2+z
x,-y,1/2+z
loop_
_atom_site_type_symbol
_atom_site_label
_atom_site_fract_x
_atom_site_fract_y
_atom_site_fract_z
Si Si1 0.600844 0.239307 0.142876
Si Si2 0.891967 0.402658 0.315471
Si Si3 0.310388 0.498532 0.417051
Si Si4 0.160465 0.349916 0.418903
Si Si5 0.946967 0.145867 0.670199
Si Si6 0.266654 0.887132 0.915050
Si Si7 0.183034 0.969613 0.417743
Si Si8 0.728303 0.732136 0.797945
O O1 0.720104 0.289719 0.101984
O O2 0.599304 0.165305 0.108836
O O3 0.421424 0.267395 0.148447
O O4 0.670125 0.235881 0.223311
O O5 0.794860 0.457527 0.361718
O O6 0.776157 0.344931 0.284072
O O7 0.000000 0.428434 0.250000
O O8 0.009463 0.361307 0.367973
O O9 0.500000 0.500000 0.400756
O O10 0.286765 0.521985 0.500000
O O11 0.254194 0.421141 0.414227
O O12 0.105609 0.339813 0.500000
O O13 0.821909 0.093128 0.635502
O O14 0.870770 0.220013 0.674745
O O15 0.000000 0.125296 0.750000
O O16 0.104570 0.141511 0.621161
O O17 0.287484 0.965603 0.894894
O O18 0.246743 0.886474 0.000000
O O19 0.220271 0.950408 0.500000
O O20 0.000000 0.000000 0.417885
#
# Coordination Sequence:
#
# PCOD9394103 Si02
#       8
#     8   8   8   8   8   8   8   8
#     4  11  22  42  60  85 120 168 202 256 309 379
#     4  12  23  42  66  95 127 166 209 265 315 374
#     4  10  23  44  67  95 132 170 208 259 319 378
#     4  11  23  41  66  93 124 164 210 259 311 370
#     4  11  19  35  60  90 119 159 202 259 310 372
#     4  10  20  37  61  88 122 160 204 255 310 372
#     4   8  17  33  54  85 121 153 195 253 308 363
#     4  11  24  40  59  86 125 154 208 258 318 359
#
# _framework density 20.767120999999999
#
# number of rings (size 3 to 8) (size 9 to 14) (size 15 to 20)
#    0.000    1.500    2.500    4.125    0.000    4.250 
#    0.000    7.500    0.000    3.000    0.000    0.000 
#    0.000    0.000    0.000    0.000    0.000    0.000 
#
# Total GULP energy -357581.562769 kJ/mol
# GULP energy per Si atom -5587.211918 kJ/mol
# Density = 2.071985 g / cm^3
# Si number density = 20.767121 Si / 1000 Ang^3
#
#
#
# Elastic Constant Matrix: (Units=GPa)
#
#
# Indices 1 2 3 4 5 6 
#
# 1 52.0032 19.6795 27.0061 0.0000 0.0000 0.0000
# 2 19.6795 115.0874 40.9300 0.0000 0.0000 0.0000
# 3 27.0061 40.9300 90.7275 0.0000 0.0000 0.0000
# 4 0.0000 0.0000 0.0000 36.6928 0.0000 0.0000
# 5 0.0000 0.0000 0.0000 0.0000 27.0758 0.0000
# 6 0.0000 0.0000 0.0000 0.0000 0.0000 6.8166
#
#
#
# Elastic Compliance Matrix: (Units=1/GPa)
#
#
# Indices 1 2 3 4 5 6 
#
# 1 0.023051 -0.001788 -0.006054 0.000000 0.000000 0.000000
# 2 -0.001788 0.010488 -0.004199 0.000000 0.000000 0.000000
# 3 -0.006054 -0.004199 0.014719 0.000000 0.000000 0.000000
# 4 0.000000 0.000000 0.000000 0.027253 0.000000 0.000000
# 5 0.000000 0.000000 0.000000 0.000000 0.036933 0.000000
# 6 0.000000 0.000000 0.000000 0.000000 0.000000 0.146701
#
#
# Mechanical properties :
#
#
# Convention : Reuss Voigt Hill
#
# Bulk Modulus (GPa) = 41.36798 48.11658 44.74228
# Shear Modulus (GPa) = 17.16521 25.46387 21.31454
#
# Velocity S-wave (km/s) = 2.87811 3.50546 3.20716
# Velocity P-wave (km/s) = 5.56847 6.29319 5.94189
#
# Compressibility (1/GPa) = 0.02417328
#
# Stress axis : x y z
#
# Youngs Moduli (GPa) = 43.38290 95.34443 67.94110
#
# Poissons Ratio (x) = 0.17051 0.41135
# Poissons Ratio (y) = 0.07758 0.28530
# Poissons Ratio (z) = 0.26266 0.40038
#
# Static dielectric constant tensor:
#      x y z
#    x 1.781940 0.000000 0.000000 
#    y 0.000000 1.751050 0.000000 
#    z 0.000000 0.000000 1.735500 
# 
# From -- ./inp_files/16551.got.cif
#   From: 2010.05.17/outbox.cif.g08.bks.cpg/sg49_9_cif.got.tgz:16551.got - 2010.06.03 21:02:19.
