data_PCOD9394277
_publ_section_title
;
Structure prediction by ZEFSAII (Michael W. Deem and Ramdas Pophale) SiO2 
 PCOD9394277
Probable space group: P C C M
;
_chemical_formula_sum "Si O2"
_cell_formula_units_Z 40
_cell_length_a 11.279291
_cell_length_b 5.205422
_cell_length_c 33.192578
_cell_angle_alpha 90.000000
_cell_angle_beta 90.000000
_cell_angle_gamma 90.000000
_cell_volume 1948.851417
_symmetry_space_group_name_H-M "P C C M"
_symmetry_group_IT_number 49
_symmetry_cell_setting 'orthorhombic'
loop_
_space_group_symop_operation_xyz
x,y,z
-x,-y,z
x,-y,1/2-z
-x,y,1/2-z
-x,-y,-z
x,y,-z
-x,y,1/2+z
x,-y,1/2+z
loop_
_atom_site_type_symbol
_atom_site_label
_atom_site_fract_x
_atom_site_fract_y
_atom_site_fract_z
Si Si1 0.633018 0.550097 0.939958
Si Si2 0.712080 0.464487 0.350756
Si Si3 0.215767 0.943697 0.956148
Si Si4 0.865049 0.032880 0.866444
Si Si5 0.366306 0.259847 0.231840
O O1 0.500000 0.500000 0.953776
O O2 0.637437 0.517602 0.891574
O O3 0.717129 0.327282 0.956362
O O4 0.688262 0.826615 0.950501
O O5 0.784361 0.735600 0.347500
O O6 0.633696 0.341322 0.314697
O O7 0.806310 0.239858 0.357649
O O8 0.139216 0.935057 0.915238
O O9 0.157214 0.982032 0.000000
O O10 0.000000 0.000000 0.852708
O O11 0.297046 0.500000 0.250000
O O12 0.500000 0.256075 0.250000
O O13 0.313286 0.000000 0.250000
#
# Coordination Sequence:
#
# PCOD9394277 Si02
#       5
#     8   8   8   8   8
#     4  10  21  34  53  81 114 163 193 229 292 361
#     4  10  21  38  58  86 122 148 192 244 282 349
#     4  10  21  36  53  82 116 149 201 254 291 339
#     4  10  21  39  62  84 110 157 204 243 296 337
#     4  10  21  36  57  90 121 155 179 229 290 353
#
# _framework density 20.524912
#
# number of rings (size 3 to 8) (size 9 to 14) (size 15 to 20)
#    0.000    2.000    0.000    3.000    2.800    2.800 
#    7.200    0.000    0.000   16.200    0.000    0.000 
#    0.000    0.000    0.000    0.000    0.000    0.000 
#
# Total GULP energy -222681.947146 kJ/mol
# GULP energy per Si atom -5567.048679 kJ/mol
# Density = 2.047820 g / cm^3
# Si number density = 20.524912 Si / 1000 Ang^3
#
#
#
# Elastic Constant Matrix: (Units=GPa)
#
#
# Indices 1 2 3 4 5 6 
#
# 1 62.8587 -1.2503 2.1078 0.0000 0.0000 0.0000
# 2 -1.2503 128.7572 7.0066 0.0000 0.0000 0.0000
# 3 2.1078 7.0066 112.0137 0.0000 0.0000 0.0000
# 4 0.0000 0.0000 0.0000 37.1542 0.0000 0.0000
# 5 0.0000 0.0000 0.0000 0.0000 402.5354 0.0000
# 6 0.0000 0.0000 0.0000 0.0000 0.0000 -0.2296
#
#
#
# Elastic Compliance Matrix: (Units=1/GPa)
#
#
# Indices 1 2 3 4 5 6 
#
# 1 0.015923 0.000172 -0.000310 0.000000 0.000000 0.000000
# 2 0.000172 0.007795 -0.000491 0.000000 0.000000 0.000000
# 3 -0.000310 -0.000491 0.008964 0.000000 0.000000 0.000000
# 4 0.000000 0.000000 0.000000 0.026915 0.000000 0.000000
# 5 0.000000 0.000000 0.000000 0.000000 0.002484 0.000000
# 6 0.000000 0.000000 0.000000 0.000000 0.000000 -4.355571
#
#
# Mechanical properties :
#
#
# Convention : Reuss Voigt Hill
#
# Bulk Modulus (GPa) = 31.82467 35.48420 33.65443
# Shear Modulus (GPa) = -1.16774 107.60970 53.22098
#
# Velocity S-wave (km/s) = -0.75510 7.24863 5.09767
# Velocity P-wave (km/s) = 3.84432 9.34787 7.14708
#
# Compressibility (1/GPa) = 0.03142216
#
# Stress axis : x y z
#
# Youngs Moduli (GPa) = 62.80415 128.28847 111.55706
#
# Poissons Ratio (x) = -0.02200 0.03462
# Poissons Ratio (y) = -0.01077 0.05475
# Poissons Ratio (z) = 0.01949 0.06297
#
# Static dielectric constant tensor:
#      x y z
#    x 1.696580 0.000000 0.000000 
#    y 0.000000 1.808850 0.000000 
#    z 0.000000 0.000000 1.941460 
# 
# From -- ./inp_files/23752.got.cif
#   From: 2010.05.17/outbox.cif.g08.bks.cpg/sg49_12_cif.got.tgz:23752.got - 2010.06.03 21:02:19.
