data_PCOD9394809
_publ_section_title
;
Structure prediction by ZEFSAII (Michael W. Deem and Ramdas Pophale) SiO2 
 PCOD9394809
Probable space group: P C C M
;
_chemical_formula_sum "Si O2"
_cell_formula_units_Z 40
_cell_length_a 11.929985
_cell_length_b 8.161951
_cell_length_c 17.466008
_cell_angle_alpha 90.000000
_cell_angle_beta 90.000000
_cell_angle_gamma 90.000000
_cell_volume 1700.699310
_symmetry_space_group_name_H-M "P C C M"
_symmetry_group_IT_number 49
_symmetry_cell_setting 'orthorhombic'
loop_
_space_group_symop_operation_xyz
x,y,z
-x,-y,z
x,-y,1/2-z
-x,y,1/2-z
-x,-y,-z
x,y,-z
-x,y,1/2+z
x,-y,1/2+z
loop_
_atom_site_type_symbol
_atom_site_label
_atom_site_fract_x
_atom_site_fract_y
_atom_site_fract_z
Si Si1 0.378578 0.440409 0.588081
Si Si2 0.796371 0.860694 0.802464
Si Si3 0.820568 0.392086 0.184122
Si Si4 0.629513 0.046267 0.914306
Si Si5 0.992237 0.198750 0.411740
O O1 0.500000 0.500000 0.616731
O O2 0.369944 0.497524 0.500000
O O3 0.271327 0.492221 0.636443
O O4 0.368335 0.243075 0.588857
O O5 0.753960 0.737230 0.737789
O O6 0.884222 0.777013 0.859136
O O7 0.856213 0.000000 0.750000
O O8 0.702719 0.950961 0.852409
O O9 0.878029 0.500000 0.250000
O O10 0.904593 0.293534 0.128673
O O11 0.500000 0.000000 0.906914
O O12 0.669945 0.999132 0.000000
O O13 0.982453 0.253534 0.500000
O O14 0.000000 0.000000 0.413334
#
# Coordination Sequence:
#
# PCOD9394809 Si02
#       5
#     8   8   8   8   8
#     4  10  22  44  70  97 139 192 241 291 355 430
#     4  12  23  42  69 105 142 184 236 298 360 432
#     4  12  27  44  67 108 148 186 235 302 370 432
#     4  10  22  42  69 103 139 183 243 298 352 428
#     4  11  23  44  76 104 138 191 245 292 356 443
#
# _framework density 23.519735000000001
#
# number of rings (size 3 to 8) (size 9 to 14) (size 15 to 20)
#    0.000    1.000    4.000    1.800    2.800    5.600 
#    0.000    4.000    0.000    0.000    0.000    0.000 
#    0.000    0.000    0.000    0.000    0.000    0.000 
#
# Total GULP energy -223609.464101 kJ/mol
# GULP energy per Si atom -5590.236603 kJ/mol
# Density = 2.346620 g / cm^3
# Si number density = 23.519735 Si / 1000 Ang^3
#
#
#
# Elastic Constant Matrix: (Units=GPa)
#
#
# Indices 1 2 3 4 5 6 
#
# 1 128.5386 39.3224 88.8455 0.0000 0.0000 0.0000
# 2 39.3224 43.5965 47.0260 0.0000 0.0000 0.0000
# 3 88.8455 47.0260 182.5906 0.0000 0.0000 0.0000
# 4 0.0000 0.0000 0.0000 28.1181 0.0000 0.0000
# 5 0.0000 0.0000 0.0000 0.0000 78.1851 0.0000
# 6 0.0000 0.0000 0.0000 0.0000 0.0000 45.8629
#
#
#
# Elastic Compliance Matrix: (Units=1/GPa)
#
#
# Indices 1 2 3 4 5 6 
#
# 1 0.013034 -0.006806 -0.004589 0.000000 0.000000 0.000000
# 2 -0.006806 0.035315 -0.005784 0.000000 0.000000 0.000000
# 3 -0.004589 -0.005784 0.009199 0.000000 0.000000 0.000000
# 4 0.000000 0.000000 0.000000 0.035564 0.000000 0.000000
# 5 0.000000 0.000000 0.000000 0.000000 0.012790 0.000000
# 6 0.000000 0.000000 0.000000 0.000000 0.000000 0.021804
#
#
# Mechanical properties :
#
#
# Convention : Reuss Voigt Hill
#
# Bulk Modulus (GPa) = 43.12092 78.34596 60.73344
# Shear Modulus (GPa) = 29.44739 42.40201 35.92470
#
# Velocity S-wave (km/s) = 3.54224 4.25058 3.91247
# Velocity P-wave (km/s) = 5.92484 7.58109 6.80355
#
# Compressibility (1/GPa) = 0.02319060
#
# Stress axis : x y z
#
# Youngs Moduli (GPa) = 76.72340 28.31668 108.70320
#
# Poissons Ratio (x) = 0.19272 0.49886
# Poissons Ratio (y) = 0.52216 0.62871
# Poissons Ratio (z) = 0.35210 0.16378
#
# Static dielectric constant tensor:
#      x y z
#    x 1.863590 0.000000 0.000000 
#    y 0.000000 2.041930 0.000000 
#    z 0.000000 0.000000 1.874140 
# 
# From -- ./inp_files/16820.got.cif
#   From: 2010.05.17/outbox.cif.g08.bks.cpg/sg49_9_cif.got.tgz:16820.got - 2010.06.03 21:02:19.
