data_PCOD9394018
_publ_section_title
;
Structure prediction by ZEFSAII (Michael W. Deem and Ramdas Pophale) SiO2 
 PCOD9394018
Probable space group: P C C M
;
_chemical_formula_sum "Si O2"
_cell_formula_units_Z 58
_cell_length_a 9.202740
_cell_length_b 16.901542
_cell_length_c 19.294588
_cell_angle_alpha 90.000000
_cell_angle_beta 90.000000
_cell_angle_gamma 90.000000
_cell_volume 3001.089800
_symmetry_space_group_name_H-M "P C C M"
_symmetry_group_IT_number 49
_symmetry_cell_setting 'orthorhombic'
loop_
_space_group_symop_operation_xyz
x,y,z
-x,-y,z
x,-y,1/2-z
-x,y,1/2-z
-x,-y,-z
x,y,-z
-x,y,1/2+z
x,-y,1/2+z
loop_
_atom_site_type_symbol
_atom_site_label
_atom_site_fract_x
_atom_site_fract_y
_atom_site_fract_z
Si Si1 0.270249 0.774453 0.423629
Si Si2 0.349936 0.913194 0.217127
Si Si3 0.324585 0.677571 0.172708
Si Si4 0.500000 0.500000 0.000000
Si Si5 0.601810 0.609279 0.882595
Si Si6 0.162011 0.516618 0.832024
Si Si7 0.841107 0.781171 0.775949
Si Si8 0.400999 0.169874 0.581315
O O1 0.209524 0.790165 0.500000
O O2 0.315064 0.683054 0.415695
O O3 0.169204 0.790118 0.358139
O O4 0.423869 0.820138 0.416283
O O5 0.500000 0.878039 0.250000
O O6 0.214794 0.862319 0.242776
O O7 0.361321 0.901262 0.134249
O O8 0.340107 0.000000 0.250000
O O9 0.484979 0.640011 0.172811
O O10 0.214648 0.606209 0.154798
O O11 0.268459 0.715712 0.244426
O O12 0.334914 0.750271 0.117230
O O13 0.495309 0.431778 0.059559
O O14 0.719927 0.545245 0.859798
O O15 0.158061 0.500000 0.750000
O O16 0.000000 0.500000 0.859936
O O17 0.000000 0.760002 0.750000
O O18 0.360347 0.162020 0.500000
#
# Coordination Sequence:
#
# PCOD9394018 Si02
#       8
#     8   8   8   2   8   8   8   8
#     4  10  20  36  60  88 120 161 200 257 310 367
#     4  10  20  40  66  98 130 156 202 253 297 374
#     4  10  22  37  59  87 113 163 215 262 308 371
#     4  12  20  40  56  84 108 160 218 264 316 376
#     4  11  22  38  61  77 116 155 212 262 316 367
#     4  11  24  37  54  84 122 157 207 268 325 376
#     4  11  24  40  63  91 126 166 207 253 308 377
#     4   9  19  36  64  96 126 159 204 259 312 369
#
# _framework density 19.326312000000001
#
# number of rings (size 3 to 8) (size 9 to 14) (size 15 to 20)
#    0.000    1.655    3.448    0.828    4.828    3.586 
#    0.000    5.172    3.034    0.000    0.000    4.828 
#    0.000    0.000    0.000    0.000    0.000    0.000 
#
# Total GULP energy -323006.164466 kJ/mol
# GULP energy per Si atom -5569.071801 kJ/mol
# Density = 1.928232 g / cm^3
# Si number density = 19.326312 Si / 1000 Ang^3
#
#
#
# Elastic Constant Matrix: (Units=GPa)
#
#
# Indices 1 2 3 4 5 6 
#
# 1 87.2664 29.9795 49.1278 0.0000 0.0000 0.0000
# 2 29.9795 84.4821 35.9071 0.0000 0.0000 0.0000
# 3 49.1278 35.9071 172.4165 0.0000 0.0000 0.0000
# 4 0.0000 0.0000 0.0000 19.1054 0.0000 0.0000
# 5 0.0000 0.0000 0.0000 0.0000 -0.1462 0.0000
# 6 0.0000 0.0000 0.0000 0.0000 0.0000 20.8450
#
#
#
# Elastic Compliance Matrix: (Units=1/GPa)
#
#
# Indices 1 2 3 4 5 6 
#
# 1 0.014662 -0.003760 -0.003395 0.000000 0.000000 0.000000
# 2 -0.003760 0.013951 -0.001834 0.000000 0.000000 0.000000
# 3 -0.003395 -0.001834 0.007149 0.000000 0.000000 0.000000
# 4 0.000000 0.000000 0.000000 0.052341 0.000000 0.000000
# 5 0.000000 0.000000 0.000000 0.000000 -6.837965 0.000000
# 6 0.000000 0.000000 0.000000 0.000000 0.000000 0.047973
#
#
# Mechanical properties :
#
#
# Convention : Reuss Voigt Hill
#
# Bulk Modulus (GPa) = 56.22957 63.79931 60.01444
# Shear Modulus (GPa) = -0.74873 23.23755 11.24441
#
# Velocity S-wave (km/s) = -0.62310 3.47130 2.41471
# Velocity P-wave (km/s) = 5.35166 7.01069 6.23659
#
# Compressibility (1/GPa) = 0.01778424
#
# Stress axis : x y z
#
# Youngs Moduli (GPa) = 68.20351 71.68135 139.87780
#
# Poissons Ratio (x) = 0.26953 0.47484
# Poissons Ratio (y) = 0.25646 0.25652
# Poissons Ratio (z) = 0.23153 0.13146
#
# Static dielectric constant tensor:
#      x y z
#    x 1.692700 0.000000 0.000000 
#    y 0.000000 1.700980 0.000000 
#    z 0.000000 0.000000 1.707290 
# 
# From -- ./inp_files/16494.got.cif
#   From: 2010.05.17/outbox.cif.g08.bks.cpg/sg49_9_cif.got.tgz:16494.got - 2010.06.03 21:02:19.
