data_PCOD9394432
_publ_section_title
;
Structure prediction by ZEFSAII (Michael W. Deem and Ramdas Pophale) SiO2 
 PCOD9394432
Probable space group: P C C M
;
_chemical_formula_sum "Si O2"
_cell_formula_units_Z 56
_cell_length_a 8.625530
_cell_length_b 22.069746
_cell_length_c 14.383005
_cell_angle_alpha 90.000000
_cell_angle_beta 90.000000
_cell_angle_gamma 90.000000
_cell_volume 2737.995666
_symmetry_space_group_name_H-M "P C C M"
_symmetry_group_IT_number 49
_symmetry_cell_setting 'orthorhombic'
loop_
_space_group_symop_operation_xyz
x,y,z
-x,-y,z
x,-y,1/2-z
-x,y,1/2-z
-x,-y,-z
x,y,-z
-x,y,1/2+z
x,-y,1/2+z
loop_
_atom_site_type_symbol
_atom_site_label
_atom_site_fract_x
_atom_site_fract_y
_atom_site_fract_z
Si Si1 0.068610 0.562688 0.853475
Si Si2 0.675301 0.360825 0.220612
Si Si3 0.379133 0.895685 0.608809
Si Si4 0.121272 0.676765 0.397335
Si Si5 0.179096 0.981763 0.896932
Si Si6 0.823510 0.252707 0.889274
Si Si7 0.284077 0.129114 0.300394
O O1 0.246839 0.581214 0.832451
O O2 0.000000 0.500000 0.892626
O O3 0.000000 0.564413 0.750000
O O4 0.993374 0.619177 0.904438
O O5 0.500000 0.371430 0.250000
O O6 0.762352 0.341943 0.316330
O O7 0.709814 0.303035 0.155198
O O8 0.370484 0.877380 0.500000
O O9 0.299762 0.962457 0.614363
O O10 0.553511 0.890106 0.648920
O O11 0.293652 0.858151 0.690132
O O12 0.188630 0.688934 0.500000
O O13 0.002143 0.729422 0.368099
O O14 0.188958 0.931488 0.818302
O O15 0.215827 0.955170 0.000000
O O16 0.000000 0.000000 0.899974
O O17 0.781777 0.187434 0.850595
O O18 0.807990 0.254145 0.000000
#
# Coordination Sequence:
#
# PCOD9394432 Si02
#       7
#     8   8   8   8   8   8   8
#     4   8  15  32  57  85 119 164 208 242 288 355
#     4  10  21  37  60  89 126 161 201 255 312 356
#     4  10  22  39  59  85 117 154 199 251 320 393
#     4   9  19  38  60  85 120 162 205 246 295 362
#     4  10  21  39  59  85 117 152 200 259 323 387
#     4  10  21  39  61  85 116 160 210 254 306 378
#     4  11  22  38  63  86 116 158 202 258 321 377
#
# _framework density 20.452918
#
# number of rings (size 3 to 8) (size 9 to 14) (size 15 to 20)
#    0.000    2.286    0.000    3.429    2.000    4.286 
#    5.143    6.429    0.000    0.857    0.000    0.000 
#    0.000    0.000    0.000    0.000    0.000    0.000 
#
# Total GULP energy -311914.343491 kJ/mol
# GULP energy per Si atom -5569.898991 kJ/mol
# Density = 2.040637 g / cm^3
# Si number density = 20.452918 Si / 1000 Ang^3
#
#
#
# Elastic Constant Matrix: (Units=GPa)
#
#
# Indices 1 2 3 4 5 6 
#
# 1 104.0429 61.2963 43.4080 0.0000 0.0000 0.0000
# 2 61.2963 74.0672 30.7743 0.0000 0.0000 0.0000
# 3 43.4080 30.7743 146.5708 0.0000 0.0000 0.0000
# 4 0.0000 0.0000 0.0000 58.2460 0.0000 0.0000
# 5 0.0000 0.0000 0.0000 0.0000 23.7962 0.0000
# 6 0.0000 0.0000 0.0000 0.0000 0.0000 13.7857
#
#
#
# Elastic Compliance Matrix: (Units=1/GPa)
#
#
# Indices 1 2 3 4 5 6 
#
# 1 0.019643 -0.015161 -0.002634 0.000000 0.000000 0.000000
# 2 -0.015161 0.026494 -0.001073 0.000000 0.000000 0.000000
# 3 -0.002634 -0.001073 0.007828 0.000000 0.000000 0.000000
# 4 0.000000 0.000000 0.000000 0.017169 0.000000 0.000000
# 5 0.000000 0.000000 0.000000 0.000000 0.042023 0.000000
# 6 0.000000 0.000000 0.000000 0.000000 0.000000 0.072539
#
#
# Mechanical properties :
#
#
# Convention : Reuss Voigt Hill
#
# Bulk Modulus (GPa) = 61.61918 66.18200 63.90059
# Shear Modulus (GPa) = 21.84924 31.77907 26.81416
#
# Velocity S-wave (km/s) = 3.27199 3.94606 3.62473
# Velocity P-wave (km/s) = 6.66838 7.29317 6.98776
#
# Compressibility (1/GPa) = 0.01622871
#
# Stress axis : x y z
#
# Youngs Moduli (GPa) = 50.90981 37.74426 127.74781
#
# Poissons Ratio (x) = 0.57225 0.33649
# Poissons Ratio (y) = 0.77186 0.13702
# Poissons Ratio (z) = 0.13410 0.04049
#
# Static dielectric constant tensor:
#      x y z
#    x 1.866290 0.000000 0.000000 
#    y 0.000000 1.759370 0.000000 
#    z 0.000000 0.000000 1.784130 
# 
# From -- ./inp_files/12005.got.cif
#   From: 2010.05.17/outbox.cif.g08.bks.cpg/sg49_7_cif.got.tgz:12005.got - 2010.06.03 21:02:19.
