data_PCOD9394551
_publ_section_title
;
Structure prediction by ZEFSAII (Michael W. Deem and Ramdas Pophale) SiO2 
 PCOD9394551
Probable space group: P C C M
;
_chemical_formula_sum "Si O2"
_cell_formula_units_Z 30
_cell_length_a 13.103830
_cell_length_b 4.939424
_cell_length_c 23.793512
_cell_angle_alpha 90.000000
_cell_angle_beta 90.000000
_cell_angle_gamma 90.000000
_cell_volume 1540.043925
_symmetry_space_group_name_H-M "P C C M"
_symmetry_group_IT_number 49
_symmetry_cell_setting 'orthorhombic'
loop_
_space_group_symop_operation_xyz
x,y,z
-x,-y,z
x,-y,1/2-z
-x,y,1/2-z
-x,-y,-z
x,y,-z
-x,y,1/2+z
x,-y,1/2+z
loop_
_atom_site_type_symbol
_atom_site_label
_atom_site_fract_x
_atom_site_fract_y
_atom_site_fract_z
Si Si1 0.500000 0.500000 0.250000
Si Si2 0.576407 0.247357 0.000000
Si Si3 0.394376 0.128631 0.842202
Si Si4 0.928590 0.760169 0.564602
Si Si5 0.292093 0.344422 0.389513
O O1 0.567447 0.700708 0.211512
O O2 0.500000 0.500000 0.000000
O O3 0.648512 0.251197 0.945530
O O4 0.500000 0.000000 0.000000
O O5 0.333304 0.353810 0.877626
O O6 0.500000 0.000000 0.865865
O O7 0.324476 0.862033 0.839724
O O8 0.899189 0.834720 0.500000
O O9 0.827111 0.687980 0.598482
O O10 0.000000 0.500000 0.562208
O O11 0.000000 0.000000 0.587411
#
# Coordination Sequence:
#
# PCOD9394551 Si02
#       5
#     2   4   8   8   8
#     4  12  26  44  66  86 128 160 206 268 314 370
#     4  12  24  34  52  84 134 174 192 228 291 367
#     4  12  24  40  63  90 127 160 209 251 308 382
#     4  10  21  39  61  87 126 171 216 255 293 352
#     4  12  23  39  60  93 126 172 207 245 307 370
#
# _framework density 19.479962
#
# number of rings (size 3 to 8) (size 9 to 14) (size 15 to 20)
#    0.000    0.533    4.000    6.000    0.000    0.000 
#    0.000    0.000    0.000    0.000    0.000   14.000 
#    0.000    0.000    0.000    0.000    0.000    0.000 
#
# Total GULP energy -167491.747534 kJ/mol
# GULP energy per Si atom -5583.058251 kJ/mol
# Density = 1.943562 g / cm^3
# Si number density = 19.479962 Si / 1000 Ang^3
#
#
#
# Elastic Constant Matrix: (Units=GPa)
#
#
# Indices 1 2 3 4 5 6 
#
# 1 165.6030 60.4636 33.3430 0.0000 0.0000 0.0000
# 2 60.4636 150.4630 15.0570 0.0000 0.0000 0.0000
# 3 33.3430 15.0570 47.7778 0.0000 0.0000 0.0000
# 4 0.0000 0.0000 0.0000 37.7305 0.0000 0.0000
# 5 0.0000 0.0000 0.0000 0.0000 34.0646 0.0000
# 6 0.0000 0.0000 0.0000 0.0000 0.0000 34.5430
#
#
#
# Elastic Compliance Matrix: (Units=1/GPa)
#
#
# Indices 1 2 3 4 5 6 
#
# 1 0.007987 -0.002738 -0.004711 0.000000 0.000000 0.000000
# 2 -0.002738 0.007801 -0.000548 0.000000 0.000000 0.000000
# 3 -0.004711 -0.000548 0.024390 0.000000 0.000000 0.000000
# 4 0.000000 0.000000 0.000000 0.026504 0.000000 0.000000
# 5 0.000000 0.000000 0.000000 0.000000 0.029356 0.000000
# 6 0.000000 0.000000 0.000000 0.000000 0.000000 0.028949
#
#
# Mechanical properties :
#
#
# Convention : Reuss Voigt Hill
#
# Bulk Modulus (GPa) = 41.34767 64.61899 52.98333
# Shear Modulus (GPa) = 33.54745 38.26628 35.90686
#
# Velocity S-wave (km/s) = 4.15438 4.43695 4.29799
# Velocity P-wave (km/s) = 6.65460 7.71316 7.20335
#
# Compressibility (1/GPa) = 0.02418516
#
# Stress axis : x y z
#
# Youngs Moduli (GPa) = 125.20772 128.18458 40.99970
#
# Poissons Ratio (x) = 0.35098 0.19314
# Poissons Ratio (y) = 0.34282 0.02246
# Poissons Ratio (z) = 0.58984 0.07021
#
# Static dielectric constant tensor:
#      x y z
#    x 1.671540 0.000000 0.000000 
#    y 0.000000 1.682620 0.000000 
#    z 0.000000 0.000000 1.766550 
# 
# From -- ./inp_files/20204.got.cif
#   From: 2010.05.17/outbox.cif.g08.bks.cpg/sg49_11_cif.got.tgz:20204.got - 2010.06.03 21:02:19.
