data_PCOD9394436
_publ_section_title
;
Structure prediction by ZEFSAII (Michael W. Deem and Ramdas Pophale) SiO2 
 PCOD9394436
Probable space group: P C C M
;
_chemical_formula_sum "Si O2"
_cell_formula_units_Z 34
_cell_length_a 13.780424
_cell_length_b 9.070559
_cell_length_c 13.891610
_cell_angle_alpha 90.000000
_cell_angle_beta 90.000000
_cell_angle_gamma 90.000000
_cell_volume 1736.397753
_symmetry_space_group_name_H-M "P C C M"
_symmetry_group_IT_number 49
_symmetry_cell_setting 'orthorhombic'
loop_
_space_group_symop_operation_xyz
x,y,z
-x,-y,z
x,-y,1/2-z
-x,y,1/2-z
-x,-y,-z
x,y,-z
-x,y,1/2+z
x,-y,1/2+z
loop_
_atom_site_type_symbol
_atom_site_label
_atom_site_fract_x
_atom_site_fract_y
_atom_site_fract_z
Si Si1 0.156045 0.876520 0.682050
Si Si2 0.666275 0.090320 0.110408
Si Si3 0.500000 0.000000 0.750000
Si Si4 0.767890 0.624288 0.321127
Si Si5 0.028496 0.166992 0.000000
Si Si6 0.105141 0.575854 0.000000
O O1 0.178477 0.737763 0.749439
O O2 0.093338 0.814883 0.594524
O O3 0.107207 0.000000 0.750000
O O4 0.251447 0.968910 0.643434
O O5 0.702980 0.258382 0.120887
O O6 0.573664 0.082900 0.179409
O O7 0.643197 0.057934 0.000000
O O8 0.724202 0.500000 0.250000
O O9 0.835427 0.549268 0.402383
O O10 0.000000 0.000000 0.000000
O O11 0.927945 0.254138 0.000000
O O12 0.000000 0.500000 0.000000
#
# Coordination Sequence:
#
# PCOD9394436 Si02
#       6
#     8   8   2   8   4   4
#     4  10  21  37  61  87 125 169 213 261 331 378
#     4  11  21  42  68  97 127 166 208 269 330 383
#     4  12  22  40  74 106 122 152 220 260 328 410
#     4  11  23  42  64  88 132 176 211 262 325 381
#     4  12  22  34  58  88 120 164 220 274 308 370
#     4  12  26  40  60  92 131 176 232 260 307 388
#
# _framework density 19.580766000000001
#
# number of rings (size 3 to 8) (size 9 to 14) (size 15 to 20)
#    0.000    0.941    5.882    4.588    0.000    5.647 
#    0.000    0.588    0.000    1.412    0.000    0.000 
#    0.000    0.000    0.000    0.000    0.000    0.000 
#
# Total GULP energy -189531.075288 kJ/mol
# GULP energy per Si atom -5574.443391 kJ/mol
# Density = 1.953620 g / cm^3
# Si number density = 19.580766 Si / 1000 Ang^3
#
#
#
# Elastic Constant Matrix: (Units=GPa)
#
#
# Indices 1 2 3 4 5 6 
#
# 1 73.5275 -0.6806 36.8801 0.0000 0.0000 0.0000
# 2 -0.6806 53.8467 14.0244 0.0000 0.0000 0.0000
# 3 36.8801 14.0244 150.4793 0.0000 0.0000 0.0000
# 4 0.0000 0.0000 0.0000 28.1723 0.0000 0.0000
# 5 0.0000 0.0000 0.0000 0.0000 44.8175 0.0000
# 6 0.0000 0.0000 0.0000 0.0000 0.0000 11.2536
#
#
#
# Elastic Compliance Matrix: (Units=1/GPa)
#
#
# Indices 1 2 3 4 5 6 
#
# 1 0.015585 0.001221 -0.003933 0.000000 0.000000 0.000000
# 2 0.001221 0.019129 -0.002082 0.000000 0.000000 0.000000
# 3 -0.003933 -0.002082 0.007803 0.000000 0.000000 0.000000
# 4 0.000000 0.000000 0.000000 0.035496 0.000000 0.000000
# 5 0.000000 0.000000 0.000000 0.000000 0.022313 0.000000
# 6 0.000000 0.000000 0.000000 0.000000 0.000000 0.088861
#
#
# Mechanical properties :
#
#
# Convention : Reuss Voigt Hill
#
# Bulk Modulus (GPa) = 30.36852 42.03350 36.20101
# Shear Modulus (GPa) = 23.83781 32.02398 27.93089
#
# Velocity S-wave (km/s) = 3.49292 4.04850 3.78093
# Velocity P-wave (km/s) = 5.64007 6.58537 6.13097
#
# Compressibility (1/GPa) = 0.03292884
#
# Stress axis : x y z
#
# Youngs Moduli (GPa) = 64.16607 52.27676 128.14777
#
# Poissons Ratio (x) = -0.06385 0.50405
# Poissons Ratio (y) = -0.07837 0.26682
# Poissons Ratio (z) = 0.25239 0.10885
#
# Static dielectric constant tensor:
#      x y z
#    x 1.688410 0.000000 0.000000 
#    y 0.000000 1.718460 0.000000 
#    z 0.000000 0.000000 1.710950 
# 
# From -- ./inp_files/13250.got.cif
#   From: 2010.05.17/outbox.cif.g08.bks.cpg/sg49_7_cif.got.tgz:13250.got - 2010.06.03 21:02:19.
