data_PCOD9394108
_publ_section_title
;
Structure prediction by ZEFSAII (Michael W. Deem and Ramdas Pophale) SiO2 
 PCOD9394108
Probable space group: P C C M
;
_chemical_formula_sum "Si O2"
_cell_formula_units_Z 40
_cell_length_a 14.419142
_cell_length_b 13.832860
_cell_length_c 9.979893
_cell_angle_alpha 90.000000
_cell_angle_beta 90.000000
_cell_angle_gamma 90.000000
_cell_volume 1990.569225
_symmetry_space_group_name_H-M "P C C M"
_symmetry_group_IT_number 49
_symmetry_cell_setting 'orthorhombic'
loop_
_space_group_symop_operation_xyz
x,y,z
-x,-y,z
x,-y,1/2-z
-x,y,1/2-z
-x,-y,-z
x,y,-z
-x,y,1/2+z
x,-y,1/2+z
loop_
_atom_site_type_symbol
_atom_site_label
_atom_site_fract_x
_atom_site_fract_y
_atom_site_fract_z
Si Si1 0.885280 0.377700 0.500000
Si Si2 0.905380 0.612961 0.500000
Si Si3 0.589191 0.722025 0.657892
Si Si4 0.709505 0.090745 0.154180
Si Si5 0.917595 0.898378 0.663812
Si Si6 0.225576 0.616325 0.241026
O O1 0.900739 0.495120 0.500000
O O2 0.823409 0.348892 0.375138
O O3 0.991622 0.344651 0.500000
O O4 0.847007 0.643390 0.373195
O O5 0.500000 0.708075 0.750000
O O6 0.570608 0.704525 0.500000
O O7 0.630168 0.830049 0.672076
O O8 0.673591 0.655292 0.707067
O O9 0.811723 0.137896 0.175102
O O10 0.697240 0.000000 0.250000
O O11 0.709024 0.057229 0.000000
O O12 0.936670 0.907099 0.500000
O O13 0.000000 0.847715 0.750000
O O14 0.910058 0.000000 0.750000
O O15 0.230961 0.500000 0.250000
#
# Coordination Sequence:
#
# PCOD9394108 Si02
#       6
#     4   4   8   8   8   8
#     4   9  18  30  59  93 124 159 205 233 291 355
#     4   9  16  34  57  89 126 167 193 241 291 351
#     4  11  25  44  63  84 117 158 202 258 311 357
#     4   9  20  39  62  85 114 151 193 245 303 358
#     4   9  15  26  48  78 110 145 180 219 274 339
#     4  10  20  37  61  90 126 162 199 243 293 355
#
# _framework density 20.094754999999999
#
# number of rings (size 3 to 8) (size 9 to 14) (size 15 to 20)
#    0.000    2.400    1.000    1.800    1.400    4.800 
#    0.000    5.000    0.000    0.000    0.000    0.000 
#    0.000    0.000    0.000    0.000    0.000    0.000 
#
# Total GULP energy -223013.055137 kJ/mol
# GULP energy per Si atom -5575.326378 kJ/mol
# Density = 2.004902 g / cm^3
# Si number density = 20.094755 Si / 1000 Ang^3
#
#
#
# Elastic Constant Matrix: (Units=GPa)
#
#
# Indices 1 2 3 4 5 6 
#
# 1 187.6415 25.3511 117.5446 0.0000 0.0000 0.0000
# 2 25.3511 49.3919 43.6172 0.0000 0.0000 0.0000
# 3 117.5446 43.6172 208.5630 0.0000 0.0000 0.0000
# 4 0.0000 0.0000 0.0000 25.1048 0.0000 0.0000
# 5 0.0000 0.0000 0.0000 0.0000 41.9477 0.0000
# 6 0.0000 0.0000 0.0000 0.0000 0.0000 24.2661
#
#
#
# Elastic Compliance Matrix: (Units=1/GPa)
#
#
# Indices 1 2 3 4 5 6 
#
# 1 0.008239 -0.000157 -0.004610 0.000000 0.000000 0.000000
# 2 -0.000157 0.024835 -0.005105 0.000000 0.000000 0.000000
# 3 -0.004610 -0.005105 0.008461 0.000000 0.000000 0.000000
# 4 0.000000 0.000000 0.000000 0.039833 0.000000 0.000000
# 5 0.000000 0.000000 0.000000 0.000000 0.023839 0.000000
# 6 0.000000 0.000000 0.000000 0.000000 0.000000 0.041210
#
#
# Mechanical properties :
#
#
# Convention : Reuss Voigt Hill
#
# Bulk Modulus (GPa) = 45.89473 90.95803 68.42638
# Shear Modulus (GPa) = 28.83087 35.53595 32.18341
#
# Velocity S-wave (km/s) = 3.79191 4.20982 4.00632
# Velocity P-wave (km/s) = 6.48538 8.30620 7.45162
#
# Compressibility (1/GPa) = 0.02178900
#
# Stress axis : x y z
#
# Youngs Moduli (GPa) = 121.37946 40.26526 118.19316
#
# Poissons Ratio (x) = 0.00633 0.54491
# Poissons Ratio (y) = 0.01909 0.60340
# Poissons Ratio (z) = 0.55960 0.20556
#
# Static dielectric constant tensor:
#      x y z
#    x 1.703600 0.000000 0.000000 
#    y 0.000000 1.777110 0.000000 
#    z 0.000000 0.000000 1.679740 
# 
# From -- ./inp_files/3467.got.cif
#   From: 2010.05.17/outbox.cif.g08.bks.cpg/sg49_2_cif.got.tgz:3467.got - 2010.06.03 21:02:19.
