data_PCOD9394737
_publ_section_title
;
Structure prediction by ZEFSAII (Michael W. Deem and Ramdas Pophale) SiO2 
 PCOD9394737
Probable space group: P C C M
;
_chemical_formula_sum "Si O2"
_cell_formula_units_Z 64
_cell_length_a 12.194518
_cell_length_b 14.843755
_cell_length_c 14.915822
_cell_angle_alpha 90.000000
_cell_angle_beta 90.000000
_cell_angle_gamma 90.000000
_cell_volume 2699.949298
_symmetry_space_group_name_H-M "P C C M"
_symmetry_group_IT_number 49
_symmetry_cell_setting 'orthorhombic'
loop_
_space_group_symop_operation_xyz
x,y,z
-x,-y,z
x,-y,1/2-z
-x,y,1/2-z
-x,-y,-z
x,y,-z
-x,y,1/2+z
x,-y,1/2+z
loop_
_atom_site_type_symbol
_atom_site_label
_atom_site_fract_x
_atom_site_fract_y
_atom_site_fract_z
Si Si1 0.944212 0.096008 0.890891
Si Si2 0.498655 0.397250 0.642106
Si Si3 0.260332 0.186654 0.328436
Si Si4 0.663923 0.759665 0.130000
Si Si5 0.120622 0.457864 0.895643
Si Si6 0.248675 0.626742 0.103310
Si Si7 0.483944 0.898053 0.140779
Si Si8 0.908318 0.737103 0.099115
O O1 0.832600 0.111076 0.835880
O O2 0.024441 0.178665 0.864609
O O3 0.923944 0.100913 0.000000
O O4 0.000000 0.000000 0.873691
O O5 0.500000 0.500000 0.609949
O O6 0.500000 0.396766 0.750000
O O7 0.601355 0.335293 0.615112
O O8 0.379440 0.362636 0.613662
O O9 0.308703 0.220110 0.234081
O O10 0.203895 0.277676 0.364972
O O11 0.366004 0.145644 0.378653
O O12 0.577714 0.834677 0.102472
O O13 0.782760 0.766346 0.089177
O O14 0.202708 0.533355 0.855652
O O15 0.105390 0.359392 0.851922
O O16 0.000000 0.500000 0.896209
O O17 0.155877 0.441215 0.000000
O O18 0.219438 0.619074 0.000000
O O19 0.500000 0.898207 0.250000
O O20 0.500000 0.000000 0.111040
O O21 0.956757 0.718068 0.000000
#
# Coordination Sequence:
#
# PCOD9394737 Si02
#       8
#     8   8   8   8   8   8   8   8
#     4  10  23  43  65  90 124 164 206 261 328 380
#     4  11  21  37  58  86 126 170 200 246 319 375
#     4  11  21  39  64  89 123 157 205 258 310 379
#     4  11  21  39  61  90 125 162 203 253 310 377
#     4   9  18  35  59  86 116 156 207 257 307 362
#     4  11  21  35  60  91 120 162 213 257 307 378
#     4   9  19  36  60  86 115 155 196 244 305 362
#     4  10  22  40  60  85 121 162 202 256 315 370
#
# _framework density 23.704149000000001
#
# number of rings (size 3 to 8) (size 9 to 14) (size 15 to 20)
#    0.000    1.750    2.500    2.250    1.750    3.250 
#    0.000    0.625    0.000    2.625    0.000    0.000 
#    0.000    0.000    0.000    0.000    0.000    0.000 
#
# Total GULP energy -357430.501103 kJ/mol
# GULP energy per Si atom -5584.851580 kJ/mol
# Density = 2.365020 g / cm^3
# Si number density = 23.704149 Si / 1000 Ang^3
#
#
#
# Elastic Constant Matrix: (Units=GPa)
#
#
# Indices 1 2 3 4 5 6 
#
# 1 137.6379 65.7654 -0.0511 0.0000 0.0000 0.0000
# 2 65.7654 182.3634 22.8694 0.0000 0.0000 0.0000
# 3 -0.0511 22.8694 50.3776 0.0000 0.0000 0.0000
# 4 0.0000 0.0000 0.0000 -19.2146 0.0000 0.0000
# 5 0.0000 0.0000 0.0000 0.0000 82.4928 0.0000
# 6 0.0000 0.0000 0.0000 0.0000 0.0000 47.2742
#
#
#
# Elastic Compliance Matrix: (Units=1/GPa)
#
#
# Indices 1 2 3 4 5 6 
#
# 1 0.008891 -0.003401 0.001553 0.000000 0.000000 0.000000
# 2 -0.003401 0.007116 -0.003234 0.000000 0.000000 0.000000
# 3 0.001553 -0.003234 0.021320 0.000000 0.000000 0.000000
# 4 0.000000 0.000000 0.000000 -0.052044 0.000000 0.000000
# 5 0.000000 0.000000 0.000000 0.000000 0.012122 0.000000
# 6 0.000000 0.000000 0.000000 0.000000 0.000000 0.021153
#
#
# Mechanical properties :
#
#
# Convention : Reuss Voigt Hill
#
# Bulk Modulus (GPa) = 36.81508 60.83849 48.82678
# Shear Modulus (GPa) = 132.35899 40.89682 86.62790
#
# Velocity S-wave (km/s) = 7.48058 4.15818 6.05184
# Velocity P-wave (km/s) = 9.49615 6.98394 8.33524
#
# Compressibility (1/GPa) = 0.02716279
#
# Stress axis : x y z
#
# Youngs Moduli (GPa) = 112.47150 140.53569 46.90511
#
# Poissons Ratio (x) = 0.47798 -0.07284
# Poissons Ratio (y) = 0.38253 0.15168
# Poissons Ratio (z) = -0.17467 0.45445
#
# Static dielectric constant tensor:
#      x y z
#    x 1.873800 0.000000 0.000000 
#    y 0.000000 1.933040 0.000000 
#    z 0.000000 0.000000 2.052730 
# 
# From -- ./inp_files/17324.got.cif
#   From: 2010.05.17/outbox.cif.g08.bks.cpg/sg49_9_cif.got.tgz:17324.got - 2010.06.03 21:02:19.
