data_PCOD9394745
_publ_section_title
;
Structure prediction by ZEFSAII (Michael W. Deem and Ramdas Pophale) SiO2 
 PCOD9394745
Probable space group: P C C M
;
_chemical_formula_sum "Si O2"
_cell_formula_units_Z 32
_cell_length_a 4.955145
_cell_length_b 8.827226
_cell_length_c 35.577988
_cell_angle_alpha 90.000000
_cell_angle_beta 90.000000
_cell_angle_gamma 90.000000
_cell_volume 1556.187769
_symmetry_space_group_name_H-M "P C C M"
_symmetry_group_IT_number 49
_symmetry_cell_setting 'orthorhombic'
loop_
_space_group_symop_operation_xyz
x,y,z
-x,-y,z
x,-y,1/2-z
-x,y,1/2-z
-x,-y,-z
x,y,-z
-x,y,1/2+z
x,-y,1/2+z
loop_
_atom_site_type_symbol
_atom_site_label
_atom_site_fract_x
_atom_site_fract_y
_atom_site_fract_z
Si Si1 0.081846 0.166826 0.706185
Si Si2 0.259809 0.894285 0.456790
Si Si3 0.732971 0.602066 0.093058
Si Si4 0.410774 0.333913 0.177145
O O1 0.386526 0.212134 0.695787
O O2 0.000000 0.168167 0.750000
O O3 0.891834 0.292568 0.687964
O O4 0.000000 0.000000 0.691753
O O5 0.328157 0.851886 0.500000
O O6 0.206560 0.746377 0.432346
O O7 0.500000 0.000000 0.441580
O O8 0.000000 0.000000 0.457297
O O9 0.500000 0.500000 0.074390
O O10 0.596904 0.659773 0.131976
O O11 0.000000 0.500000 0.100136
O O12 0.500000 0.500000 0.190639
#
# Coordination Sequence:
#
# PCOD9394745 Si02
#       4
#     8   8   8   8
#     4  11  24  41  61  87 118 153 197 246 297 359
#     4  10  22  40  62  91 125 162 208 256 302 360
#     4  11  23  40  61  89 124 160 203 253 304 363
#     4  11  23  40  60  87 120 154 197 246 298 357
#
# _framework density 20.563071999999998
#
# number of rings (size 3 to 8) (size 9 to 14) (size 15 to 20)
#    0.000    1.250    0.000    6.750    0.000    9.000 
#    0.000    0.000    0.000    0.000    0.000    0.000 
#    0.000    0.000    0.000    0.000    0.000    0.000 
#
# Total GULP energy -178767.092810 kJ/mol
# GULP energy per Si atom -5586.471650 kJ/mol
# Density = 2.051627 g / cm^3
# Si number density = 20.563072 Si / 1000 Ang^3
#
#
#
# Elastic Constant Matrix: (Units=GPa)
#
#
# Indices 1 2 3 4 5 6 
#
# 1 86.5110 5.1812 0.0341 0.0000 0.0000 0.0000
# 2 5.1812 92.4979 37.7415 0.0000 0.0000 0.0000
# 3 0.0341 37.7415 55.0474 0.0000 0.0000 0.0000
# 4 0.0000 0.0000 0.0000 25.4576 0.0000 0.0000
# 5 0.0000 0.0000 0.0000 0.0000 28.7548 0.0000
# 6 0.0000 0.0000 0.0000 0.0000 0.0000 39.7081
#
#
#
# Elastic Compliance Matrix: (Units=1/GPa)
#
#
# Indices 1 2 3 4 5 6 
#
# 1 0.011613 -0.000899 0.000609 0.000000 0.000000 0.000000
# 2 -0.000899 0.015080 -0.010338 0.000000 0.000000 0.000000
# 3 0.000609 -0.010338 0.025254 0.000000 0.000000 0.000000
# 4 0.000000 0.000000 0.000000 0.039281 0.000000 0.000000
# 5 0.000000 0.000000 0.000000 0.000000 0.034777 0.000000
# 6 0.000000 0.000000 0.000000 0.000000 0.000000 0.025184
#
#
# Mechanical properties :
#
#
# Convention : Reuss Voigt Hill
#
# Bulk Modulus (GPa) = 32.58382 35.55222 34.06802
# Shear Modulus (GPa) = 27.37108 31.52407 29.44758
#
# Velocity S-wave (km/s) = 3.65235 3.91966 3.78836
# Velocity P-wave (km/s) = 5.80228 6.14913 5.97822
#
# Compressibility (1/GPa) = 0.03069008
#
# Stress axis : x y z
#
# Youngs Moduli (GPa) = 86.11169 66.31415 39.59772
#
# Poissons Ratio (x) = 0.05962 -0.02412
# Poissons Ratio (y) = 0.07742 0.40938
# Poissons Ratio (z) = -0.05246 0.68558
#
# Static dielectric constant tensor:
#      x y z
#    x 1.436710 0.000000 0.000000 
#    y 0.000000 1.735700 0.000000 
#    z 0.000000 0.000000 1.766210 
# 
# From -- ./inp_files/25436.got.cif
#   From: 2010.05.17/outbox.cif.g08.bks.cpg/sg49_13_cif.got.tgz:25436.got - 2010.06.03 21:02:19.
