data_PCOD9394058
_publ_section_title
;
Structure prediction by ZEFSAII (Michael W. Deem and Ramdas Pophale) SiO2 
 PCOD9394058
Probable space group: P C C M
;
_chemical_formula_sum "Si O2"
_cell_formula_units_Z 58
_cell_length_a 19.510250
_cell_length_b 19.528649
_cell_length_c 8.876686
_cell_angle_alpha 90.000000
_cell_angle_beta 90.000000
_cell_angle_gamma 90.000000
_cell_volume 3382.095695
_symmetry_space_group_name_H-M "P C C M"
_symmetry_group_IT_number 49
_symmetry_cell_setting 'orthorhombic'
loop_
_space_group_symop_operation_xyz
x,y,z
-x,-y,z
x,-y,1/2-z
-x,y,1/2-z
-x,-y,-z
x,y,-z
-x,y,1/2+z
x,-y,1/2+z
loop_
_atom_site_type_symbol
_atom_site_label
_atom_site_fract_x
_atom_site_fract_y
_atom_site_fract_z
Si Si1 0.189637 0.791627 0.318844
Si Si2 0.615653 0.105861 0.330644
Si Si3 0.188963 0.424913 0.818300
Si Si4 0.500000 0.000000 0.250000
Si Si5 0.925310 0.313316 0.319999
Si Si6 0.573557 0.736988 0.179674
Si Si7 0.243545 0.927615 0.178457
Si Si8 0.708176 0.680124 0.319389
O O1 0.197540 0.790330 0.500000
O O2 0.117813 0.754916 0.280199
O O3 0.200746 0.866683 0.254193
O O4 0.247865 0.743840 0.245228
O O5 0.645375 0.106786 0.500000
O O6 0.552844 0.052390 0.329234
O O7 0.589963 0.182231 0.294398
O O8 0.676185 0.084895 0.218663
O O9 0.181741 0.500000 0.750000
O O10 0.123598 0.377207 0.777664
O O11 0.254809 0.386497 0.748953
O O12 0.194155 0.426679 0.000000
O O13 0.931869 0.314670 0.500000
O O14 0.000000 0.316245 0.250000
O O15 0.500000 0.722070 0.250000
O O16 0.632060 0.692315 0.258536
O O17 0.574103 0.726440 0.000000
O O18 0.224333 0.000000 0.250000
O O19 0.234911 0.927613 0.000000
O O20 0.710324 0.679281 0.500000
#
# Coordination Sequence:
#
# PCOD9394058 Si02
#       8
#     8   8   8   2   8   8   8   8
#     4  10  20  37  57  80 111 147 189 236 283 332
#     4  11  23  35  50  71 102 140 182 231 282 340
#     4  10  21  38  59  88 122 157 191 228 273 324
#     4  12  22  36  52  70 106 148 194 220 294 356
#     4   9  20  36  58  87 121 156 188 225 270 325
#     4  11  22  36  53  76 107 143 187 240 290 337
#     4  12  24  36  54  77 104 140 185 235 289 342
#     4  11  21  35  57  83 110 147 192 236 284 338
#
# _framework density 17.149131000000001
#
# number of rings (size 3 to 8) (size 9 to 14) (size 15 to 20)
#    0.000    1.379    2.759    4.759    0.000    4.690 
#    0.000    1.379    0.000    0.828    0.000    5.793 
#    0.000    0.000    0.000    0.000    0.000    0.000 
#
# Total GULP energy -323918.376246 kJ/mol
# GULP energy per Si atom -5584.799590 kJ/mol
# Density = 1.711010 g / cm^3
# Si number density = 17.149131 Si / 1000 Ang^3
#
#
#
# Elastic Constant Matrix: (Units=GPa)
#
#
# Indices 1 2 3 4 5 6 
#
# 1 129.6065 81.6456 62.2371 0.0000 0.0000 0.0000
# 2 81.6456 132.4480 63.3085 0.0000 0.0000 0.0000
# 3 62.2371 63.3085 111.5405 0.0000 0.0000 0.0000
# 4 0.0000 0.0000 0.0000 26.4657 0.0000 0.0000
# 5 0.0000 0.0000 0.0000 0.0000 29.8102 0.0000
# 6 0.0000 0.0000 0.0000 0.0000 0.0000 14.8680
#
#
#
# Elastic Compliance Matrix: (Units=1/GPa)
#
#
# Indices 1 2 3 4 5 6 
#
# 1 0.013765 -0.006606 -0.003931 0.000000 0.000000 0.000000
# 2 -0.006606 0.013532 -0.003994 0.000000 0.000000 0.000000
# 3 -0.003931 -0.003994 0.013426 0.000000 0.000000 0.000000
# 4 0.000000 0.000000 0.000000 0.037785 0.000000 0.000000
# 5 0.000000 0.000000 0.000000 0.000000 0.033546 0.000000
# 6 0.000000 0.000000 0.000000 0.000000 0.000000 0.067259
#
#
# Mechanical properties :
#
#
# Convention : Reuss Voigt Hill
#
# Bulk Modulus (GPa) = 85.76631 87.55303 86.65967
# Shear Modulus (GPa) = 23.55598 25.32237 24.43918
#
# Velocity S-wave (km/s) = 3.71023 3.84682 3.77914
# Velocity P-wave (km/s) = 8.27496 8.41994 8.34777
#
# Compressibility (1/GPa) = 0.01165959
#
# Stress axis : x y z
#
# Youngs Moduli (GPa) = 72.64868 73.90101 74.48375
#
# Poissons Ratio (x) = 0.48821 0.29279
# Poissons Ratio (y) = 0.47993 0.29750
# Poissons Ratio (z) = 0.28558 0.29518
#
# Static dielectric constant tensor:
#      x y z
#    x 1.568200 0.000000 0.000000 
#    y 0.000000 1.581560 0.000000 
#    z 0.000000 0.000000 1.585890 
# 
# From -- ./inp_files/5066.got.cif
#   From: 2010.05.17/outbox.cif.g08.bks.cpg/sg49_3_cif.got.tgz:5066.got - 2010.06.03 21:02:19.
