data_PCOD9394961
_publ_section_title
;
Structure prediction by ZEFSAII (Michael W. Deem and Ramdas Pophale) SiO2 
 PCOD9394961
Probable space group: P C C M
;
_chemical_formula_sum "Si O2"
_cell_formula_units_Z 64
_cell_length_a 20.706986
_cell_length_b 20.169003
_cell_length_c 8.713341
_cell_angle_alpha 90.000000
_cell_angle_beta 90.000000
_cell_angle_gamma 90.000000
_cell_volume 3639.033311
_symmetry_space_group_name_H-M "P C C M"
_symmetry_group_IT_number 49
_symmetry_cell_setting 'orthorhombic'
loop_
_space_group_symop_operation_xyz
x,y,z
-x,-y,z
x,-y,1/2-z
-x,y,1/2-z
-x,-y,-z
x,y,-z
-x,y,1/2+z
x,-y,1/2+z
loop_
_atom_site_type_symbol
_atom_site_label
_atom_site_fract_x
_atom_site_fract_y
_atom_site_fract_z
Si Si1 0.743383 0.932088 0.675670
Si Si2 0.571124 0.427740 0.683594
Si Si3 0.099087 0.069772 0.322339
Si Si4 0.187502 0.573563 0.683707
Si Si5 0.689025 0.649561 0.683573
Si Si6 0.066817 0.346684 0.682063
Si Si7 0.103476 0.209927 0.818334
Si Si8 0.247393 0.210847 0.686113
O O1 0.723934 0.934753 0.500000
O O2 0.822065 0.931440 0.682450
O O3 0.723380 0.859957 0.736260
O O4 0.720938 0.000000 0.750000
O O5 0.590388 0.500000 0.750000
O O6 0.500000 0.413557 0.750000
O O7 0.568715 0.431230 0.500000
O O8 0.623179 0.374637 0.739820
O O9 0.079634 0.074283 0.500000
O O10 0.080959 0.136579 0.232474
O O11 0.077493 0.000000 0.250000
O O12 0.180115 0.500000 0.750000
O O13 0.190019 0.572368 0.500000
O O14 0.252699 0.605508 0.750305
O O15 0.127566 0.617731 0.740209
O O16 0.685332 0.640776 0.500000
O O17 0.708333 0.725794 0.714920
O O18 0.069655 0.354952 0.500000
O O19 0.070544 0.269084 0.725402
O O20 0.000000 0.373741 0.750000
O O21 0.179088 0.216818 0.772057
O O22 0.094935 0.218791 0.000000
O O23 0.234766 0.207936 0.500000
#
# Coordination Sequence:
#
# PCOD9394961 Si02
#       8
#     8   8   8   8   8   8   8   8
#     4   8  14  24  38  62  95 135 174 214 260 312
#     4  11  22  38  58  82 113 149 190 230 271 325
#     4   9  16  27  44  69 100 134 173 217 266 319
#     4  12  25  42  62  87 112 141 178 222 273 330
#     4  11  21  36  58  84 115 151 186 228 275 321
#     4  12  25  43  62  82 106 137 177 226 278 333
#     4  11  20  32  52  77 105 138 177 220 270 328
#     4   9  18  31  49  72 105 143 181 222 271 320
#
# _framework density 17.587088000000001
#
# number of rings (size 3 to 8) (size 9 to 14) (size 15 to 20)
#    0.000    1.625    1.250    6.750    0.000    3.750 
#    0.000    1.250    0.000    0.375    0.000    2.625 
#    0.000    0.500    0.000    5.750    0.000    1.875 
#
# Total GULP energy -357489.610640 kJ/mol
# GULP energy per Si atom -5585.775166 kJ/mol
# Density = 1.754706 g / cm^3
# Si number density = 17.587088 Si / 1000 Ang^3
#
#
#
# Elastic Constant Matrix: (Units=GPa)
#
#
# Indices 1 2 3 4 5 6 
#
# 1 62.2281 38.1670 27.5108 0.0000 0.0000 0.0000
# 2 38.1670 113.8066 35.6939 0.0000 0.0000 0.0000
# 3 27.5108 35.6939 109.7822 0.0000 0.0000 0.0000
# 4 0.0000 0.0000 0.0000 41.4758 0.0000 0.0000
# 5 0.0000 0.0000 0.0000 0.0000 26.1970 0.0000
# 6 0.0000 0.0000 0.0000 0.0000 0.0000 63.7862
#
#
#
# Elastic Compliance Matrix: (Units=1/GPa)
#
#
# Indices 1 2 3 4 5 6 
#
# 1 0.021286 -0.006086 -0.003355 0.000000 0.000000 0.000000
# 2 -0.006086 0.011525 -0.002222 0.000000 0.000000 0.000000
# 3 -0.003355 -0.002222 0.010672 0.000000 0.000000 0.000000
# 4 0.000000 0.000000 0.000000 0.024110 0.000000 0.000000
# 5 0.000000 0.000000 0.000000 0.000000 0.038172 0.000000
# 6 0.000000 0.000000 0.000000 0.000000 0.000000 0.015677
#
#
# Mechanical properties :
#
#
# Convention : Reuss Voigt Hill
#
# Bulk Modulus (GPa) = 49.61272 54.28445 51.94859
# Shear Modulus (GPa) = 33.00559 38.58815 35.79687
#
# Velocity S-wave (km/s) = 4.33678 4.68922 4.51644
# Velocity P-wave (km/s) = 7.30396 7.76218 7.53656
#
# Compressibility (1/GPa) = 0.02015612
#
# Stress axis : x y z
#
# Youngs Moduli (GPa) = 46.97860 86.76881 93.70143
#
# Poissons Ratio (x) = 0.52811 0.31440
# Poissons Ratio (y) = 0.28593 0.20820
# Poissons Ratio (z) = 0.15763 0.19279
#
# Static dielectric constant tensor:
#      x y z
#    x 1.589570 0.000000 0.000000 
#    y 0.000000 1.627090 0.000000 
#    z 0.000000 0.000000 1.587770 
# 
# From -- ./inp_files/6012.got.cif
#   From: 2010.05.17/outbox.cif.g08.bks.cpg/sg49_4_cif.got.tgz:6012.got - 2010.06.03 21:02:19.
