data_PCOD9394082
_publ_section_title
;
Structure prediction by ZEFSAII (Michael W. Deem and Ramdas Pophale) SiO2 
 PCOD9394082
Probable space group: P C C M
;
_chemical_formula_sum "Si O2"
_cell_formula_units_Z 64
_cell_length_a 17.929667
_cell_length_b 10.217461
_cell_length_c 18.892825
_cell_angle_alpha 90.000000
_cell_angle_beta 90.000000
_cell_angle_gamma 90.000000
_cell_volume 3461.083797
_symmetry_space_group_name_H-M "P C C M"
_symmetry_group_IT_number 49
_symmetry_cell_setting 'orthorhombic'
loop_
_space_group_symop_operation_xyz
x,y,z
-x,-y,z
x,-y,1/2-z
-x,y,1/2-z
-x,-y,-z
x,y,-z
-x,y,1/2+z
x,-y,1/2+z
loop_
_atom_site_type_symbol
_atom_site_label
_atom_site_fract_x
_atom_site_fract_y
_atom_site_fract_z
Si Si1 0.917896 0.985469 0.368903
Si Si2 0.918388 0.777590 0.759338
Si Si3 0.764159 0.114219 0.919531
Si Si4 0.433986 0.397185 0.584891
Si Si5 0.693345 0.841656 0.914959
Si Si6 0.523991 0.142378 0.414234
Si Si7 0.719304 0.372784 0.163739
Si Si8 0.227015 0.645809 0.312315
O O1 0.914695 0.870469 0.309726
O O2 0.846804 0.949333 0.415535
O O3 0.912179 0.119661 0.324426
O O4 0.000000 0.000000 0.403090
O O5 0.850518 0.681508 0.774125
O O6 0.000000 0.714498 0.750000
O O7 0.751244 0.241272 0.871771
O O8 0.711010 0.993492 0.898933
O O9 0.747035 0.152254 0.000000
O O10 0.500000 0.500000 0.600429
O O11 0.419971 0.404560 0.500000
O O12 0.465289 0.254001 0.603505
O O13 0.357811 0.414242 0.627136
O O14 0.607683 0.816975 0.894201
O O15 0.748373 0.748611 0.871634
O O16 0.701869 0.823820 0.000000
O O17 0.525653 0.134890 0.500000
O O18 0.500000 0.000000 0.387388
O O19 0.713597 0.348738 0.247839
O O20 0.772394 0.499617 0.157100
#
# Coordination Sequence:
#
# PCOD9394082 Si02
#       8
#     8   8   8   8   8   8   8   8
#     4   9  17  32  58  89 115 145 190 237 286 343
#     4   9  17  34  62  86 113 150 196 239 283 340
#     4  11  21  35  58  87 121 155 189 241 301 356
#     4  10  20  37  60  81 109 156 204 246 294 353
#     4  10  21  36  59  88 113 149 199 248 298 354
#     4   9  17  32  53  78 109 144 189 238 287 346
#     4  11  24  37  54  86 120 151 200 243 301 353
#     4  11  22  39  59  84 116 157 196 244 298 349
#
# _framework density 18.491318
#
# number of rings (size 3 to 8) (size 9 to 14) (size 15 to 20)
#    0.000    2.000    2.500    2.625    0.000    4.750 
#    0.000    5.625    0.000    0.750    0.000    3.500 
#    0.000    0.000    0.000    0.000    0.000    0.000 
#
# Total GULP energy -356701.931503 kJ/mol
# GULP energy per Si atom -5573.467680 kJ/mol
# Density = 1.844923 g / cm^3
# Si number density = 18.491318 Si / 1000 Ang^3
#
#
#
# Elastic Constant Matrix: (Units=GPa)
#
#
# Indices 1 2 3 4 5 6 
#
# 1 108.8938 33.0631 20.0801 0.0000 0.0000 0.0000
# 2 33.0631 90.5696 40.3927 0.0000 0.0000 0.0000
# 3 20.0801 40.3927 44.0976 0.0000 0.0000 0.0000
# 4 0.0000 0.0000 0.0000 21.0660 0.0000 0.0000
# 5 0.0000 0.0000 0.0000 0.0000 25.9099 0.0000
# 6 0.0000 0.0000 0.0000 0.0000 0.0000 26.9152
#
#
#
# Elastic Compliance Matrix: (Units=1/GPa)
#
#
# Indices 1 2 3 4 5 6 
#
# 1 0.010446 -0.002861 -0.002136 0.000000 0.000000 0.000000
# 2 -0.002861 0.019450 -0.016514 0.000000 0.000000 0.000000
# 3 -0.002136 -0.016514 0.038776 0.000000 0.000000 0.000000
# 4 0.000000 0.000000 0.000000 0.047470 0.000000 0.000000
# 5 0.000000 0.000000 0.000000 0.000000 0.038595 0.000000
# 6 0.000000 0.000000 0.000000 0.000000 0.000000 0.037154
#
#
# Mechanical properties :
#
#
# Convention : Reuss Voigt Hill
#
# Bulk Modulus (GPa) = 38.98472 47.84809 43.41640
# Shear Modulus (GPa) = 20.53707 24.77988 22.65847
#
# Velocity S-wave (km/s) = 3.33623 3.66468 3.50431
# Velocity P-wave (km/s) = 5.99742 6.62108 6.31695
#
# Compressibility (1/GPa) = 0.02565108
#
# Stress axis : x y z
#
# Youngs Moduli (GPa) = 95.73290 51.41306 25.78919
#
# Poissons Ratio (x) = 0.14707 0.05509
# Poissons Ratio (y) = 0.27385 0.42587
# Poissons Ratio (z) = 0.20452 0.84901
#
# Static dielectric constant tensor:
#      x y z
#    x 1.679640 0.000000 0.000000 
#    y 0.000000 1.644710 0.000000 
#    z 0.000000 0.000000 1.624430 
# 
# From -- ./inp_files/21090.got.cif
#   From: 2010.05.17/outbox.cif.g08.bks.cpg/sg49_11_cif.got.tgz:21090.got - 2010.06.03 21:02:19.
