data_PCOD9394390
_publ_section_title
;
Structure prediction by ZEFSAII (Michael W. Deem and Ramdas Pophale) SiO2 
 PCOD9394390
Probable space group: P C C M
;
_chemical_formula_sum "Si O2"
_cell_formula_units_Z 38
_cell_length_a 11.237350
_cell_length_b 6.488815
_cell_length_c 28.454899
_cell_angle_alpha 90.000000
_cell_angle_beta 90.000000
_cell_angle_gamma 90.000000
_cell_volume 2074.848296
_symmetry_space_group_name_H-M "P C C M"
_symmetry_group_IT_number 49
_symmetry_cell_setting 'orthorhombic'
loop_
_space_group_symop_operation_xyz
x,y,z
-x,-y,z
x,-y,1/2-z
-x,y,1/2-z
-x,-y,-z
x,y,-z
-x,y,1/2+z
x,-y,1/2+z
loop_
_atom_site_type_symbol
_atom_site_label
_atom_site_fract_x
_atom_site_fract_y
_atom_site_fract_z
Si Si1 0.000000 0.500000 0.601816
Si Si2 0.796975 0.790329 0.120787
Si Si3 0.360201 0.496771 0.054613
Si Si4 0.500000 0.500000 0.250000
Si Si5 0.168286 0.169741 0.554295
Si Si6 0.618394 0.880199 0.202016
O O1 0.093394 0.636920 0.630981
O O2 0.074492 0.344656 0.569112
O O3 0.705451 0.660009 0.088874
O O4 0.724839 0.870594 0.165493
O O5 0.841541 0.978917 0.089058
O O6 0.500000 0.500000 0.064127
O O7 0.296830 0.718856 0.059743
O O8 0.342057 0.434859 0.000000
O O9 0.577940 0.651723 0.217637
O O10 0.152387 0.109778 0.500000
O O11 0.500000 0.000000 0.183592
O O12 0.650746 0.000000 0.250000
#
# Coordination Sequence:
#
# PCOD9394390 Si02
#       6
#     4   8   8   2   8   8
#     4  10  23  38  54  83 110 158 202 237 275 346
#     4  11  22  35  60  83 117 151 194 237 290 340
#     4   9  20  34  50  83 123 157 193 229 281 348
#     4   8  18  40  60  80 118 144 170 232 298 342
#     4  10  21  37  57  81 115 157 198 241 281 331
#     4   9  21  37  60  90 112 141 189 239 296 359
#
# _framework density 18.314592999999999
#
# number of rings (size 3 to 8) (size 9 to 14) (size 15 to 20)
#    0.000    2.526    0.000    1.579    4.421    8.421 
#    0.000    3.158    0.000    9.474    0.000    0.000 
#    0.000    0.000    0.000    0.000    0.000    0.000 
#
# Total GULP energy -212088.567065 kJ/mol
# GULP energy per Si atom -5581.278081 kJ/mol
# Density = 1.827291 g / cm^3
# Si number density = 18.314593 Si / 1000 Ang^3
#
#
#
# Elastic Constant Matrix: (Units=GPa)
#
#
# Indices 1 2 3 4 5 6 
#
# 1 119.2881 45.3149 55.4721 0.0000 0.0000 0.0000
# 2 45.3149 108.0640 54.0407 0.0000 0.0000 0.0000
# 3 55.4721 54.0407 77.9772 0.0000 0.0000 0.0000
# 4 0.0000 0.0000 0.0000 15.6071 0.0000 0.0000
# 5 0.0000 0.0000 0.0000 0.0000 15.5157 0.0000
# 6 0.0000 0.0000 0.0000 0.0000 0.0000 16.7093
#
#
#
# Elastic Compliance Matrix: (Units=1/GPa)
#
#
# Indices 1 2 3 4 5 6 
#
# 1 0.012633 -0.001229 -0.008135 0.000000 0.000000 0.000000
# 2 -0.001229 0.014282 -0.009023 0.000000 0.000000 0.000000
# 3 -0.008135 -0.009023 0.024865 0.000000 0.000000 0.000000
# 4 0.000000 0.000000 0.000000 0.064074 0.000000 0.000000
# 5 0.000000 0.000000 0.000000 0.000000 0.064451 0.000000
# 6 0.000000 0.000000 0.000000 0.000000 0.000000 0.059847
#
#
# Mechanical properties :
#
#
# Convention : Reuss Voigt Hill
#
# Bulk Modulus (GPa) = 66.64678 68.33165 67.48922
# Shear Modulus (GPa) = 17.73508 19.59985 18.66747
#
# Velocity S-wave (km/s) = 3.11522 3.27490 3.19606
# Velocity P-wave (km/s) = 7.02912 7.18964 7.10983
#
# Compressibility (1/GPa) = 0.01500447
#
# Stress axis : x y z
#
# Youngs Moduli (GPa) = 79.15727 70.02063 40.21754
#
# Poissons Ratio (x) = 0.08607 0.32717
# Poissons Ratio (y) = 0.09731 0.36289
# Poissons Ratio (z) = 0.64395 0.63180
#
# Static dielectric constant tensor:
#      x y z
#    x 1.643790 0.000000 0.000000 
#    y 0.000000 1.635520 0.000000 
#    z 0.000000 0.000000 1.604460 
# 
# From -- ./inp_files/23778.got.cif
#   From: 2010.05.17/outbox.cif.g08.bks.cpg/sg49_12_cif.got.tgz:23778.got - 2010.06.03 21:02:19.
