data_PCOD9394774
_publ_section_title
;
Structure prediction by ZEFSAII (Michael W. Deem and Ramdas Pophale) SiO2 
 PCOD9394774
Probable space group: P C C M
;
_chemical_formula_sum "Si O2"
_cell_formula_units_Z 48
_cell_length_a 27.346715
_cell_length_b 5.097881
_cell_length_c 16.649281
_cell_angle_alpha 90.000000
_cell_angle_beta 90.000000
_cell_angle_gamma 90.000000
_cell_volume 2321.081239
_symmetry_space_group_name_H-M "P C C M"
_symmetry_group_IT_number 49
_symmetry_cell_setting 'orthorhombic'
loop_
_space_group_symop_operation_xyz
x,y,z
-x,-y,z
x,-y,1/2-z
-x,y,1/2-z
-x,-y,-z
x,y,-z
-x,y,1/2+z
x,-y,1/2+z
loop_
_atom_site_type_symbol
_atom_site_label
_atom_site_fract_x
_atom_site_fract_y
_atom_site_fract_z
Si Si1 0.275317 0.073442 0.093488
Si Si2 0.780350 0.439342 0.156271
Si Si3 0.532973 0.758028 0.906646
Si Si4 0.942497 0.057194 0.343230
Si Si5 0.630397 0.751823 0.805505
Si Si6 0.110439 0.434012 0.593419
O O1 0.238736 0.316149 0.104691
O O2 0.324082 0.164556 0.139289
O O3 0.250227 0.818468 0.132574
O O4 0.285054 0.021465 0.000000
O O5 0.773030 0.500000 0.250000
O O6 0.837575 0.413657 0.137479
O O7 0.500000 0.500000 0.903784
O O8 0.582334 0.706640 0.858488
O O9 0.500000 0.000000 0.875855
O O10 0.545204 0.816461 0.000000
O O11 0.924437 0.346675 0.366564
O O12 0.930358 0.000000 0.250000
O O13 0.914456 0.847802 0.397363
O O14 0.000000 0.000000 0.353083
O O15 0.641541 0.500000 0.750000
O O16 0.619805 0.000000 0.750000
O O17 0.117802 0.499440 0.500000
#
# Coordination Sequence:
#
# PCOD9394774 Si02
#       6
#     8   8   8   8   8   8
#     4  12  25  44  67  94 128 167 213 263 320 382
#     4  12  25  44  68  94 128 167 211 263 320 381
#     4  10  22  41  64  91 126 168 213 262 319 381
#     4  11  24  43  66  93 128 170 214 261 317 379
#     4  12  25  41  64  94 129 167 212 263 320 382
#     4  12  25  42  65  96 130 166 212 262 318 380
#
# _framework density 20.680018
#
# number of rings (size 3 to 8) (size 9 to 14) (size 15 to 20)
#    0.000    0.500    0.000    9.500    0.000    5.333 
#    0.000    5.000    0.000    0.000    0.000    0.000 
#    0.000    0.000    0.000    0.000    0.000    0.000 
#
# Total GULP energy -268793.734842 kJ/mol
# GULP energy per Si atom -5599.869476 kJ/mol
# Density = 2.063295 g / cm^3
# Si number density = 20.680018 Si / 1000 Ang^3
#
#
#
# Elastic Constant Matrix: (Units=GPa)
#
#
# Indices 1 2 3 4 5 6 
#
# 1 108.7103 25.6851 67.0324 0.0000 0.0000 0.0000
# 2 25.6851 108.7565 32.8413 0.0000 0.0000 0.0000
# 3 67.0324 32.8413 105.6793 0.0000 0.0000 0.0000
# 4 0.0000 0.0000 0.0000 62.6615 0.0000 0.0000
# 5 0.0000 0.0000 0.0000 0.0000 22.1286 0.0000
# 6 0.0000 0.0000 0.0000 0.0000 0.0000 34.3064
#
#
#
# Elastic Compliance Matrix: (Units=1/GPa)
#
#
# Indices 1 2 3 4 5 6 
#
# 1 0.015162 -0.000747 -0.009385 0.000000 0.000000 0.000000
# 2 -0.000747 0.010184 -0.002691 0.000000 0.000000 0.000000
# 3 -0.009385 -0.002691 0.016252 0.000000 0.000000 0.000000
# 4 0.000000 0.000000 0.000000 0.015959 0.000000 0.000000
# 5 0.000000 0.000000 0.000000 0.000000 0.045190 0.000000
# 6 0.000000 0.000000 0.000000 0.000000 0.000000 0.029149
#
#
# Mechanical properties :
#
#
# Convention : Reuss Voigt Hill
#
# Bulk Modulus (GPa) = 62.68924 63.80708 63.24816
# Shear Modulus (GPa) = 30.70111 36.99178 33.84644
#
# Velocity S-wave (km/s) = 3.85720 4.23397 4.04997
# Velocity P-wave (km/s) = 7.08640 7.40429 7.24709
#
# Compressibility (1/GPa) = 0.01595170
#
# Stress axis : x y z
#
# Youngs Moduli (GPa) = 65.95257 98.19466 61.53059
#
# Poissons Ratio (x) = 0.07333 0.57749
# Poissons Ratio (y) = 0.04925 0.16558
# Poissons Ratio (z) = 0.61899 0.26425
#
# Static dielectric constant tensor:
#      x y z
#    x 1.721400 0.000000 0.000000 
#    y 0.000000 1.697820 0.000000 
#    z 0.000000 0.000000 1.718150 
# 
# From -- ./inp_files/14586.got.cif
#   From: 2010.05.17/outbox.cif.g08.bks.cpg/sg49_8_cif.got.tgz:14586.got - 2010.06.03 21:02:19.
