data_PCOD9394910
_publ_section_title
;
Structure prediction by ZEFSAII (Michael W. Deem and Ramdas Pophale) SiO2 
 PCOD9394910
Probable space group: P C C M
;
_chemical_formula_sum "Si O2"
_cell_formula_units_Z 38
_cell_length_a 8.016589
_cell_length_b 23.480882
_cell_length_c 10.380578
_cell_angle_alpha 90.000000
_cell_angle_beta 90.000000
_cell_angle_gamma 90.000000
_cell_volume 1954.004505
_symmetry_space_group_name_H-M "P C C M"
_symmetry_group_IT_number 49
_symmetry_cell_setting 'orthorhombic'
loop_
_space_group_symop_operation_xyz
x,y,z
-x,-y,z
x,-y,1/2-z
-x,y,1/2-z
-x,-y,-z
x,y,-z
-x,y,1/2+z
x,-y,1/2+z
loop_
_atom_site_type_symbol
_atom_site_label
_atom_site_fract_x
_atom_site_fract_y
_atom_site_fract_z
Si Si1 0.700702 0.065710 0.750000
Si Si2 0.305415 0.263449 0.000000
Si Si3 0.805389 0.135910 0.500000
Si Si4 0.194611 0.864091 0.000000
Si Si5 0.810391 0.671275 0.250000
Si Si6 0.694586 0.263449 0.000000
Si Si7 0.500000 0.500000 0.000000
Si Si8 0.500000 0.584960 0.250000
O O1 0.500000 0.066004 0.750000
O O2 0.762434 0.098772 0.624638
O O3 0.756989 0.000000 0.750000
O O4 0.762434 0.098772 0.875362
O O5 0.219282 0.289704 0.874675
O O6 0.291731 0.195402 0.000000
O O7 0.500000 0.279982 0.000000
O O8 1.000000 0.150284 0.500000
O O9 0.291731 0.804599 0.000000
O O10 0.780719 0.710296 0.374675
O O11 0.667628 0.623251 0.250000
O O12 0.000000 0.648606 0.250000
O O13 0.500000 0.451125 0.882951
#
# Coordination Sequence:
#
# PCOD9394910 Si02
#       8
#     8   4   4   4   8   4   2   4
#     4  11  24  43  63  84 114 162 214 263 323 393
#     4  12  23  42  64  95 131 172 212 262 330 393
#     4  12  25  40  61  92 126 159 206 266 327 388
#     4  12  25  40  61  92 126 159 206 266 327 388
#     4  12  24  42  69 100 136 174 221 267 322 387
#     4  12  23  42  64  95 131 172 212 262 330 393
#     4  10  24  42  74  94 140 180 224 262 316 370
#     4  11  22  46  66 102 134 182 215 270 316 366
#
# _framework density 19.447243
#
# number of rings (size 3 to 8) (size 9 to 14) (size 15 to 20)
#    0.000    0.421    2.105    7.579    0.000    4.211 
#    0.000    3.158    0.000    0.000    0.000    0.000 
#    0.000    0.000    0.000    0.000    0.000    0.000 
#
# Total GULP energy -212112.226786 kJ/mol
# GULP energy per Si atom -5581.900705 kJ/mol
# Density = 1.940298 g / cm^3
# Si number density = 19.447243 Si / 1000 Ang^3
#
#
#
# Elastic Constant Matrix: (Units=GPa)
#
#
# Indices 1 2 3 4 5 6 
#
# 1 127.2173 32.4230 27.2303 0.0000 0.0000 0.0000
# 2 32.4230 140.7710 79.9542 0.0000 0.0000 0.0000
# 3 27.2303 79.9542 218.0459 0.0000 0.0000 0.0000
# 4 0.0000 0.0000 0.0000 37.3734 0.0000 0.0000
# 5 0.0000 0.0000 0.0000 0.0000 48.6470 0.0000
# 6 0.0000 0.0000 0.0000 0.0000 0.0000 9.9323
#
#
#
# Elastic Compliance Matrix: (Units=1/GPa)
#
#
# Indices 1 2 3 4 5 6 
#
# 1 0.008382 -0.001688 -0.000428 0.000000 0.000000 0.000000
# 2 -0.001688 0.009312 -0.003204 0.000000 0.000000 0.000000
# 3 -0.000428 -0.003204 0.005814 0.000000 0.000000 0.000000
# 4 0.000000 0.000000 0.000000 0.026757 0.000000 0.000000
# 5 0.000000 0.000000 0.000000 0.000000 0.020556 0.000000
# 6 0.000000 0.000000 0.000000 0.000000 0.000000 0.100682
#
#
# Mechanical properties :
#
#
# Convention : Reuss Voigt Hill
#
# Bulk Modulus (GPa) = 77.70006 85.02769 81.36387
# Shear Modulus (GPa) = 26.81928 42.28564 34.55246
#
# Velocity S-wave (km/s) = 3.71762 4.66808 4.21970
# Velocity P-wave (km/s) = 7.64648 8.53650 8.10372
#
# Compressibility (1/GPa) = 0.01287000
#
# Stress axis : x y z
#
# Youngs Moduli (GPa) = 119.29941 107.38675 171.98516
#
# Poissons Ratio (x) = 0.18122 0.07361
# Poissons Ratio (y) = 0.20132 0.55102
# Poissons Ratio (z) = 0.05106 0.34405
#
# Static dielectric constant tensor:
#      x y z
#    x 1.686590 0.000000 0.000000 
#    y 0.000000 1.652110 0.000000 
#    z 0.000000 0.000000 0.926280 
# 
# From -- ./inp_files/1861.got.cif
#   From: 2010.05.17/outbox.cif.g08.bks.cpg/sg49_1_cif.got.tgz:1861.got - 2010.06.03 21:02:19.
