data_PCOD9394641
_publ_section_title
;
Structure prediction by ZEFSAII (Michael W. Deem and Ramdas Pophale) SiO2 
 PCOD9394641
Probable space group: P C C M
;
_chemical_formula_sum "Si O2"
_cell_formula_units_Z 56
_cell_length_a 11.338048
_cell_length_b 11.453608
_cell_length_c 21.649746
_cell_angle_alpha 90.000000
_cell_angle_beta 90.000000
_cell_angle_gamma 90.000000
_cell_volume 2811.469730
_symmetry_space_group_name_H-M "P C C M"
_symmetry_group_IT_number 49
_symmetry_cell_setting 'orthorhombic'
loop_
_space_group_symop_operation_xyz
x,y,z
-x,-y,z
x,-y,1/2-z
-x,y,1/2-z
-x,-y,-z
x,y,-z
-x,y,1/2+z
x,-y,1/2+z
loop_
_atom_site_type_symbol
_atom_site_label
_atom_site_fract_x
_atom_site_fract_y
_atom_site_fract_z
Si Si1 0.808006 0.180121 0.431049
Si Si2 0.405528 0.339574 0.903205
Si Si3 0.667977 0.395225 0.068406
Si Si4 0.180147 0.266111 0.669167
Si Si5 0.055023 0.622375 0.366731
Si Si6 0.712984 0.619823 0.216534
Si Si7 0.858088 0.004206 0.822830
O O1 0.828621 0.130506 0.500000
O O2 0.679424 0.240265 0.428989
O O3 0.899679 0.286286 0.417811
O O4 0.817822 0.093925 0.372016
O O5 0.356211 0.466809 0.923319
O O6 0.540251 0.335424 0.923090
O O7 0.388852 0.339202 0.829304
O O8 0.755498 0.343958 0.118267
O O9 0.713906 0.374596 0.000000
O O10 0.248065 0.287313 0.732850
O O11 0.179959 0.130786 0.652870
O O12 0.046380 0.312967 0.672631
O O13 0.169330 0.597911 0.324427
O O14 0.000000 0.500000 0.388965
O O15 0.680013 0.500000 0.250000
O O16 0.821252 0.000000 0.750000
O O17 0.000000 0.000000 0.822312
#
# Coordination Sequence:
#
# PCOD9394641 Si02
#       7
#     8   8   8   8   8   8   8
#     4  11  23  41  64  91 123 168 218 263 313 380
#     4  10  21  41  64  92 123 164 206 257 319 379
#     4  11  23  40  63  90 127 167 203 255 319 383
#     4  12  23  38  59  94 124 163 207 259 314 374
#     4  11  21  34  58  93 130 163 195 254 325 386
#     4  11  20  35  61  94 128 156 205 255 313 385
#     4  11  24  43  64  87 123 170 216 261 316 379
#
# _framework density 19.918407999999999
#
# number of rings (size 3 to 8) (size 9 to 14) (size 15 to 20)
#    0.000    1.000    4.286    4.714    2.000    2.286 
#    0.000    0.714    0.000    2.571    0.000    0.000 
#    0.000    0.000    0.000    0.000    0.000    0.000 
#
# Total GULP energy -312862.074243 kJ/mol
# GULP energy per Si atom -5586.822754 kJ/mol
# Density = 1.987307 g / cm^3
# Si number density = 19.918408 Si / 1000 Ang^3
#
#
#
# Elastic Constant Matrix: (Units=GPa)
#
#
# Indices 1 2 3 4 5 6 
#
# 1 26.3555 16.0123 20.2627 0.0000 0.0000 0.0000
# 2 16.0123 93.9622 26.1682 0.0000 0.0000 0.0000
# 3 20.2627 26.1682 128.7909 0.0000 0.0000 0.0000
# 4 0.0000 0.0000 0.0000 -4.5668 0.0000 0.0000
# 5 0.0000 0.0000 0.0000 0.0000 2.0953 0.0000
# 6 0.0000 0.0000 0.0000 0.0000 0.0000 18.0418
#
#
#
# Elastic Compliance Matrix: (Units=1/GPa)
#
#
# Indices 1 2 3 4 5 6 
#
# 1 0.046358 -0.006221 -0.006030 0.000000 0.000000 0.000000
# 2 -0.006221 0.012116 -0.001483 0.000000 0.000000 0.000000
# 3 -0.006030 -0.001483 0.009014 0.000000 0.000000 0.000000
# 4 0.000000 0.000000 0.000000 -0.218970 0.000000 0.000000
# 5 0.000000 0.000000 0.000000 0.000000 0.477248 0.000000
# 6 0.000000 0.000000 0.000000 0.000000 0.000000 0.055427
#
#
# Mechanical properties :
#
#
# Convention : Reuss Voigt Hill
#
# Bulk Modulus (GPa) = 24.98664 41.55499 33.27082
# Shear Modulus (GPa) = 11.84835 15.55843 13.70339
#
# Velocity S-wave (km/s) = 2.44159 2.79786 2.62578
# Velocity P-wave (km/s) = 4.52992 5.59869 5.09242
#
# Compressibility (1/GPa) = 0.04002139
#
# Stress axis : x y z
#
# Youngs Moduli (GPa) = 21.57140 82.53780 110.93275
#
# Poissons Ratio (x) = 0.51344 0.66887
# Poissons Ratio (y) = 0.13419 0.16451
# Poissons Ratio (z) = 0.13007 0.12240
#
# Static dielectric constant tensor:
#      x y z
#    x 1.691430 0.000000 0.000000 
#    y 0.000000 1.706550 0.000000 
#    z 0.000000 0.000000 1.734810 
# 
# From -- ./inp_files/20494.got.cif
#   From: 2010.05.17/outbox.cif.g08.bks.cpg/sg49_11_cif.got.tgz:20494.got - 2010.06.03 21:02:19.
