data_PCOD9394010
_publ_section_title
;
Structure prediction by ZEFSAII (Michael W. Deem and Ramdas Pophale) SiO2 
 PCOD9394010
Probable space group: P C C M
;
_chemical_formula_sum "Si O2"
_cell_formula_units_Z 48
_cell_length_a 12.444830
_cell_length_b 12.026017
_cell_length_c 14.821727
_cell_angle_alpha 90.000000
_cell_angle_beta 90.000000
_cell_angle_gamma 90.000000
_cell_volume 2218.245410
_symmetry_space_group_name_H-M "P C C M"
_symmetry_group_IT_number 49
_symmetry_cell_setting 'orthorhombic'
loop_
_space_group_symop_operation_xyz
x,y,z
-x,-y,z
x,-y,1/2-z
-x,y,1/2-z
-x,-y,-z
x,y,-z
-x,y,1/2+z
x,-y,1/2+z
loop_
_atom_site_type_symbol
_atom_site_label
_atom_site_fract_x
_atom_site_fract_y
_atom_site_fract_z
Si Si1 0.596620 0.580808 0.889493
Si Si2 0.668417 0.952767 0.389572
Si Si3 0.907078 0.077234 0.102952
Si Si4 0.458036 0.827840 0.610216
Si Si5 0.833654 0.516526 0.105865
Si Si6 0.981323 0.685142 0.350844
O O1 0.500000 0.500000 0.862306
O O2 0.574512 0.706151 0.858721
O O3 0.714248 0.540339 0.860710
O O4 0.598438 0.581770 0.000000
O O5 0.668454 0.947126 0.500000
O O6 0.788197 0.930455 0.355788
O O7 0.577061 0.865371 0.360315
O O8 0.624389 0.074493 0.364262
O O9 0.944135 0.204885 0.099033
O O10 0.893551 0.035170 0.000000
O O11 0.000000 0.000000 0.143907
O O12 0.458712 0.825883 0.500000
O O13 0.892014 0.412035 0.151164
O O14 0.911559 0.623436 0.114392
O O15 0.828450 0.487775 0.000000
O O16 0.000000 0.723844 0.250000
#
# Coordination Sequence:
#
# PCOD9394010 Si02
#       6
#     8   8   8   8   8   8
#     4   9  18  28  47  82 116 139 169 225 285 333
#     4   8  15  27  46  73 107 144 172 214 273 327
#     4  10  21  34  55  85 113 140 183 236 280 324
#     4   8  14  26  44  71 110 144 170 208 273 335
#     4  10  20  36  60  85 110 142 186 234 281 325
#     4  11  23  39  57  77 111 151 191 226 279 338
#
# _framework density 21.638725000000001
#
# number of rings (size 3 to 8) (size 9 to 14) (size 15 to 20)
#    0.000    2.667    0.000    4.000    4.667    0.333 
#    0.000    0.000    0.000    2.000    0.000    0.000 
#    0.000    0.000    0.000    0.000    0.000    0.000 
#
# Total GULP energy -268050.926639 kJ/mol
# GULP energy per Si atom -5584.394305 kJ/mol
# Density = 2.158947 g / cm^3
# Si number density = 21.638725 Si / 1000 Ang^3
#
#
#
# Elastic Constant Matrix: (Units=GPa)
#
#
# Indices 1 2 3 4 5 6 
#
# 1 216.5028 91.7526 -1.8465 0.0000 0.0000 0.0000
# 2 91.7526 116.4062 -9.1803 0.0000 0.0000 0.0000
# 3 -1.8465 -9.1803 42.8433 0.0000 0.0000 0.0000
# 4 0.0000 0.0000 0.0000 2.2769 0.0000 0.0000
# 5 0.0000 0.0000 0.0000 0.0000 19.2761 0.0000
# 6 0.0000 0.0000 0.0000 0.0000 0.0000 14.3564
#
#
#
# Elastic Compliance Matrix: (Units=1/GPa)
#
#
# Indices 1 2 3 4 5 6 
#
# 1 0.006969 -0.005563 -0.000892 0.000000 0.000000 0.000000
# 2 -0.005563 0.013180 0.002584 0.000000 0.000000 0.000000
# 3 -0.000892 0.002584 0.023856 0.000000 0.000000 0.000000
# 4 0.000000 0.000000 0.000000 0.439185 0.000000 0.000000
# 5 0.000000 0.000000 0.000000 0.000000 0.051878 0.000000
# 6 0.000000 0.000000 0.000000 0.000000 0.000000 0.069655
#
#
# Mechanical properties :
#
#
# Convention : Reuss Voigt Hill
#
# Bulk Modulus (GPa) = 27.57629 59.68933 43.63281
# Shear Modulus (GPa) = 8.00574 26.85031 17.42803
#
# Velocity S-wave (km/s) = 1.92555 3.52639 2.84105
# Velocity P-wave (km/s) = 4.20895 6.65018 5.56508
#
# Compressibility (1/GPa) = 0.03626304
#
# Stress axis : x y z
#
# Youngs Moduli (GPa) = 143.49276 75.87531 41.91786
#
# Poissons Ratio (x) = 0.42212 0.03738
# Poissons Ratio (y) = 0.79830 -0.10833
# Poissons Ratio (z) = 0.12796 -0.19608
#
# Static dielectric constant tensor:
#      x y z
#    x 1.780230 0.000000 0.000000 
#    y 0.000000 1.767550 0.000000 
#    z 0.000000 0.000000 1.838630 
# 
# From -- ./inp_files/17090.got.cif
#   From: 2010.05.17/outbox.cif.g08.bks.cpg/sg49_9_cif.got.tgz:17090.got - 2010.06.03 21:02:19.
