data_PCOD9394906
_publ_section_title
;
Structure prediction by ZEFSAII (Michael W. Deem and Ramdas Pophale) SiO2 
 PCOD9394906
Probable space group: P C C M
;
_chemical_formula_sum "Si O2"
_cell_formula_units_Z 48
_cell_length_a 8.626516
_cell_length_b 15.066745
_cell_length_c 17.416126
_cell_angle_alpha 90.000000
_cell_angle_beta 90.000000
_cell_angle_gamma 90.000000
_cell_volume 2263.635145
_symmetry_space_group_name_H-M "P C C M"
_symmetry_group_IT_number 49
_symmetry_cell_setting 'orthorhombic'
loop_
_space_group_symop_operation_xyz
x,y,z
-x,-y,z
x,-y,1/2-z
-x,y,1/2-z
-x,-y,-z
x,y,-z
-x,y,1/2+z
x,-y,1/2+z
loop_
_atom_site_type_symbol
_atom_site_label
_atom_site_fract_x
_atom_site_fract_y
_atom_site_fract_z
Si Si1 0.915231 0.350735 0.500000
Si Si2 0.670554 0.246427 0.774378
Si Si3 0.822345 0.792892 0.882778
Si Si4 0.673729 0.971519 0.089288
Si Si5 0.209272 0.450548 0.500000
Si Si6 0.664227 0.549758 0.324987
Si Si7 0.897786 0.104842 0.829949
O O1 0.847996 0.294898 0.569476
O O2 0.862872 0.451339 0.500000
O O3 0.099252 0.363756 0.500000
O O4 0.500000 0.215694 0.750000
O O5 0.780458 0.242689 0.700493
O O6 0.656432 0.346233 0.804463
O O7 0.757442 0.175462 0.826517
O O8 0.693006 0.864969 0.905804
O O9 0.978808 0.850768 0.886768
O O10 0.500000 0.000000 0.113222
O O11 0.808417 0.016982 0.141194
O O12 0.695296 0.998146 0.000000
O O13 0.281440 0.451237 0.413888
O O14 0.500000 0.500000 0.328010
O O15 0.744670 0.500000 0.250000
O O16 0.000000 0.096918 0.750000
#
# Coordination Sequence:
#
# PCOD9394906 Si02
#       7
#     4   8   8   8   4   8   8
#     4  11  24  42  64  98 135 180 228 294 343 438
#     4  11  22  41  66 100 137 179 237 293 350 426
#     4  11  23  42  69  96 139 186 231 285 357 425
#     4  11  24  44  68 103 143 181 232 295 361 425
#     4  11  25  44  66 102 141 183 237 291 372 422
#     4  11  22  43  69  99 138 181 235 294 359 428
#     4  10  24  42  65  98 135 184 232 281 350 424
#
# _framework density 21.204830999999999
#
# number of rings (size 3 to 8) (size 9 to 14) (size 15 to 20)
#    0.000    1.167    2.500    3.750    1.167    5.333 
#    1.500    9.167    0.000    0.000    0.000    0.000 
#    0.000    0.000    0.000    0.000    0.000    0.000 
#
# Total GULP energy -267366.833923 kJ/mol
# GULP energy per Si atom -5570.142373 kJ/mol
# Density = 2.115657 g / cm^3
# Si number density = 21.204831 Si / 1000 Ang^3
#
#
#
# Elastic Constant Matrix: (Units=GPa)
#
#
# Indices 1 2 3 4 5 6 
#
# 1 89.4200 53.7277 30.1213 0.0000 0.0000 0.0000
# 2 53.7277 146.7218 25.9761 0.0000 0.0000 0.0000
# 3 30.1213 25.9761 92.8196 0.0000 0.0000 0.0000
# 4 0.0000 0.0000 0.0000 40.9473 0.0000 0.0000
# 5 0.0000 0.0000 0.0000 0.0000 19.4741 0.0000
# 6 0.0000 0.0000 0.0000 0.0000 0.0000 30.7027
#
#
#
# Elastic Compliance Matrix: (Units=1/GPa)
#
#
# Indices 1 2 3 4 5 6 
#
# 1 0.015401 -0.005003 -0.003598 0.000000 0.000000 0.000000
# 2 -0.005003 0.008796 -0.000838 0.000000 0.000000 0.000000
# 3 -0.003598 -0.000838 0.012176 0.000000 0.000000 0.000000
# 4 0.000000 0.000000 0.000000 0.024422 0.000000 0.000000
# 5 0.000000 0.000000 0.000000 0.000000 0.051350 0.000000
# 6 0.000000 0.000000 0.000000 0.000000 0.000000 0.032570
#
#
# Mechanical properties :
#
#
# Convention : Reuss Voigt Hill
#
# Bulk Modulus (GPa) = 57.15818 60.95684 59.05751
# Shear Modulus (GPa) = 29.51181 32.83393 31.17287
#
# Velocity S-wave (km/s) = 3.73466 3.93926 3.83833
# Velocity P-wave (km/s) = 6.75357 7.03559 6.89602
#
# Compressibility (1/GPa) = 0.01749531
#
# Stress axis : x y z
#
# Youngs Moduli (GPa) = 64.93111 113.68904 82.13088
#
# Poissons Ratio (x) = 0.56875 0.29549
# Poissons Ratio (y) = 0.32483 0.06884
# Poissons Ratio (z) = 0.23361 0.09529
#
# Static dielectric constant tensor:
#      x y z
#    x 1.821780 0.000000 0.000000 
#    y 0.000000 1.736990 0.000000 
#    z 0.000000 0.000000 1.531220 
# 
# From -- ./inp_files/16351.got.cif
#   From: 2010.05.17/outbox.cif.g08.bks.cpg/sg49_9_cif.got.tgz:16351.got - 2010.06.03 21:02:19.
