data_PCOD9394813
_publ_section_title
;
Structure prediction by ZEFSAII (Michael W. Deem and Ramdas Pophale) SiO2 
 PCOD9394813
Probable space group: P C C M
;
_chemical_formula_sum "Si O2"
_cell_formula_units_Z 48
_cell_length_a 9.431642
_cell_length_b 13.922338
_cell_length_c 18.576559
_cell_angle_alpha 90.000000
_cell_angle_beta 90.000000
_cell_angle_gamma 90.000000
_cell_volume 2439.297396
_symmetry_space_group_name_H-M "P C C M"
_symmetry_group_IT_number 49
_symmetry_cell_setting 'orthorhombic'
loop_
_space_group_symop_operation_xyz
x,y,z
-x,-y,z
x,-y,1/2-z
-x,y,1/2-z
-x,-y,-z
x,y,-z
-x,y,1/2+z
x,-y,1/2+z
loop_
_atom_site_type_symbol
_atom_site_label
_atom_site_fract_x
_atom_site_fract_y
_atom_site_fract_z
Si Si1 0.190916 0.792437 0.420508
Si Si2 0.833158 0.106406 0.735787
Si Si3 0.988106 0.607118 0.876496
Si Si4 0.529490 0.332561 0.419344
Si Si5 0.300069 0.415696 0.197941
Si Si6 0.269127 0.283956 0.679353
O O1 0.165447 0.838028 0.500000
O O2 0.180350 0.854231 0.346788
O O3 0.085758 0.698916 0.415584
O O4 0.349619 0.749476 0.420962
O O5 0.776861 0.178226 0.797617
O O6 0.000000 0.103411 0.750000
O O7 0.773476 0.000000 0.750000
O O8 0.867344 0.584599 0.817388
O O9 0.000000 0.500000 0.912244
O O10 0.135599 0.649291 0.845545
O O11 0.496776 0.362970 0.500000
O O12 0.609543 0.414508 0.373929
O O13 0.389888 0.296039 0.379598
O O14 0.338921 0.500000 0.250000
O O15 0.328886 0.322196 0.244737
#
# Coordination Sequence:
#
# PCOD9394813 Si02
#       6
#     8   8   8   8   8   8
#     4  10  22  43  64  90 132 172 205 258 328 376
#     4  11  22  41  68 100 124 158 213 268 315 386
#     4  11  21  36  64  95 125 161 216 265 310 369
#     4  10  24  42  60  88 132 171 208 258 319 379
#     4  11  21  37  64  90 119 170 214 257 314 382
#     4  12  21  38  64  93 125 163 212 268 312 370
#
# _framework density 19.677797000000002
#
# number of rings (size 3 to 8) (size 9 to 14) (size 15 to 20)
#    0.000    1.167    6.667    1.000    0.000    2.333 
#    0.000    5.833    0.000    2.000    0.000    0.000 
#    0.000    0.000    0.000    0.000    0.000    0.000 
#
# Total GULP energy -267464.755288 kJ/mol
# GULP energy per Si atom -5572.182402 kJ/mol
# Density = 1.963301 g / cm^3
# Si number density = 19.677797 Si / 1000 Ang^3
#
#
#
# Elastic Constant Matrix: (Units=GPa)
#
#
# Indices 1 2 3 4 5 6 
#
# 1 118.0613 26.5455 54.1938 0.0000 0.0000 0.0000
# 2 26.5455 99.2965 40.1333 0.0000 0.0000 0.0000
# 3 54.1938 40.1333 153.1821 0.0000 0.0000 0.0000
# 4 0.0000 0.0000 0.0000 7.0835 0.0000 0.0000
# 5 0.0000 0.0000 0.0000 0.0000 246.4269 0.0000
# 6 0.0000 0.0000 0.0000 0.0000 0.0000 40.1127
#
#
#
# Elastic Compliance Matrix: (Units=1/GPa)
#
#
# Indices 1 2 3 4 5 6 
#
# 1 0.010291 -0.001431 -0.003266 0.000000 0.000000 0.000000
# 2 -0.001431 0.011463 -0.002497 0.000000 0.000000 0.000000
# 3 -0.003266 -0.002497 0.008338 0.000000 0.000000 0.000000
# 4 0.000000 0.000000 0.000000 0.141174 0.000000 0.000000
# 5 0.000000 0.000000 0.000000 0.000000 0.004058 0.000000
# 6 0.000000 0.000000 0.000000 0.000000 0.000000 0.024930
#
#
# Mechanical properties :
#
#
# Convention : Reuss Voigt Hill
#
# Bulk Modulus (GPa) = 63.67938 68.03167 65.85552
# Shear Modulus (GPa) = 22.74015 75.36911 49.05463
#
# Velocity S-wave (km/s) = 3.40314 6.19554 4.99830
# Velocity P-wave (km/s) = 6.91904 9.26431 8.17620
#
# Compressibility (1/GPa) = 0.01570367
#
# Stress axis : x y z
#
# Youngs Moduli (GPa) = 97.17117 87.24012 119.93614
#
# Poissons Ratio (x) = 0.12486 0.39170
# Poissons Ratio (y) = 0.13907 0.29946
# Poissons Ratio (z) = 0.31735 0.21782
#
# Static dielectric constant tensor:
#      x y z
#    x 1.705550 0.000000 0.000000 
#    y 0.000000 1.792650 0.000000 
#    z 0.000000 0.000000 1.651130 
# 
# From -- ./inp_files/16313.got.cif
#   From: 2010.05.17/outbox.cif.g08.bks.cpg/sg49_9_cif.got.tgz:16313.got - 2010.06.03 21:02:19.
