data_PCOD9394520
_publ_section_title
;
Structure prediction by ZEFSAII (Michael W. Deem and Ramdas Pophale) SiO2 
 PCOD9394520
Probable space group: P C C M
;
_chemical_formula_sum "Si O2"
_cell_formula_units_Z 48
_cell_length_a 16.036601
_cell_length_b 9.650736
_cell_length_c 14.088894
_cell_angle_alpha 90.000000
_cell_angle_beta 90.000000
_cell_angle_gamma 90.000000
_cell_volume 2180.467716
_symmetry_space_group_name_H-M "P C C M"
_symmetry_group_IT_number 49
_symmetry_cell_setting 'orthorhombic'
loop_
_space_group_symop_operation_xyz
x,y,z
-x,-y,z
x,-y,1/2-z
-x,y,1/2-z
-x,-y,-z
x,y,-z
-x,y,1/2+z
x,-y,1/2+z
loop_
_atom_site_type_symbol
_atom_site_label
_atom_site_fract_x
_atom_site_fract_y
_atom_site_fract_z
Si Si1 0.203034 0.822179 0.893230
Si Si2 0.322143 0.310782 0.737431
Si Si3 0.087185 0.053936 0.857497
Si Si4 0.074403 0.594362 0.892803
Si Si5 0.822249 0.323701 0.606341
Si Si6 0.404873 0.550201 0.611073
O O1 0.285510 0.808723 0.830112
O O2 0.167566 0.976107 0.897795
O O3 0.123708 0.729032 0.855428
O O4 0.219465 0.771335 0.000000
O O5 0.244474 0.322254 0.810297
O O6 0.347571 0.431803 0.661954
O O7 0.394963 0.319440 0.816776
O O8 0.086958 0.000000 0.750000
O O9 0.102894 0.216225 0.870415
O O10 0.000000 0.000000 0.898367
O O11 0.145937 0.479586 0.897159
O O12 0.000000 0.500000 0.850354
O O13 0.045675 0.632027 0.000000
O O14 0.792168 0.287707 0.500000
O O15 0.500000 0.500000 0.613845
O O16 0.382894 0.571733 0.500000
#
# Coordination Sequence:
#
# PCOD9394520 Si02
#       6
#     8   8   8   8   8   8
#     4  11  22  37  58  83 117 163 209 258 317 368
#     4  11  20  35  55  86 123 154 191 246 291 356
#     4  11  23  41  59  82 117 169 229 277 316 363
#     4   9  18  32  50  75 105 143 195 252 307 359
#     4  11  22  37  58  83 117 163 209 258 317 368
#     4  10  21  38  63  95 130 166 197 232 295 375
#
# _framework density 22.013625000000001
#
# number of rings (size 3 to 8) (size 9 to 14) (size 15 to 20)
#    0.000    1.500    1.667    5.500    0.000    4.000 
#    0.000    0.833    0.000    0.000    0.000    9.333 
#    0.000   21.333    0.000    0.000    0.000    0.000 
#
# Total GULP energy -267298.153777 kJ/mol
# GULP energy per Si atom -5568.711537 kJ/mol
# Density = 2.196352 g / cm^3
# Si number density = 22.013625 Si / 1000 Ang^3
#
#
#
# Elastic Constant Matrix: (Units=GPa)
#
#
# Indices 1 2 3 4 5 6 
#
# 1 68.3882 0.6710 35.2087 0.0000 0.0000 0.0000
# 2 0.6710 63.9645 1.0158 0.0000 0.0000 0.0000
# 3 35.2087 1.0158 163.9637 0.0000 0.0000 0.0000
# 4 0.0000 0.0000 0.0000 9.0112 0.0000 0.0000
# 5 0.0000 0.0000 0.0000 0.0000 10.6983 0.0000
# 6 0.0000 0.0000 0.0000 0.0000 0.0000 30.6835
#
#
#
# Elastic Compliance Matrix: (Units=1/GPa)
#
#
# Indices 1 2 3 4 5 6 
#
# 1 0.016441 -0.000116 -0.003530 0.000000 0.000000 0.000000
# 2 -0.000116 0.015636 -0.000072 0.000000 0.000000 0.000000
# 3 -0.003530 -0.000072 0.006857 0.000000 0.000000 0.000000
# 4 0.000000 0.000000 0.000000 0.110973 0.000000 0.000000
# 5 0.000000 0.000000 0.000000 0.000000 0.093473 0.000000
# 6 0.000000 0.000000 0.000000 0.000000 0.000000 0.032591
#
#
# Mechanical properties :
#
#
# Convention : Reuss Voigt Hill
#
# Bulk Modulus (GPa) = 31.74789 41.12306 36.43548
# Shear Modulus (GPa) = 17.01227 27.37333 22.19280
#
# Velocity S-wave (km/s) = 2.78296 3.53012 3.17857
# Velocity P-wave (km/s) = 4.97792 5.94449 5.48254
#
# Compressibility (1/GPa) = 0.03149815
#
# Stress axis : x y z
#
# Youngs Moduli (GPa) = 60.82445 63.95484 145.82996
#
# Poissons Ratio (x) = 0.00744 0.51473
# Poissons Ratio (y) = 0.00708 0.01048
# Poissons Ratio (z) = 0.21469 0.00460
#
# Static dielectric constant tensor:
#      x y z
#    x 1.858720 0.000000 0.000000 
#    y 0.000000 1.803320 0.000000 
#    z 0.000000 0.000000 1.911650 
# 
# From -- ./inp_files/14009.got.cif
#   From: 2010.05.17/outbox.cif.g08.bks.cpg/sg49_8_cif.got.tgz:14009.got - 2010.06.03 21:02:19.
