data_PCOD9394923
_publ_section_title
;
Structure prediction by ZEFSAII (Michael W. Deem and Ramdas Pophale) SiO2 
 PCOD9394923
Probable space group: P C C M
;
_chemical_formula_sum "Si O2"
_cell_formula_units_Z 64
_cell_length_a 12.463992
_cell_length_b 14.710697
_cell_length_c 17.080299
_cell_angle_alpha 90.000000
_cell_angle_beta 90.000000
_cell_angle_gamma 90.000000
_cell_volume 3131.741309
_symmetry_space_group_name_H-M "P C C M"
_symmetry_group_IT_number 49
_symmetry_cell_setting 'orthorhombic'
loop_
_space_group_symop_operation_xyz
x,y,z
-x,-y,z
x,-y,1/2-z
-x,y,1/2-z
-x,-y,-z
x,y,-z
-x,y,1/2+z
x,-y,1/2+z
loop_
_atom_site_type_symbol
_atom_site_label
_atom_site_fract_x
_atom_site_fract_y
_atom_site_fract_z
Si Si1 0.167192 0.545039 0.591776
Si Si2 0.550095 0.101736 0.407159
Si Si3 0.826210 0.210436 0.855756
Si Si4 0.247439 0.900755 0.706936
Si Si5 0.980064 0.105966 0.339906
Si Si6 0.973829 0.382884 0.838276
Si Si7 0.390802 0.271663 0.411948
Si Si8 0.386093 0.469165 0.659508
O O1 0.174061 0.552698 0.500000
O O2 0.095685 0.458334 0.616978
O O3 0.284636 0.522556 0.623989
O O4 0.091674 0.627037 0.622976
O O5 0.580839 0.108537 0.500000
O O6 0.646448 0.107466 0.344795
O O7 0.469031 0.186728 0.391569
O O8 0.500000 0.000000 0.397736
O O9 0.768367 0.168162 0.779209
O O10 0.894947 0.298566 0.835457
O O11 0.729426 0.232532 0.912488
O O12 0.921800 0.147015 0.888068
O O13 0.146121 0.882393 0.649372
O O14 0.239811 0.000000 0.750000
O O15 0.000000 0.138860 0.250000
O O16 0.000000 0.000000 0.339879
O O17 0.000000 0.408062 0.750000
O O18 0.419662 0.302861 0.500000
O O19 0.384217 0.360240 0.355697
O O20 0.500000 0.500000 0.625011
O O21 0.384992 0.500000 0.750000
#
# Coordination Sequence:
#
# PCOD9394923 Si02
#       8
#     8   8   8   8   8   8   8   8
#     4  11  23  41  67  95 130 175 218 272 346 420
#     4  10  24  45  69 101 144 190 236 291 351 415
#     4  11  22  36  66  98 128 176 225 284 342 410
#     4  11  20  37  66  96 134 178 232 284 343 405
#     4   9  16  34  57  91 129 167 214 270 339 391
#     4  11  21  37  62  94 132 166 221 279 337 403
#     4  11  25  46  69  98 140 184 230 285 357 427
#     4  11  25  46  72  99 132 176 232 295 349 414
#
# _framework density 20.435915000000001
#
# number of rings (size 3 to 8) (size 9 to 14) (size 15 to 20)
#    0.000    1.375    3.750    4.500    0.000    5.250 
#    2.250    0.625    0.000    3.000    0.000    0.000 
#    0.000    0.000    0.000    0.000    0.000    0.000 
#
# Total GULP energy -356519.230206 kJ/mol
# GULP energy per Si atom -5570.612972 kJ/mol
# Density = 2.038940 g / cm^3
# Si number density = 20.435915 Si / 1000 Ang^3
#
#
#
# Elastic Constant Matrix: (Units=GPa)
#
#
# Indices 1 2 3 4 5 6 
#
# 1 182.0807 53.5837 64.1570 0.0000 0.0000 0.0000
# 2 53.5837 85.4956 42.2992 0.0000 0.0000 0.0000
# 3 64.1570 42.2992 92.0719 0.0000 0.0000 0.0000
# 4 0.0000 0.0000 0.0000 13.8263 0.0000 0.0000
# 5 0.0000 0.0000 0.0000 0.0000 14.3753 0.0000
# 6 0.0000 0.0000 0.0000 0.0000 0.0000 -149.2512
#
#
#
# Elastic Compliance Matrix: (Units=1/GPa)
#
#
# Indices 1 2 3 4 5 6 
#
# 1 0.007777 -0.002838 -0.004115 0.000000 0.000000 0.000000
# 2 -0.002838 0.016173 -0.005452 0.000000 0.000000 0.000000
# 3 -0.004115 -0.005452 0.016234 0.000000 0.000000 0.000000
# 4 0.000000 0.000000 0.000000 0.072326 0.000000 0.000000
# 5 0.000000 0.000000 0.000000 0.000000 0.069564 0.000000
# 6 0.000000 0.000000 0.000000 0.000000 0.000000 -0.006700
#
#
# Mechanical properties :
#
#
# Convention : Reuss Voigt Hill
#
# Bulk Modulus (GPa) = 65.05390 75.52533 70.28961
# Shear Modulus (GPa) = 24.35344 -10.90269 6.72538
#
# Velocity S-wave (km/s) = 3.45584 -2.31228 1.81607
# Velocity P-wave (km/s) = 6.91564 5.46887 6.23436
#
# Compressibility (1/GPa) = 0.01537187
#
# Stress axis : x y z
#
# Youngs Moduli (GPa) = 128.57690 61.83161 61.60040
#
# Poissons Ratio (x) = 0.17550 0.25351
# Poissons Ratio (y) = 0.36494 0.33586
# Poissons Ratio (z) = 0.52915 0.33713
#
# Static dielectric constant tensor:
#      x y z
#    x 1.776370 0.000000 0.000000 
#    y 0.000000 1.722030 0.000000 
#    z 0.000000 0.000000 1.722980 
# 
# From -- ./inp_files/17297.got.cif
#   From: 2010.05.17/outbox.cif.g08.bks.cpg/sg49_9_cif.got.tgz:17297.got - 2010.06.03 21:02:19.
