data_PCOD9394343
_publ_section_title
;
Structure prediction by ZEFSAII (Michael W. Deem and Ramdas Pophale) SiO2 
 PCOD9394343
Probable space group: P C C M
;
_chemical_formula_sum "Si O2"
_cell_formula_units_Z 64
_cell_length_a 21.602939
_cell_length_b 9.199380
_cell_length_c 14.540168
_cell_angle_alpha 90.000000
_cell_angle_beta 90.000000
_cell_angle_gamma 90.000000
_cell_volume 2889.620585
_symmetry_space_group_name_H-M "P C C M"
_symmetry_group_IT_number 49
_symmetry_cell_setting 'orthorhombic'
loop_
_space_group_symop_operation_xyz
x,y,z
-x,-y,z
x,-y,1/2-z
-x,y,1/2-z
-x,-y,-z
x,y,-z
-x,y,1/2+z
x,-y,1/2+z
loop_
_atom_site_type_symbol
_atom_site_label
_atom_site_fract_x
_atom_site_fract_y
_atom_site_fract_z
Si Si1 0.637021 0.825312 0.611842
Si Si2 0.052466 0.391158 0.603086
Si Si3 0.593969 0.852255 0.112267
Si Si4 0.520384 0.659913 0.612569
Si Si5 0.771429 0.095516 0.888327
Si Si6 0.273830 0.775027 0.391126
Si Si7 0.107095 0.162939 0.271481
Si Si8 0.839034 0.590479 0.842251
O O1 0.638765 0.825446 0.500000
O O2 0.589198 0.703345 0.642433
O O3 0.708806 0.818999 0.639081
O O4 0.607356 0.981033 0.638412
O O5 0.036649 0.345456 0.500000
O O6 0.059494 0.255124 0.668865
O O7 0.116192 0.484300 0.601580
O O8 0.000000 0.500000 0.637279
O O9 0.530741 0.777707 0.143059
O O10 0.655746 0.766139 0.143570
O O11 0.590930 0.850963 0.000000
O O12 0.500000 0.500000 0.640669
O O13 0.520774 0.662150 0.500000
O O14 0.830846 0.150675 0.834325
O O15 0.757043 0.927923 0.861003
O O16 0.779956 0.103729 0.000000
O O17 0.280573 0.794497 0.500000
O O18 0.227196 0.642963 0.377180
O O19 0.124047 0.261879 0.183654
O O20 0.087522 0.000000 0.250000
O O21 0.828946 0.500000 0.750000
#
# Coordination Sequence:
#
# PCOD9394343 Si02
#       8
#     8   8   8   8   8   8   8   8
#     4   8  14  25  42  64  95 140 187 233 295 358
#     4  10  23  45  68  91 125 167 206 240 284 353
#     4   8  14  24  41  63  90 135 185 232 291 355
#     4   9  15  23  34  58  99 136 175 238 305 356
#     4   9  17  31  54  83 116 151 195 253 305 349
#     4   9  16  30  52  77 109 148 194 246 298 353
#     4  11  21  37  63  95 127 157 198 249 300 348
#     4  10  21  36  57  85 120 160 198 235 298 364
#
# _framework density 22.148237999999999
#
# number of rings (size 3 to 8) (size 9 to 14) (size 15 to 20)
#    0.000    2.750    1.250    2.625    0.000    3.750 
#    4.500    1.250    0.000    1.500    0.000    0.875 
#    0.000    0.000    0.000    0.000    0.000    0.000 
#
# Total GULP energy -357490.269898 kJ/mol
# GULP energy per Si atom -5585.785467 kJ/mol
# Density = 2.209783 g / cm^3
# Si number density = 22.148238 Si / 1000 Ang^3
#
#
#
# Elastic Constant Matrix: (Units=GPa)
#
#
# Indices 1 2 3 4 5 6 
#
# 1 91.6967 43.8841 15.8174 0.0000 0.0000 0.0000
# 2 43.8841 100.1572 15.3214 0.0000 0.0000 0.0000
# 3 15.8174 15.3214 56.3397 0.0000 0.0000 0.0000
# 4 0.0000 0.0000 0.0000 12.0729 0.0000 0.0000
# 5 0.0000 0.0000 0.0000 0.0000 -13.9262 0.0000
# 6 0.0000 0.0000 0.0000 0.0000 0.0000 29.4130
#
#
#
# Elastic Compliance Matrix: (Units=1/GPa)
#
#
# Indices 1 2 3 4 5 6 
#
# 1 0.014098 -0.005813 -0.002377 0.000000 0.000000 0.000000
# 2 -0.005813 0.012815 -0.001853 0.000000 0.000000 0.000000
# 3 -0.002377 -0.001853 0.018921 0.000000 0.000000 0.000000
# 4 0.000000 0.000000 0.000000 0.082830 0.000000 0.000000
# 5 0.000000 0.000000 0.000000 0.000000 -0.071807 0.000000
# 6 0.000000 0.000000 0.000000 0.000000 0.000000 0.033999
#
#
# Mechanical properties :
#
#
# Convention : Reuss Voigt Hill
#
# Bulk Modulus (GPa) = 38.83973 44.24884 41.54429
# Shear Modulus (GPa) = 41.83272 17.05664 29.44468
#
# Velocity S-wave (km/s) = 4.35070 2.77810 3.65010
# Velocity P-wave (km/s) = 6.54312 5.50566 6.04669
#
# Compressibility (1/GPa) = 0.02574683
#
# Stress axis : x y z
#
# Youngs Moduli (GPa) = 70.93373 78.03446 52.85211
#
# Poissons Ratio (x) = 0.45364 0.12563
# Poissons Ratio (y) = 0.41236 0.09793
# Poissons Ratio (z) = 0.16861 0.14459
#
# Static dielectric constant tensor:
#      x y z
#    x 1.827150 0.000000 0.000000 
#    y 0.000000 1.791320 0.000000 
#    z 0.000000 0.000000 1.857750 
# 
# From -- ./inp_files/18348.got.cif
#   From: 2010.05.17/outbox.cif.g08.bks.cpg/sg49_10_cif.got.tgz:18348.got - 2010.06.03 21:02:19.
