data_PCOD9394295
_publ_section_title
;
Structure prediction by ZEFSAII (Michael W. Deem and Ramdas Pophale) SiO2 
 PCOD9394295
Probable space group: P C C M
;
_chemical_formula_sum "Si O2"
_cell_formula_units_Z 64
_cell_length_a 10.842021
_cell_length_b 16.535960
_cell_length_c 14.517356
_cell_angle_alpha 90.000000
_cell_angle_beta 90.000000
_cell_angle_gamma 90.000000
_cell_volume 2602.718411
_symmetry_space_group_name_H-M "P C C M"
_symmetry_group_IT_number 49
_symmetry_cell_setting 'orthorhombic'
loop_
_space_group_symop_operation_xyz
x,y,z
-x,-y,z
x,-y,1/2-z
-x,y,1/2-z
-x,-y,-z
x,y,-z
-x,y,1/2+z
x,-y,1/2+z
loop_
_atom_site_type_symbol
_atom_site_label
_atom_site_fract_x
_atom_site_fract_y
_atom_site_fract_z
Si Si1 0.696921 0.224907 0.891066
Si Si2 0.685742 0.629385 0.106538
Si Si3 0.824948 0.522966 0.650021
Si Si4 0.621242 0.950384 0.387891
Si Si5 0.873369 0.956860 0.887606
Si Si6 0.054343 0.683355 0.851882
Si Si7 0.422017 0.606586 0.108571
Si Si8 0.820560 0.220196 0.395996
O O1 0.639196 0.141802 0.854746
O O2 0.824580 0.259780 0.850577
O O3 0.599625 0.297549 0.885958
O O4 0.725419 0.212452 0.000000
O O5 0.793423 0.562907 0.105813
O O6 0.559353 0.591837 0.143540
O O7 0.727714 0.714618 0.148781
O O8 0.591443 0.418629 0.000000
O O9 0.870417 0.500000 0.750000
O O10 0.908000 0.594848 0.609739
O O11 0.692030 0.566299 0.659271
O O12 0.612490 0.947557 0.500000
O O13 0.500000 0.000000 0.357117
O O14 0.749496 0.994597 0.365013
O O15 0.852554 0.865608 0.851971
O O16 0.882222 0.952835 0.000000
O O17 0.000000 0.000000 0.857237
O O18 0.000000 0.672098 0.750000
O O19 0.947375 0.730516 0.903295
O O20 0.656179 0.646236 0.000000
O O21 0.773983 0.202664 0.500000
#
# Coordination Sequence:
#
# PCOD9394295 Si02
#       8
#     8   8   8   8   8   8   8   8
#     4   9  18  34  58  86 118 154 190 231 285 347
#     4  10  21  35  53  80 113 146 182 228 284 346
#     4  11  23  38  56  78 105 141 187 240 288 335
#     4   9  17  28  52  91 127 154 186 235 290 339
#     4   9  17  30  50  79 116 152 189 233 278 331
#     4  11  23  39  57  78 108 146 194 241 286 337
#     4   9  19  35  56  81 114 151 186 226 279 350
#     4  10  21  35  55  81 111 146 185 229 283 343
#
# _framework density 24.589673999999999
#
# number of rings (size 3 to 8) (size 9 to 14) (size 15 to 20)
#    0.000    2.250    0.000    2.625    1.750    7.250 
#    0.000    1.250    0.000    3.375    0.000    0.875 
#    0.000    0.000    0.000    0.000    0.000    0.125 
#
# Total GULP energy -357658.079784 kJ/mol
# GULP energy per Si atom -5588.407497 kJ/mol
# Density = 2.453371 g / cm^3
# Si number density = 24.589674 Si / 1000 Ang^3
#
#
#
# Elastic Constant Matrix: (Units=GPa)
#
#
# Indices 1 2 3 4 5 6 
#
# 1 142.6478 58.5681 8.1137 0.0000 0.0000 0.0000
# 2 58.5681 181.0341 2.7713 0.0000 0.0000 0.0000
# 3 8.1137 2.7713 55.5844 0.0000 0.0000 0.0000
# 4 0.0000 0.0000 0.0000 17.5273 0.0000 0.0000
# 5 0.0000 0.0000 0.0000 0.0000 29.5552 0.0000
# 6 0.0000 0.0000 0.0000 0.0000 0.0000 32.6199
#
#
#
# Elastic Compliance Matrix: (Units=1/GPa)
#
#
# Indices 1 2 3 4 5 6 
#
# 1 0.008146 -0.002619 -0.001058 0.000000 0.000000 0.000000
# 2 -0.002619 0.006370 0.000065 0.000000 0.000000 0.000000
# 3 -0.001058 0.000065 0.018142 0.000000 0.000000 0.000000
# 4 0.000000 0.000000 0.000000 0.057054 0.000000 0.000000
# 5 0.000000 0.000000 0.000000 0.000000 0.033835 0.000000
# 6 0.000000 0.000000 0.000000 0.000000 0.000000 0.030656
#
#
# Mechanical properties :
#
#
# Convention : Reuss Voigt Hill
#
# Bulk Modulus (GPa) = 39.32025 57.57471 48.44748
# Shear Modulus (GPa) = 29.42802 36.59469 33.01136
#
# Velocity S-wave (km/s) = 3.46318 3.86192 3.66797
# Velocity P-wave (km/s) = 5.65833 6.58414 6.13872
#
# Compressibility (1/GPa) = 0.02543219
#
# Stress axis : x y z
#
# Youngs Moduli (GPa) = 122.76210 156.98158 55.12086
#
# Poissons Ratio (x) = 0.41116 0.05834
# Poissons Ratio (y) = 0.32153 -0.00357
# Poissons Ratio (z) = 0.12994 -0.01016
#
# Static dielectric constant tensor:
#      x y z
#    x 1.958730 0.000000 0.000000 
#    y 0.000000 1.940040 0.000000 
#    z 0.000000 0.000000 2.036310 
# 
# From -- ./inp_files/17334.got.cif
#   From: 2010.05.17/outbox.cif.g08.bks.cpg/sg49_9_cif.got.tgz:17334.got - 2010.06.03 21:02:19.
