data_PCOD9394568
_publ_section_title
;
Structure prediction by ZEFSAII (Michael W. Deem and Ramdas Pophale) SiO2 
 PCOD9394568
Probable space group: P C C M
;
_chemical_formula_sum "Si O2"
_cell_formula_units_Z 64
_cell_length_a 8.985566
_cell_length_b 19.736177
_cell_length_c 17.444178
_cell_angle_alpha 90.000000
_cell_angle_beta 90.000000
_cell_angle_gamma 90.000000
_cell_volume 3093.563104
_symmetry_space_group_name_H-M "P C C M"
_symmetry_group_IT_number 49
_symmetry_cell_setting 'orthorhombic'
loop_
_space_group_symop_operation_xyz
x,y,z
-x,-y,z
x,-y,1/2-z
-x,y,1/2-z
-x,-y,-z
x,y,-z
-x,y,1/2+z
x,-y,1/2+z
loop_
_atom_site_type_symbol
_atom_site_label
_atom_site_fract_x
_atom_site_fract_y
_atom_site_fract_z
Si Si1 0.308734 0.057209 0.589568
Si Si2 0.507288 0.832330 0.162158
Si Si3 0.033415 0.877472 0.160931
Si Si4 0.553402 0.571550 0.838578
Si Si5 0.335486 0.309172 0.350072
Si Si6 0.029387 0.271110 0.412074
Si Si7 0.850269 0.363941 0.705190
Si Si8 0.736062 0.093980 0.589545
O O1 0.263363 0.061132 0.500000
O O2 0.431402 0.114269 0.604919
O O3 0.181524 0.080838 0.647012
O O4 0.341531 0.978546 0.604583
O O5 0.500000 0.855129 0.250000
O O6 0.426744 0.760655 0.156114
O O7 0.676913 0.840916 0.136137
O O8 0.047194 0.803778 0.122598
O O9 0.000000 0.870032 0.250000
O O10 0.903483 0.915862 0.116657
O O11 0.500000 0.500000 0.872706
O O12 0.500000 0.570079 0.750000
O O13 0.455672 0.633425 0.871270
O O14 0.731257 0.584903 0.834347
O O15 0.195298 0.302877 0.406315
O O16 0.253253 0.325962 0.268657
O O17 0.979972 0.268621 0.500000
O O18 0.918027 0.313620 0.358223
O O19 0.000000 0.390821 0.750000
O O20 0.727856 0.108200 0.500000
#
# Coordination Sequence:
#
# PCOD9394568 Si02
#       8
#     8   8   8   8   8   8   8   8
#     4  11  24  44  62  83 122 165 205 257 321 385
#     4  12  24  37  62  88 120 162 209 262 313 376
#     4  12  24  40  64  90 120 154 207 265 324 383
#     4   9  18  36  64  98 135 170 210 254 309 371
#     4  10  21  39  62  92 128 165 210 260 318 374
#     4  11  23  39  62  92 123 164 211 263 325 388
#     4   9  19  37  64  95 133 165 210 271 315 362
#     4  11  26  42  60  88 121 160 208 262 318 382
#
# _framework density 20.688120000000001
#
# number of rings (size 3 to 8) (size 9 to 14) (size 15 to 20)
#    0.000    1.375    1.250    5.250    3.500    5.500 
#    0.000   11.250    0.000    2.250    0.000    0.000 
#    0.000    0.000    0.000    0.000    0.000    0.000 
#
# Total GULP energy -357209.799481 kJ/mol
# GULP energy per Si atom -5581.403117 kJ/mol
# Density = 2.064103 g / cm^3
# Si number density = 20.688120 Si / 1000 Ang^3
#
#
#
# Elastic Constant Matrix: (Units=GPa)
#
#
# Indices 1 2 3 4 5 6 
#
# 1 85.8411 50.3648 15.4173 0.0000 0.0000 0.0000
# 2 50.3648 96.2861 32.3438 0.0000 0.0000 0.0000
# 3 15.4173 32.3438 85.3884 0.0000 0.0000 0.0000
# 4 0.0000 0.0000 0.0000 15.0584 0.0000 0.0000
# 5 0.0000 0.0000 0.0000 0.0000 20.7134 0.0000
# 6 0.0000 0.0000 0.0000 0.0000 0.0000 25.8982
#
#
#
# Elastic Compliance Matrix: (Units=1/GPa)
#
#
# Indices 1 2 3 4 5 6 
#
# 1 0.016816 -0.008910 0.000339 0.000000 0.000000 0.000000
# 2 -0.008910 0.016621 -0.004687 0.000000 0.000000 0.000000
# 3 0.000339 -0.004687 0.013425 0.000000 0.000000 0.000000
# 4 0.000000 0.000000 0.000000 0.066408 0.000000 0.000000
# 5 0.000000 0.000000 0.000000 0.000000 0.048278 0.000000
# 6 0.000000 0.000000 0.000000 0.000000 0.000000 0.038613
#
#
# Mechanical properties :
#
#
# Convention : Reuss Voigt Hill
#
# Bulk Modulus (GPa) = 49.14978 51.52971 50.33975
# Shear Modulus (GPa) = 21.41699 23.62664 22.52181
#
# Velocity S-wave (km/s) = 3.22099 3.38307 3.30303
# Velocity P-wave (km/s) = 6.13532 6.34210 6.23956
#
# Compressibility (1/GPa) = 0.02034597
#
# Stress axis : x y z
#
# Youngs Moduli (GPa) = 59.46635 60.16607 74.48586
#
# Poissons Ratio (x) = 0.53607 -0.02523
# Poissons Ratio (y) = 0.52984 0.34911
# Poissons Ratio (z) = -0.02014 0.28199
#
# Static dielectric constant tensor:
#      x y z
#    x 1.789700 0.000000 0.000000 
#    y 0.000000 1.759800 0.000000 
#    z 0.000000 0.000000 1.709950 
# 
# From -- ./inp_files/16537.got.cif
#   From: 2010.05.17/outbox.cif.g08.bks.cpg/sg49_9_cif.got.tgz:16537.got - 2010.06.03 21:02:19.
