data_PCOD9394939
_publ_section_title
;
Structure prediction by ZEFSAII (Michael W. Deem and Ramdas Pophale) SiO2 
 PCOD9394939
Probable space group: P C C M
;
_chemical_formula_sum "Si O2"
_cell_formula_units_Z 24
_cell_length_a 5.717532
_cell_length_b 19.589264
_cell_length_c 9.265060
_cell_angle_alpha 90.000000
_cell_angle_beta 90.000000
_cell_angle_gamma 90.000000
_cell_volume 1037.707509
_symmetry_space_group_name_H-M "P C C M"
_symmetry_group_IT_number 49
_symmetry_cell_setting 'orthorhombic'
loop_
_space_group_symop_operation_xyz
x,y,z
-x,-y,z
x,-y,1/2-z
-x,y,1/2-z
-x,-y,-z
x,y,-z
-x,y,1/2+z
x,-y,1/2+z
loop_
_atom_site_type_symbol
_atom_site_label
_atom_site_fract_x
_atom_site_fract_y
_atom_site_fract_z
Si Si1 0.653206 0.682694 0.500000
Si Si2 0.500000 0.000000 0.250000
Si Si3 0.000000 0.500000 0.250000
Si Si4 0.263110 0.782725 0.500000
Si Si5 0.802059 0.940843 0.000000
Si Si6 0.000000 0.703925 0.750000
Si Si7 0.306936 0.558838 0.500000
O O1 0.537608 0.758983 0.500000
O O2 0.437065 0.630648 0.500000
O O3 0.815015 0.669694 0.639702
O O4 0.344196 0.044823 0.144311
O O5 0.154520 0.545838 0.357479
O O6 0.168204 0.859931 0.500000
O O7 0.156145 0.748768 0.642399
O O8 0.000000 0.000000 0.000000
O O9 0.500000 0.500000 0.500000
#
# Coordination Sequence:
#
# PCOD9394939 Si02
#       7
#     4   2   2   4   4   4   4
#     4  11  26  49  73 111 147 196 249 313 375 456
#     4  10  26  42  72 104 144 186 236 298 368 444
#     4  10  26  48  76 112 146 206 252 318 370 440
#     4  11  26  43  76 101 147 189 244 304 374 443
#     4  11  26  45  72 106 144 191 244 305 371 452
#     4  10  26  45  73 109 143 190 242 306 373 448
#     4  11  26  47  77 110 155 199 255 314 377 446
#
# _framework density 23.127905999999999
#
# number of rings (size 3 to 8) (size 9 to 14) (size 15 to 20)
#    0.000    1.333    0.000    2.000    9.333   16.000 
#    0.000    5.000    0.000    0.000    0.000    0.000 
#    0.000    0.000    0.000    0.000    0.000    0.000 
#
# Total GULP energy -134293.538638 kJ/mol
# GULP energy per Si atom -5595.564110 kJ/mol
# Density = 2.307527 g / cm^3
# Si number density = 23.127906 Si / 1000 Ang^3
#
#
#
# Elastic Constant Matrix: (Units=GPa)
#
#
# Indices 1 2 3 4 5 6 
#
# 1 139.2324 67.1530 88.2237 0.0000 0.0000 0.0000
# 2 67.1530 132.7030 64.2016 0.0000 0.0000 0.0000
# 3 88.2237 64.2016 232.4167 0.0000 0.0000 0.0000
# 4 0.0000 0.0000 0.0000 -21.8625 0.0000 0.0000
# 5 0.0000 0.0000 0.0000 0.0000 -95.8839 0.0000
# 6 0.0000 0.0000 0.0000 0.0000 0.0000 27.0057
#
#
#
# Elastic Compliance Matrix: (Units=1/GPa)
#
#
# Indices 1 2 3 4 5 6 
#
# 1 0.011133 -0.004143 -0.003082 0.000000 0.000000 0.000000
# 2 -0.004143 0.010240 -0.001256 0.000000 0.000000 0.000000
# 3 -0.003082 -0.001256 0.005819 0.000000 0.000000 0.000000
# 4 0.000000 0.000000 0.000000 -0.045740 0.000000 0.000000
# 5 0.000000 0.000000 0.000000 0.000000 -0.010429 0.000000
# 6 0.000000 0.000000 0.000000 0.000000 0.000000 0.037029
#
#
# Mechanical properties :
#
#
# Convention : Reuss Voigt Hill
#
# Bulk Modulus (GPa) = 97.74057 104.83429 101.28743
# Shear Modulus (GPa) = 175.91489 0.83679 88.37584
#
# Velocity S-wave (km/s) = 8.73080 0.60216 6.18827
# Velocity P-wave (km/s) = 11.99952 6.77569 9.74419
#
# Compressibility (1/GPa) = 0.01023117
#
# Stress axis : x y z
#
# Youngs Moduli (GPa) = 89.82292 97.65901 171.84158
#
# Poissons Ratio (x) = 0.40459 0.52955
# Poissons Ratio (y) = 0.37212 0.21583
# Poissons Ratio (z) = 0.27680 0.12266
#
# Static dielectric constant tensor:
#      x y z
#    x 1.917010 0.000000 0.000000 
#    y 0.000000 1.962960 0.000000 
#    z 0.000000 0.000000 1.778420 
# 
# From -- ./inp_files/828.got.cif
#   From: 2010.05.17/outbox.cif.g08.bks.cpg/sg49_1_cif.got.tgz:828.got - 2010.06.03 21:02:19.
