data_PCOD9394347
_publ_section_title
;
Structure prediction by ZEFSAII (Michael W. Deem and Ramdas Pophale) SiO2 
 PCOD9394347
Probable space group: P C C M
;
_chemical_formula_sum "Si O2"
_cell_formula_units_Z 64
_cell_length_a 12.165257
_cell_length_b 9.421969
_cell_length_c 27.712230
_cell_angle_alpha 90.000000
_cell_angle_beta 90.000000
_cell_angle_gamma 90.000000
_cell_volume 3176.394490
_symmetry_space_group_name_H-M "P C C M"
_symmetry_group_IT_number 49
_symmetry_cell_setting 'orthorhombic'
loop_
_space_group_symop_operation_xyz
x,y,z
-x,-y,z
x,-y,1/2-z
-x,y,1/2-z
-x,-y,-z
x,y,-z
-x,y,1/2+z
x,-y,1/2+z
loop_
_atom_site_type_symbol
_atom_site_label
_atom_site_fract_x
_atom_site_fract_y
_atom_site_fract_z
Si Si1 0.066773 0.719923 0.156868
Si Si2 0.005890 0.832070 0.945276
Si Si3 0.745498 0.106764 0.188361
Si Si4 0.541969 0.661159 0.052241
Si Si5 0.163002 0.422852 0.839149
Si Si6 0.469832 0.835635 0.856378
Si Si7 0.324515 0.796330 0.294833
Si Si8 0.802441 0.633289 0.947893
O O1 0.065634 0.752413 0.099112
O O2 0.128933 0.850863 0.181026
O O3 0.133977 0.582278 0.175660
O O4 0.941702 0.680159 0.169412
O O5 0.882297 0.769172 0.946101
O O6 0.050790 0.810123 0.000000
O O7 0.000000 0.000000 0.935840
O O8 0.659836 0.179150 0.151939
O O9 0.700273 0.165405 0.239461
O O10 0.727376 0.938777 0.181294
O O11 0.500000 0.500000 0.056383
O O12 0.501927 0.747992 0.097320
O O13 0.673919 0.666219 0.052265
O O14 0.503014 0.715736 0.000000
O O15 0.264610 0.344358 0.814250
O O16 0.175288 0.440201 0.897015
O O17 0.548181 0.791768 0.811245
O O18 0.500000 0.000000 0.863851
O O19 0.827377 0.561075 0.000000
#
# Coordination Sequence:
#
# PCOD9394347 Si02
#       8
#     8   8   8   8   8   8   8   8
#     4  10  23  36  55  88 119 150 192 242 292 349
#     4   9  19  35  59  89 121 157 200 249 298 359
#     4  10  23  38  60  88 112 149 195 249 297 353
#     4  10  21  36  57  87 119 154 195 235 285 354
#     4  10  21  38  58  83 117 155 192 239 295 348
#     4  10  21  38  62  87 117 149 192 247 296 345
#     4  10  21  41  62  82 112 152 200 241 298 357
#     4   9  18  34  58  82 113 156 196 234 289 351
#
# _framework density 20.148630000000001
#
# number of rings (size 3 to 8) (size 9 to 14) (size 15 to 20)
#    0.000    2.250    1.250    0.375    5.250    3.250 
#    0.000    5.625    0.000    2.250    0.000    0.000 
#    0.000    0.000    0.000    0.000    0.000    0.000 
#
# Total GULP energy -356536.286827 kJ/mol
# GULP energy per Si atom -5570.879482 kJ/mol
# Density = 2.010277 g / cm^3
# Si number density = 20.148630 Si / 1000 Ang^3
#
#
#
# Elastic Constant Matrix: (Units=GPa)
#
#
# Indices 1 2 3 4 5 6 
#
# 1 43.9900 15.2363 9.4598 0.0000 0.0000 0.0000
# 2 15.2363 35.0019 7.2775 0.0000 0.0000 0.0000
# 3 9.4598 7.2775 41.4917 0.0000 0.0000 0.0000
# 4 0.0000 0.0000 0.0000 31.7907 0.0000 0.0000
# 5 0.0000 0.0000 0.0000 0.0000 -4.5779 0.0000
# 6 0.0000 0.0000 0.0000 0.0000 0.0000 13.9329
#
#
#
# Elastic Compliance Matrix: (Units=1/GPa)
#
#
# Indices 1 2 3 4 5 6 
#
# 1 0.027497 -0.011070 -0.004328 0.000000 0.000000 0.000000
# 2 -0.011070 0.034108 -0.003459 0.000000 0.000000 0.000000
# 3 -0.004328 -0.003459 0.025694 0.000000 0.000000 0.000000
# 4 0.000000 0.000000 0.000000 0.031456 0.000000 0.000000
# 5 0.000000 0.000000 0.000000 0.000000 -0.218441 0.000000
# 6 0.000000 0.000000 0.000000 0.000000 0.000000 0.071773
#
#
# Mechanical properties :
#
#
# Convention : Reuss Voigt Hill
#
# Bulk Modulus (GPa) = 20.16633 20.49231 20.32932
# Shear Modulus (GPa) = 189.91521 14.12981 102.02251
#
# Velocity S-wave (km/s) = 9.71914 2.65104 7.12354
# Velocity P-wave (km/s) = 11.66103 4.42305 8.81881
#
# Compressibility (1/GPa) = 0.04958760
#
# Stress axis : x y z
#
# Youngs Moduli (GPa) = 36.36737 29.31896 38.91884
#
# Poissons Ratio (x) = 0.32455 0.16842
# Poissons Ratio (y) = 0.40258 0.13460
# Poissons Ratio (z) = 0.15738 0.10140
#
# Static dielectric constant tensor:
#      x y z
#    x 1.664600 0.000000 0.000000 
#    y 0.000000 1.683610 0.000000 
#    z 0.000000 0.000000 1.756220 
# 
# From -- ./inp_files/26680.got.cif
#   From: 2010.05.17/outbox.cif.g08.bks.cpg/sg49_14_cif.got.tgz:26680.got - 2010.06.03 21:02:19.
