data_PCOD9394506
_publ_section_title
;
Structure prediction by ZEFSAII (Michael W. Deem and Ramdas Pophale) SiO2 
 PCOD9394506
Probable space group: P C C M
;
_chemical_formula_sum "Si O2"
_cell_formula_units_Z 64
_cell_length_a 24.346376
_cell_length_b 8.806052
_cell_length_c 15.787932
_cell_angle_alpha 90.000000
_cell_angle_beta 90.000000
_cell_angle_gamma 90.000000
_cell_volume 3384.860834
_symmetry_space_group_name_H-M "P C C M"
_symmetry_group_IT_number 49
_symmetry_cell_setting 'orthorhombic'
loop_
_space_group_symop_operation_xyz
x,y,z
-x,-y,z
x,-y,1/2-z
-x,y,1/2-z
-x,-y,-z
x,y,-z
-x,y,1/2+z
x,-y,1/2+z
loop_
_atom_site_type_symbol
_atom_site_label
_atom_site_fract_x
_atom_site_fract_y
_atom_site_fract_z
Si Si1 0.615181 0.682632 0.094391
Si Si2 0.884003 0.681804 0.096710
Si Si3 0.692636 0.315919 0.750000
Si Si4 0.615181 0.682631 0.594391
Si Si5 0.000000 0.179606 0.147990
Si Si6 0.500000 0.819470 0.649619
Si Si7 0.185946 0.818679 0.750000
Si Si8 0.115996 0.681804 0.096710
O O1 0.657320 0.729175 0.167563
O O2 0.610411 0.500001 0.098885
O O3 0.555208 0.750791 0.110798
O O4 0.634123 0.724062 0.000000
O O5 0.945382 0.743698 0.111767
O O6 0.845282 0.756089 0.167128
O O7 0.883646 0.500000 0.107495
O O8 0.867127 0.716434 0.000000
O O9 0.698466 0.500000 0.750000
O O10 0.657320 0.270825 0.832437
O O11 0.751982 0.241105 0.750001
O O12 0.634123 0.724062 0.500000
O O13 0.555208 0.750790 0.610798
O O14 0.000000 0.197253 0.250000
O O15 0.945383 0.256303 0.111767
O O16 0.000000 0.000000 0.129083
O O17 0.500000 0.785734 0.750000
O O18 0.500000 0.000000 0.637945
O O19 0.154717 0.756090 0.832872
O O20 0.183755 0.000000 0.750000
O O21 0.132873 0.716434 0.000000
#
# Coordination Sequence:
#
# PCOD9394506 Si02
#       8
#     8   8   8   8   8   8   8   8
#     4  10  21  38  62  89 116 152 198 243 292 352
#     4  11  24  42  66  94 124 163 209 254 302 360
#     4  10  22  41  62  85 117 156 201 252 298 348
#     4  10  21  38  62  89 116 152 198 243 292 352
#     4  11  22  37  62  97 132 165 198 245 311 371
#     4  11  22  35  56  87 123 158 193 236 295 359
#     4  12  26  43  64  91 124 162 205 254 311 366
#     4  11  24  42  66  94 124 163 209 254 302 360
#
# _framework density 18.907720000000001
#
# number of rings (size 3 to 8) (size 9 to 14) (size 15 to 20)
#    0.000    1.250    2.500    3.375    0.000    8.500 
#    0.000    2.500    0.000    0.000    0.000    0.000 
#    0.000    0.000    0.000    0.000    0.000    0.000 
#
# Total GULP energy -357910.659532 kJ/mol
# GULP energy per Si atom -5592.354055 kJ/mol
# Density = 1.886469 g / cm^3
# Si number density = 18.907720 Si / 1000 Ang^3
#
#
#
# Elastic Constant Matrix: (Units=GPa)
#
#
# Indices 1 2 3 4 5 6 
#
# 1 162.3000 52.4886 106.0494 0.0000 0.0000 0.0000
# 2 52.4886 65.5784 77.4187 0.0000 0.0000 0.0000
# 3 106.0494 77.4187 192.0709 0.0000 0.0000 0.0000
# 4 0.0000 0.0000 0.0000 11.5476 0.0000 0.0000
# 5 0.0000 0.0000 0.0000 0.0000 -4.4937 0.0000
# 6 0.0000 0.0000 0.0000 0.0000 0.0000 88.6817
#
#
#
# Elastic Compliance Matrix: (Units=1/GPa)
#
#
# Indices 1 2 3 4 5 6 
#
# 1 0.009902 -0.002807 -0.004336 0.000000 0.000000 0.000000
# 2 -0.002807 0.029888 -0.010497 0.000000 0.000000 0.000000
# 3 -0.004336 -0.010497 0.011832 0.000000 0.000000 0.000000
# 4 0.000000 0.000000 0.000000 0.086598 0.000000 0.000000
# 5 0.000000 0.000000 0.000000 0.000000 -0.222531 0.000000
# 6 0.000000 0.000000 0.000000 0.000000 0.000000 0.011276
#
#
# Mechanical properties :
#
#
# Convention : Reuss Voigt Hill
#
# Bulk Modulus (GPa) = 61.19308 99.09585 80.14446
# Shear Modulus (GPa) = -154.76906 31.41326 -61.67790
#
# Velocity S-wave (km/s) = -9.05719 4.08045 -5.71763
# Velocity P-wave (km/s) = 8.77169 8.64431 1.05319
#
# Compressibility (1/GPa) = 0.01634172
#
# Stress axis : x y z
#
# Youngs Moduli (GPa) = 100.98462 33.45799 84.51797
#
# Poissons Ratio (x) = 0.09391 0.36649
# Poissons Ratio (y) = 0.28345 0.88722
# Poissons Ratio (z) = 0.43789 0.35122
#
# Static dielectric constant tensor:
#      x y z
#    x 1.601910 0.000000 0.000000 
#    y 0.000000 1.628150 0.000000 
#    z 0.000000 0.000000 1.670790 
# 
# From -- ./inp_files/14513.got.cif
#   From: 2010.05.17/outbox.cif.g08.bks.cpg/sg49_8_cif.got.tgz:14513.got - 2010.06.03 21:02:19.
