data_PCOD9394629
_publ_section_title
;
Structure prediction by ZEFSAII (Michael W. Deem and Ramdas Pophale) SiO2 
 PCOD9394629
Probable space group: P C C M
;
_chemical_formula_sum "Si O2"
_cell_formula_units_Z 48
_cell_length_a 18.477594
_cell_length_b 14.751391
_cell_length_c 8.465552
_cell_angle_alpha 90.000000
_cell_angle_beta 90.000000
_cell_angle_gamma 90.000000
_cell_volume 2307.457319
_symmetry_space_group_name_H-M "P C C M"
_symmetry_group_IT_number 49
_symmetry_cell_setting 'orthorhombic'
loop_
_space_group_symop_operation_xyz
x,y,z
-x,-y,z
x,-y,1/2-z
-x,y,1/2-z
-x,-y,-z
x,y,-z
-x,y,1/2+z
x,-y,1/2+z
loop_
_atom_site_type_symbol
_atom_site_label
_atom_site_fract_x
_atom_site_fract_y
_atom_site_fract_z
Si Si1 0.421762 0.602857 0.809892
Si Si2 0.110712 0.577194 0.500000
Si Si3 0.083266 0.099187 0.306218
Si Si4 0.058721 0.626418 0.000000
Si Si5 0.849353 0.280977 0.747635
Si Si6 0.308233 0.744856 0.310352
Si Si7 0.578674 0.898261 0.188661
O O1 0.415529 0.500000 0.750000
O O2 0.500000 0.636446 0.750000
O O3 0.359708 0.661039 0.728504
O O4 0.418228 0.607108 0.000000
O O5 0.103055 0.468967 0.500000
O O6 0.150243 0.628890 0.640422
O O7 0.026036 0.607173 0.500000
O O8 0.089111 0.107552 0.500000
O O9 0.125444 0.178561 0.212415
O O10 0.000000 0.105712 0.250000
O O11 0.109122 0.000000 0.250000
O O12 0.085563 0.687473 0.141283
O O13 0.765569 0.266670 0.787553
O O14 0.291171 0.748774 0.500000
O O15 0.355671 0.832578 0.265583
O O16 0.500000 0.866817 0.250000
O O17 0.589725 0.000000 0.250000
O O18 0.575101 0.899395 0.000000
#
# Coordination Sequence:
#
# PCOD9394629 Si02
#       7
#     8   4   8   4   8   8   8
#     4  11  23  41  67  94 127 169 216 265 314 380
#     4  11  24  44  71  91 130 173 219 287 341 408
#     4  11  24  41  67  96 127 167 217 269 329 399
#     4  11  24  44  67 101 122 169 233 275 345 412
#     4  12  25  43  65  97 136 173 219 280 341 400
#     4  11  25  43  61  93 134 176 217 265 327 386
#     4  10  21  40  66  97 129 169 217 265 317 380
#
# _framework density 20.802118
#
# number of rings (size 3 to 8) (size 9 to 14) (size 15 to 20)
#    0.000    1.000    1.667    6.500    3.500    6.000 
#    0.000    1.667    0.000    0.000    0.000    0.000 
#    0.000    0.000    0.000    0.000    0.000    0.000 
#
# Total GULP energy -267585.420610 kJ/mol
# GULP energy per Si atom -5574.696263 kJ/mol
# Density = 2.075477 g / cm^3
# Si number density = 20.802118 Si / 1000 Ang^3
#
#
#
# Elastic Constant Matrix: (Units=GPa)
#
#
# Indices 1 2 3 4 5 6 
#
# 1 111.8023 57.8194 -12.2606 0.0000 0.0000 0.0000
# 2 57.8194 135.7022 -8.1410 0.0000 0.0000 0.0000
# 3 -12.2606 -8.1410 38.7086 0.0000 0.0000 0.0000
# 4 0.0000 0.0000 0.0000 6.5239 0.0000 0.0000
# 5 0.0000 0.0000 0.0000 0.0000 0.3457 0.0000
# 6 0.0000 0.0000 0.0000 0.0000 0.0000 122.6276
#
#
#
# Elastic Compliance Matrix: (Units=1/GPa)
#
#
# Indices 1 2 3 4 5 6 
#
# 1 0.011745 -0.004842 0.002702 0.000000 0.000000 0.000000
# 2 -0.004842 0.009460 0.000456 0.000000 0.000000 0.000000
# 3 0.002702 0.000456 0.026786 0.000000 0.000000 0.000000
# 4 0.000000 0.000000 0.000000 0.153283 0.000000 0.000000
# 5 0.000000 0.000000 0.000000 0.000000 2.892397 0.000000
# 6 0.000000 0.000000 0.000000 0.000000 0.000000 0.008155
#
#
# Mechanical properties :
#
#
# Convention : Reuss Voigt Hill
#
# Bulk Modulus (GPa) = 22.41113 40.11652 31.26383
# Shear Modulus (GPa) = 1.60253 42.48580 22.04416
#
# Velocity S-wave (km/s) = 0.87866 4.52417 3.25885
# Velocity P-wave (km/s) = 3.43893 6.82770 5.40573
#
# Compressibility (1/GPa) = 0.04462069
#
# Stress axis : x y z
#
# Youngs Moduli (GPa) = 85.14439 105.71367 37.33346
#
# Poissons Ratio (x) = 0.51187 -0.10086
# Poissons Ratio (y) = 0.41228 -0.01702
# Poissons Ratio (z) = -0.23003 -0.04818
#
# Static dielectric constant tensor:
#      x y z
#    x 1.352350 0.000000 0.000000 
#    y 0.000000 1.739400 0.000000 
#    z 0.000000 0.000000 1.765490 
# 
# From -- ./inp_files/4912.got.cif
#   From: 2010.05.17/outbox.cif.g08.bks.cpg/sg49_3_cif.got.tgz:4912.got - 2010.06.03 21:02:19.
