data_PCOD9394840
_publ_section_title
;
Structure prediction by ZEFSAII (Michael W. Deem and Ramdas Pophale) SiO2 
 PCOD9394840
Probable space group: P C C M
;
_chemical_formula_sum "Si O2"
_cell_formula_units_Z 64
_cell_length_a 17.235785
_cell_length_b 12.581645
_cell_length_c 14.423359
_cell_angle_alpha 90.000000
_cell_angle_beta 90.000000
_cell_angle_gamma 90.000000
_cell_volume 3127.770711
_symmetry_space_group_name_H-M "P C C M"
_symmetry_group_IT_number 49
_symmetry_cell_setting 'orthorhombic'
loop_
_space_group_symop_operation_xyz
x,y,z
-x,-y,z
x,-y,1/2-z
-x,y,1/2-z
-x,-y,-z
x,y,-z
-x,y,1/2+z
x,-y,1/2+z
loop_
_atom_site_type_symbol
_atom_site_label
_atom_site_fract_x
_atom_site_fract_y
_atom_site_fract_z
Si Si1 0.853025 0.778497 0.103548
Si Si2 0.187725 0.803532 0.107628
Si Si3 0.987581 0.121252 0.860489
Si Si4 0.785613 0.372773 0.742577
Si Si5 0.251003 0.973960 0.392159
Si Si6 0.611166 0.376347 0.272323
Si Si7 0.571093 0.060030 0.650589
Si Si8 0.508864 0.282889 0.889763
O O1 0.842884 0.677394 0.167988
O O2 0.804196 0.879370 0.143958
O O3 0.942304 0.810648 0.100071
O O4 0.823186 0.757693 0.000000
O O5 0.097522 0.837209 0.115322
O O6 0.202074 0.695905 0.164346
O O7 0.234845 0.907317 0.145426
O O8 0.208671 0.787178 0.000000
O O9 0.000000 0.123468 0.750000
O O10 0.000000 0.000000 0.891314
O O11 0.792896 0.500000 0.750000
O O12 0.698828 0.343674 0.709000
O O13 0.228252 0.982461 0.500000
O O14 0.341759 0.945620 0.386691
O O15 0.612312 0.500000 0.250000
O O16 0.578125 0.311670 0.182236
O O17 0.556169 0.368051 0.361723
O O18 0.536699 0.177974 0.646059
O O19 0.500000 0.000000 0.600792
O O20 0.577439 0.000000 0.750000
O O21 0.526734 0.277526 0.000000
#
# Coordination Sequence:
#
# PCOD9394840 Si02
#       8
#     8   8   8   8   8   8   8   8
#     4  11  23  41  68  99 133 168 210 270 337 396
#     4  11  24  41  66  97 133 171 213 271 330 394
#     4  11  21  38  68 104 135 170 212 261 327 398
#     4  11  26  45  65  92 129 176 229 274 322 390
#     4  10  23  38  60  96 129 166 211 263 331 398
#     4  10  23  43  66  92 123 166 223 283 332 378
#     4  11  24  37  56  85 127 173 209 252 312 390
#     4  11  23  40  64  94 126 164 214 273 336 391
#
# _framework density 20.461856999999998
#
# number of rings (size 3 to 8) (size 9 to 14) (size 15 to 20)
#    0.000    1.250    2.500    3.750    5.250    5.000 
#    0.000    3.750    0.000    1.500    0.000    0.000 
#    0.000    0.000    0.000    0.000    0.000    0.000 
#
# Total GULP energy -357073.485315 kJ/mol
# GULP energy per Si atom -5579.273208 kJ/mol
# Density = 2.041529 g / cm^3
# Si number density = 20.461857 Si / 1000 Ang^3
#
#
#
# Elastic Constant Matrix: (Units=GPa)
#
#
# Indices 1 2 3 4 5 6 
#
# 1 93.0598 16.6681 -23.4838 0.0000 0.0000 0.0000
# 2 16.6681 81.9940 8.4808 0.0000 0.0000 0.0000
# 3 -23.4838 8.4808 93.3872 0.0000 0.0000 0.0000
# 4 0.0000 0.0000 0.0000 90.3822 0.0000 0.0000
# 5 0.0000 0.0000 0.0000 0.0000 -49.4219 0.0000
# 6 0.0000 0.0000 0.0000 0.0000 0.0000 36.4633
#
#
#
# Elastic Compliance Matrix: (Units=1/GPa)
#
#
# Indices 1 2 3 4 5 6 
#
# 1 0.012077 -0.002795 0.003291 0.000000 0.000000 0.000000
# 2 -0.002795 0.012959 -0.001880 0.000000 0.000000 0.000000
# 3 0.003291 -0.001880 0.011706 0.000000 0.000000 0.000000
# 4 0.000000 0.000000 0.000000 0.011064 0.000000 0.000000
# 5 0.000000 0.000000 0.000000 0.000000 -0.020234 0.000000
# 6 0.000000 0.000000 0.000000 0.000000 0.000000 0.027425
#
#
# Mechanical properties :
#
#
# Convention : Reuss Voigt Hill
#
# Bulk Modulus (GPa) = 29.43498 30.19680 29.81589
# Shear Modulus (GPa) = 72.36927 33.26980 52.81953
#
# Velocity S-wave (km/s) = 5.95354 4.03667 5.08623
# Velocity P-wave (km/s) = 7.85341 6.04284 7.00685
#
# Compressibility (1/GPa) = 0.03397318
#
# Stress axis : x y z
#
# Youngs Moduli (GPa) = 82.80266 77.16819 85.42374
#
# Poissons Ratio (x) = 0.21572 -0.28111
# Poissons Ratio (y) = 0.23147 0.16058
# Poissons Ratio (z) = -0.27249 0.14506
#
# Static dielectric constant tensor:
#      x y z
#    x 1.729770 0.000000 0.000000 
#    y 0.000000 2.055340 0.000000 
#    z 0.000000 0.000000 1.779780 
# 
# From -- ./inp_files/14205.got.cif
#   From: 2010.05.17/outbox.cif.g08.bks.cpg/sg49_8_cif.got.tgz:14205.got - 2010.06.03 21:02:19.
