data_PCOD9394625
_publ_section_title
;
Structure prediction by ZEFSAII (Michael W. Deem and Ramdas Pophale) SiO2 
 PCOD9394625
Probable space group: P C C M
;
_chemical_formula_sum "Si O2"
_cell_formula_units_Z 40
_cell_length_a 14.244683
_cell_length_b 7.211941
_cell_length_c 16.831611
_cell_angle_alpha 90.000000
_cell_angle_beta 90.000000
_cell_angle_gamma 90.000000
_cell_volume 1729.141920
_symmetry_space_group_name_H-M "P C C M"
_symmetry_group_IT_number 49
_symmetry_cell_setting 'orthorhombic'
loop_
_space_group_symop_operation_xyz
x,y,z
-x,-y,z
x,-y,1/2-z
-x,y,1/2-z
-x,-y,-z
x,y,-z
-x,y,1/2+z
x,-y,1/2+z
loop_
_atom_site_type_symbol
_atom_site_label
_atom_site_fract_x
_atom_site_fract_y
_atom_site_fract_z
Si Si1 0.748807 0.308599 0.907004
Si Si2 0.109236 0.979597 0.155136
Si Si3 0.260042 0.246934 0.091531
Si Si4 0.591983 0.693653 0.794070
Si Si5 0.456862 0.205476 0.408238
O O1 0.749829 0.530974 0.902005
O O2 0.648080 0.234203 0.873329
O O3 0.836651 0.210869 0.865898
O O4 0.754164 0.258116 0.000000
O O5 0.165122 0.136425 0.106407
O O6 0.116564 0.000000 0.250000
O O7 0.000000 0.000000 0.134240
O O8 0.320220 0.196723 0.171642
O O9 0.293998 0.204607 0.000000
O O10 0.612317 0.500000 0.750000
O O11 0.500000 0.779809 0.750000
O O12 0.540108 0.663916 0.878170
O O13 0.443370 0.240910 0.500000
O O14 0.500000 0.000000 0.398698
#
# Coordination Sequence:
#
# PCOD9394625 Si02
#       5
#     8   8   8   8   8
#     4  10  22  41  69 102 135 182 235 285 346 425
#     4  11  27  47  72 104 138 181 235 305 379 440
#     4  11  25  46  73 101 143 193 238 296 358 429
#     4  11  23  37  61  99 136 184 227 279 342 407
#     4  10  21  40  65  95 139 190 240 287 339 415
#
# _framework density 23.132860999999998
#
# number of rings (size 3 to 8) (size 9 to 14) (size 15 to 20)
#    0.000    1.400    0.000    4.800    5.600    4.400 
#    0.000   11.000    0.000    0.000    0.000    0.000 
#    0.000    0.000    0.000    0.000    0.000    0.000 
#
# Total GULP energy -223159.876418 kJ/mol
# GULP energy per Si atom -5578.996910 kJ/mol
# Density = 2.308021 g / cm^3
# Si number density = 23.132861 Si / 1000 Ang^3
#
#
#
# Elastic Constant Matrix: (Units=GPa)
#
#
# Indices 1 2 3 4 5 6 
#
# 1 120.5153 10.4455 47.2468 0.0000 0.0000 0.0000
# 2 10.4455 63.1029 17.7980 0.0000 0.0000 0.0000
# 3 47.2468 17.7980 88.1983 0.0000 0.0000 0.0000
# 4 0.0000 0.0000 0.0000 35.5529 0.0000 0.0000
# 5 0.0000 0.0000 0.0000 0.0000 42.0540 0.0000
# 6 0.0000 0.0000 0.0000 0.0000 0.0000 28.4945
#
#
#
# Elastic Compliance Matrix: (Units=1/GPa)
#
#
# Indices 1 2 3 4 5 6 
#
# 1 0.010505 -0.000161 -0.005595 0.000000 0.000000 0.000000
# 2 -0.000161 0.016806 -0.003305 0.000000 0.000000 0.000000
# 3 -0.005595 -0.003305 0.015002 0.000000 0.000000 0.000000
# 4 0.000000 0.000000 0.000000 0.028127 0.000000 0.000000
# 5 0.000000 0.000000 0.000000 0.000000 0.023779 0.000000
# 6 0.000000 0.000000 0.000000 0.000000 0.000000 0.035094
#
#
# Mechanical properties :
#
#
# Convention : Reuss Voigt Hill
#
# Bulk Modulus (GPa) = 41.33734 46.97745 44.15740
# Shear Modulus (GPa) = 32.15440 34.30870 33.23155
#
# Velocity S-wave (km/s) = 3.73230 3.85530 3.79430
# Velocity P-wave (km/s) = 6.04001 6.33795 6.19077
#
# Compressibility (1/GPa) = 0.02419120
#
# Stress axis : x y z
#
# Youngs Moduli (GPa) = 95.19171 59.50263 66.65670
#
# Poissons Ratio (x) = 0.00957 0.37294
# Poissons Ratio (y) = 0.01531 0.22031
# Poissons Ratio (z) = 0.53260 0.19667
#
# Static dielectric constant tensor:
#      x y z
#    x 1.904700 0.000000 0.000000 
#    y 0.000000 1.916330 0.000000 
#    z 0.000000 0.000000 2.135720 
# 
# From -- ./inp_files/16852.got.cif
#   From: 2010.05.17/outbox.cif.g08.bks.cpg/sg49_9_cif.got.tgz:16852.got - 2010.06.03 21:02:19.
