data_PCOD9394442
_publ_section_title
;
Structure prediction by ZEFSAII (Michael W. Deem and Ramdas Pophale) SiO2 
 PCOD9394442
Probable space group: P C C M
;
_chemical_formula_sum "Si O2"
_cell_formula_units_Z 48
_cell_length_a 14.091855
_cell_length_b 18.993656
_cell_length_c 9.214333
_cell_angle_alpha 90.000000
_cell_angle_beta 90.000000
_cell_angle_gamma 90.000000
_cell_volume 2466.270097
_symmetry_space_group_name_H-M "P C C M"
_symmetry_group_IT_number 49
_symmetry_cell_setting 'orthorhombic'
loop_
_space_group_symop_operation_xyz
x,y,z
-x,-y,z
x,-y,1/2-z
-x,y,1/2-z
-x,-y,-z
x,y,-z
-x,y,1/2+z
x,-y,1/2+z
loop_
_atom_site_type_symbol
_atom_site_label
_atom_site_fract_x
_atom_site_fract_y
_atom_site_fract_z
Si Si1 0.403765 0.800728 0.334930
Si Si2 0.628393 0.560947 0.000000
Si Si3 0.588786 0.395294 0.000000
Si Si4 0.698607 0.928158 0.670533
Si Si5 0.098700 0.718791 0.322203
Si Si6 0.907286 0.128698 0.827658
Si Si7 0.702056 0.340406 0.730202
O O1 0.500000 0.784304 0.250000
O O2 0.423901 0.822523 0.500000
O O3 0.350696 0.862468 0.248883
O O4 0.339339 0.731103 0.338028
O O5 0.616538 0.477779 0.000000
O O6 0.525299 0.599879 0.000000
O O7 0.684835 0.590623 0.864597
O O8 0.636321 0.355406 0.867181
O O9 0.674542 0.929651 0.500000
O O10 0.812125 0.916621 0.682607
O O11 0.671247 0.000000 0.750000
O O12 0.098212 0.717643 0.500000
O O13 0.110103 0.798414 0.260155
O O14 0.186508 0.674338 0.259238
O O15 0.000000 0.694206 0.250000
O O16 0.000000 0.096766 0.750000
O O17 0.924971 0.142727 0.000000
#
# Coordination Sequence:
#
# PCOD9394442 Si02
#       7
#     8   4   4   8   8   8   8
#     4  12  25  42  66  94 128 166 216 268 318 383
#     4  11  22  48  61 105 134 178 216 259 329 385
#     4  11  26  38  73  95 142 174 216 263 319 401
#     4  11  25  43  64  91 128 170 214 265 325 382
#     4  11  22  38  63  94 129 166 217 272 325 382
#     4  10  21  37  61  91 125 162 209 262 321 383
#     4  12  24  40  68  99 133 174 216 272 324 382
#
# _framework density 19.462589000000001
#
# number of rings (size 3 to 8) (size 9 to 14) (size 15 to 20)
#    0.000    0.833    3.333    5.000    4.667    4.000 
#    0.000    3.333    0.000    3.000    0.000    0.000 
#    0.000    0.000    0.000    0.000    0.000    0.000 
#
# Total GULP energy -268087.974394 kJ/mol
# GULP energy per Si atom -5585.166133 kJ/mol
# Density = 1.941829 g / cm^3
# Si number density = 19.462589 Si / 1000 Ang^3
#
#
#
# Elastic Constant Matrix: (Units=GPa)
#
#
# Indices 1 2 3 4 5 6 
#
# 1 99.0585 29.5170 20.6035 0.0000 0.0000 0.0000
# 2 29.5170 74.0989 22.8104 0.0000 0.0000 0.0000
# 3 20.6035 22.8104 111.8809 0.0000 0.0000 0.0000
# 4 0.0000 0.0000 0.0000 29.2568 0.0000 0.0000
# 5 0.0000 0.0000 0.0000 0.0000 20.3455 0.0000
# 6 0.0000 0.0000 0.0000 0.0000 0.0000 23.2889
#
#
#
# Elastic Compliance Matrix: (Units=1/GPa)
#
#
# Indices 1 2 3 4 5 6 
#
# 1 0.011623 -0.004237 -0.001277 0.000000 0.000000 0.000000
# 2 -0.004237 0.015944 -0.002470 0.000000 0.000000 0.000000
# 3 -0.001277 -0.002470 0.009677 0.000000 0.000000 0.000000
# 4 0.000000 0.000000 0.000000 0.034180 0.000000 0.000000
# 5 0.000000 0.000000 0.000000 0.000000 0.049151 0.000000
# 6 0.000000 0.000000 0.000000 0.000000 0.000000 0.042939
#
#
# Mechanical properties :
#
#
# Convention : Reuss Voigt Hill
#
# Bulk Modulus (GPa) = 47.00201 47.87780 47.43990
# Shear Modulus (GPa) = 26.79911 28.71875 27.75893
#
# Velocity S-wave (km/s) = 3.71476 3.84550 3.78070
# Velocity P-wave (km/s) = 6.52699 6.66112 6.59440
#
# Compressibility (1/GPa) = 0.02127569
#
# Stress axis : x y z
#
# Youngs Moduli (GPa) = 86.03561 62.72052 103.33967
#
# Poissons Ratio (x) = 0.26575 0.13192
# Poissons Ratio (y) = 0.36453 0.25529
# Poissons Ratio (z) = 0.10983 0.15494
#
# Static dielectric constant tensor:
#      x y z
#    x 1.682670 0.000000 0.000000 
#    y 0.000000 1.641590 0.000000 
#    z 0.000000 0.000000 1.626190 
# 
# From -- ./inp_files/3762.got.cif
#   From: 2010.05.17/outbox.cif.g08.bks.cpg/sg49_2_cif.got.tgz:3762.got - 2010.06.03 21:02:19.
