data_PCOD9394865
_publ_section_title
;
Structure prediction by ZEFSAII (Michael W. Deem and Ramdas Pophale) SiO2 
 PCOD9394865
Probable space group: P C C M
;
_chemical_formula_sum "Si O2"
_cell_formula_units_Z 64
_cell_length_a 18.794224
_cell_length_b 9.335177
_cell_length_c 19.948626
_cell_angle_alpha 90.000000
_cell_angle_beta 90.000000
_cell_angle_gamma 90.000000
_cell_volume 3499.934717
_symmetry_space_group_name_H-M "P C C M"
_symmetry_group_IT_number 49
_symmetry_cell_setting 'orthorhombic'
loop_
_space_group_symop_operation_xyz
x,y,z
-x,-y,z
x,-y,1/2-z
-x,y,1/2-z
-x,-y,-z
x,y,-z
-x,y,1/2+z
x,-y,1/2+z
loop_
_atom_site_type_symbol
_atom_site_label
_atom_site_fract_x
_atom_site_fract_y
_atom_site_fract_z
Si Si1 0.683321 0.726846 0.919551
Si Si2 0.299345 0.451048 0.322711
Si Si3 0.808135 0.891371 0.152554
Si Si4 0.032234 0.340045 0.318008
Si Si5 0.539910 0.358492 0.181041
Si Si6 0.811287 0.221555 0.804315
Si Si7 0.477314 0.165068 0.925065
Si Si8 0.042882 0.148772 0.078508
O O1 0.694752 0.580078 0.876489
O O2 0.742661 0.837246 0.892650
O O3 0.604572 0.794743 0.907252
O O4 0.690036 0.703066 0.000000
O O5 0.270585 0.500000 0.250000
O O6 0.378517 0.394307 0.308906
O O7 0.249610 0.316678 0.339092
O O8 0.801420 0.812329 0.224828
O O9 0.881974 0.852891 0.116497
O O10 0.811508 0.062522 0.164006
O O11 0.116133 0.312129 0.312866
O O12 0.000000 0.500000 0.318965
O O13 0.000000 0.270223 0.250000
O O14 0.004703 0.265438 0.384617
O O15 0.500000 0.500000 0.154889
O O16 0.500000 0.322100 0.250000
O O17 0.528602 0.237452 0.127664
O O18 0.500000 0.000000 0.925819
O O19 0.488416 0.222994 0.000000
O O20 0.053338 0.175932 0.000000
O O21 0.000000 0.000000 0.086044
#
# Coordination Sequence:
#
# PCOD9394865 Si02
#       8
#     8   8   8   8   8   8   8   8
#     4  11  24  42  64  93 130 172 210 261 327 383
#     4  12  23  41  63  92 133 164 212 262 315 384
#     4  11  23  42  64  93 128 165 213 262 315 383
#     4  11  24  40  65  95 123 160 211 261 309 368
#     4  11  21  39  62  93 121 164 206 265 317 364
#     4  11  25  40  65  95 126 169 211 262 316 371
#     4  10  23  42  64  90 124 165 214 262 311 378
#     4  11  23  42  67  91 123 166 207 260 320 373
#
# _framework density 18.286054
#
# number of rings (size 3 to 8) (size 9 to 14) (size 15 to 20)
#    0.000    1.000    6.250    0.375    5.250    1.500 
#    0.000    1.875    0.000    0.000    0.000    0.000 
#    0.000    0.000    0.000    0.000    0.000    0.000 
#
# Total GULP energy -357029.780639 kJ/mol
# GULP energy per Si atom -5578.590322 kJ/mol
# Density = 1.824443 g / cm^3
# Si number density = 18.286054 Si / 1000 Ang^3
#
#
#
# Elastic Constant Matrix: (Units=GPa)
#
#
# Indices 1 2 3 4 5 6 
#
# 1 99.6013 34.5102 22.5609 0.0000 0.0000 0.0000
# 2 34.5102 82.1554 56.1108 0.0000 0.0000 0.0000
# 3 22.5609 56.1108 78.4404 0.0000 0.0000 0.0000
# 4 0.0000 0.0000 0.0000 28.1353 0.0000 0.0000
# 5 0.0000 0.0000 0.0000 0.0000 24.4906 0.0000
# 6 0.0000 0.0000 0.0000 0.0000 0.0000 -2.4213
#
#
#
# Elastic Compliance Matrix: (Units=1/GPa)
#
#
# Indices 1 2 3 4 5 6 
#
# 1 0.011754 -0.005139 0.000296 0.000000 0.000000 0.000000
# 2 -0.005139 0.026047 -0.017154 0.000000 0.000000 0.000000
# 3 0.000296 -0.017154 0.024934 0.000000 0.000000 0.000000
# 4 0.000000 0.000000 0.000000 0.035543 0.000000 0.000000
# 5 0.000000 0.000000 0.000000 0.000000 0.040832 0.000000
# 6 0.000000 0.000000 0.000000 0.000000 0.000000 -0.413010
#
#
# Mechanical properties :
#
#
# Convention : Reuss Voigt Hill
#
# Bulk Modulus (GPa) = 53.36252 54.06231 53.71241
# Shear Modulus (GPa) = -22.35538 19.84195 -1.25671
#
# Velocity S-wave (km/s) = -3.50027 3.29764 -0.82991
# Velocity P-wave (km/s) = 3.59299 6.64291 5.34031
#
# Compressibility (1/GPa) = 0.01873975
#
# Stress axis : x y z
#
# Youngs Moduli (GPa) = 85.07959 38.39285 40.10571
#
# Poissons Ratio (x) = 0.19731 -0.01185
# Poissons Ratio (y) = 0.43724 0.68796
# Poissons Ratio (z) = -0.02515 0.65858
#
# Static dielectric constant tensor:
#      x y z
#    x 1.629530 0.000000 0.000000 
#    y 0.000000 1.656600 0.000000 
#    z 0.000000 0.000000 1.606100 
# 
# From -- ./inp_files/21097.got.cif
#   From: 2010.05.17/outbox.cif.g08.bks.cpg/sg49_11_cif.got.tgz:21097.got - 2010.06.03 21:02:19.
