data_PCOD9394772
_publ_section_title
;
Structure prediction by ZEFSAII (Michael W. Deem and Ramdas Pophale) SiO2 
 PCOD9394772
Probable space group: P C C M
;
_chemical_formula_sum "Si O2"
_cell_formula_units_Z 48
_cell_length_a 27.109720
_cell_length_b 5.035694
_cell_length_c 16.786322
_cell_angle_alpha 90.000000
_cell_angle_beta 90.000000
_cell_angle_gamma 90.000000
_cell_volume 2291.605804
_symmetry_space_group_name_H-M "P C C M"
_symmetry_group_IT_number 49
_symmetry_cell_setting 'orthorhombic'
loop_
_space_group_symop_operation_xyz
x,y,z
-x,-y,z
x,-y,1/2-z
-x,y,1/2-z
-x,-y,-z
x,y,-z
-x,y,1/2+z
x,-y,1/2+z
loop_
_atom_site_type_symbol
_atom_site_label
_atom_site_fract_x
_atom_site_fract_y
_atom_site_fract_z
Si Si1 0.869721 0.753142 0.805308
Si Si2 0.033722 0.240955 0.908200
Si Si3 0.556248 0.911992 0.092999
Si Si4 0.393755 0.593991 0.841022
Si Si5 0.719996 0.476291 0.845854
Si Si6 0.222953 0.965013 0.593728
O O1 0.857425 0.500000 0.750000
O O2 0.916944 0.699412 0.859989
O O3 0.824085 0.854182 0.858364
O O4 0.883282 0.000000 0.750000
O O5 0.000000 0.500000 0.908046
O O6 0.046841 0.173075 0.000000
O O7 0.000000 0.000000 0.876270
O O8 0.588974 0.106479 0.146360
O O9 0.500000 0.000000 0.108284
O O10 0.570656 0.608877 0.111639
O O11 0.566345 0.963536 0.000000
O O12 0.396395 0.500000 0.750000
O O13 0.336793 0.579274 0.866758
O O14 0.723731 0.500000 0.750000
O O15 0.735219 0.749018 0.887436
O O16 0.756840 0.245303 0.874475
O O17 0.212554 0.982951 0.500000
#
# Coordination Sequence:
#
# PCOD9394772 Si02
#       6
#     8   8   8   8   8   8
#     4  12  25  41  64  92 126 166 208 258 314 371
#     4  10  22  41  64  91 126 165 206 257 313 370
#     4  11  24  41  62  90 126 165 205 254 309 366
#     4  11  24  41  64  93 123 161 206 255 310 371
#     4  11  24  43  65  91 126 162 203 257 316 373
#     4  12  25  42  65  93 124 163 211 257 310 375
#
# _framework density 20.946013000000001
#
# number of rings (size 3 to 8) (size 9 to 14) (size 15 to 20)
#    0.000    0.833    0.000    7.500    0.000   12.000 
#    0.000    5.000    0.000    0.000    0.000    0.000 
#    0.000    0.000    0.000    0.000    0.000    0.000 
#
# Total GULP energy -268654.037842 kJ/mol
# GULP energy per Si atom -5596.959122 kJ/mol
# Density = 2.089834 g / cm^3
# Si number density = 20.946013 Si / 1000 Ang^3
#
#
#
# Elastic Constant Matrix: (Units=GPa)
#
#
# Indices 1 2 3 4 5 6 
#
# 1 68.0459 -19.3564 30.9480 0.0000 0.0000 0.0000
# 2 -19.3564 72.5273 -1.5822 0.0000 0.0000 0.0000
# 3 30.9480 -1.5822 69.6324 0.0000 0.0000 0.0000
# 4 0.0000 0.0000 0.0000 52.3906 0.0000 0.0000
# 5 0.0000 0.0000 0.0000 0.0000 23.3752 0.0000
# 6 0.0000 0.0000 0.0000 0.0000 0.0000 24.4962
#
#
#
# Elastic Compliance Matrix: (Units=1/GPa)
#
#
# Indices 1 2 3 4 5 6 
#
# 1 0.020206 0.005199 -0.008862 0.000000 0.000000 0.000000
# 2 0.005199 0.015133 -0.001967 0.000000 0.000000 0.000000
# 3 -0.008862 -0.001967 0.018255 0.000000 0.000000 0.000000
# 4 0.000000 0.000000 0.000000 0.019087 0.000000 0.000000
# 5 0.000000 0.000000 0.000000 0.000000 0.042780 0.000000
# 6 0.000000 0.000000 0.000000 0.000000 0.000000 0.040823
#
#
# Mechanical properties :
#
#
# Convention : Reuss Voigt Hill
#
# Bulk Modulus (GPa) = 23.62190 25.58047 24.60119
# Shear Modulus (GPa) = 27.52471 33.39881 30.46176
#
# Velocity S-wave (km/s) = 3.62896 3.99747 3.81766
# Velocity P-wave (km/s) = 5.37225 5.79185 5.58599
#
# Compressibility (1/GPa) = 0.04233360
#
# Stress axis : x y z
#
# Youngs Moduli (GPa) = 49.49125 66.08245 54.77878
#
# Poissons Ratio (x) = -0.34358 0.48546
# Poissons Ratio (y) = -0.25732 0.10775
# Poissons Ratio (z) = 0.43860 0.12998
#
# Static dielectric constant tensor:
#      x y z
#    x 1.731810 0.000000 0.000000 
#    y 0.000000 1.760550 0.000000 
#    z 0.000000 0.000000 1.760940 
# 
# From -- ./inp_files/14575.got.cif
#   From: 2010.05.17/outbox.cif.g08.bks.cpg/sg49_8_cif.got.tgz:14575.got - 2010.06.03 21:02:19.
