data_PCOD9394297
_publ_section_title
;
Structure prediction by ZEFSAII (Michael W. Deem and Ramdas Pophale) SiO2 
 PCOD9394297
Probable space group: P C C M
;
_chemical_formula_sum "Si O2"
_cell_formula_units_Z 52
_cell_length_a 5.550119
_cell_length_b 23.130690
_cell_length_c 23.150718
_cell_angle_alpha 90.000000
_cell_angle_beta 90.000000
_cell_angle_gamma 90.000000
_cell_volume 2972.044775
_symmetry_space_group_name_H-M "P C C M"
_symmetry_group_IT_number 49
_symmetry_cell_setting 'orthorhombic'
loop_
_space_group_symop_operation_xyz
x,y,z
-x,-y,z
x,-y,1/2-z
-x,y,1/2-z
-x,-y,-z
x,y,-z
-x,y,1/2+z
x,-y,1/2+z
loop_
_atom_site_type_symbol
_atom_site_label
_atom_site_fract_x
_atom_site_fract_y
_atom_site_fract_z
Si Si1 0.291627 0.164127 0.430205
Si Si2 0.207771 0.770618 0.429908
Si Si3 0.283204 0.653363 0.638217
Si Si4 0.250244 0.031146 0.429573
Si Si5 0.407808 0.434528 0.435781
Si Si6 0.100900 0.436306 0.676535
Si Si7 0.500000 0.376564 0.250000
O O1 0.297145 0.162660 0.500000
O O2 0.546937 0.194029 0.414073
O O3 0.266477 0.097824 0.410516
O O4 0.044445 0.197660 0.415235
O O5 0.212389 0.762083 0.500000
O O6 0.212779 0.710432 0.395637
O O7 0.400662 0.609460 0.591879
O O8 0.455945 0.662846 0.693423
O O9 0.078772 0.617199 0.670916
O O10 0.245929 0.030553 0.500000
O O11 0.500000 0.000000 0.412302
O O12 0.000000 0.000000 0.411309
O O13 0.500000 0.500000 0.439319
O O14 0.335165 0.415582 0.500000
O O15 0.203794 0.437426 0.388212
O O16 0.298211 0.419969 0.724182
O O17 0.000000 0.500000 0.686866
#
# Coordination Sequence:
#
# PCOD9394297 Si02
#       7
#     8   8   8   8   8   8   4
#     4   9  18  32  48  74 110 149 191 229 265 313
#     4  10  21  35  54  77 109 150 191 229 270 333
#     4  11  23  39  56  77 100 140 184 222 284 334
#     4   9  15  24  43  70 103 145 190 227 259 303
#     4  10  21  37  55  80 110 132 166 218 272 334
#     4  11  23  41  58  82 102 134 172 224 293 347
#     4  10  26  41  58  78 104 128 179 234 286 346
#
# _framework density 17.496371
#
# number of rings (size 3 to 8) (size 9 to 14) (size 15 to 20)
#    0.000    2.000    1.538    1.846    4.308    7.077 
#    0.000    0.000    0.000    0.000    0.000    0.000 
#    0.000    0.000    0.000   10.385    0.308    4.615 
#
# Total GULP energy -289584.504101 kJ/mol
# GULP energy per Si atom -5568.932771 kJ/mol
# Density = 1.745655 g / cm^3
# Si number density = 17.496371 Si / 1000 Ang^3
#
#
#
# Elastic Constant Matrix: (Units=GPa)
#
#
# Indices 1 2 3 4 5 6 
#
# 1 102.2365 58.3118 31.3252 0.0000 0.0000 0.0000
# 2 58.3118 125.6567 32.7867 0.0000 0.0000 0.0000
# 3 31.3252 32.7867 93.6430 0.0000 0.0000 0.0000
# 4 0.0000 0.0000 0.0000 26.5085 0.0000 0.0000
# 5 0.0000 0.0000 0.0000 0.0000-1518.8261 0.0000
# 6 0.0000 0.0000 0.0000 0.0000 0.0000 28.5538
#
#
#
# Elastic Compliance Matrix: (Units=1/GPa)
#
#
# Indices 1 2 3 4 5 6 
#
# 1 0.013865 -0.005749 -0.002625 0.000000 0.000000 0.000000
# 2 -0.005749 0.011142 -0.001978 0.000000 0.000000 0.000000
# 3 -0.002625 -0.001978 0.012250 0.000000 0.000000 0.000000
# 4 0.000000 0.000000 0.000000 0.037724 0.000000 0.000000
# 5 0.000000 0.000000 0.000000 0.000000 -0.000658 0.000000
# 6 0.000000 0.000000 0.000000 0.000000 0.000000 0.035022
#
#
# Mechanical properties :
#
#
# Convention : Reuss Voigt Hill
#
# Bulk Modulus (GPa) = 60.41527 62.93152 61.67339
# Shear Modulus (GPa) = 36.88275 -279.47859 -121.29792
#
# Velocity S-wave (km/s) = 4.59630 -12.65235 -8.33535
# Velocity P-wave (km/s) = 7.92295 13.31902 7.57044
#
# Compressibility (1/GPa) = 0.01655211
#
# Stress axis : x y z
#
# Youngs Moduli (GPa) = 72.12619 89.74921 81.63575
#
# Poissons Ratio (x) = 0.51597 0.21430
# Poissons Ratio (y) = 0.41465 0.16148
# Poissons Ratio (z) = 0.18934 0.17752
#
# Static dielectric constant tensor:
#      x y z
#    x 1.666430 0.000000 0.000000 
#    y 0.000000 1.543180 0.000000 
#    z 0.000000 0.000000 1.604970 
# 
# From -- ./inp_files/19032.got.cif
#   From: 2010.05.17/outbox.cif.g08.bks.cpg/sg49_10_cif.got.tgz:19032.got - 2010.06.03 21:02:19.
