data_PCOD9394703
_publ_section_title
;
Structure prediction by ZEFSAII (Michael W. Deem and Ramdas Pophale) SiO2 
 PCOD9394703
Probable space group: P C C M
;
_chemical_formula_sum "Si O2"
_cell_formula_units_Z 64
_cell_length_a 24.812373
_cell_length_b 14.747656
_cell_length_c 8.898981
_cell_angle_alpha 90.000000
_cell_angle_beta 90.000000
_cell_angle_gamma 90.000000
_cell_volume 3256.353763
_symmetry_space_group_name_H-M "P C C M"
_symmetry_group_IT_number 49
_symmetry_cell_setting 'orthorhombic'
loop_
_space_group_symop_operation_xyz
x,y,z
-x,-y,z
x,-y,1/2-z
-x,y,1/2-z
-x,-y,-z
x,y,-z
-x,y,1/2+z
x,-y,1/2+z
loop_
_atom_site_type_symbol
_atom_site_label
_atom_site_fract_x
_atom_site_fract_y
_atom_site_fract_z
Si Si1 0.374563 0.597434 0.315431
Si Si2 0.745563 0.389997 0.761580
Si Si3 0.346698 0.099204 0.322394
Si Si4 0.134085 0.405097 0.666377
Si Si5 0.941072 0.242865 0.181753
Si Si6 0.442006 0.759406 0.820550
Si Si7 0.755021 0.192774 0.667026
Si Si8 0.855325 0.901168 0.320389
O O1 0.392478 0.500000 0.250000
O O2 0.365167 0.594498 0.500000
O O3 0.319323 0.618648 0.220856
O O4 0.416391 0.674862 0.269881
O O5 0.747477 0.500000 0.750000
O O6 0.802882 0.377923 0.845461
O O7 0.752976 0.301837 0.656569
O O8 0.335973 0.091262 0.500000
O O9 0.401403 0.156172 0.301755
O O10 0.298513 0.155678 0.246391
O O11 0.349744 0.000000 0.250000
O O12 0.130631 0.500000 0.750000
O O13 0.113133 0.421138 0.500000
O O14 0.097903 0.325096 0.733439
O O15 0.910240 0.150463 0.223013
O O16 0.000000 0.249842 0.250000
O O17 0.943898 0.245641 0.000000
O O18 0.500000 0.779328 0.750000
O O19 0.445529 0.739646 0.000000
O O20 0.758563 0.153931 0.500000
O O21 0.805784 0.158799 0.761292
O O22 0.852490 0.906379 0.500000
O O23 0.851999 0.000000 0.250000
#
# Coordination Sequence:
#
# PCOD9394703 Si02
#       8
#     8   8   8   8   8   8   8   8
#     4  11  23  41  64  95 132 169 211 258 311 375
#     4  10  22  38  62  97 133 167 205 248 308 367
#     4  11  25  44  67  96 128 167 209 259 319 376
#     4  10  22  40  62  91 128 167 208 256 309 372
#     4  10  23  43  63  88 122 162 209 261 315 369
#     4  11  25  44  67  94 125 166 214 264 317 371
#     4  12  23  40  67  99 131 169 210 253 311 375
#     4  11  24  44  65  92 127 163 207 261 318 378
#
# _framework density 19.653884999999999
#
# number of rings (size 3 to 8) (size 9 to 14) (size 15 to 20)
#    0.000    1.250    2.500    2.625    0.000   11.500 
#    0.000    5.000    0.000    0.000    0.000    0.000 
#    0.000    0.000    0.000    0.000    0.000    0.000 
#
# Total GULP energy -356313.466883 kJ/mol
# GULP energy per Si atom -5567.397920 kJ/mol
# Density = 1.960915 g / cm^3
# Si number density = 19.653885 Si / 1000 Ang^3
#
#
#
# Elastic Constant Matrix: (Units=GPa)
#
#
# Indices 1 2 3 4 5 6 
#
# 1 122.6343 36.7330 41.5054 0.0000 0.0000 0.0000
# 2 36.7330 121.0509 55.9864 0.0000 0.0000 0.0000
# 3 41.5054 55.9864 75.5918 0.0000 0.0000 0.0000
# 4 0.0000 0.0000 0.0000 23.1167 0.0000 0.0000
# 5 0.0000 0.0000 0.0000 0.0000 -38.7603 0.0000
# 6 0.0000 0.0000 0.0000 0.0000 0.0000 25.2716
#
#
#
# Elastic Compliance Matrix: (Units=1/GPa)
#
#
# Indices 1 2 3 4 5 6 
#
# 1 0.010061 -0.000758 -0.004963 0.000000 0.000000 0.000000
# 2 -0.000758 0.012622 -0.008933 0.000000 0.000000 0.000000
# 3 -0.004963 -0.008933 0.022570 0.000000 0.000000 0.000000
# 4 0.000000 0.000000 0.000000 0.043259 0.000000 0.000000
# 5 0.000000 0.000000 0.000000 0.000000 -0.025800 0.000000
# 6 0.000000 0.000000 0.000000 0.000000 0.000000 0.039570
#
#
# Mechanical properties :
#
#
# Convention : Reuss Voigt Hill
#
# Bulk Modulus (GPa) = 62.70939 65.30295 64.00617
# Shear Modulus (GPa) = 36.52178 14.26240 25.39209
#
# Velocity S-wave (km/s) = 4.31542 2.69676 3.59829
# Velocity P-wave (km/s) = 7.53701 6.55708 7.06406
#
# Compressibility (1/GPa) = 0.01594657
#
# Stress axis : x y z
#
# Youngs Moduli (GPa) = 99.39358 79.22548 44.30673
#
# Poissons Ratio (x) = 0.06002 0.21990
# Poissons Ratio (y) = 0.07529 0.39577
# Poissons Ratio (z) = 0.49331 0.70769
#
# Static dielectric constant tensor:
#      x y z
#    x 1.664260 0.000000 0.000000 
#    y 0.000000 1.512610 0.000000 
#    z 0.000000 0.000000 1.689230 
# 
# From -- ./inp_files/6502.got.cif
#   From: 2010.05.17/outbox.cif.g08.bks.cpg/sg49_4_cif.got.tgz:6502.got - 2010.06.03 21:02:19.
