data_PCOD9394285
_publ_section_title
;
Structure prediction by ZEFSAII (Michael W. Deem and Ramdas Pophale) SiO2 
 PCOD9394285
Probable space group: P C C M
;
_chemical_formula_sum "Si O2"
_cell_formula_units_Z 64
_cell_length_a 13.054659
_cell_length_b 14.480674
_cell_length_c 16.826391
_cell_angle_alpha 90.000000
_cell_angle_beta 90.000000
_cell_angle_gamma 90.000000
_cell_volume 3180.865349
_symmetry_space_group_name_H-M "P C C M"
_symmetry_group_IT_number 49
_symmetry_cell_setting 'orthorhombic'
loop_
_space_group_symop_operation_xyz
x,y,z
-x,-y,z
x,-y,1/2-z
-x,y,1/2-z
-x,-y,-z
x,y,-z
-x,y,1/2+z
x,-y,1/2+z
loop_
_atom_site_type_symbol
_atom_site_label
_atom_site_fract_x
_atom_site_fract_y
_atom_site_fract_z
Si Si1 0.483104 0.391770 0.659137
Si Si2 0.236599 0.928569 0.180799
Si Si3 0.097878 0.053720 0.092503
Si Si4 0.607096 0.136243 0.912941
Si Si5 0.805614 0.211660 0.307314
Si Si6 0.608905 0.765101 0.090212
Si Si7 0.265845 0.673704 0.092564
Si Si8 0.876960 0.392902 0.765018
O O1 0.500000 0.500000 0.656931
O O2 0.500000 0.358577 0.750000
O O3 0.566145 0.337483 0.606729
O O4 0.368538 0.372739 0.628702
O O5 0.355562 0.923970 0.159658
O O6 0.195109 0.834969 0.220232
O O7 0.215534 0.000000 0.250000
O O8 0.184940 0.976011 0.104885
O O9 0.121762 0.147988 0.138639
O O10 0.082916 0.073937 0.000000
O O11 0.000000 0.000000 0.126185
O O12 0.494597 0.175822 0.902449
O O13 0.692368 0.219498 0.911339
O O14 0.611391 0.092128 0.000000
O O15 0.694097 0.205781 0.347185
O O16 0.832641 0.318567 0.297526
O O17 0.648424 0.773712 0.000000
O O18 0.172197 0.642306 0.150472
O O19 0.247100 0.647930 0.000000
O O20 0.846647 0.500000 0.750000
O O21 0.000000 0.388144 0.750000
#
# Coordination Sequence:
#
# PCOD9394285 Si02
#       8
#     8   8   8   8   8   8   8   8
#     4  10  21  34  59  94 129 167 216 272 336 396
#     4  10  21  36  60  92 122 161 210 260 319 395
#     4  10  23  42  66  99 128 157 214 284 344 404
#     4   9  18  36  61  88 124 167 206 254 318 387
#     4  11  23  40  67  92 127 173 212 268 336 394
#     4  10  22  38  57  89 130 170 216 269 325 396
#     4  10  21  39  64  92 127 170 220 274 326 393
#     4  11  26  46  66  94 130 176 228 280 329 395
#
# _framework density 20.120311000000001
#
# number of rings (size 3 to 8) (size 9 to 14) (size 15 to 20)
#    0.000    1.875    1.250    2.625    7.000    2.750 
#    0.000    7.500    0.000    6.750    0.000    0.000 
#    0.000    0.000    0.000    0.000    0.000    0.000 
#
# Total GULP energy -356541.017390 kJ/mol
# GULP energy per Si atom -5570.953397 kJ/mol
# Density = 2.007452 g / cm^3
# Si number density = 20.120311 Si / 1000 Ang^3
#
#
#
# Elastic Constant Matrix: (Units=GPa)
#
#
# Indices 1 2 3 4 5 6 
#
# 1 69.7154 24.9730 41.1733 0.0000 0.0000 0.0000
# 2 24.9730 59.9004 18.1815 0.0000 0.0000 0.0000
# 3 41.1733 18.1815 72.7518 0.0000 0.0000 0.0000
# 4 0.0000 0.0000 0.0000 6.9704 0.0000 0.0000
# 5 0.0000 0.0000 0.0000 0.0000 23.5866 0.0000
# 6 0.0000 0.0000 0.0000 0.0000 0.0000 11.7683
#
#
#
# Elastic Compliance Matrix: (Units=1/GPa)
#
#
# Indices 1 2 3 4 5 6 
#
# 1 0.023519 -0.006238 -0.011751 0.000000 0.000000 0.000000
# 2 -0.006238 0.019719 -0.001398 0.000000 0.000000 0.000000
# 3 -0.011751 -0.001398 0.020745 0.000000 0.000000 0.000000
# 4 0.000000 0.000000 0.000000 0.143464 0.000000 0.000000
# 5 0.000000 0.000000 0.000000 0.000000 0.042397 0.000000
# 6 0.000000 0.000000 0.000000 0.000000 0.000000 0.084974
#
#
# Mechanical properties :
#
#
# Convention : Reuss Voigt Hill
#
# Bulk Modulus (GPa) = 39.66830 41.22480 40.44655
# Shear Modulus (GPa) = 13.08914 16.33437 14.71176
#
# Velocity S-wave (km/s) = 2.55334 2.85236 2.70698
# Velocity P-wave (km/s) = 5.33396 5.60193 5.46958
#
# Compressibility (1/GPa) = 0.02520905
#
# Stress axis : x y z
#
# Youngs Moduli (GPa) = 42.51896 50.71151 48.20392
#
# Poissons Ratio (x) = 0.31636 0.56646
# Poissons Ratio (y) = 0.26525 0.06737
# Poissons Ratio (z) = 0.49965 0.07087
#
# Static dielectric constant tensor:
#      x y z
#    x 1.731700 0.000000 0.000000 
#    y 0.000000 1.786700 0.000000 
#    z 0.000000 0.000000 1.762120 
# 
# From -- ./inp_files/17305.got.cif
#   From: 2010.05.17/outbox.cif.g08.bks.cpg/sg49_9_cif.got.tgz:17305.got - 2010.06.03 21:02:19.
