data_PCOD9394320
_publ_section_title
;
Structure prediction by ZEFSAII (Michael W. Deem and Ramdas Pophale) SiO2 
 PCOD9394320
Probable space group: P C C M
;
_chemical_formula_sum "Si O2"
_cell_formula_units_Z 40
_cell_length_a 25.961999
_cell_length_b 9.730167
_cell_length_c 8.667747
_cell_angle_alpha 90.000000
_cell_angle_beta 90.000000
_cell_angle_gamma 90.000000
_cell_volume 2189.599319
_symmetry_space_group_name_H-M "P C C M"
_symmetry_group_IT_number 49
_symmetry_cell_setting 'orthorhombic'
loop_
_space_group_symop_operation_xyz
x,y,z
-x,-y,z
x,-y,1/2-z
-x,y,1/2-z
-x,-y,-z
x,y,-z
-x,y,1/2+z
x,-y,1/2+z
loop_
_atom_site_type_symbol
_atom_site_label
_atom_site_fract_x
_atom_site_fract_y
_atom_site_fract_z
Si Si1 0.739888 0.152435 0.815272
Si Si2 0.355981 0.653575 0.814535
Si Si3 0.054552 0.346595 0.814879
Si Si4 0.850826 0.847738 0.185117
Si Si5 0.557457 0.851504 0.184821
O O1 0.694930 0.258457 0.774035
O O2 0.795314 0.196950 0.749756
O O3 0.728914 0.000000 0.750000
O O4 0.743073 0.142842 0.000000
O O5 0.352821 0.500000 0.750000
O O6 0.404337 0.734364 0.743505
O O7 0.360599 0.650626 0.000000
O O8 0.061467 0.500000 0.750000
O O9 0.102683 0.252248 0.769955
O O10 0.000000 0.293880 0.750000
O O11 0.051615 0.352315 0.000000
O O12 0.860300 0.000000 0.250000
O O13 0.848013 0.853488 0.000000
O O14 0.500000 0.828843 0.250000
O O15 0.574906 0.000000 0.250000
O O16 0.556080 0.856772 0.000000
#
# Coordination Sequence:
#
# PCOD9394320 Si02
#       5
#     8   8   8   8   8
#     4  10  21  37  59  83 110 145 185 228 276 329
#     4  11  24  40  58  85 117 151 190 233 282 334
#     4  10  21  36  55  79 107 143 182 223 270 325
#     4  10  21  36  56  82 110 141 181 226 275 326
#     4  11  22  39  63  89 117 151 191 234 279 332
#
# _framework density 18.268180999999998
#
# number of rings (size 3 to 8) (size 9 to 14) (size 15 to 20)
#    0.000    1.600    0.000    7.200    0.000    9.600 
#    0.000    8.000    0.000    0.000    0.000    0.000 
#    0.000    0.000    0.000    0.000    0.000    0.000 
#
# Total GULP energy -223566.091619 kJ/mol
# GULP energy per Si atom -5589.152290 kJ/mol
# Density = 1.822660 g / cm^3
# Si number density = 18.268181 Si / 1000 Ang^3
#
#
#
# Elastic Constant Matrix: (Units=GPa)
#
#
# Indices 1 2 3 4 5 6 
#
# 1 143.9656 108.9941 63.2695 0.0000 0.0000 0.0000
# 2 108.9941 121.6167 55.8816 0.0000 0.0000 0.0000
# 3 63.2695 55.8816 94.0375 0.0000 0.0000 0.0000
# 4 0.0000 0.0000 0.0000 11.3454 0.0000 0.0000
# 5 0.0000 0.0000 0.0000 0.0000 61.4215 0.0000
# 6 0.0000 0.0000 0.0000 0.0000 0.0000 187.0884
#
#
#
# Elastic Compliance Matrix: (Units=1/GPa)
#
#
# Indices 1 2 3 4 5 6 
#
# 1 0.022862 -0.018463 -0.004411 0.000000 0.000000 0.000000
# 2 -0.018463 0.026221 -0.003160 0.000000 0.000000 0.000000
# 3 -0.004411 -0.003160 0.015479 0.000000 0.000000 0.000000
# 4 0.000000 0.000000 0.000000 0.088142 0.000000 0.000000
# 5 0.000000 0.000000 0.000000 0.000000 0.016281 0.000000
# 6 0.000000 0.000000 0.000000 0.000000 0.000000 0.005345
#
#
# Mechanical properties :
#
#
# Convention : Reuss Voigt Hill
#
# Bulk Modulus (GPa) = 80.02400 90.65668 85.34034
# Shear Modulus (GPa) = 21.68611 60.73604 41.21107
#
# Velocity S-wave (km/s) = 3.44917 5.77227 4.75478
# Velocity P-wave (km/s) = 7.73062 9.70354 8.77272
#
# Compressibility (1/GPa) = 0.01249625
#
# Stress axis : x y z
#
# Youngs Moduli (GPa) = 43.73991 38.13723 64.60287
#
# Poissons Ratio (x) = 0.70413 0.28493
# Poissons Ratio (y) = 0.80757 0.20413
# Poissons Ratio (z) = 0.19292 0.12050
#
# Static dielectric constant tensor:
#      x y z
#    x 1.621750 0.000000 0.000000 
#    y 0.000000 1.596140 0.000000 
#    z 0.000000 0.000000 1.612340 
# 
# From -- ./inp_files/1694.got.cif
#   From: 2010.05.17/outbox.cif.g08.bks.cpg/sg49_1_cif.got.tgz:1694.got - 2010.06.03 21:02:19.
