data_PCOD9394214
_publ_section_title
;
Structure prediction by ZEFSAII (Michael W. Deem and Ramdas Pophale) SiO2 
 PCOD9394214
Probable space group: P C C M
;
_chemical_formula_sum "Si O2"
_cell_formula_units_Z 56
_cell_length_a 9.146864
_cell_length_b 18.250574
_cell_length_c 17.184040
_cell_angle_alpha 90.000000
_cell_angle_beta 90.000000
_cell_angle_gamma 90.000000
_cell_volume 2868.626624
_symmetry_space_group_name_H-M "P C C M"
_symmetry_group_IT_number 49
_symmetry_cell_setting 'orthorhombic'
loop_
_space_group_symop_operation_xyz
x,y,z
-x,-y,z
x,-y,1/2-z
-x,y,1/2-z
-x,-y,-z
x,y,-z
-x,y,1/2+z
x,-y,1/2+z
loop_
_atom_site_type_symbol
_atom_site_label
_atom_site_fract_x
_atom_site_fract_y
_atom_site_fract_z
Si Si1 0.009295 0.765105 0.088763
Si Si2 0.478157 0.583877 0.592196
Si Si3 0.527241 0.187524 0.668415
Si Si4 0.243125 0.690223 0.673728
Si Si5 0.617040 0.062928 0.909832
Si Si6 0.064327 0.076288 0.661633
Si Si7 0.285171 0.310529 0.650670
O O1 0.013796 0.846826 0.124447
O O2 0.170511 0.731620 0.097877
O O3 0.907870 0.705864 0.131533
O O4 0.963116 0.770900 0.000000
O O5 0.500000 0.500000 0.617496
O O6 0.447443 0.585785 0.500000
O O7 0.350172 0.629639 0.635619
O O8 0.631849 0.623537 0.609633
O O9 0.500000 0.145957 0.750000
O O10 0.680045 0.229182 0.665254
O O11 0.479933 0.135994 0.599040
O O12 0.412635 0.253369 0.670608
O O13 0.221716 0.671254 0.764270
O O14 0.760420 0.069902 0.854711
O O15 0.500000 0.000000 0.889440
O O16 0.664710 0.053477 0.000000
O O17 0.000000 0.079136 0.750000
O O18 0.000000 0.000000 0.628028
#
# Coordination Sequence:
#
# PCOD9394214 Si02
#       7
#     8   8   8   8   8   8   8
#     4  12  24  39  64  92 128 167 208 265 318 380
#     4  10  21  39  64  95 131 165 205 258 314 374
#     4   9  20  36  60  84 115 155 204 256 304 367
#     4  10  22  38  61  93 124 162 210 257 306 371
#     4  11  25  42  62  90 124 161 213 272 324 383
#     4  11  26  44  64  89 124 172 215 266 328 391
#     4  10  20  39  62  89 121 164 206 252 308 371
#
# _framework density 19.521536999999999
#
# number of rings (size 3 to 8) (size 9 to 14) (size 15 to 20)
#    0.000    1.571    1.429    3.857    4.000    6.571 
#    0.000    0.714    0.000    4.286    0.000    0.000 
#    0.000    0.000    0.000    0.000    0.000    0.000 
#
# Total GULP energy -312180.360720 kJ/mol
# GULP energy per Si atom -5574.649299 kJ/mol
# Density = 1.947711 g / cm^3
# Si number density = 19.521537 Si / 1000 Ang^3
#
#
#
# Elastic Constant Matrix: (Units=GPa)
#
#
# Indices 1 2 3 4 5 6 
#
# 1 46.0725 7.3470 0.0454 0.0000 0.0000 0.0000
# 2 7.3470 105.3954 14.3184 0.0000 0.0000 0.0000
# 3 0.0454 14.3184 50.9413 0.0000 0.0000 0.0000
# 4 0.0000 0.0000 0.0000 16.7110 0.0000 0.0000
# 5 0.0000 0.0000 0.0000 0.0000 27.0325 0.0000
# 6 0.0000 0.0000 0.0000 0.0000 0.0000 18.3702
#
#
#
# Elastic Compliance Matrix: (Units=1/GPa)
#
#
# Indices 1 2 3 4 5 6 
#
# 1 0.021958 -0.001589 0.000427 0.000000 0.000000 0.000000
# 2 -0.001589 0.009980 -0.002804 0.000000 0.000000 0.000000
# 3 0.000427 -0.002804 0.020418 0.000000 0.000000 0.000000
# 4 0.000000 0.000000 0.000000 0.059841 0.000000 0.000000
# 5 0.000000 0.000000 0.000000 0.000000 0.036992 0.000000
# 6 0.000000 0.000000 0.000000 0.000000 0.000000 0.054436
#
#
# Mechanical properties :
#
#
# Convention : Reuss Voigt Hill
#
# Bulk Modulus (GPa) = 22.50987 27.31454 24.91221
# Shear Modulus (GPa) = 22.08831 24.46929 23.27880
#
# Velocity S-wave (km/s) = 3.36740 3.54425 3.45696
# Velocity P-wave (km/s) = 5.16479 5.54719 5.35940
#
# Compressibility (1/GPa) = 0.04442495
#
# Stress axis : x y z
#
# Youngs Moduli (GPa) = 45.54178 100.20328 48.97617
#
# Poissons Ratio (x) = 0.15919 -0.02091
# Poissons Ratio (y) = 0.07235 0.13731
# Poissons Ratio (z) = -0.01944 0.28093
#
# Static dielectric constant tensor:
#      x y z
#    x 1.683360 0.000000 0.000000 
#    y 0.000000 1.678640 0.000000 
#    z 0.000000 0.000000 1.740160 
# 
# From -- ./inp_files/11989.got.cif
#   From: 2010.05.17/outbox.cif.g08.bks.cpg/sg49_6_cif.got.tgz:11989.got - 2010.06.03 21:02:19.
