data_PCOD9394905
_publ_section_title
;
Structure prediction by ZEFSAII (Michael W. Deem and Ramdas Pophale) SiO2 
 PCOD9394905
Probable space group: P C C M
;
_chemical_formula_sum "Si O2"
_cell_formula_units_Z 56
_cell_length_a 18.696373
_cell_length_b 9.459688
_cell_length_c 15.419018
_cell_angle_alpha 90.000000
_cell_angle_beta 90.000000
_cell_angle_gamma 90.000000
_cell_volume 2727.036131
_symmetry_space_group_name_H-M "P C C M"
_symmetry_group_IT_number 49
_symmetry_cell_setting 'orthorhombic'
loop_
_space_group_symop_operation_xyz
x,y,z
-x,-y,z
x,-y,1/2-z
-x,y,1/2-z
-x,-y,-z
x,y,-z
-x,y,1/2+z
x,-y,1/2+z
loop_
_atom_site_type_symbol
_atom_site_label
_atom_site_fract_x
_atom_site_fract_y
_atom_site_fract_z
Si Si1 0.062865 0.891271 0.897316
Si Si2 0.929680 0.567474 0.652980
Si Si3 0.582922 0.829167 0.752377
Si Si4 0.308912 0.732072 0.401323
Si Si5 0.684682 0.790260 0.402317
Si Si6 0.785845 0.971801 0.852286
Si Si7 0.227055 0.531045 0.147348
O O1 0.064470 0.738723 0.849338
O O2 0.138184 0.972180 0.884677
O O3 0.053245 0.861675 0.000000
O O4 0.000000 0.000000 0.869500
O O5 0.927652 0.500000 0.750000
O O6 0.853892 0.520748 0.613532
O O7 0.000000 0.500000 0.610785
O O8 0.500000 0.787974 0.750000
O O9 0.628918 0.773278 0.833871
O O10 0.621576 0.776333 0.665791
O O11 0.586870 0.000000 0.750000
O O12 0.327835 0.767440 0.500000
O O13 0.285965 0.569556 0.394616
O O14 0.235496 0.811738 0.372689
O O15 0.663088 0.759624 0.500000
O O16 0.720601 0.943637 0.395884
O O17 0.748101 0.688960 0.371250
O O18 0.782278 0.000000 0.750000
O O19 0.227852 0.500000 0.250000
#
# Coordination Sequence:
#
# PCOD9394905 Si02
#       7
#     8   8   8   8   8   8   8
#     4  11  26  45  66  99 138 180 232 293 351 406
#     4  10  24  42  65  93 132 179 231 278 344 409
#     4  11  24  44  69 102 136 170 216 273 338 406
#     4  12  24  41  66 102 136 174 225 277 332 396
#     4  12  22  42  69  98 131 178 224 270 336 398
#     4  12  23  41  68  94 132 177 231 281 328 395
#     4  11  22  41  68  96 135 177 227 279 329 399
#
# _framework density 20.535115000000001
#
# number of rings (size 3 to 8) (size 9 to 14) (size 15 to 20)
#    0.000    0.714    5.714    1.714    4.000    2.857 
#    0.000    2.857    0.000    1.714    0.000    0.000 
#    0.000    0.000    0.000    0.000    0.000    0.000 
#
# Total GULP energy -312897.769388 kJ/mol
# GULP energy per Si atom -5587.460168 kJ/mol
# Density = 2.048838 g / cm^3
# Si number density = 20.535115 Si / 1000 Ang^3
#
#
#
# Elastic Constant Matrix: (Units=GPa)
#
#
# Indices 1 2 3 4 5 6 
#
# 1 162.7972 15.1397 47.2865 0.0000 0.0000 0.0000
# 2 15.1397 48.4870 11.3437 0.0000 0.0000 0.0000
# 3 47.2865 11.3437 139.7920 0.0000 0.0000 0.0000
# 4 0.0000 0.0000 0.0000 28.5769 0.0000 0.0000
# 5 0.0000 0.0000 0.0000 0.0000 -7.3987 0.0000
# 6 0.0000 0.0000 0.0000 0.0000 0.0000 176.7158
#
#
#
# Elastic Compliance Matrix: (Units=1/GPa)
#
#
# Indices 1 2 3 4 5 6 
#
# 1 0.006939 -0.001649 -0.002213 0.000000 0.000000 0.000000
# 2 -0.001649 0.021415 -0.001180 0.000000 0.000000 0.000000
# 3 -0.002213 -0.001180 0.007998 0.000000 0.000000 0.000000
# 4 0.000000 0.000000 0.000000 0.034993 0.000000 0.000000
# 5 0.000000 0.000000 0.000000 0.000000 -0.135158 0.000000
# 6 0.000000 0.000000 0.000000 0.000000 0.000000 0.005659
#
#
# Mechanical properties :
#
#
# Convention : Reuss Voigt Hill
#
# Bulk Modulus (GPa) = 38.06998 55.40176 46.73587
# Shear Modulus (GPa) = -127.18146 58.06587 -34.55780
#
# Velocity S-wave (km/s) = -7.87833 5.32332 -4.10672
# Velocity P-wave (km/s) = 8.01113 8.05117 0.56703
#
# Compressibility (1/GPa) = 0.02626741
#
# Stress axis : x y z
#
# Youngs Moduli (GPa) = 144.11628 46.69627 125.03219
#
# Poissons Ratio (x) = 0.07699 0.27674
# Poissons Ratio (y) = 0.23761 0.14754
# Poissons Ratio (z) = 0.31898 0.05510
#
# Static dielectric constant tensor:
#      x y z
#    x 1.709890 0.000000 0.000000 
#    y 0.000000 1.704710 0.000000 
#    z 0.000000 0.000000 1.748640 
# 
# From -- ./inp_files/14420.got.cif
#   From: 2010.05.17/outbox.cif.g08.bks.cpg/sg49_8_cif.got.tgz:14420.got - 2010.06.03 21:02:19.
