data_PCOD9394024
_publ_section_title
;
Structure prediction by ZEFSAII (Michael W. Deem and Ramdas Pophale) SiO2 
 PCOD9394024
Probable space group: P C C M
;
_chemical_formula_sum "Si O2"
_cell_formula_units_Z 64
_cell_length_a 15.354118
_cell_length_b 25.315060
_cell_length_c 8.487932
_cell_angle_alpha 90.000000
_cell_angle_beta 90.000000
_cell_angle_gamma 90.000000
_cell_volume 3299.177841
_symmetry_space_group_name_H-M "P C C M"
_symmetry_group_IT_number 49
_symmetry_cell_setting 'orthorhombic'
loop_
_space_group_symop_operation_xyz
x,y,z
-x,-y,z
x,-y,1/2-z
-x,y,1/2-z
-x,-y,-z
x,y,-z
-x,y,1/2+z
x,-y,1/2+z
loop_
_atom_site_type_symbol
_atom_site_label
_atom_site_fract_x
_atom_site_fract_y
_atom_site_fract_z
Si Si1 0.280030 0.056487 0.813918
Si Si2 0.270197 0.649320 0.690013
Si Si3 0.315931 0.167115 0.684636
Si Si4 0.091393 0.309667 0.686985
Si Si5 0.404726 0.559377 0.689106
Si Si6 0.908354 0.082943 0.183766
Si Si7 0.409570 0.738405 0.688261
Si Si8 0.131435 0.193695 0.183592
O O1 0.325709 0.105944 0.729220
O O2 0.176817 0.062340 0.774160
O O3 0.309330 0.000000 0.750000
O O4 0.291774 0.060404 0.000000
O O5 0.260355 0.648632 0.500000
O O6 0.175702 0.656403 0.765280
O O7 0.327142 0.598540 0.738057
O O8 0.329871 0.699931 0.730674
O O9 0.294572 0.171611 0.500000
O O10 0.394343 0.205366 0.729138
O O11 0.234796 0.188087 0.788100
O O12 0.087956 0.303509 0.500000
O O13 0.102837 0.251626 0.764477
O O14 0.000000 0.331913 0.750000
O O15 0.390486 0.500000 0.750000
O O16 0.500000 0.576711 0.750000
O O17 0.408017 0.559140 0.500000
O O18 0.906733 0.146322 0.211715
O O19 0.000000 0.063093 0.250000
O O20 0.899276 0.070907 0.000000
O O21 0.500000 0.715242 0.750000
O O22 0.411779 0.743849 0.500000
O O23 0.110911 0.184598 0.000000
#
# Coordination Sequence:
#
# PCOD9394024 Si02
#       8
#     8   8   8   8   8   8   8   8
#     4  11  22  38  57  78 102 137 181 230 285 344
#     4  10  22  39  59  86 124 163 203 249 300 350
#     4  11  21  36  57  83 112 147 188 231 285 347
#     4  12  24  37  56  81 114 157 203 249 298 351
#     4  10  20  36  60  91 126 166 207 252 298 354
#     4  11  21  34  50  73 102 136 179 229 285 345
#     4  11  22  37  59  88 123 159 193 237 291 354
#     4  11  20  34  53  76 108 146 189 236 286 342
#
# _framework density 19.398772999999998
#
# number of rings (size 3 to 8) (size 9 to 14) (size 15 to 20)
#    0.000    1.125    1.250    9.000    0.000    1.750 
#    0.000    1.250    0.000    0.750    0.000    5.250 
#    0.000    0.000    0.000    0.000    0.000    0.000 
#
# Total GULP energy -357893.042207 kJ/mol
# GULP energy per Si atom -5592.078784 kJ/mol
# Density = 1.935462 g / cm^3
# Si number density = 19.398773 Si / 1000 Ang^3
#
#
#
# Elastic Constant Matrix: (Units=GPa)
#
#
# Indices 1 2 3 4 5 6 
#
# 1 96.2468 43.3680 20.4901 0.0000 0.0000 0.0000
# 2 43.3680 96.1903 17.8945 0.0000 0.0000 0.0000
# 3 20.4901 17.8945 85.8905 0.0000 0.0000 0.0000
# 4 0.0000 0.0000 0.0000 21.2209 0.0000 0.0000
# 5 0.0000 0.0000 0.0000 0.0000 28.8353 0.0000
# 6 0.0000 0.0000 0.0000 0.0000 0.0000 -3.6822
#
#
#
# Elastic Compliance Matrix: (Units=1/GPa)
#
#
# Indices 1 2 3 4 5 6 
#
# 1 0.013365 -0.005651 -0.002011 0.000000 0.000000 0.000000
# 2 -0.005651 0.013205 -0.001403 0.000000 0.000000 0.000000
# 3 -0.002011 -0.001403 0.012415 0.000000 0.000000 0.000000
# 4 0.000000 0.000000 0.000000 0.047123 0.000000 0.000000
# 5 0.000000 0.000000 0.000000 0.000000 0.034680 0.000000
# 6 0.000000 0.000000 0.000000 0.000000 0.000000 -0.271580
#
#
# Mechanical properties :
#
#
# Convention : Reuss Voigt Hill
#
# Bulk Modulus (GPa) = 47.95262 49.09253 48.52258
# Shear Modulus (GPa) = -39.77377 22.37981 -8.69698
#
# Velocity S-wave (km/s) = -4.53296 3.40026 -2.11967
# Velocity P-wave (km/s) = 1.61986 6.38574 4.36771
#
# Compressibility (1/GPa) = 0.02085392
#
# Stress axis : x y z
#
# Youngs Moduli (GPa) = 74.82498 75.72873 80.54952
#
# Poissons Ratio (x) = 0.42797 0.16197
# Poissons Ratio (y) = 0.42287 0.11301
# Poissons Ratio (z) = 0.15046 0.10624
#
# Static dielectric constant tensor:
#      x y z
#    x 1.708800 0.000000 0.000000 
#    y 0.000000 1.687310 0.000000 
#    z 0.000000 0.000000 1.645840 
# 
# From -- ./inp_files/4423.got.cif
#   From: 2010.05.17/outbox.cif.g08.bks.cpg/sg49_3_cif.got.tgz:4423.got - 2010.06.03 21:02:19.
