data_PCOD9394885
_publ_section_title
;
Structure prediction by ZEFSAII (Michael W. Deem and Ramdas Pophale) SiO2 
 PCOD9394885
Probable space group: P C C M
;
_chemical_formula_sum "Si O2"
_cell_formula_units_Z 32
_cell_length_a 7.760592
_cell_length_b 9.457251
_cell_length_c 18.813280
_cell_angle_alpha 90.000000
_cell_angle_beta 90.000000
_cell_angle_gamma 90.000000
_cell_volume 1380.779360
_symmetry_space_group_name_H-M "P C C M"
_symmetry_group_IT_number 49
_symmetry_cell_setting 'orthorhombic'
loop_
_space_group_symop_operation_xyz
x,y,z
-x,-y,z
x,-y,1/2-z
-x,y,1/2-z
-x,-y,-z
x,y,-z
-x,y,1/2+z
x,-y,1/2+z
loop_
_atom_site_type_symbol
_atom_site_label
_atom_site_fract_x
_atom_site_fract_y
_atom_site_fract_z
Si Si1 0.193343 0.439166 0.322168
Si Si2 0.382613 0.168440 0.320943
Si Si3 0.645965 0.662276 0.918226
Si Si4 0.194925 0.050227 0.081481
O O1 0.275233 0.500000 0.250000
O O2 0.216560 0.271773 0.312772
O O3 0.292741 0.514879 0.386213
O O4 0.000000 0.500000 0.325954
O O5 0.500000 0.153680 0.250000
O O6 0.497535 0.260186 0.374669
O O7 0.312590 0.028206 0.360039
O O8 0.796587 0.780538 0.911875
O O9 0.599681 0.648512 0.000000
O O10 0.253869 0.015957 0.000000
O O11 0.000000 0.000000 0.088863
#
# Coordination Sequence:
#
# PCOD9394885 Si02
#       4
#     8   8   8   8
#     4  11  24  44  66  94 133 175 222 277 335 399
#     4  12  24  42  67 100 134 178 222 278 342 405
#     4  11  24  42  68 100 132 175 224 276 335 403
#     4  10  23  45  70 100 138 179 227 282 337 402
#
# _framework density 23.175318000000001
#
# number of rings (size 3 to 8) (size 9 to 14) (size 15 to 20)
#    0.000    1.000    2.500    3.750    0.000    7.500 
#    0.000    1.250    0.000    0.000    0.000    0.000 
#    0.000    0.000    0.000    0.000    0.000    0.000 
#
# Total GULP energy -178877.358755 kJ/mol
# GULP energy per Si atom -5589.917461 kJ/mol
# Density = 2.312257 g / cm^3
# Si number density = 23.175318 Si / 1000 Ang^3
#
#
#
# Elastic Constant Matrix: (Units=GPa)
#
#
# Indices 1 2 3 4 5 6 
#
# 1 80.1685 23.3928 35.9223 0.0000 0.0000 0.0000
# 2 23.3928 143.8679 50.9919 0.0000 0.0000 0.0000
# 3 35.9223 50.9919 175.7426 0.0000 0.0000 0.0000
# 4 0.0000 0.0000 0.0000 -27.3256 0.0000 0.0000
# 5 0.0000 0.0000 0.0000 0.0000 27.9908 0.0000
# 6 0.0000 0.0000 0.0000 0.0000 0.0000 38.1416
#
#
#
# Elastic Compliance Matrix: (Units=1/GPa)
#
#
# Indices 1 2 3 4 5 6 
#
# 1 0.013982 -0.001405 -0.002450 0.000000 0.000000 0.000000
# 2 -0.001405 0.007889 -0.002002 0.000000 0.000000 0.000000
# 3 -0.002450 -0.002002 0.006772 0.000000 0.000000 0.000000
# 4 0.000000 0.000000 0.000000 -0.036596 0.000000 0.000000
# 5 0.000000 0.000000 0.000000 0.000000 0.035726 0.000000
# 6 0.000000 0.000000 0.000000 0.000000 0.000000 0.026218
#
#
# Mechanical properties :
#
#
# Convention : Reuss Voigt Hill
#
# Bulk Modulus (GPa) = 59.07277 68.93255 64.00266
# Shear Modulus (GPa) = 70.07980 27.05948 48.56964
#
# Velocity S-wave (km/s) = 5.50496 3.42072 4.58290
# Velocity P-wave (km/s) = 8.12102 6.73872 7.46195
#
# Compressibility (1/GPa) = 0.01692827
#
# Stress axis : x y z
#
# Youngs Moduli (GPa) = 71.52260 126.76266 147.67148
#
# Poissons Ratio (x) = 0.17809 0.36183
# Poissons Ratio (y) = 0.10049 0.29560
# Poissons Ratio (z) = 0.17525 0.25375
#
# Static dielectric constant tensor:
#      x y z
#    x 1.948720 0.000000 0.000000 
#    y 0.000000 1.964560 0.000000 
#    z 0.000000 0.000000 1.873790 
# 
# From -- ./inp_files/19301.got.cif
#   From: 2010.05.17/outbox.cif.g08.bks.cpg/sg49_10_cif.got.tgz:19301.got - 2010.06.03 21:02:19.
