data_PCOD9394244
_publ_section_title
;
Structure prediction by ZEFSAII (Michael W. Deem and Ramdas Pophale) SiO2 
 PCOD9394244
Probable space group: P C C M
;
_chemical_formula_sum "Si O2"
_cell_formula_units_Z 38
_cell_length_a 7.712288
_cell_length_b 23.767930
_cell_length_c 9.877240
_cell_angle_alpha 90.000000
_cell_angle_beta 90.000000
_cell_angle_gamma 90.000000
_cell_volume 1810.548677
_symmetry_space_group_name_H-M "P C C M"
_symmetry_group_IT_number 49
_symmetry_cell_setting 'orthorhombic'
loop_
_space_group_symop_operation_xyz
x,y,z
-x,-y,z
x,-y,1/2-z
-x,y,1/2-z
-x,-y,-z
x,y,-z
-x,y,1/2+z
x,-y,1/2+z
loop_
_atom_site_type_symbol
_atom_site_label
_atom_site_fract_x
_atom_site_fract_y
_atom_site_fract_z
Si Si1 0.579302 0.090429 0.500000
Si Si2 0.329675 0.579429 0.500000
Si Si3 0.500000 0.832205 0.250000
Si Si4 0.728665 0.455192 0.000000
Si Si5 0.779199 0.023400 0.000000
Si Si6 0.000000 0.000000 0.250000
Si Si7 0.175496 0.243914 0.657244
Si Si8 0.798368 0.368075 0.228799
O O1 0.577205 0.129025 0.368390
O O2 0.396520 0.057784 0.500000
O O3 0.727295 0.042832 0.500000
O O4 0.523562 0.556816 0.500000
O O5 0.222709 0.520739 0.500000
O O6 0.294189 0.615817 0.367669
O O7 0.663996 0.796059 0.302952
O O8 0.787337 0.421274 0.130753
O O9 0.882002 0.033717 0.859189
O O10 0.126586 0.235151 0.500000
O O11 0.253430 0.307505 0.671185
O O12 0.000000 0.237258 0.750000
O O13 0.000000 0.360053 0.250000
#
# Coordination Sequence:
#
# PCOD9394244 Si02
#       8
#     4   4   4   4   4   2   8   8
#     4  11  24  46  68 102 142 192 227 286 348 412
#     4  11  25  38  63  96 126 165 212 275 336 411
#     4  12  26  47  72 106 141 188 236 290 360 406
#     4  11  23  42  59  94 130 163 218 267 336 415
#     4  10  22  44  70 100 150 182 238 282 334 428
#     4  10  20  40  68 110 132 196 236 278 336 392
#     4  11  27  48  70 102 136 180 239 290 348 422
#     4  11  24  41  66  91 125 171 216 272 339 408
#
# _framework density 20.988112000000001
#
# number of rings (size 3 to 8) (size 9 to 14) (size 15 to 20)
#    0.000    1.053    2.105    3.158    8.842    5.895 
#   11.368    0.000    0.000    0.000    0.000    0.000 
#    0.000    0.000    0.000    0.000    0.000    0.000 
#
# Total GULP energy -212193.160276 kJ/mol
# GULP energy per Si atom -5584.030534 kJ/mol
# Density = 2.094034 g / cm^3
# Si number density = 20.988112 Si / 1000 Ang^3
#
#
#
# Elastic Constant Matrix: (Units=GPa)
#
#
# Indices 1 2 3 4 5 6 
#
# 1 65.3233 28.0182 30.2380 0.0000 0.0000 0.0000
# 2 28.0182 99.0853 44.7800 0.0000 0.0000 0.0000
# 3 30.2380 44.7800 171.5024 0.0000 0.0000 0.0000
# 4 0.0000 0.0000 0.0000 26.0977 0.0000 0.0000
# 5 0.0000 0.0000 0.0000 0.0000 45.4259 0.0000
# 6 0.0000 0.0000 0.0000 0.0000 0.0000 21.4294
#
#
#
# Elastic Compliance Matrix: (Units=1/GPa)
#
#
# Indices 1 2 3 4 5 6 
#
# 1 0.018064 -0.004159 -0.002099 0.000000 0.000000 0.000000
# 2 -0.004159 0.012400 -0.002504 0.000000 0.000000 0.000000
# 3 -0.002099 -0.002504 0.006855 0.000000 0.000000 0.000000
# 4 0.000000 0.000000 0.000000 0.038318 0.000000 0.000000
# 5 0.000000 0.000000 0.000000 0.000000 0.022014 0.000000
# 6 0.000000 0.000000 0.000000 0.000000 0.000000 0.046665
#
#
# Mechanical properties :
#
#
# Convention : Reuss Voigt Hill
#
# Bulk Modulus (GPa) = 50.52093 60.22037 55.37065
# Shear Modulus (GPa) = 29.68438 34.11559 31.89998
#
# Velocity S-wave (km/s) = 3.76485 4.03609 3.90283
# Velocity P-wave (km/s) = 6.55914 7.10457 6.83730
#
# Compressibility (1/GPa) = 0.01979378
#
# Stress axis : x y z
#
# Youngs Moduli (GPa) = 55.35847 80.64331 145.88328
#
# Poissons Ratio (x) = 0.33543 0.30619
# Poissons Ratio (y) = 0.23026 0.36535
# Poissons Ratio (z) = 0.11619 0.20196
#
# Static dielectric constant tensor:
#      x y z
#    x 1.757640 0.000000 0.000000 
#    y 0.000000 1.822470 0.000000 
#    z 0.000000 0.000000 1.754080 
# 
# From -- ./inp_files/1862.got.cif
#   From: 2010.05.17/outbox.cif.g08.bks.cpg/sg49_1_cif.got.tgz:1862.got - 2010.06.03 21:02:19.
