data_PCOD9394487
_publ_section_title
;
Structure prediction by ZEFSAII (Michael W. Deem and Ramdas Pophale) SiO2 
 PCOD9394487
Probable space group: P C C M
;
_chemical_formula_sum "Si O2"
_cell_formula_units_Z 40
_cell_length_a 9.800777
_cell_length_b 25.488893
_cell_length_c 8.656413
_cell_angle_alpha 90.000000
_cell_angle_beta 90.000000
_cell_angle_gamma 90.000000
_cell_volume 2162.466809
_symmetry_space_group_name_H-M "P C C M"
_symmetry_group_IT_number 49
_symmetry_cell_setting 'orthorhombic'
loop_
_space_group_symop_operation_xyz
x,y,z
-x,-y,z
x,-y,1/2-z
-x,y,1/2-z
-x,-y,-z
x,y,-z
-x,y,1/2+z
x,-y,1/2+z
loop_
_atom_site_type_symbol
_atom_site_label
_atom_site_fract_x
_atom_site_fract_y
_atom_site_fract_z
Si Si1 0.151380 0.734302 0.184786
Si Si2 0.852722 0.441297 0.814666
Si Si3 0.150489 0.856915 0.184280
Si Si4 0.652842 0.353966 0.315334
Si Si5 0.347619 0.055467 0.184020
O O1 0.181621 0.795639 0.216046
O O2 0.261875 0.696960 0.262775
O O3 0.000000 0.723169 0.250000
O O4 0.151253 0.726031 0.000000
O O5 0.832279 0.500000 0.750000
O O6 0.735106 0.403187 0.754689
O O7 0.000000 0.423035 0.750000
O O8 0.857046 0.442121 0.000000
O O9 0.255840 0.896419 0.261334
O O10 0.000000 0.867243 0.250000
O O11 0.151229 0.864129 0.000000
O O12 0.500000 0.352075 0.250000
O O13 0.650022 0.357608 0.500000
O O14 0.500000 0.061923 0.250000
O O15 0.294187 0.000000 0.250000
O O16 0.353060 0.052586 0.000000
#
# Coordination Sequence:
#
# PCOD9394487 Si02
#       5
#     8   8   8   8   8
#     4  10  21  39  62  87 116 152 192 237 286 341
#     4  11  22  40  64  91 120 154 196 239 286 340
#     4  10  21  38  60  87 117 149 190 237 288 340
#     4  12  25  41  60  86 119 155 195 240 290 343
#     4  11  22  38  59  83 114 151 192 235 285 342
#
# _framework density 18.497394
#
# number of rings (size 3 to 8) (size 9 to 14) (size 15 to 20)
#    0.000    1.200    0.000    8.400    0.000    4.000 
#    0.000    4.000    0.000    0.000    0.000    0.000 
#    0.000    0.000    0.000    0.000    0.000    0.000 
#
# Total GULP energy -223743.220165 kJ/mol
# GULP energy per Si atom -5593.580504 kJ/mol
# Density = 1.845529 g / cm^3
# Si number density = 18.497394 Si / 1000 Ang^3
#
#
#
# Elastic Constant Matrix: (Units=GPa)
#
#
# Indices 1 2 3 4 5 6 
#
# 1 146.2266 98.8698 86.5167 0.0000 0.0000 0.0000
# 2 98.8698 110.8105 84.6319 0.0000 0.0000 0.0000
# 3 86.5167 84.6319 187.8754 0.0000 0.0000 0.0000
# 4 0.0000 0.0000 0.0000 37.5353 0.0000 0.0000
# 5 0.0000 0.0000 0.0000 0.0000 37.9544 0.0000
# 6 0.0000 0.0000 0.0000 0.0000 0.0000 140.7341
#
#
#
# Elastic Compliance Matrix: (Units=1/GPa)
#
#
# Indices 1 2 3 4 5 6 
#
# 1 0.017535 -0.014450 -0.001566 0.000000 0.000000 0.000000
# 2 -0.014450 0.025665 -0.004907 0.000000 0.000000 0.000000
# 3 -0.001566 -0.004907 0.008254 0.000000 0.000000 0.000000
# 4 0.000000 0.000000 0.000000 0.026642 0.000000 0.000000
# 5 0.000000 0.000000 0.000000 0.000000 0.026347 0.000000
# 6 0.000000 0.000000 0.000000 0.000000 0.000000 0.007106
#
#
# Mechanical properties :
#
#
# Convention : Reuss Voigt Hill
#
# Bulk Modulus (GPa) = 104.06918 109.43883 106.75400
# Shear Modulus (GPa) = 31.92900 54.90435 43.41668
#
# Velocity S-wave (km/s) = 4.15919 5.45405 4.85002
# Velocity P-wave (km/s) = 8.91340 9.94762 9.44468
#
# Compressibility (1/GPa) = 0.00960899
#
# Stress axis : x y z
#
# Youngs Moduli (GPa) = 57.02808 38.96367 121.14998
#
# Poissons Ratio (x) = 0.56302 0.18970
# Poissons Ratio (y) = 0.82404 0.59450
# Poissons Ratio (z) = 0.08930 0.19120
#
# Static dielectric constant tensor:
#      x y z
#    x 1.595410 0.000000 0.000000 
#    y 0.000000 1.632490 0.000000 
#    z 0.000000 0.000000 1.614460 
# 
# From -- ./inp_files/1670.got.cif
#   From: 2010.05.17/outbox.cif.g08.bks.cpg/sg49_1_cif.got.tgz:1670.got - 2010.06.03 21:02:19.
