data_PCOD9394972
_publ_section_title
;
Structure prediction by ZEFSAII (Michael W. Deem and Ramdas Pophale) SiO2 
 PCOD9394972
Probable space group: P C C M
;
_chemical_formula_sum "Si O2"
_cell_formula_units_Z 48
_cell_length_a 29.048257
_cell_length_b 5.007720
_cell_length_c 15.169973
_cell_angle_alpha 90.000000
_cell_angle_beta 90.000000
_cell_angle_gamma 90.000000
_cell_volume 2206.708277
_symmetry_space_group_name_H-M "P C C M"
_symmetry_group_IT_number 49
_symmetry_cell_setting 'orthorhombic'
loop_
_space_group_symop_operation_xyz
x,y,z
-x,-y,z
x,-y,1/2-z
-x,y,1/2-z
-x,-y,-z
x,y,-z
-x,y,1/2+z
x,-y,1/2+z
loop_
_atom_site_type_symbol
_atom_site_label
_atom_site_fract_x
_atom_site_fract_y
_atom_site_fract_z
Si Si1 0.531017 0.262656 0.101891
Si Si2 0.758913 0.551265 0.000000
Si Si3 0.051151 0.407475 0.105484
Si Si4 0.686203 0.547430 0.849876
Si Si5 0.106800 0.902451 0.154932
Si Si6 0.179443 0.043830 0.500000
Si Si7 0.626940 0.043472 0.103628
O O1 0.500000 0.500000 0.141105
O O2 0.579607 0.168496 0.140965
O O3 0.500000 0.000000 0.099742
O O4 0.541551 0.347681 0.000000
O O5 0.727695 0.615098 0.084937
O O6 0.802313 0.744131 0.000000
O O7 0.777973 0.249967 0.000000
O O8 0.065653 0.105852 0.127146
O O9 0.000000 0.500000 0.130826
O O10 0.086418 0.606900 0.152119
O O11 0.055479 0.443960 0.000000
O O12 0.701244 0.500000 0.750000
O O13 0.663934 0.277368 0.887327
O O14 0.647546 0.779662 0.852078
O O15 0.122716 0.000000 0.250000
O O16 0.147452 0.915667 0.084653
O O17 0.619304 0.976860 0.000000
#
# Coordination Sequence:
#
# PCOD9394972 Si02
#       7
#     8   4   8   8   8   4   8
#     4   9  17  29  52  90 127 167 215 252 292 365
#     4  12  26  46  72  94 127 169 216 276 346 404
#     4  11  22  41  68  98 137 182 226 272 322 379
#     4  12  25  43  68 100 129 164 218 276 335 399
#     4  12  25  43  68  99 135 177 222 270 332 393
#     4  12  26  46  69  94 132 167 218 274 334 406
#     4  11  20  39  66  93 134 175 213 265 330 389
#
# _framework density 21.751856
#
# number of rings (size 3 to 8) (size 9 to 14) (size 15 to 20)
#    0.000    0.833    3.333    4.500    0.000    7.333 
#    0.000    0.000    0.000    7.500    0.000    0.000 
#    0.000    0.000    0.000    0.167    0.000    0.000 
#
# Total GULP energy -268598.801044 kJ/mol
# GULP energy per Si atom -5595.808355 kJ/mol
# Density = 2.170235 g / cm^3
# Si number density = 21.751856 Si / 1000 Ang^3
#
#
#
# Elastic Constant Matrix: (Units=GPa)
#
#
# Indices 1 2 3 4 5 6 
#
# 1 69.8167 -5.6159 41.2207 0.0000 0.0000 0.0000
# 2 -5.6159 83.6352 5.9884 0.0000 0.0000 0.0000
# 3 41.2207 5.9884 113.1067 0.0000 0.0000 0.0000
# 4 0.0000 0.0000 0.0000 18.7551 0.0000 0.0000
# 5 0.0000 0.0000 0.0000 0.0000 -11.9640 0.0000
# 6 0.0000 0.0000 0.0000 0.0000 0.0000 28.3689
#
#
#
# Elastic Compliance Matrix: (Units=1/GPa)
#
#
# Indices 1 2 3 4 5 6 
#
# 1 0.018497 0.001731 -0.006833 0.000000 0.000000 0.000000
# 2 0.001731 0.012164 -0.001275 0.000000 0.000000 0.000000
# 3 -0.006833 -0.001275 0.011399 0.000000 0.000000 0.000000
# 4 0.000000 0.000000 0.000000 0.053319 0.000000 0.000000
# 5 0.000000 0.000000 0.000000 0.000000 -0.083584 0.000000
# 6 0.000000 0.000000 0.000000 0.000000 0.000000 0.035250
#
#
# Mechanical properties :
#
#
# Convention : Reuss Voigt Hill
#
# Bulk Modulus (GPa) = 34.12162 38.86055 36.49109
# Shear Modulus (GPa) = 71.87420 22.02967 46.95193
#
# Velocity S-wave (km/s) = 5.75452 3.18586 4.65103
# Velocity P-wave (km/s) = 7.73780 5.60688 6.75687
#
# Compressibility (1/GPa) = 0.02930693
#
# Stress axis : x y z
#
# Youngs Moduli (GPa) = 54.06428 82.20831 87.72878
#
# Poissons Ratio (x) = -0.14232 0.59941
# Poissons Ratio (y) = -0.09360 0.11185
# Poissons Ratio (z) = 0.36940 0.10481
#
# Static dielectric constant tensor:
#      x y z
#    x 1.766320 0.000000 0.000000 
#    y 0.000000 1.739920 0.000000 
#    z 0.000000 0.000000 1.799560 
# 
# From -- ./inp_files/14595.got.cif
#   From: 2010.05.17/outbox.cif.g08.bks.cpg/sg49_8_cif.got.tgz:14595.got - 2010.06.03 21:02:19.
