data_PCOD9394815
_publ_section_title
;
Structure prediction by ZEFSAII (Michael W. Deem and Ramdas Pophale) SiO2 
 PCOD9394815
Probable space group: P C C M
;
_chemical_formula_sum "Si O2"
_cell_formula_units_Z 22
_cell_length_a 15.329679
_cell_length_b 5.165194
_cell_length_c 13.431593
_cell_angle_alpha 90.000000
_cell_angle_beta 90.000000
_cell_angle_gamma 90.000000
_cell_volume 1063.523822
_symmetry_space_group_name_H-M "P C C M"
_symmetry_group_IT_number 49
_symmetry_cell_setting 'orthorhombic'
loop_
_space_group_symop_operation_xyz
x,y,z
-x,-y,z
x,-y,1/2-z
-x,y,1/2-z
-x,-y,-z
x,y,-z
-x,y,1/2+z
x,-y,1/2+z
loop_
_atom_site_type_symbol
_atom_site_label
_atom_site_fract_x
_atom_site_fract_y
_atom_site_fract_z
Si Si1 0.561183 0.749181 0.000000
Si Si2 0.000000 0.500000 0.500000
Si Si3 0.305026 0.247678 0.180973
Si Si4 0.894149 0.750649 0.821072
O O1 0.500000 0.500000 0.000000
O O2 0.624075 0.745319 0.904853
O O3 0.500000 0.000000 0.000000
O O4 0.958038 0.309302 0.587954
O O5 0.310886 0.500000 0.250000
O O6 0.205875 0.229264 0.140359
O O7 0.319577 0.000000 0.250000
O O8 0.896513 0.500000 0.750000
O O9 0.908340 0.000000 0.750000
#
# Coordination Sequence:
#
# PCOD9394815 Si02
#       4
#     4   2   8   8
#     4  12  25  38  62  99 128 160 216 269 321 391
#     4  12  24  42  72  96 136 174 210 290 350 374
#     4  10  22  43  65  88 128 173 213 262 322 389
#     4  10  24  43  65  96 129 172 226 269 326 410
#
# _framework density 20.685950999999999
#
# number of rings (size 3 to 8) (size 9 to 14) (size 15 to 20)
#    0.000    1.455    0.000    3.818    0.000   10.182 
#    0.000   10.909    0.000    0.000    0.000    0.000 
#    0.000    0.000    0.000    0.000    0.000    0.000 
#
# Total GULP energy -122513.711861 kJ/mol
# GULP energy per Si atom -5568.805085 kJ/mol
# Density = 2.063887 g / cm^3
# Si number density = 20.685951 Si / 1000 Ang^3
#
#
#
# Elastic Constant Matrix: (Units=GPa)
#
#
# Indices 1 2 3 4 5 6 
#
# 1 166.0124 73.1670 89.4068 0.0000 0.0000 0.0000
# 2 73.1670 205.2934 83.0978 0.0000 0.0000 0.0000
# 3 89.4068 83.0978 149.4256 0.0000 0.0000 0.0000
# 4 0.0000 0.0000 0.0000 27.2330 0.0000 0.0000
# 5 0.0000 0.0000 0.0000 0.0000 5.5056 0.0000
# 6 0.0000 0.0000 0.0000 0.0000 0.0000 29.4184
#
#
#
# Elastic Compliance Matrix: (Units=1/GPa)
#
#
# Indices 1 2 3 4 5 6 
#
# 1 0.009169 -0.001351 -0.004735 0.000000 0.000000 0.000000
# 2 -0.001351 0.006485 -0.002798 0.000000 0.000000 0.000000
# 3 -0.004735 -0.002798 0.011081 0.000000 0.000000 0.000000
# 4 0.000000 0.000000 0.000000 0.036720 0.000000 0.000000
# 5 0.000000 0.000000 0.000000 0.000000 0.181633 0.000000
# 6 0.000000 0.000000 0.000000 0.000000 0.000000 0.033992
#
#
# Mechanical properties :
#
#
# Convention : Reuss Voigt Hill
#
# Bulk Modulus (GPa) = 111.51367 112.45273 111.98320
# Shear Modulus (GPa) = 16.67567 30.76874 23.72221
#
# Velocity S-wave (km/s) = 2.84233 3.86090 3.39009
# Velocity P-wave (km/s) = 8.04964 8.62295 8.34122
#
# Compressibility (1/GPa) = 0.00896751
#
# Stress axis : x y z
#
# Youngs Moduli (GPa) = 109.06141 154.19555 90.24281
#
# Poissons Ratio (x) = 0.20838 0.42727
# Poissons Ratio (y) = 0.14739 0.25250
# Poissons Ratio (z) = 0.51637 0.43143
#
# Static dielectric constant tensor:
#      x y z
#    x 1.787970 0.000000 0.000000 
#    y 0.000000 1.714090 0.000000 
#    z 0.000000 0.000000 5.631510 
# 
# From -- ./inp_files/7291.got.cif
#   From: 2010.05.17/outbox.cif.g08.bks.cpg/sg49_4_cif.got.tgz:7291.got - 2010.06.03 21:02:19.
