data_PCOD9394388
_publ_section_title
;
Structure prediction by ZEFSAII (Michael W. Deem and Ramdas Pophale) SiO2 
 PCOD9394388
Probable space group: P C C M
;
_chemical_formula_sum "Si O2"
_cell_formula_units_Z 56
_cell_length_a 18.220717
_cell_length_b 9.776202
_cell_length_c 16.416377
_cell_angle_alpha 90.000000
_cell_angle_beta 90.000000
_cell_angle_gamma 90.000000
_cell_volume 2924.239549
_symmetry_space_group_name_H-M "P C C M"
_symmetry_group_IT_number 49
_symmetry_cell_setting 'orthorhombic'
loop_
_space_group_symop_operation_xyz
x,y,z
-x,-y,z
x,-y,1/2-z
-x,y,1/2-z
-x,-y,-z
x,y,-z
-x,y,1/2+z
x,-y,1/2+z
loop_
_atom_site_type_symbol
_atom_site_label
_atom_site_fract_x
_atom_site_fract_y
_atom_site_fract_z
Si Si1 0.414481 0.000599 0.151990
Si Si2 0.758809 0.494055 0.152723
Si Si3 0.075724 0.578037 0.901145
Si Si4 0.050732 0.114096 0.592299
Si Si5 0.813516 0.998967 0.160012
Si Si6 0.300115 0.206011 0.404285
Si Si7 0.294291 0.215749 0.903842
O O1 0.377945 0.863556 0.114853
O O2 0.500000 0.000000 0.130088
O O3 0.408116 0.000000 0.250000
O O4 0.367697 0.132714 0.121973
O O5 0.754791 0.500000 0.250000
O O6 0.845891 0.481159 0.129118
O O7 0.716629 0.361199 0.118508
O O8 0.717071 0.626321 0.117480
O O9 0.064396 0.735353 0.872429
O O10 0.000000 0.500000 0.879089
O O11 0.080996 0.578120 0.000000
O O12 0.022557 0.136743 0.500000
O O13 0.128044 0.038551 0.592912
O O14 0.000000 0.000000 0.633685
O O15 0.752806 0.116354 0.152797
O O16 0.846448 0.000000 0.250000
O O17 0.772654 0.859620 0.141262
O O18 0.283427 0.185252 0.500000
O O19 0.286320 0.195872 0.000000
#
# Coordination Sequence:
#
# PCOD9394388 Si02
#       7
#     8   8   8   8   8   8   8
#     4  10  21  40  66  96 129 161 195 243 300 355
#     4  12  24  40  61  89 123 160 201 254 307 361
#     4  10  22  40  60  83 115 157 203 250 306 368
#     4  10  21  37  57  80 110 150 198 247 300 359
#     4  11  21  36  57  85 115 150 194 247 298 349
#     4  11  21  39  64  87 118 162 204 241 290 357
#     4  11  23  37  60  91 122 156 201 246 289 350
#
# _framework density 19.150276999999999
#
# number of rings (size 3 to 8) (size 9 to 14) (size 15 to 20)
#    0.000    1.286    1.429    7.286    2.000    1.714 
#    0.000    2.143    0.000    4.286    0.000    0.000 
#    0.000    0.000    0.000    0.000    0.000    0.000 
#
# Total GULP energy -312295.927101 kJ/mol
# GULP energy per Si atom -5576.712984 kJ/mol
# Density = 1.910669 g / cm^3
# Si number density = 19.150277 Si / 1000 Ang^3
#
#
#
# Elastic Constant Matrix: (Units=GPa)
#
#
# Indices 1 2 3 4 5 6 
#
# 1 116.9967 48.4150 15.3222 0.0000 0.0000 0.0000
# 2 48.4150 123.5687 11.1306 0.0000 0.0000 0.0000
# 3 15.3222 11.1306 84.3554 0.0000 0.0000 0.0000
# 4 0.0000 0.0000 0.0000 17.1169 0.0000 0.0000
# 5 0.0000 0.0000 0.0000 0.0000 33.8281 0.0000
# 6 0.0000 0.0000 0.0000 0.0000 0.0000 47.0371
#
#
#
# Elastic Compliance Matrix: (Units=1/GPa)
#
#
# Indices 1 2 3 4 5 6 
#
# 1 0.010353 -0.003934 -0.001362 0.000000 0.000000 0.000000
# 2 -0.003934 0.009685 -0.000563 0.000000 0.000000 0.000000
# 3 -0.001362 -0.000563 0.012176 0.000000 0.000000 0.000000
# 4 0.000000 0.000000 0.000000 0.058422 0.000000 0.000000
# 5 0.000000 0.000000 0.000000 0.000000 0.029561 0.000000
# 6 0.000000 0.000000 0.000000 0.000000 0.000000 0.021260
#
#
# Mechanical properties :
#
#
# Convention : Reuss Voigt Hill
#
# Bulk Modulus (GPa) = 48.78785 52.73961 50.76373
# Shear Modulus (GPa) = 31.24861 36.26662 33.75761
#
# Velocity S-wave (km/s) = 4.04388 4.35649 4.20310
# Velocity P-wave (km/s) = 6.88009 7.27358 7.07957
#
# Compressibility (1/GPa) = 0.02049691
#
# Stress axis : x y z
#
# Youngs Moduli (GPa) = 96.58601 103.25523 82.12715
#
# Poissons Ratio (x) = 0.40620 0.11182
# Poissons Ratio (y) = 0.37996 0.04627
# Poissons Ratio (z) = 0.13150 0.05817
#
# Static dielectric constant tensor:
#      x y z
#    x 1.810510 0.000000 0.000000 
#    y 0.000000 1.365960 0.000000 
#    z 0.000000 0.000000 1.669230 
# 
# From -- ./inp_files/14373.got.cif
#   From: 2010.05.17/outbox.cif.g08.bks.cpg/sg49_8_cif.got.tgz:14373.got - 2010.06.03 21:02:19.
