data_PCOD9394497
_publ_section_title
;
Structure prediction by ZEFSAII (Michael W. Deem and Ramdas Pophale) SiO2 
 PCOD9394497
Probable space group: P C C M
;
_chemical_formula_sum "Si O2"
_cell_formula_units_Z 26
_cell_length_a 9.766852
_cell_length_b 15.783052
_cell_length_c 9.353017
_cell_angle_alpha 90.000000
_cell_angle_beta 90.000000
_cell_angle_gamma 90.000000
_cell_volume 1441.774426
_symmetry_space_group_name_H-M "P C C M"
_symmetry_group_IT_number 49
_symmetry_cell_setting 'orthorhombic'
loop_
_space_group_symop_operation_xyz
x,y,z
-x,-y,z
x,-y,1/2-z
-x,y,1/2-z
-x,-y,-z
x,y,-z
-x,y,1/2+z
x,-y,1/2+z
loop_
_atom_site_type_symbol
_atom_site_label
_atom_site_fract_x
_atom_site_fract_y
_atom_site_fract_z
Si Si1 0.000000 0.500000 0.250000
Si Si2 0.145082 0.914439 0.672586
Si Si3 0.271215 0.578552 0.338140
Si Si4 0.359116 0.235388 0.828856
O O1 0.892816 0.440222 0.333225
O O2 0.129400 0.925954 0.500000
O O3 0.246605 0.836494 0.698048
O O4 0.000000 0.897600 0.750000
O O5 0.197440 0.000000 0.750000
O O6 0.330512 0.500000 0.250000
O O7 0.318731 0.573212 0.500000
O O8 0.306794 0.671429 0.281944
O O9 0.500000 0.216057 0.750000
O O10 0.380481 0.238186 0.000000
#
# Coordination Sequence:
#
# PCOD9394497 Si02
#       4
#     2   8   8   8
#     4   8  18  32  56  76 112 140 188 224 282 316
#     4  10  21  38  61  87 115 144 186 233 283 336
#     4   9  19  34  54  79 109 143 185 228 275 327
#     4  10  23  40  56  82 115 152 191 230 278 339
#
# _framework density 18.033335000000001
#
# number of rings (size 3 to 8) (size 9 to 14) (size 15 to 20)
#    0.923    1.538    0.000    2.308    2.154    4.923 
#    0.000    6.154    0.000    0.000    0.000    0.000 
#    0.000    0.000    0.000    0.000    0.000    0.000 
#
# Total GULP energy -144739.227342 kJ/mol
# GULP energy per Si atom -5566.893359 kJ/mol
# Density = 1.799229 g / cm^3
# Si number density = 18.033335 Si / 1000 Ang^3
#
#
#
# Elastic Constant Matrix: (Units=GPa)
#
#
# Indices 1 2 3 4 5 6 
#
# 1 71.2139 69.6620 36.6336 0.0000 0.0000 0.0000
# 2 69.6620 174.9683 73.8588 0.0000 0.0000 0.0000
# 3 36.6336 73.8588 74.0681 0.0000 0.0000 0.0000
# 4 0.0000 0.0000 0.0000 61.3424 0.0000 0.0000
# 5 0.0000 0.0000 0.0000 0.0000 27.4211 0.0000
# 6 0.0000 0.0000 0.0000 0.0000 0.0000 -285.1267
#
#
#
# Elastic Compliance Matrix: (Units=1/GPa)
#
#
# Indices 1 2 3 4 5 6 
#
# 1 0.023663 -0.007738 -0.003987 0.000000 0.000000 0.000000
# 2 -0.007738 0.012400 -0.008538 0.000000 0.000000 0.000000
# 3 -0.003987 -0.008538 0.023987 0.000000 0.000000 0.000000
# 4 0.000000 0.000000 0.000000 0.016302 0.000000 0.000000
# 5 0.000000 0.000000 0.000000 0.000000 0.036468 0.000000
# 6 0.000000 0.000000 0.000000 0.000000 0.000000 -0.003507
#
#
# Mechanical properties :
#
#
# Convention : Reuss Voigt Hill
#
# Bulk Modulus (GPa) = 51.22071 75.61769 63.41920
# Shear Modulus (GPa) = 31.98004 -29.93292 1.02356
#
# Velocity S-wave (km/s) = 4.21573 -4.07857 0.75420
# Velocity P-wave (km/s) = 7.22229 4.45462 6.00021
#
# Compressibility (1/GPa) = 0.01952335
#
# Stress axis : x y z
#
# Youngs Moduli (GPa) = 42.26080 80.64354 41.68892
#
# Poissons Ratio (x) = 0.62401 0.16623
# Poissons Ratio (y) = 0.32701 0.35594
# Poissons Ratio (z) = 0.16851 0.68854
#
# Static dielectric constant tensor:
#      x y z
#    x 1.605600 0.000000 0.000000 
#    y 0.000000 1.620350 0.000000 
#    z 0.000000 0.000000 1.602140 
# 
# From -- ./inp_files/1201.got.cif
#   From: 2010.05.17/outbox.cif.g08.bks.cpg/sg49_1_cif.got.tgz:1201.got - 2010.06.03 21:02:19.
