data_PCOD9394070
_publ_section_title
;
Structure prediction by ZEFSAII (Michael W. Deem and Ramdas Pophale) SiO2 
 PCOD9394070
Probable space group: P C C M
;
_chemical_formula_sum "Si O2"
_cell_formula_units_Z 40
_cell_length_a 11.201602
_cell_length_b 13.157204
_cell_length_c 14.101410
_cell_angle_alpha 90.000000
_cell_angle_beta 90.000000
_cell_angle_gamma 90.000000
_cell_volume 2078.290662
_symmetry_space_group_name_H-M "P C C M"
_symmetry_group_IT_number 49
_symmetry_cell_setting 'orthorhombic'
loop_
_space_group_symop_operation_xyz
x,y,z
-x,-y,z
x,-y,1/2-z
-x,y,1/2-z
-x,-y,-z
x,y,-z
-x,y,1/2+z
x,-y,1/2+z
loop_
_atom_site_type_symbol
_atom_site_label
_atom_site_fract_x
_atom_site_fract_y
_atom_site_fract_z
Si Si1 0.815285 0.176060 0.712080
Si Si2 0.578063 0.900933 0.113090
Si Si3 0.045303 0.884528 0.893836
Si Si4 0.491334 0.325830 0.389260
Si Si5 0.700519 0.612254 0.248826
O O1 0.701479 0.116669 0.669188
O O2 0.856656 0.129323 0.812341
O O3 0.784301 0.293302 0.728337
O O4 0.926850 0.173223 0.640651
O O5 0.504985 0.795784 0.128107
O O6 0.500000 0.000000 0.138654
O O7 0.604579 0.908276 0.000000
O O8 0.084704 0.856757 0.000000
O O9 0.000000 0.000000 0.894398
O O10 0.503260 0.344357 0.500000
O O11 0.367944 0.364453 0.346654
O O12 0.596661 0.380327 0.331042
O O13 0.753383 0.500000 0.250000
#
# Coordination Sequence:
#
# PCOD9394070 Si02
#       5
#     8   8   8   8   8
#     4  10  20  37  59  81 109 145 184 229 278 329
#     4   9  18  32  54  87 122 151 179 219 274 334
#     4  10  22  40  61  83 107 140 182 226 274 333
#     4   9  18  33  52  76 110 150 186 218 260 326
#     4  10  21  35  52  77 107 142 185 230 274 321
#
# _framework density 19.246587000000002
#
# number of rings (size 3 to 8) (size 9 to 14) (size 15 to 20)
#    0.000    2.400    0.000    3.000    0.000    6.400 
#    0.000   13.000    0.000    1.800    0.000    0.000 
#    0.000    0.000    0.000    0.000    0.000    0.000 
#
# Total GULP energy -223409.879185 kJ/mol
# GULP energy per Si atom -5585.246980 kJ/mol
# Density = 1.920278 g / cm^3
# Si number density = 19.246587 Si / 1000 Ang^3
#
#
#
# Elastic Constant Matrix: (Units=GPa)
#
#
# Indices 1 2 3 4 5 6 
#
# 1 62.6468 44.8180 36.2332 0.0000 0.0000 0.0000
# 2 44.8180 117.8978 39.1195 0.0000 0.0000 0.0000
# 3 36.2332 39.1195 123.8704 0.0000 0.0000 0.0000
# 4 0.0000 0.0000 0.0000 22.0004 0.0000 0.0000
# 5 0.0000 0.0000 0.0000 0.0000 -56.3337 0.0000
# 6 0.0000 0.0000 0.0000 0.0000 0.0000 14.1835
#
#
#
# Elastic Compliance Matrix: (Units=1/GPa)
#
#
# Indices 1 2 3 4 5 6 
#
# 1 0.024100 -0.007621 -0.004643 0.000000 0.000000 0.000000
# 2 -0.007621 0.011885 -0.001524 0.000000 0.000000 0.000000
# 3 -0.004643 -0.001524 0.009912 0.000000 0.000000 0.000000
# 4 0.000000 0.000000 0.000000 0.045454 0.000000 0.000000
# 5 0.000000 0.000000 0.000000 0.000000 -0.017751 0.000000
# 6 0.000000 0.000000 0.000000 0.000000 0.000000 0.070505
#
#
# Mechanical properties :
#
#
# Convention : Reuss Voigt Hill
#
# Bulk Modulus (GPa) = 54.58093 60.52850 57.55472
# Shear Modulus (GPa) = 28.12371 8.25299 18.18835
#
# Velocity S-wave (km/s) = 3.82675 2.07300 3.07745
# Velocity P-wave (km/s) = 6.92428 6.10303 6.52659
#
# Compressibility (1/GPa) = 0.01832142
#
# Stress axis : x y z
#
# Youngs Moduli (GPa) = 41.49426 84.14216 100.88475
#
# Poissons Ratio (x) = 0.64124 0.46837
# Poissons Ratio (y) = 0.31622 0.15376
# Poissons Ratio (z) = 0.19264 0.12824
#
# Static dielectric constant tensor:
#      x y z
#    x 1.655070 0.000000 0.000000 
#    y 0.000000 1.675660 0.000000 
#    z 0.000000 0.000000 1.695170 
# 
# From -- ./inp_files/12584.got.cif
#   From: 2010.05.17/outbox.cif.g08.bks.cpg/sg49_7_cif.got.tgz:12584.got - 2010.06.03 21:02:19.
