data_PCOD9394812
_publ_section_title
;
Structure prediction by ZEFSAII (Michael W. Deem and Ramdas Pophale) SiO2 
 PCOD9394812
Probable space group: P C C M
;
_chemical_formula_sum "Si O2"
_cell_formula_units_Z 20
_cell_length_a 5.777809
_cell_length_b 10.397913
_cell_length_c 14.253168
_cell_angle_alpha 90.000000
_cell_angle_beta 90.000000
_cell_angle_gamma 90.000000
_cell_volume 856.289788
_symmetry_space_group_name_H-M "P C C M"
_symmetry_group_IT_number 49
_symmetry_cell_setting 'orthorhombic'
loop_
_space_group_symop_operation_xyz
x,y,z
-x,-y,z
x,-y,1/2-z
-x,y,1/2-z
-x,-y,-z
x,y,-z
-x,y,1/2+z
x,-y,1/2+z
loop_
_atom_site_type_symbol
_atom_site_label
_atom_site_fract_x
_atom_site_fract_y
_atom_site_fract_z
Si Si1 0.160296 0.378072 0.104205
Si Si2 0.500000 0.750540 0.250000
Si Si3 0.891904 0.869596 0.353575
O O1 0.335413 0.340659 0.187376
O O2 0.000000 0.500000 0.126163
O O3 0.990162 0.255977 0.098046
O O4 0.267074 0.396945 0.000000
O O5 0.625092 0.843082 0.327156
O O6 0.000000 0.866614 0.250000
O O7 0.000000 0.000000 0.395109
#
# Coordination Sequence:
#
# PCOD9394812 Si02
#       3
#     8   4   8
#     4  10  23  41  62  94 131 167 217 273 322 385
#     4  10  22  42  70  94 128 180 218 264 334 390
#     4   9  20  37  60  92 129 167 216 267 316 382
#
# _framework density 23.356577999999999
#
# number of rings (size 3 to 8) (size 9 to 14) (size 15 to 20)
#    0.000    2.400    0.000    0.000    0.000   25.600 
#    0.000    6.000    0.000    1.200    0.000    0.000 
#    0.000    0.000    0.000    0.000    0.000    0.000 
#
# Total GULP energy -111474.840717 kJ/mol
# GULP energy per Si atom -5573.742036 kJ/mol
# Density = 2.330342 g / cm^3
# Si number density = 23.356578 Si / 1000 Ang^3
#
#
#
# Elastic Constant Matrix: (Units=GPa)
#
#
# Indices 1 2 3 4 5 6 
#
# 1 100.8113 79.0120 47.9003 0.0000 0.0000 0.0000
# 2 79.0120 229.4881 52.0509 0.0000 0.0000 0.0000
# 3 47.9003 52.0509 128.6463 0.0000 0.0000 0.0000
# 4 0.0000 0.0000 0.0000 250.8360 0.0000 0.0000
# 5 0.0000 0.0000 0.0000 0.0000 15.8472 0.0000
# 6 0.0000 0.0000 0.0000 0.0000 0.0000 18.3101
#
#
#
# Elastic Compliance Matrix: (Units=1/GPa)
#
#
# Indices 1 2 3 4 5 6 
#
# 1 0.015171 -0.004340 -0.003893 0.000000 0.000000 0.000000
# 2 -0.004340 0.006040 -0.000828 0.000000 0.000000 0.000000
# 3 -0.003893 -0.000828 0.009557 0.000000 0.000000 0.000000
# 4 0.000000 0.000000 0.000000 0.003987 0.000000 0.000000
# 5 0.000000 0.000000 0.000000 0.000000 0.063102 0.000000
# 6 0.000000 0.000000 0.000000 0.000000 0.000000 0.054615
#
#
# Mechanical properties :
#
#
# Convention : Reuss Voigt Hill
#
# Bulk Modulus (GPa) = 79.07091 90.76359 84.91725
# Shear Modulus (GPa) = 28.60270 75.66417 52.13343
#
# Velocity S-wave (km/s) = 3.50324 5.69786 4.72960
# Velocity P-wave (km/s) = 7.09161 9.06817 8.14011
#
# Compressibility (1/GPa) = 0.01264688
#
# Stress axis : x y z
#
# Youngs Moduli (GPa) = 65.91548 165.57358 104.63035
#
# Poissons Ratio (x) = 0.71866 0.40729
# Poissons Ratio (y) = 0.28610 0.08659
# Poissons Ratio (z) = 0.25658 0.13702
#
# Static dielectric constant tensor:
#      x y z
#    x 2.102780 0.000000 0.000000 
#    y 0.000000 1.935620 0.000000 
#    z 0.000000 0.000000 1.999200 
# 
# From -- ./inp_files/10321.got.cif
#   From: 2010.05.17/outbox.cif.g08.bks.cpg/sg49_6_cif.got.tgz:10321.got - 2010.06.03 21:02:19.
