data_PCOD9394831
_publ_section_title
;
Structure prediction by ZEFSAII (Michael W. Deem and Ramdas Pophale) SiO2 
 PCOD9394831
Probable space group: P C C M
;
_chemical_formula_sum "Si O2"
_cell_formula_units_Z 24
_cell_length_a 5.198515
_cell_length_b 10.675717
_cell_length_c 18.255732
_cell_angle_alpha 90.000000
_cell_angle_beta 90.000000
_cell_angle_gamma 90.000000
_cell_volume 1013.154332
_symmetry_space_group_name_H-M "P C C M"
_symmetry_group_IT_number 49
_symmetry_cell_setting 'orthorhombic'
loop_
_space_group_symop_operation_xyz
x,y,z
-x,-y,z
x,-y,1/2-z
-x,y,1/2-z
-x,-y,-z
x,y,-z
-x,y,1/2+z
x,-y,1/2+z
loop_
_atom_site_type_symbol
_atom_site_label
_atom_site_fract_x
_atom_site_fract_y
_atom_site_fract_z
Si Si1 0.810825 0.387983 0.500000
Si Si2 0.835491 0.875776 0.000000
Si Si3 0.500000 0.500000 0.368502
Si Si4 0.258918 0.086497 0.162685
Si Si5 0.500000 0.303201 0.750000
O O1 0.968301 0.259121 0.500000
O O2 0.653599 0.412007 0.425530
O O3 0.000000 0.500000 0.500000
O O4 0.696446 0.877154 0.077567
O O5 0.000000 0.000000 0.000000
O O6 0.616806 0.603792 0.312254
O O7 0.290587 0.210571 0.212303
O O8 0.500000 0.000000 0.178974
O O9 0.000000 0.000000 0.168778
#
# Coordination Sequence:
#
# PCOD9394831 Si02
#       5
#     4   4   4   8   4
#     4  11  23  47  73 105 141 202 255 321 375 460
#     4  10  22  45  73 109 147 197 264 314 380 448
#     4  10  24  46  70 102 148 196 258 314 384 470
#     4  11  25  46  73 109 148 198 247 313 380 461
#     4  11  23  46  70 104 151 197 250 314 396 467
#
# _framework density 23.688393000000001
#
# number of rings (size 3 to 8) (size 9 to 14) (size 15 to 20)
#    0.000    1.333    3.333    1.000    0.000    8.000 
#    6.000    1.667    0.000    0.000    0.000    1.167 
#    0.000    0.000    0.000    0.000    0.000    0.000 
#
# Total GULP energy -133674.018392 kJ/mol
# GULP energy per Si atom -5569.750766 kJ/mol
# Density = 2.363448 g / cm^3
# Si number density = 23.688393 Si / 1000 Ang^3
#
#
#
# Elastic Constant Matrix: (Units=GPa)
#
#
# Indices 1 2 3 4 5 6 
#
# 1 74.3582 43.9158 28.8008 0.0000 0.0000 0.0000
# 2 43.9158 215.3469 75.1436 0.0000 0.0000 0.0000
# 3 28.8008 75.1436 221.3964 0.0000 0.0000 0.0000
# 4 0.0000 0.0000 0.0000 75.9758 0.0000 0.0000
# 5 0.0000 0.0000 0.0000 0.0000 17.1715 0.0000
# 6 0.0000 0.0000 0.0000 0.0000 0.0000 30.8150
#
#
#
# Elastic Compliance Matrix: (Units=1/GPa)
#
#
# Indices 1 2 3 4 5 6 
#
# 1 0.015511 -0.002789 -0.001071 0.000000 0.000000 0.000000
# 2 -0.002789 0.005769 -0.001595 0.000000 0.000000 0.000000
# 3 -0.001071 -0.001595 0.005198 0.000000 0.000000 0.000000
# 4 0.000000 0.000000 0.000000 0.013162 0.000000 0.000000
# 5 0.000000 0.000000 0.000000 0.000000 0.058236 0.000000
# 6 0.000000 0.000000 0.000000 0.000000 0.000000 0.032452
#
#
# Mechanical properties :
#
#
# Convention : Reuss Voigt Hill
#
# Bulk Modulus (GPa) = 64.24204 89.64686 76.94445
# Shear Modulus (GPa) = 34.14671 49.00855 41.57763
#
# Velocity S-wave (km/s) = 3.80082 4.55343 4.19404
# Velocity P-wave (km/s) = 6.81470 8.09762 7.48370
#
# Compressibility (1/GPa) = 0.01556613
#
# Stress axis : x y z
#
# Youngs Moduli (GPa) = 64.47185 173.33571 192.39861
#
# Poissons Ratio (x) = 0.48350 0.20606
# Poissons Ratio (y) = 0.17984 0.30692
# Poissons Ratio (z) = 0.06905 0.27651
#
# Static dielectric constant tensor:
#      x y z
#    x 1.891330 0.000000 0.000000 
#    y 0.000000 1.886080 0.000000 
#    z 0.000000 0.000000 1.908860 
# 
# From -- ./inp_files/14990.got.cif
#   From: 2010.05.17/outbox.cif.g08.bks.cpg/sg49_8_cif.got.tgz:14990.got - 2010.06.03 21:02:19.
