data_PCOD9394425
_publ_section_title
;
Structure prediction by ZEFSAII (Michael W. Deem and Ramdas Pophale) SiO2 
 PCOD9394425
Probable space group: P C C M
;
_chemical_formula_sum "Si O2"
_cell_formula_units_Z 40
_cell_length_a 9.717955
_cell_length_b 25.950529
_cell_length_c 8.599338
_cell_angle_alpha 90.000000
_cell_angle_beta 90.000000
_cell_angle_gamma 90.000000
_cell_volume 2168.633281
_symmetry_space_group_name_H-M "P C C M"
_symmetry_group_IT_number 49
_symmetry_cell_setting 'orthorhombic'
loop_
_space_group_symop_operation_xyz
x,y,z
-x,-y,z
x,-y,1/2-z
-x,y,1/2-z
-x,-y,-z
x,y,-z
-x,y,1/2+z
x,-y,1/2+z
loop_
_atom_site_type_symbol
_atom_site_label
_atom_site_fract_x
_atom_site_fract_y
_atom_site_fract_z
Si Si1 0.153417 0.354605 0.186402
Si Si2 0.654941 0.444805 0.186346
Si Si3 0.654617 0.151366 0.312962
Si Si4 0.848998 0.943211 0.813789
Si Si5 0.153394 0.758344 0.186193
O O1 0.253382 0.398325 0.250934
O O2 0.192716 0.297903 0.248334
O O3 0.000000 0.364421 0.250000
O O4 0.152748 0.354443 0.000000
O O5 0.706227 0.500000 0.250000
O O6 0.500000 0.438752 0.250000
O O7 0.653406 0.445606 0.000000
O O8 0.500000 0.150707 0.250000
O O9 0.653318 0.155136 0.500000
O O10 0.736704 0.099273 0.269225
O O11 0.740230 0.198982 0.244052
O O12 0.000000 0.928747 0.750000
O O13 0.816033 0.000000 0.750000
O O14 0.856959 0.945627 0.000000
O O15 0.000000 0.770036 0.250000
O O16 0.148432 0.756648 0.000000
#
# Coordination Sequence:
#
# PCOD9394425 Si02
#       5
#     8   8   8   8   8
#     4  11  22  39  61  88 118 151 191 239 289 341
#     4  11  22  39  60  86 117 154 195 237 286 343
#     4  11  24  40  58  85 117 153 192 237 288 342
#     4  10  21  37  60  86 114 148 191 235 283 338
#     4  11  22  39  62  87 115 151 191 236 285 342
#
# _framework density 18.444797000000001
#
# number of rings (size 3 to 8) (size 9 to 14) (size 15 to 20)
#    0.000    1.200    0.000    9.600    0.000    6.400 
#    0.000    8.000    0.000    0.000    0.000    0.000 
#    0.000    0.000    0.000    0.000    0.000    0.000 
#
# Total GULP energy -223717.037632 kJ/mol
# GULP energy per Si atom -5592.925941 kJ/mol
# Density = 1.840282 g / cm^3
# Si number density = 18.444797 Si / 1000 Ang^3
#
#
#
# Elastic Constant Matrix: (Units=GPa)
#
#
# Indices 1 2 3 4 5 6 
#
# 1 132.7604 134.0788 71.8464 0.0000 0.0000 0.0000
# 2 134.0788 169.3081 83.5894 0.0000 0.0000 0.0000
# 3 71.8464 83.5894 172.6528 0.0000 0.0000 0.0000
# 4 0.0000 0.0000 0.0000 36.9928 0.0000 0.0000
# 5 0.0000 0.0000 0.0000 0.0000 7.3497 0.0000
# 6 0.0000 0.0000 0.0000 0.0000 0.0000 62.8923
#
#
#
# Elastic Compliance Matrix: (Units=1/GPa)
#
#
# Indices 1 2 3 4 5 6 
#
# 1 0.037969 -0.029262 -0.001633 0.000000 0.000000 0.000000
# 2 -0.029262 0.030314 -0.002499 0.000000 0.000000 0.000000
# 3 -0.001633 -0.002499 0.007682 0.000000 0.000000 0.000000
# 4 0.000000 0.000000 0.000000 0.027032 0.000000 0.000000
# 5 0.000000 0.000000 0.000000 0.000000 0.136060 0.000000
# 6 0.000000 0.000000 0.000000 0.000000 0.000000 0.015900
#
#
# Mechanical properties :
#
#
# Convention : Reuss Voigt Hill
#
# Bulk Modulus (GPa) = 108.98874 117.08339 113.03607
# Shear Modulus (GPa) = 15.39393 33.79408 24.59401
#
# Velocity S-wave (km/s) = 2.89207 4.28503 3.65552
# Velocity P-wave (km/s) = 8.38865 9.38603 8.90132
#
# Compressibility (1/GPa) = 0.00917526
#
# Stress axis : x y z
#
# Youngs Moduli (GPa) = 26.33749 32.98844 130.18272
#
# Poissons Ratio (x) = 0.96531 0.21257
# Poissons Ratio (y) = 0.77069 0.32538
# Poissons Ratio (z) = 0.04300 0.08245
#
# Static dielectric constant tensor:
#      x y z
#    x 1.607000 0.000000 0.000000 
#    y 0.000000 1.622970 0.000000 
#    z 0.000000 0.000000 1.615200 
# 
# From -- ./inp_files/1709.got.cif
#   From: 2010.05.17/outbox.cif.g08.bks.cpg/sg49_1_cif.got.tgz:1709.got - 2010.06.03 21:02:19.
