data_PCOD9394651
_publ_section_title
;
Structure prediction by ZEFSAII (Michael W. Deem and Ramdas Pophale) SiO2 
 PCOD9394651
Probable space group: P C C M
;
_chemical_formula_sum "Si O2"
_cell_formula_units_Z 32
_cell_length_a 13.873267
_cell_length_b 6.965710
_cell_length_c 16.062033
_cell_angle_alpha 90.000000
_cell_angle_beta 90.000000
_cell_angle_gamma 90.000000
_cell_volume 1552.189167
_symmetry_space_group_name_H-M "P C C M"
_symmetry_group_IT_number 49
_symmetry_cell_setting 'orthorhombic'
loop_
_space_group_symop_operation_xyz
x,y,z
-x,-y,z
x,-y,1/2-z
-x,y,1/2-z
-x,-y,-z
x,y,-z
-x,y,1/2+z
x,-y,1/2+z
loop_
_atom_site_type_symbol
_atom_site_label
_atom_site_fract_x
_atom_site_fract_y
_atom_site_fract_z
Si Si1 0.888412 0.933364 0.500000
Si Si2 0.000000 0.000000 0.750000
Si Si3 0.829363 0.483153 0.000000
Si Si4 0.843362 0.202106 0.358200
Si Si5 0.615208 0.461323 0.500000
Si Si6 0.642048 0.681867 0.812235
Si Si7 0.500000 0.000000 0.250000
O O1 0.890650 0.706892 0.500000
O O2 0.833310 0.021572 0.420730
O O3 0.000000 0.000000 0.500000
O O4 0.934381 0.141105 0.695376
O O5 0.851526 0.615324 0.919767
O O6 0.716073 0.415168 0.000000
O O7 0.751033 0.243587 0.301347
O O8 0.500000 0.500000 0.500000
O O9 0.630317 0.365959 0.590231
O O10 0.624545 0.500000 0.750000
O O11 0.568996 0.854770 0.798041
#
# Coordination Sequence:
#
# PCOD9394651 Si02
#       7
#     4   2   4   8   4   8   2
#     4  11  22  47  66  93 135 172 240 289 347 426
#     4  12  22  42  62  98 130 174 238 274 336 428
#     4   9  23  43  68  94 132 180 218 293 354 407
#     4  10  24  43  64  97 133 176 230 287 344 413
#     4  10  21  41  70 101 133 178 233 276 350 430
#     4  11  25  46  66 105 142 180 236 293 354 433
#     4  12  24  42  76  96 144 190 224 298 368 408
#
# _framework density 20.616045
#
# number of rings (size 3 to 8) (size 9 to 14) (size 15 to 20)
#    0.000    1.500    1.250    3.375    0.000   12.500 
#    4.500    2.500    0.000    0.000    0.000    0.000 
#    0.000    0.000    0.000    0.000    0.000    0.000 
#
# Total GULP energy -178347.529217 kJ/mol
# GULP energy per Si atom -5573.360288 kJ/mol
# Density = 2.056912 g / cm^3
# Si number density = 20.616045 Si / 1000 Ang^3
#
#
#
# Elastic Constant Matrix: (Units=GPa)
#
#
# Indices 1 2 3 4 5 6 
#
# 1 150.0834 63.8997 43.2060 0.0000 0.0000 0.0000
# 2 63.8997 133.5077 44.6332 0.0000 0.0000 0.0000
# 3 43.2060 44.6332 104.7785 0.0000 0.0000 0.0000
# 4 0.0000 0.0000 0.0000 -4.9399 0.0000 0.0000
# 5 0.0000 0.0000 0.0000 0.0000 22.3882 0.0000
# 6 0.0000 0.0000 0.0000 0.0000 0.0000 38.7798
#
#
#
# Elastic Compliance Matrix: (Units=1/GPa)
#
#
# Indices 1 2 3 4 5 6 
#
# 1 0.008757 -0.003480 -0.002129 0.000000 0.000000 0.000000
# 2 -0.003480 0.010117 -0.002875 0.000000 0.000000 0.000000
# 3 -0.002129 -0.002875 0.011646 0.000000 0.000000 0.000000
# 4 0.000000 0.000000 0.000000 -0.202434 0.000000 0.000000
# 5 0.000000 0.000000 0.000000 0.000000 0.044666 0.000000
# 6 0.000000 0.000000 0.000000 0.000000 0.000000 0.025787
#
#
# Mechanical properties :
#
#
# Convention : Reuss Voigt Hill
#
# Bulk Modulus (GPa) = 73.77911 76.87192 75.32551
# Shear Modulus (GPa) = -62.51872 27.02100 -17.74886
#
# Velocity S-wave (km/s) = -5.51281 3.62426 -2.93734
# Velocity P-wave (km/s) = 2.15791 7.40824 5.01126
#
# Compressibility (1/GPa) = 0.01355397
#
# Stress axis : x y z
#
# Youngs Moduli (GPa) = 114.18954 98.84637 85.86427
#
# Poissons Ratio (x) = 0.34396 0.18279
# Poissons Ratio (y) = 0.39735 0.24682
# Poissons Ratio (z) = 0.24309 0.28414
#
# Static dielectric constant tensor:
#      x y z
#    x 1.802980 0.000000 0.000000 
#    y 0.000000 1.701320 0.000000 
#    z 0.000000 0.000000 1.457050 
# 
# From -- ./inp_files/15209.got.cif
#   From: 2010.05.17/outbox.cif.g08.bks.cpg/sg49_8_cif.got.tgz:15209.got - 2010.06.03 21:02:19.
