data_PCOD9394505
_publ_section_title
;
Structure prediction by ZEFSAII (Michael W. Deem and Ramdas Pophale) SiO2 
 PCOD9394505
Probable space group: P C C M
;
_chemical_formula_sum "Si O2"
_cell_formula_units_Z 48
_cell_length_a 18.360996
_cell_length_b 14.458276
_cell_length_c 9.148148
_cell_angle_alpha 90.000000
_cell_angle_beta 90.000000
_cell_angle_gamma 90.000000
_cell_volume 2428.543735
_symmetry_space_group_name_H-M "P C C M"
_symmetry_group_IT_number 49
_symmetry_cell_setting 'orthorhombic'
loop_
_space_group_symop_operation_xyz
x,y,z
-x,-y,z
x,-y,1/2-z
-x,y,1/2-z
-x,-y,-z
x,y,-z
-x,y,1/2+z
x,-y,1/2+z
loop_
_atom_site_type_symbol
_atom_site_label
_atom_site_fract_x
_atom_site_fract_y
_atom_site_fract_z
Si Si1 0.426173 0.595539 0.829000
Si Si2 0.067796 0.633128 0.500000
Si Si3 0.077001 0.088065 0.668507
Si Si4 0.102769 0.582369 0.000000
Si Si5 0.848875 0.280168 0.764518
Si Si6 0.312500 0.760286 0.174905
Si Si7 0.575709 0.898314 0.178565
O O1 0.406036 0.500000 0.750000
O O2 0.500000 0.628426 0.750000
O O3 0.362842 0.669880 0.817657
O O4 0.440905 0.579772 0.000000
O O5 0.099083 0.528149 0.500000
O O6 0.098775 0.691067 0.633576
O O7 0.980812 0.619822 0.500000
O O8 0.065925 0.063997 0.500000
O O9 0.120018 0.183927 0.674336
O O10 0.000000 0.101837 0.750000
O O11 0.113013 0.000000 0.750000
O O12 0.143168 0.629847 0.865958
O O13 0.763731 0.260650 0.746115
O O14 0.357458 0.838751 0.259698
O O15 0.300755 0.781419 0.000000
O O16 0.500000 0.861399 0.250000
O O17 0.583091 0.000000 0.250000
O O18 0.571969 0.900426 0.000000
#
# Coordination Sequence:
#
# PCOD9394505 Si02
#       7
#     8   4   8   4   8   8   8
#     4  10  21  38  62  88 121 163 210 259 306 370
#     4  11  26  40  73  97 128 169 233 281 339 420
#     4  11  23  40  66  93 126 165 213 266 323 390
#     4  11  22  48  67  97 128 177 221 285 347 404
#     4  12  25  43  65  98 137 173 219 279 343 399
#     4  11  24  43  61  92 135 174 214 266 329 386
#     4  11  23  42  71 103 136 177 224 270 322 386
#
# _framework density 19.764931000000001
#
# number of rings (size 3 to 8) (size 9 to 14) (size 15 to 20)
#    0.000    1.000    1.667    6.500    3.500    6.000 
#    0.000    1.667    0.000    0.000    0.000    0.000 
#    0.000    0.000    0.000    0.000    0.000    0.000 
#
# Total GULP energy -267988.794534 kJ/mol
# GULP energy per Si atom -5583.099886 kJ/mol
# Density = 1.971995 g / cm^3
# Si number density = 19.764931 Si / 1000 Ang^3
#
#
#
# Elastic Constant Matrix: (Units=GPa)
#
#
# Indices 1 2 3 4 5 6 
#
# 1 97.7504 49.8373 18.9545 0.0000 0.0000 0.0000
# 2 49.8373 105.8749 28.9106 0.0000 0.0000 0.0000
# 3 18.9545 28.9106 113.1176 0.0000 0.0000 0.0000
# 4 0.0000 0.0000 0.0000 106.9701 0.0000 0.0000
# 5 0.0000 0.0000 0.0000 0.0000 -1.4950 0.0000
# 6 0.0000 0.0000 0.0000 0.0000 0.0000 -14.7986
#
#
#
# Elastic Compliance Matrix: (Units=1/GPa)
#
#
# Indices 1 2 3 4 5 6 
#
# 1 0.013510 -0.006172 -0.000686 0.000000 0.000000 0.000000
# 2 -0.006172 0.012973 -0.002282 0.000000 0.000000 0.000000
# 3 -0.000686 -0.002282 0.009538 0.000000 0.000000 0.000000
# 4 0.000000 0.000000 0.000000 0.009348 0.000000 0.000000
# 5 0.000000 0.000000 0.000000 0.000000 -0.668913 0.000000
# 6 0.000000 0.000000 0.000000 0.000000 0.000000 -0.067574
#
#
# Mechanical properties :
#
#
# Convention : Reuss Voigt Hill
#
# Bulk Modulus (GPa) = 56.36312 56.90529 56.63420
# Shear Modulus (GPa) = -7.49712 32.73801 12.62045
#
# Velocity S-wave (km/s) = -1.94971 4.07427 2.52965
# Velocity P-wave (km/s) = 4.84873 7.14048 6.10314
#
# Compressibility (1/GPa) = 0.01774210
#
# Stress axis : x y z
#
# Youngs Moduli (GPa) = 74.01948 77.08091 104.83845
#
# Poissons Ratio (x) = 0.47574 0.07196
# Poissons Ratio (y) = 0.45685 0.23919
# Poissons Ratio (z) = 0.05080 0.17586
#
# Static dielectric constant tensor:
#      x y z
#    x 1.702220 0.000000 0.000000 
#    y 0.000000 1.683740 0.000000 
#    z 0.000000 0.000000 1.811490 
# 
# From -- ./inp_files/4911.got.cif
#   From: 2010.05.17/outbox.cif.g08.bks.cpg/sg49_3_cif.got.tgz:4911.got - 2010.06.03 21:02:19.
