data_PCOD9394036
_publ_section_title
;
Structure prediction by ZEFSAII (Michael W. Deem and Ramdas Pophale) SiO2 
 PCOD9394036
Probable space group: P C C M
;
_chemical_formula_sum "Si O2"
_cell_formula_units_Z 48
_cell_length_a 12.591716
_cell_length_b 10.827476
_cell_length_c 16.878372
_cell_angle_alpha 90.000000
_cell_angle_beta 90.000000
_cell_angle_gamma 90.000000
_cell_volume 2301.138211
_symmetry_space_group_name_H-M "P C C M"
_symmetry_group_IT_number 49
_symmetry_cell_setting 'orthorhombic'
loop_
_space_group_symop_operation_xyz
x,y,z
-x,-y,z
x,-y,1/2-z
-x,y,1/2-z
-x,-y,-z
x,y,-z
-x,y,1/2+z
x,-y,1/2+z
loop_
_atom_site_type_symbol
_atom_site_label
_atom_site_fract_x
_atom_site_fract_y
_atom_site_fract_z
Si Si1 0.270622 0.742924 0.853212
Si Si2 0.053116 0.876310 0.594158
Si Si3 0.609550 0.827838 0.796708
Si Si4 0.502077 0.358831 0.093188
Si Si5 0.277510 0.989563 0.589281
Si Si6 0.059697 0.626522 0.903417
O O1 0.300270 0.781658 0.763770
O O2 0.380595 0.694317 0.890298
O O3 0.175760 0.647027 0.865852
O O4 0.240133 0.870340 0.897619
O O5 0.028264 0.876690 0.500000
O O6 0.178482 0.897752 0.600187
O O7 0.009061 0.746022 0.623023
O O8 0.000000 0.000000 0.629544
O O9 0.500000 0.842997 0.750000
O O10 0.583532 0.722680 0.860965
O O11 0.640060 0.950800 0.843899
O O12 0.500000 0.500000 0.121414
O O13 0.480414 0.355772 0.000000
O O14 0.319509 0.977560 0.500000
O O15 0.000000 0.500000 0.882193
O O16 0.070829 0.627259 0.000000
#
# Coordination Sequence:
#
# PCOD9394036 Si02
#       6
#     8   8   8   8   8   8
#     4  11  22  38  61  91 128 167 201 254 326 386
#     4   9  17  33  59  89 119 154 204 260 308 360
#     4  10  24  41  60  89 128 165 204 258 321 381
#     4  10  22  41  65  90 118 159 214 262 308 376
#     4  11  21  37  65  93 122 163 216 262 311 371
#     4  10  20  36  61  95 129 164 209 260 313 376
#
# _framework density 20.85924
#
# number of rings (size 3 to 8) (size 9 to 14) (size 15 to 20)
#    0.000    1.833    1.667    2.500    0.000    9.000 
#    0.000    8.333    0.000    1.000    0.000    0.000 
#    0.000    0.667    0.000    0.000    0.000    0.000 
#
# Total GULP energy -268199.909935 kJ/mol
# GULP energy per Si atom -5587.498124 kJ/mol
# Density = 2.081176 g / cm^3
# Si number density = 20.859240 Si / 1000 Ang^3
#
#
#
# Elastic Constant Matrix: (Units=GPa)
#
#
# Indices 1 2 3 4 5 6 
#
# 1 58.8977 37.2233 30.0983 0.0000 0.0000 0.0000
# 2 37.2233 108.5114 23.0743 0.0000 0.0000 0.0000
# 3 30.0983 23.0743 68.8387 0.0000 0.0000 0.0000
# 4 0.0000 0.0000 0.0000 -8.6532 0.0000 0.0000
# 5 0.0000 0.0000 0.0000 0.0000 26.6036 0.0000
# 6 0.0000 0.0000 0.0000 0.0000 0.0000 38.6454
#
#
#
# Elastic Compliance Matrix: (Units=1/GPa)
#
#
# Indices 1 2 3 4 5 6 
#
# 1 0.026020 -0.007006 -0.009028 0.000000 0.000000 0.000000
# 2 -0.007006 0.011809 -0.000895 0.000000 0.000000 0.000000
# 3 -0.009028 -0.000895 0.018774 0.000000 0.000000 0.000000
# 4 0.000000 0.000000 0.000000 -0.115564 0.000000 0.000000
# 5 0.000000 0.000000 0.000000 0.000000 0.037589 0.000000
# 6 0.000000 0.000000 0.000000 0.000000 0.000000 0.025876
#
#
# Mechanical properties :
#
#
# Convention : Reuss Voigt Hill
#
# Bulk Modulus (GPa) = 43.96663 46.33774 45.15218
# Shear Modulus (GPa) = 108.82397 21.04262 64.93329
#
# Velocity S-wave (km/s) = 7.23076 3.17959 5.58541
# Velocity P-wave (km/s) = 9.53076 5.97850 7.95543
#
# Compressibility (1/GPa) = 0.02274452
#
# Stress axis : x y z
#
# Youngs Moduli (GPa) = 38.43183 84.67913 53.26446
#
# Poissons Ratio (x) = 0.59326 0.48089
# Poissons Ratio (y) = 0.26925 0.04768
# Poissons Ratio (z) = 0.34698 0.07580
#
# Static dielectric constant tensor:
#      x y z
#    x 1.744900 0.000000 0.000000 
#    y 0.000000 1.763430 0.000000 
#    z 0.000000 0.000000 1.744730 
# 
# From -- ./inp_files/17083.got.cif
#   From: 2010.05.17/outbox.cif.g08.bks.cpg/sg49_9_cif.got.tgz:17083.got - 2010.06.03 21:02:19.
