data_PCOD9394895
_publ_section_title
;
Structure prediction by ZEFSAII (Michael W. Deem and Ramdas Pophale) SiO2 
 PCOD9394895
Probable space group: P C C M
;
_chemical_formula_sum "Si O2"
_cell_formula_units_Z 32
_cell_length_a 5.129794
_cell_length_b 15.994457
_cell_length_c 15.890461
_cell_angle_alpha 90.000000
_cell_angle_beta 90.000000
_cell_angle_gamma 90.000000
_cell_volume 1303.784827
_symmetry_space_group_name_H-M "P C C M"
_symmetry_group_IT_number 49
_symmetry_cell_setting 'orthorhombic'
loop_
_space_group_symop_operation_xyz
x,y,z
-x,-y,z
x,-y,1/2-z
-x,y,1/2-z
-x,-y,-z
x,y,-z
-x,y,1/2+z
x,-y,1/2+z
loop_
_atom_site_type_symbol
_atom_site_label
_atom_site_fract_x
_atom_site_fract_y
_atom_site_fract_z
Si Si1 0.642782 0.584837 0.137002
Si Si2 0.500000 0.718861 0.250000
Si Si3 0.000000 0.500000 0.000000
Si Si4 0.176236 0.856507 0.168740
Si Si5 0.601509 0.304667 0.000000
Si Si6 0.910212 0.192074 0.500000
Si Si7 0.500000 0.000000 0.750000
O O1 0.500000 0.500000 0.164324
O O2 0.702647 0.653422 0.208217
O O3 0.439119 0.633934 0.078080
O O4 0.867612 0.558262 0.074130
O O5 0.382775 0.780709 0.179083
O O6 0.327585 0.941820 0.189089
O O7 0.000000 0.842530 0.250000
O O8 0.999715 0.855832 0.085176
O O9 0.887471 0.268178 0.000000
O O10 0.380159 0.230812 0.000000
#
# Coordination Sequence:
#
# PCOD9394895 Si02
#       7
#     8   4   2   8   4   4   2
#     4  11  24  40  64  97 144 197 255 325 383 439
#     4  11  23  43  67 100 150 192 261 323 385 451
#     4  10  24  40  62  88 132 192 256 312 386 442
#     4  11  25  48  77 113 151 198 246 314 383 464
#     4  11  24  44  69 105 141 193 260 314 368 447
#     4  12  26  46  82 109 148 199 259 307 379 462
#     4  10  26  50  78 114 158 186 240 306 390 470
#
# _framework density 24.543927
#
# number of rings (size 3 to 8) (size 9 to 14) (size 15 to 20)
#    0.000    1.000    2.500    3.750   10.500    2.500 
#    0.000    6.250    0.000    0.000    0.000    0.000 
#    0.000    0.000    0.000    0.000    0.000    0.000 
#
# Total GULP energy -178457.766537 kJ/mol
# GULP energy per Si atom -5576.805204 kJ/mol
# Density = 2.448806 g / cm^3
# Si number density = 24.543927 Si / 1000 Ang^3
#
#
#
# Elastic Constant Matrix: (Units=GPa)
#
#
# Indices 1 2 3 4 5 6 
#
# 1 79.6207 41.5449 26.9087 0.0000 0.0000 0.0000
# 2 41.5449 163.8043 54.7518 0.0000 0.0000 0.0000
# 3 26.9087 54.7518 159.8761 0.0000 0.0000 0.0000
# 4 0.0000 0.0000 0.0000 34.9404 0.0000 0.0000
# 5 0.0000 0.0000 0.0000 0.0000 54.4679 0.0000
# 6 0.0000 0.0000 0.0000 0.0000 0.0000 41.7175
#
#
#
# Elastic Compliance Matrix: (Units=1/GPa)
#
#
# Indices 1 2 3 4 5 6 
#
# 1 0.014731 -0.003283 -0.001355 0.000000 0.000000 0.000000
# 2 -0.003283 0.007626 -0.002059 0.000000 0.000000 0.000000
# 3 -0.001355 -0.002059 0.007188 0.000000 0.000000 0.000000
# 4 0.000000 0.000000 0.000000 0.028620 0.000000 0.000000
# 5 0.000000 0.000000 0.000000 0.000000 0.018359 0.000000
# 6 0.000000 0.000000 0.000000 0.000000 0.000000 0.023971
#
#
# Mechanical properties :
#
#
# Convention : Reuss Voigt Hill
#
# Bulk Modulus (GPa) = 61.91864 72.19021 67.05442
# Shear Modulus (GPa) = 41.92092 44.89820 43.40956
#
# Velocity S-wave (km/s) = 4.13727 4.28167 4.21009
# Velocity P-wave (km/s) = 6.93579 7.34303 7.14231
#
# Compressibility (1/GPa) = 0.01615023
#
# Stress axis : x y z
#
# Youngs Moduli (GPa) = 67.88608 131.13470 139.12052
#
# Poissons Ratio (x) = 0.43054 0.18850
# Poissons Ratio (y) = 0.22288 0.28644
# Poissons Ratio (z) = 0.09198 0.27000
#
# Static dielectric constant tensor:
#      x y z
#    x 2.011410 0.000000 0.000000 
#    y 0.000000 2.053870 0.000000 
#    z 0.000000 0.000000 2.078160 
# 
# From -- ./inp_files/15206.got.cif
#   From: 2010.05.17/outbox.cif.g08.bks.cpg/sg49_8_cif.got.tgz:15206.got - 2010.06.03 21:02:19.
