data_PCOD9394053
_publ_section_title
;
Structure prediction by ZEFSAII (Michael W. Deem and Ramdas Pophale) SiO2 
 PCOD9394053
Probable space group: P C C M
;
_chemical_formula_sum "Si O2"
_cell_formula_units_Z 38
_cell_length_a 12.199433
_cell_length_b 9.241717
_cell_length_c 17.412902
_cell_angle_alpha 90.000000
_cell_angle_beta 90.000000
_cell_angle_gamma 90.000000
_cell_volume 1963.195127
_symmetry_space_group_name_H-M "P C C M"
_symmetry_group_IT_number 49
_symmetry_cell_setting 'orthorhombic'
loop_
_space_group_symop_operation_xyz
x,y,z
-x,-y,z
x,-y,1/2-z
-x,y,1/2-z
-x,-y,-z
x,y,-z
-x,y,1/2+z
x,-y,1/2+z
loop_
_atom_site_type_symbol
_atom_site_label
_atom_site_fract_x
_atom_site_fract_y
_atom_site_fract_z
Si Si1 0.821561 0.457591 0.000000
Si Si2 0.262211 0.446403 0.833583
Si Si3 0.685934 0.020073 0.500000
Si Si4 0.000000 0.000000 0.250000
Si Si5 0.845159 0.140764 0.372587
Si Si6 0.014229 0.731894 0.500000
Si Si7 0.481867 0.754766 0.000000
Si Si8 0.500000 0.500000 0.876815
O O1 0.765174 0.474793 0.916245
O O2 0.909144 0.588853 0.000000
O O3 0.888865 0.309955 0.000000
O O4 0.217169 0.500000 0.750000
O O5 0.221864 0.283577 0.848236
O O6 0.392185 0.461611 0.830296
O O7 0.762676 0.043632 0.424607
O O8 0.594147 0.149769 0.500000
O O9 0.618098 0.869910 0.500000
O O10 0.912252 0.084714 0.301077
O O11 0.945607 0.182348 0.427535
O O12 0.479679 0.642997 0.070961
#
# Coordination Sequence:
#
# PCOD9394053 Si02
#       8
#     4   8   4   2   8   4   4   4
#     4   9  18  37  58  95 119 161 212 272 323 402
#     4  11  23  39  66  95 135 172 216 277 345 395
#     4  10  20  43  70  98 128 182 222 272 342 417
#     4  12  28  42  62  90 128 186 236 278 340 396
#     4  10  23  44  62  87 133 171 225 285 326 399
#     4   8  18  37  63  82 120 159 212 273 332 372
#     4  10  20  36  75 101 131 175 222 270 351 418
#     4  11  21  40  62 105 135 164 215 277 332 413
#
# _framework density 19.356200000000001
#
# number of rings (size 3 to 8) (size 9 to 14) (size 15 to 20)
#    0.000    1.895    2.105    2.211    2.947    3.368 
#    3.789    0.000    0.000    0.000    0.000    0.000 
#    0.000    0.000    0.000    0.000    0.000    0.000 
#
# Total GULP energy -211543.453699 kJ/mol
# GULP energy per Si atom -5566.932992 kJ/mol
# Density = 1.931214 g / cm^3
# Si number density = 19.356200 Si / 1000 Ang^3
#
#
#
# Elastic Constant Matrix: (Units=GPa)
#
#
# Indices 1 2 3 4 5 6 
#
# 1 127.9565 55.5319 67.0207 0.0000 0.0000 0.0000
# 2 55.5319 99.7630 60.2270 0.0000 0.0000 0.0000
# 3 67.0207 60.2270 161.3821 0.0000 0.0000 0.0000
# 4 0.0000 0.0000 0.0000 -1.7456 0.0000 0.0000
# 5 0.0000 0.0000 0.0000 0.0000 4.0176 0.0000
# 6 0.0000 0.0000 0.0000 0.0000 0.0000 27.9723
#
#
#
# Elastic Compliance Matrix: (Units=1/GPa)
#
#
# Indices 1 2 3 4 5 6 
#
# 1 0.011354 -0.004484 -0.003042 0.000000 0.000000 0.000000
# 2 -0.004484 0.014710 -0.003627 0.000000 0.000000 0.000000
# 3 -0.003042 -0.003627 0.008814 0.000000 0.000000 0.000000
# 4 0.000000 0.000000 0.000000 -0.572884 0.000000 0.000000
# 5 0.000000 0.000000 0.000000 0.000000 0.248907 0.000000
# 6 0.000000 0.000000 0.000000 0.000000 0.000000 0.035750
#
#
# Mechanical properties :
#
#
# Convention : Reuss Voigt Hill
#
# Bulk Modulus (GPa) = 79.54889 83.85121 81.70005
# Shear Modulus (GPa) = -22.04065 19.80366 -1.11849
#
# Velocity S-wave (km/s) = -3.37810 3.20209 -0.76099
# Velocity P-wave (km/s) = 5.09619 7.55548 6.44424
#
# Compressibility (1/GPa) = 0.01257089
#
# Stress axis : x y z
#
# Youngs Moduli (GPa) = 88.07107 67.98324 113.46151
#
# Poissons Ratio (x) = 0.30482 0.34516
# Poissons Ratio (y) = 0.39490 0.41157
# Poissons Ratio (z) = 0.26792 0.24660
#
# Static dielectric constant tensor:
#      x y z
#    x 1.703820 0.000000 0.000000 
#    y 0.000000 1.704430 0.000000 
#    z 0.000000 0.000000 1.622170 
# 
# From -- ./inp_files/16915.got.cif
#   From: 2010.05.17/outbox.cif.g08.bks.cpg/sg49_9_cif.got.tgz:16915.got - 2010.06.03 21:02:19.
