data_PCOD9394853
_publ_section_title
;
Structure prediction by ZEFSAII (Michael W. Deem and Ramdas Pophale) SiO2 
 PCOD9394853
Probable space group: P C C M
;
_chemical_formula_sum "Si O2"
_cell_formula_units_Z 18
_cell_length_a 6.925280
_cell_length_b 12.645973
_cell_length_c 9.472749
_cell_angle_alpha 90.000000
_cell_angle_beta 90.000000
_cell_angle_gamma 90.000000
_cell_volume 829.594029
_symmetry_space_group_name_H-M "P C C M"
_symmetry_group_IT_number 49
_symmetry_cell_setting 'orthorhombic'
loop_
_space_group_symop_operation_xyz
x,y,z
-x,-y,z
x,-y,1/2-z
-x,y,1/2-z
-x,-y,-z
x,y,-z
-x,y,1/2+z
x,-y,1/2+z
loop_
_atom_site_type_symbol
_atom_site_label
_atom_site_fract_x
_atom_site_fract_y
_atom_site_fract_z
Si Si1 0.309013 0.665895 0.658882
Si Si2 0.000000 0.500000 0.250000
Si Si3 0.293550 0.900217 0.330264
O O1 0.500000 0.643413 0.750000
O O2 0.382657 0.674051 0.500000
O O3 0.217809 0.781294 0.691701
O O4 0.145956 0.577247 0.668644
O O5 0.500000 0.892144 0.250000
O O6 0.306502 0.919806 0.500000
O O7 0.201791 0.000000 0.250000
#
# Coordination Sequence:
#
# PCOD9394853 Si02
#       3
#     8   2   8
#     4  10  23  41  62  89 120 156 198 245 296 350
#     4  12  24  40  62  84 118 160 206 248 290 346
#     4   9  16  30  54  84 115 147 186 233 289 349
#
# _framework density 21.697361999999998
#
# number of rings (size 3 to 8) (size 9 to 14) (size 15 to 20)
#    0.000    2.222    0.000    4.000    0.000    7.111 
#    0.000    1.111    0.000    5.333    0.000    0.000 
#    0.000    0.000    0.000    0.000    0.000    0.000 
#
# Total GULP energy -100251.347255 kJ/mol
# GULP energy per Si atom -5569.519292 kJ/mol
# Density = 2.164798 g / cm^3
# Si number density = 21.697362 Si / 1000 Ang^3
#
#
#
# Elastic Constant Matrix: (Units=GPa)
#
#
# Indices 1 2 3 4 5 6 
#
# 1 108.9454 50.6527 58.3507 0.0000 0.0000 0.0000
# 2 50.6527 196.3965 62.1423 0.0000 0.0000 0.0000
# 3 58.3507 62.1423 120.7628 0.0000 0.0000 0.0000
# 4 0.0000 0.0000 0.0000 286.1779 0.0000 0.0000
# 5 0.0000 0.0000 0.0000 0.0000 -14.5643 0.0000
# 6 0.0000 0.0000 0.0000 0.0000 0.0000 -542.5649
#
#
#
# Elastic Compliance Matrix: (Units=1/GPa)
#
#
# Indices 1 2 3 4 5 6 
#
# 1 0.012794 -0.001605 -0.005356 0.000000 0.000000 0.000000
# 2 -0.001605 0.006283 -0.002458 0.000000 0.000000 0.000000
# 3 -0.005356 -0.002458 0.012133 0.000000 0.000000 0.000000
# 4 0.000000 0.000000 0.000000 0.003494 0.000000 0.000000
# 5 0.000000 0.000000 0.000000 0.000000 -0.068661 0.000000
# 6 0.000000 0.000000 0.000000 0.000000 0.000000 -0.001843
#
#
# Mechanical properties :
#
#
# Convention : Reuss Voigt Hill
#
# Bulk Modulus (GPa) = 80.82025 85.37731 83.09878
# Shear Modulus (GPa) = -389.46681 -37.19298 -213.32989
#
# Velocity S-wave (km/s) = -13.41228 -4.14475 -9.92643
# Velocity P-wave (km/s) = 14.23104 4.06563 9.64348
#
# Compressibility (1/GPa) = 0.01237314
#
# Stress axis : x y z
#
# Youngs Moduli (GPa) = 78.16370 159.15055 82.41798
#
# Poissons Ratio (x) = 0.25543 0.44141
# Poissons Ratio (y) = 0.12545 0.20257
# Poissons Ratio (z) = 0.41863 0.39116
#
# Static dielectric constant tensor:
#      x y z
#    x 1.788440 0.000000 0.000000 
#    y 0.000000 1.910470 0.000000 
#    z 0.000000 0.000000 1.989330 
# 
# From -- ./inp_files/1002.got.cif
#   From: 2010.05.17/outbox.cif.g08.bks.cpg/sg49_1_cif.got.tgz:1002.got - 2010.06.03 21:02:19.
