data_PCOD9394266
_publ_section_title
;
Structure prediction by ZEFSAII (Michael W. Deem and Ramdas Pophale) SiO2 
 PCOD9394266
Probable space group: P C C M
;
_chemical_formula_sum "Si O2"
_cell_formula_units_Z 40
_cell_length_a 5.123380
_cell_length_b 14.934999
_cell_length_c 25.632406
_cell_angle_alpha 90.000000
_cell_angle_beta 90.000000
_cell_angle_gamma 90.000000
_cell_volume 1961.332116
_symmetry_space_group_name_H-M "P C C M"
_symmetry_group_IT_number 49
_symmetry_cell_setting 'orthorhombic'
loop_
_space_group_symop_operation_xyz
x,y,z
-x,-y,z
x,-y,1/2-z
-x,y,1/2-z
-x,-y,-z
x,y,-z
-x,y,1/2+z
x,-y,1/2+z
loop_
_atom_site_type_symbol
_atom_site_label
_atom_site_fract_x
_atom_site_fract_y
_atom_site_fract_z
Si Si1 0.045845 0.652607 0.806927
Si Si2 0.742881 0.041506 0.691351
Si Si3 0.399556 0.292596 0.942341
Si Si4 0.543864 0.764967 0.830256
Si Si5 0.110510 0.594614 0.918864
O O1 0.266897 0.732386 0.806398
O O2 0.134434 0.593293 0.855694
O O3 0.000000 0.612258 0.750000
O O4 0.760243 0.689579 0.820750
O O5 0.677330 0.145858 0.692590
O O6 0.500000 0.000000 0.661892
O O7 0.746180 0.000000 0.750000
O O8 0.000000 0.000000 0.666793
O O9 0.477066 0.230479 0.893197
O O10 0.609778 0.373713 0.939346
O O11 0.108857 0.331815 0.933703
O O12 0.416216 0.252173 0.000000
O O13 0.000000 0.500000 0.937057
#
# Coordination Sequence:
#
# PCOD9394266 Si02
#       5
#     8   8   8   8   8
#     4  10  21  33  54  76 107 153 180 213 268 333
#     4  10  21  32  50  79 107 138 169 217 268 321
#     4  10  21  37  57  79 104 145 185 225 280 322
#     4  10  21  36  52  78 112 139 182 224 264 328
#     4  10  21  36  53  82 112 137 184 235 272 321
#
# _framework density 20.394303000000001
#
# number of rings (size 3 to 8) (size 9 to 14) (size 15 to 20)
#    0.000    2.000    0.000    3.000    8.400    2.800 
#    0.000    0.000    0.000    8.400    0.000    0.000 
#    0.000    0.000    0.000    0.000    0.000    0.000 
#
# Total GULP energy -222838.137251 kJ/mol
# GULP energy per Si atom -5570.953431 kJ/mol
# Density = 2.034788 g / cm^3
# Si number density = 20.394303 Si / 1000 Ang^3
#
#
#
# Elastic Constant Matrix: (Units=GPa)
#
#
# Indices 1 2 3 4 5 6 
#
# 1 126.1848 -11.3701 1.2032 0.0000 0.0000 0.0000
# 2 -11.3701 40.2125 11.5180 0.0000 0.0000 0.0000
# 3 1.2032 11.5180 133.7751 0.0000 0.0000 0.0000
# 4 0.0000 0.0000 0.0000 -7.0007 0.0000 0.0000
# 5 0.0000 0.0000 0.0000 0.0000 8.6760 0.0000
# 6 0.0000 0.0000 0.0000 0.0000 0.0000 24.7324
#
#
#
# Elastic Compliance Matrix: (Units=1/GPa)
#
#
# Indices 1 2 3 4 5 6 
#
# 1 0.008142 0.002382 -0.000278 0.000000 0.000000 0.000000
# 2 0.002382 0.026193 -0.002277 0.000000 0.000000 0.000000
# 3 -0.000278 -0.002277 0.007674 0.000000 0.000000 0.000000
# 4 0.000000 0.000000 0.000000 -0.142843 0.000000 0.000000
# 5 0.000000 0.000000 0.000000 0.000000 0.115260 0.000000
# 6 0.000000 0.000000 0.000000 0.000000 0.000000 0.040433
#
#
# Mechanical properties :
#
#
# Convention : Reuss Voigt Hill
#
# Bulk Modulus (GPa) = 24.00198 33.65274 28.82736
# Shear Modulus (GPa) = 72.36587 25.20296 48.78441
#
# Velocity S-wave (km/s) = 5.96325 3.51919 4.89618
# Velocity P-wave (km/s) = 7.69470 5.74889 6.79184
#
# Compressibility (1/GPa) = 0.04166322
#
# Stress axis : x y z
#
# Youngs Moduli (GPa) = 122.81751 38.17748 130.31424
#
# Poissons Ratio (x) = -0.09094 0.03627
# Poissons Ratio (y) = -0.29254 0.29668
# Poissons Ratio (z) = 0.03418 0.08692
#
# Static dielectric constant tensor:
#      x y z
#    x 1.740950 0.000000 0.000000 
#    y 0.000000 1.836120 0.000000 
#    z 0.000000 0.000000 1.796020 
# 
# From -- ./inp_files/21717.got.cif
#   From: 2010.05.17/outbox.cif.g08.bks.cpg/sg49_11_cif.got.tgz:21717.got - 2010.06.03 21:02:19.
