data_PCOD9394549
_publ_section_title
;
Structure prediction by ZEFSAII (Michael W. Deem and Ramdas Pophale) SiO2 
 PCOD9394549
Probable space group: P C C M
;
_chemical_formula_sum "Si O2"
_cell_formula_units_Z 64
_cell_length_a 11.980180
_cell_length_b 18.910522
_cell_length_c 14.734349
_cell_angle_alpha 90.000000
_cell_angle_beta 90.000000
_cell_angle_gamma 90.000000
_cell_volume 3338.088241
_symmetry_space_group_name_H-M "P C C M"
_symmetry_group_IT_number 49
_symmetry_cell_setting 'orthorhombic'
loop_
_space_group_symop_operation_xyz
x,y,z
-x,-y,z
x,-y,1/2-z
-x,y,1/2-z
-x,-y,-z
x,y,-z
-x,y,1/2+z
x,-y,1/2+z
loop_
_atom_site_type_symbol
_atom_site_label
_atom_site_fract_x
_atom_site_fract_y
_atom_site_fract_z
Si Si1 0.675173 0.307477 0.107842
Si Si2 0.181649 0.827195 0.100299
Si Si3 0.466426 0.217446 0.109278
Si Si4 0.636041 0.583417 0.247753
Si Si5 0.802956 0.076361 0.270461
Si Si6 0.057422 0.792535 0.656037
Si Si7 0.742737 0.308541 0.392681
Si Si8 0.584130 0.936415 0.891196
O O1 0.769917 0.249630 0.125610
O O2 0.563302 0.268304 0.142165
O O3 0.684333 0.378923 0.162861
O O4 0.668978 0.319866 0.000000
O O5 0.217088 0.884670 0.174235
O O6 0.048709 0.816709 0.097805
O O7 0.225637 0.845228 0.000000
O O8 0.346195 0.247622 0.133959
O O9 0.476621 0.136567 0.135127
O O10 0.473936 0.219775 0.000000
O O11 0.657692 0.500000 0.250000
O O12 0.500000 0.592066 0.250000
O O13 0.699143 0.624485 0.165557
O O14 0.873893 0.135508 0.324072
O O15 0.694070 0.059756 0.330149
O O16 0.857588 0.000000 0.250000
O O17 0.137848 0.729351 0.623447
O O18 0.000000 0.769664 0.750000
O O19 0.732076 0.323750 0.500000
O O20 0.500000 0.000000 0.875952
O O21 0.611407 0.933633 0.000000
#
# Coordination Sequence:
#
# PCOD9394549 Si02
#       8
#     8   8   8   8   8   8   8   8
#     4  10  21  39  61  87 123 162 201 253 307 364
#     4  10  23  41  64  90 117 159 211 259 307 363
#     4   9  18  34  59  87 114 155 205 251 304 363
#     4  11  23  37  58  93 131 166 201 240 299 372
#     4  11  24  39  56  85 119 158 201 253 314 366
#     4  10  21  40  65  90 119 156 210 264 309 364
#     4  11  21  39  65  93 122 158 205 258 311 366
#     4  10  22  39  58  86 123 160 202 252 310 371
#
# _framework density 19.172650999999998
#
# number of rings (size 3 to 8) (size 9 to 14) (size 15 to 20)
#    0.000    1.750    2.500    1.875    1.750    4.000 
#    0.000    1.875    0.000    3.750    0.000    5.250 
#    0.000    0.000    0.000    0.000    0.000    0.000 
#
# Total GULP energy -357161.983170 kJ/mol
# GULP energy per Si atom -5580.655987 kJ/mol
# Density = 1.912901 g / cm^3
# Si number density = 19.172651 Si / 1000 Ang^3
#
#
#
# Elastic Constant Matrix: (Units=GPa)
#
#
# Indices 1 2 3 4 5 6 
#
# 1 91.6045 45.6749 41.9703 0.0000 0.0000 0.0000
# 2 45.6749 166.3594 66.7145 0.0000 0.0000 0.0000
# 3 41.9703 66.7145 103.0039 0.0000 0.0000 0.0000
# 4 0.0000 0.0000 0.0000 22.6159 0.0000 0.0000
# 5 0.0000 0.0000 0.0000 0.0000 22.1731 0.0000
# 6 0.0000 0.0000 0.0000 0.0000 0.0000 17.1572
#
#
#
# Elastic Compliance Matrix: (Units=1/GPa)
#
#
# Indices 1 2 3 4 5 6 
#
# 1 0.013942 -0.002093 -0.004325 0.000000 0.000000 0.000000
# 2 -0.002093 0.008435 -0.004610 0.000000 0.000000 0.000000
# 3 -0.004325 -0.004610 0.014456 0.000000 0.000000 0.000000
# 4 0.000000 0.000000 0.000000 0.044217 0.000000 0.000000
# 5 0.000000 0.000000 0.000000 0.000000 0.045100 0.000000
# 6 0.000000 0.000000 0.000000 0.000000 0.000000 0.058285
#
#
# Mechanical properties :
#
#
# Convention : Reuss Voigt Hill
#
# Bulk Modulus (GPa) = 67.67622 74.40969 71.04295
# Shear Modulus (GPa) = 23.65007 26.16311 24.90659
#
# Velocity S-wave (km/s) = 3.51598 3.69806 3.60817
# Velocity P-wave (km/s) = 7.20123 7.55836 7.38196
#
# Compressibility (1/GPa) = 0.01477624
#
# Stress axis : x y z
#
# Youngs Moduli (GPa) = 71.72669 118.55977 69.17331
#
# Poissons Ratio (x) = 0.24819 0.29917
# Poissons Ratio (y) = 0.15015 0.31889
# Poissons Ratio (z) = 0.31021 0.54656
#
# Static dielectric constant tensor:
#      x y z
#    x 1.699760 0.000000 0.000000 
#    y 0.000000 1.636320 0.000000 
#    z 0.000000 0.000000 1.718210 
# 
# From -- ./inp_files/13094.got.cif
#   From: 2010.05.17/outbox.cif.g08.bks.cpg/sg49_7_cif.got.tgz:13094.got - 2010.06.03 21:02:19.
