data_PCOD9394118
_publ_section_title
;
Structure prediction by ZEFSAII (Michael W. Deem and Ramdas Pophale) SiO2 
 PCOD9394118
Probable space group: P C C M
;
_chemical_formula_sum "Si O2"
_cell_formula_units_Z 48
_cell_length_a 14.622769
_cell_length_b 7.826689
_cell_length_c 18.867294
_cell_angle_alpha 90.000000
_cell_angle_beta 90.000000
_cell_angle_gamma 90.000000
_cell_volume 2159.321522
_symmetry_space_group_name_H-M "P C C M"
_symmetry_group_IT_number 49
_symmetry_cell_setting 'orthorhombic'
loop_
_space_group_symop_operation_xyz
x,y,z
-x,-y,z
x,-y,1/2-z
-x,y,1/2-z
-x,-y,-z
x,y,-z
-x,y,1/2+z
x,-y,1/2+z
loop_
_atom_site_type_symbol
_atom_site_label
_atom_site_fract_x
_atom_site_fract_y
_atom_site_fract_z
Si Si1 0.546843 0.316424 0.421573
Si Si2 0.142119 0.369909 0.811877
Si Si3 0.375378 0.163226 0.349596
Si Si4 0.998520 0.708736 0.078879
Si Si5 0.799149 0.337247 0.082463
Si Si6 0.332766 0.778448 0.699425
O O1 0.500000 0.500000 0.426267
O O2 0.578841 0.264510 0.500000
O O3 0.467708 0.191439 0.392865
O O4 0.626930 0.330628 0.364610
O O5 0.109336 0.500000 0.750000
O O6 0.065834 0.261080 0.853577
O O7 0.186071 0.495788 0.870300
O O8 0.226160 0.255094 0.785699
O O9 0.289136 0.236020 0.392095
O O10 0.383309 0.255841 0.273381
O O11 0.352943 0.969635 0.327653
O O12 0.000000 0.500000 0.075791
O O13 0.103741 0.762808 0.089636
O O14 0.967493 0.766463 0.000000
O O15 0.790033 0.382634 0.000000
#
# Coordination Sequence:
#
# PCOD9394118 Si02
#       6
#     8   8   8   8   8   8
#     4  11  25  42  65  93 120 155 204 256 306 366
#     4  11  20  36  60  92 119 161 204 260 306 369
#     4  11  23  43  60  86 125 165 202 251 308 370
#     4   8  17  33  55  87 122 154 199 256 307 355
#     4  10  20  37  62  89 122 162 207 257 306 367
#     4  11  25  40  60  89 124 160 205 252 309 366
#
# _framework density 22.229205
#
# number of rings (size 3 to 8) (size 9 to 14) (size 15 to 20)
#    0.000    1.667    1.667    4.000    0.000    9.667 
#    0.000    0.833    0.000    4.000    0.000    0.000 
#    0.000    0.000    0.000    0.000    0.000    0.000 
#
# Total GULP energy -268107.260203 kJ/mol
# GULP energy per Si atom -5585.567921 kJ/mol
# Density = 2.217861 g / cm^3
# Si number density = 22.229205 Si / 1000 Ang^3
#
#
#
# Elastic Constant Matrix: (Units=GPa)
#
#
# Indices 1 2 3 4 5 6 
#
# 1 98.8276 4.4673 33.2301 0.0000 0.0000 0.0000
# 2 4.4673 28.5825 8.4465 0.0000 0.0000 0.0000
# 3 33.2301 8.4465 133.3562 0.0000 0.0000 0.0000
# 4 0.0000 0.0000 0.0000 12.4850 0.0000 0.0000
# 5 0.0000 0.0000 0.0000 0.0000 40.6600 0.0000
# 6 0.0000 0.0000 0.0000 0.0000 0.0000 8.7827
#
#
#
# Elastic Compliance Matrix: (Units=1/GPa)
#
#
# Indices 1 2 3 4 5 6 
#
# 1 0.011068 -0.000932 -0.002699 0.000000 0.000000 0.000000
# 2 -0.000932 0.035732 -0.002031 0.000000 0.000000 0.000000
# 3 -0.002699 -0.002031 0.008300 0.000000 0.000000 0.000000
# 4 0.000000 0.000000 0.000000 0.080096 0.000000 0.000000
# 5 0.000000 0.000000 0.000000 0.000000 0.024594 0.000000
# 6 0.000000 0.000000 0.000000 0.000000 0.000000 0.113860
#
#
# Mechanical properties :
#
#
# Convention : Reuss Voigt Hill
#
# Bulk Modulus (GPa) = 22.84352 39.22823 31.03588
# Shear Modulus (GPa) = 16.69072 26.69370 21.69221
#
# Velocity S-wave (km/s) = 2.74313 3.46907 3.12724
# Velocity P-wave (km/s) = 4.50907 5.80788 5.19919
#
# Compressibility (1/GPa) = 0.04377608
#
# Stress axis : x y z
#
# Youngs Moduli (GPa) = 90.34820 27.98591 120.48360
#
# Poissons Ratio (x) = 0.02609 0.32518
# Poissons Ratio (y) = 0.08423 0.24469
# Poissons Ratio (z) = 0.24385 0.05684
#
# Static dielectric constant tensor:
#      x y z
#    x 1.849220 0.000000 0.000000 
#    y 0.000000 1.862090 0.000000 
#    z 0.000000 0.000000 1.855840 
# 
# From -- ./inp_files/17693.got.cif
#   From: 2010.05.17/outbox.cif.g08.bks.cpg/sg49_9_cif.got.tgz:17693.got - 2010.06.03 21:02:19.
