data_PCOD9394835
_publ_section_title
;
Structure prediction by ZEFSAII (Michael W. Deem and Ramdas Pophale) SiO2 
 PCOD9394835
Probable space group: P C C M
;
_chemical_formula_sum "Si O2"
_cell_formula_units_Z 44
_cell_length_a 16.312069
_cell_length_b 14.730651
_cell_length_c 10.324371
_cell_angle_alpha 90.000000
_cell_angle_beta 90.000000
_cell_angle_gamma 90.000000
_cell_volume 2480.816218
_symmetry_space_group_name_H-M "P C C M"
_symmetry_group_IT_number 49
_symmetry_cell_setting 'orthorhombic'
loop_
_space_group_symop_operation_xyz
x,y,z
-x,-y,z
x,-y,1/2-z
-x,y,1/2-z
-x,-y,-z
x,y,-z
-x,y,1/2+z
x,-y,1/2+z
loop_
_atom_site_type_symbol
_atom_site_label
_atom_site_fract_x
_atom_site_fract_y
_atom_site_fract_z
Si Si1 0.610315 0.402939 0.500000
Si Si2 0.081787 0.873439 0.000000
Si Si3 0.160940 0.202944 0.236899
Si Si4 0.111487 0.087877 0.000000
Si Si5 0.935238 0.378950 0.640085
Si Si6 0.308020 0.665067 0.234086
Si Si7 0.582922 0.620592 0.500000
Si Si8 0.194453 0.500000 0.750000
O O1 0.655383 0.364234 0.372973
O O2 0.607446 0.513118 0.500000
O O3 0.515100 0.374529 0.500000
O O4 0.118692 0.827275 0.871036
O O5 0.982506 0.874273 0.000000
O O6 0.106458 0.979426 0.000000
O O7 0.108323 0.284684 0.174599
O O8 0.251071 0.245870 0.258387
O O9 0.155690 0.124352 0.129352
O O10 0.974984 0.375120 0.500000
O O11 0.864481 0.453939 0.645564
O O12 0.000000 0.398042 0.750000
O O13 0.378551 0.666630 0.127005
O O14 0.248820 0.581202 0.195068
#
# Coordination Sequence:
#
# PCOD9394835 Si02
#       8
#     4   4   8   4   8   8   4   4
#     4  11  21  36  58  82 112 152 193 228 276 337
#     4  11  23  38  60  85 113 147 192 236 290 347
#     4  11  23  37  57  83 112 148 184 239 287 339
#     4  11  21  40  62  81 113 149 190 238 290 347
#     4  11  24  39  54  74 106 150 200 246 282 324
#     4  11  22  37  56  80 116 147 187 230 279 336
#     4  11  21  36  58  82 112 150 193 234 272 335
#     4  10  23  34  53  74 106 150 194 232 273 324
#
# _framework density 17.736097000000001
#
# number of rings (size 3 to 8) (size 9 to 14) (size 15 to 20)
#    0.000    1.091    2.727    4.091    6.364    4.364 
#    0.000    0.000    0.000    0.000    0.000    0.000 
#    0.000   50.909    0.000    0.000    0.000    0.000 
#
# Total GULP energy -245876.334820 kJ/mol
# GULP energy per Si atom -5588.098519 kJ/mol
# Density = 1.769573 g / cm^3
# Si number density = 17.736097 Si / 1000 Ang^3
#
#
#
# Elastic Constant Matrix: (Units=GPa)
#
#
# Indices 1 2 3 4 5 6 
#
# 1 97.9368 36.3051 47.9483 0.0000 0.0000 0.0000
# 2 36.3051 74.9864 38.6722 0.0000 0.0000 0.0000
# 3 47.9483 38.6722 150.5260 0.0000 0.0000 0.0000
# 4 0.0000 0.0000 0.0000 8.9830 0.0000 0.0000
# 5 0.0000 0.0000 0.0000 0.0000 15.3680 0.0000
# 6 0.0000 0.0000 0.0000 0.0000 0.0000 29.1561
#
#
#
# Elastic Compliance Matrix: (Units=1/GPa)
#
#
# Indices 1 2 3 4 5 6 
#
# 1 0.013547 -0.004995 -0.003032 0.000000 0.000000 0.000000
# 2 -0.004995 0.017214 -0.002831 0.000000 0.000000 0.000000
# 3 -0.003032 -0.002831 0.008337 0.000000 0.000000 0.000000
# 4 0.000000 0.000000 0.000000 0.111321 0.000000 0.000000
# 5 0.000000 0.000000 0.000000 0.000000 0.065070 0.000000
# 6 0.000000 0.000000 0.000000 0.000000 0.000000 0.034298
#
#
# Mechanical properties :
#
#
# Convention : Reuss Voigt Hill
#
# Bulk Modulus (GPa) = 57.53469 63.25560 60.39514
# Shear Modulus (GPa) = 18.03117 24.06968 21.05043
#
# Velocity S-wave (km/s) = 3.19193 3.68788 3.44883
# Velocity P-wave (km/s) = 6.78928 7.34005 7.07003
#
# Compressibility (1/GPa) = 0.01738082
#
# Stress axis : x y z
#
# Youngs Moduli (GPa) = 73.81877 58.09084 119.95337
#
# Poissons Ratio (x) = 0.29017 0.36368
# Poissons Ratio (y) = 0.36873 0.33965
# Poissons Ratio (z) = 0.22381 0.16448
#
# Static dielectric constant tensor:
#      x y z
#    x 1.605740 0.000000 0.000000 
#    y 0.000000 1.609620 0.000000 
#    z 0.000000 0.000000 1.617800 
# 
# From -- ./inp_files/4862.got.cif
#   From: 2010.05.17/outbox.cif.g08.bks.cpg/sg49_3_cif.got.tgz:4862.got - 2010.06.03 21:02:19.
