data_PCOD9394357
_publ_section_title
;
Structure prediction by ZEFSAII (Michael W. Deem and Ramdas Pophale) SiO2 
 PCOD9394357
Probable space group: P C C M
;
_chemical_formula_sum "Si O2"
_cell_formula_units_Z 58
_cell_length_a 8.660982
_cell_length_b 19.539585
_cell_length_c 17.354874
_cell_angle_alpha 90.000000
_cell_angle_beta 90.000000
_cell_angle_gamma 90.000000
_cell_volume 2936.999932
_symmetry_space_group_name_H-M "P C C M"
_symmetry_group_IT_number 49
_symmetry_cell_setting 'orthorhombic'
loop_
_space_group_symop_operation_xyz
x,y,z
-x,-y,z
x,-y,1/2-z
-x,y,1/2-z
-x,-y,-z
x,y,-z
-x,y,1/2+z
x,-y,1/2+z
loop_
_atom_site_type_symbol
_atom_site_label
_atom_site_fract_x
_atom_site_fract_y
_atom_site_fract_z
Si Si1 0.763677 0.820704 0.838121
Si Si2 0.530019 0.081252 0.412650
Si Si3 0.404978 0.681267 0.328995
Si Si4 0.918363 0.216660 0.912937
Si Si5 0.768704 0.108431 0.823943
Si Si6 0.000000 0.000000 0.750000
Si Si7 0.291912 0.349145 0.589230
Si Si8 0.183072 0.420235 0.741522
O O1 0.692941 0.886169 0.884093
O O2 0.655244 0.755766 0.850944
O O3 0.773163 0.841684 0.749184
O O4 0.930969 0.793286 0.861820
O O5 0.502994 0.108522 0.500000
O O6 0.408688 0.097287 0.345013
O O7 0.500000 0.000000 0.418861
O O8 0.500000 0.689161 0.250000
O O9 0.526167 0.657660 0.393340
O O10 0.272542 0.627244 0.303885
O O11 0.831269 0.145680 0.899661
O O12 0.799389 0.277774 0.895274
O O13 0.970485 0.226556 0.000000
O O14 0.883115 0.046512 0.800821
O O15 0.264937 0.367769 0.500000
O O16 0.229350 0.398942 0.655088
O O17 0.223036 0.500000 0.750000
O O18 0.000000 0.411075 0.750000
#
# Coordination Sequence:
#
# PCOD9394357 Si02
#       8
#     8   8   8   8   8   2   8   8
#     4  12  22  40  63  90 120 159 214 265 321 394
#     4  11  25  42  60  85 117 158 204 262 333 400
#     4  10  21  36  62  92 122 165 211 262 321 386
#     4  11  23  39  61  89 123 161 204 264 327 385
#     4  12  23  40  60  85 114 155 202 258 317 384
#     4  12  24  40  60  88 116 152 214 264 320 392
#     4  10  22  40  63  95 132 168 214 272 329 384
#     4  10  21  41  66  95 132 177 221 265 320 394
#
# _framework density 19.748042000000002
#
# number of rings (size 3 to 8) (size 9 to 14) (size 15 to 20)
#    0.000    1.103    1.379    6.207    0.000    5.241 
#    0.000    4.138    0.000    0.000    0.000    0.000 
#    0.000    0.000    0.000    0.000    0.000    0.000 
#
# Total GULP energy -323475.306227 kJ/mol
# GULP energy per Si atom -5577.160452 kJ/mol
# Density = 1.970309 g / cm^3
# Si number density = 19.748042 Si / 1000 Ang^3
#
#
#
# Elastic Constant Matrix: (Units=GPa)
#
#
# Indices 1 2 3 4 5 6 
#
# 1 74.4485 28.9797 31.6429 0.0000 0.0000 0.0000
# 2 28.9797 88.7584 31.7388 0.0000 0.0000 0.0000
# 3 31.6429 31.7388 101.4344 0.0000 0.0000 0.0000
# 4 0.0000 0.0000 0.0000 35.9838 0.0000 0.0000
# 5 0.0000 0.0000 0.0000 0.0000 61.4879 0.0000
# 6 0.0000 0.0000 0.0000 0.0000 0.0000 68.8882
#
#
#
# Elastic Compliance Matrix: (Units=1/GPa)
#
#
# Indices 1 2 3 4 5 6 
#
# 1 0.016678 -0.004037 -0.003940 0.000000 0.000000 0.000000
# 2 -0.004037 0.013663 -0.003016 0.000000 0.000000 0.000000
# 3 -0.003940 -0.003016 0.012031 0.000000 0.000000 0.000000
# 4 0.000000 0.000000 0.000000 0.027790 0.000000 0.000000
# 5 0.000000 0.000000 0.000000 0.000000 0.016263 0.000000
# 6 0.000000 0.000000 0.000000 0.000000 0.000000 0.014516
#
#
# Mechanical properties :
#
#
# Convention : Reuss Voigt Hill
#
# Bulk Modulus (GPa) = 49.04909 49.92936 49.48923
# Shear Modulus (GPa) = 38.54391 44.75730 41.65061
#
# Velocity S-wave (km/s) = 4.42269 4.76586 4.59748
# Velocity P-wave (km/s) = 7.13944 7.45806 7.30049
#
# Compressibility (1/GPa) = 0.02038774
#
# Stress axis : x y z
#
# Youngs Moduli (GPa) = 59.95977 73.19074 83.11675
#
# Poissons Ratio (x) = 0.29544 0.32745
# Poissons Ratio (y) = 0.24203 0.25067
# Poissons Ratio (z) = 0.23622 0.22074
#
# Static dielectric constant tensor:
#      x y z
#    x 1.820120 0.000000 0.000000 
#    y 0.000000 1.723370 0.000000 
#    z 0.000000 0.000000 1.688180 
# 
# From -- ./inp_files/16492.got.cif
#   From: 2010.05.17/outbox.cif.g08.bks.cpg/sg49_9_cif.got.tgz:16492.got - 2010.06.03 21:02:19.
