data_PCOD9394798
_publ_section_title
;
Structure prediction by ZEFSAII (Michael W. Deem and Ramdas Pophale) SiO2 
 PCOD9394798
Probable space group: P C C M
;
_chemical_formula_sum "Si O2"
_cell_formula_units_Z 24
_cell_length_a 15.887337
_cell_length_b 4.841664
_cell_length_c 13.971054
_cell_angle_alpha 90.000000
_cell_angle_beta 90.000000
_cell_angle_gamma 90.000000
_cell_volume 1074.669507
_symmetry_space_group_name_H-M "P C C M"
_symmetry_group_IT_number 49
_symmetry_cell_setting 'orthorhombic'
loop_
_space_group_symop_operation_xyz
x,y,z
-x,-y,z
x,-y,1/2-z
-x,y,1/2-z
-x,-y,-z
x,y,-z
-x,y,1/2+z
x,-y,1/2+z
loop_
_atom_site_type_symbol
_atom_site_label
_atom_site_fract_x
_atom_site_fract_y
_atom_site_fract_z
Si Si1 0.500000 0.500000 0.250000
Si Si2 0.887395 0.500000 0.750000
Si Si3 0.752488 0.743837 0.107460
Si Si4 0.629009 0.225436 0.891228
Si Si5 0.000000 0.000000 0.250000
O O1 0.444205 0.692857 0.181020
O O2 0.829310 0.652035 0.827235
O O3 0.939410 0.238964 0.796416
O O4 0.688952 0.489297 0.102607
O O5 0.692321 0.988018 0.142130
O O6 0.781576 0.816383 0.000000
O O7 0.598947 0.158921 0.000000
#
# Coordination Sequence:
#
# PCOD9394798 Si02
#       5
#     2   4   8   8   2
#     4  12  24  38  62  92 132 176 206 270 342 368
#     4  11  21  42  65  93 130 164 202 255 317 386
#     4  10  22  42  66  89 121 169 218 260 305 373
#     4  10  23  40  60  91 125 165 220 268 311 371
#     4  10  24  38  62 102 136 154 192 262 322 378
#
# _framework density 22.332446000000001
#
# number of rings (size 3 to 8) (size 9 to 14) (size 15 to 20)
#    0.000    1.667    0.000    3.500    0.000    6.667 
#    0.000   10.000    0.000    2.000    0.000    0.000 
#    0.000    0.000    0.000    0.000    0.000    0.000 
#
# Total GULP energy -133940.778754 kJ/mol
# GULP energy per Si atom -5580.865781 kJ/mol
# Density = 2.228162 g / cm^3
# Si number density = 22.332446 Si / 1000 Ang^3
#
#
#
# Elastic Constant Matrix: (Units=GPa)
#
#
# Indices 1 2 3 4 5 6 
#
# 1 118.0628 63.3711 70.3598 0.0000 0.0000 0.0000
# 2 63.3711 184.9255 38.5020 0.0000 0.0000 0.0000
# 3 70.3598 38.5020 143.4845 0.0000 0.0000 0.0000
# 4 0.0000 0.0000 0.0000 18.1634 0.0000 0.0000
# 5 0.0000 0.0000 0.0000 0.0000 -43.9003 0.0000
# 6 0.0000 0.0000 0.0000 0.0000 0.0000 48.4253
#
#
#
# Elastic Compliance Matrix: (Units=1/GPa)
#
#
# Indices 1 2 3 4 5 6 
#
# 1 0.013846 -0.003528 -0.005843 0.000000 0.000000 0.000000
# 2 -0.003528 0.006627 -0.000048 0.000000 0.000000 0.000000
# 3 -0.005843 -0.000048 0.009847 0.000000 0.000000 0.000000
# 4 0.000000 0.000000 0.000000 0.055056 0.000000 0.000000
# 5 0.000000 0.000000 0.000000 0.000000 -0.022779 0.000000
# 6 0.000000 0.000000 0.000000 0.000000 0.000000 0.020650
#
#
# Mechanical properties :
#
#
# Convention : Reuss Voigt Hill
#
# Bulk Modulus (GPa) = 87.09462 87.88207 87.48834
# Shear Modulus (GPa) = 47.20863 22.82032 35.01448
#
# Velocity S-wave (km/s) = 4.60271 3.20010 3.96394
# Velocity P-wave (km/s) = 8.20551 7.28638 7.75957
#
# Compressibility (1/GPa) = 0.01148177
#
# Stress axis : x y z
#
# Youngs Moduli (GPa) = 72.22325 150.90526 101.54973
#
# Poissons Ratio (x) = 0.53244 0.59334
# Poissons Ratio (y) = 0.25483 0.00488
# Poissons Ratio (z) = 0.42199 0.00725
#
# Static dielectric constant tensor:
#      x y z
#    x 1.855270 0.000000 0.000000 
#    y 0.000000 1.784980 0.000000 
#    z 0.000000 0.000000 1.884110 
# 
# From -- ./inp_files/13199.got.cif
#   From: 2010.05.17/outbox.cif.g08.bks.cpg/sg49_7_cif.got.tgz:13199.got - 2010.06.03 21:02:19.
