data_PCOD9394160
_publ_section_title
;
Structure prediction by ZEFSAII (Michael W. Deem and Ramdas Pophale) SiO2 
 PCOD9394160
Probable space group: P C C M
;
_chemical_formula_sum "Si O2"
_cell_formula_units_Z 48
_cell_length_a 30.605139
_cell_length_b 9.761961
_cell_length_c 8.593093
_cell_angle_alpha 90.000000
_cell_angle_beta 90.000000
_cell_angle_gamma 90.000000
_cell_volume 2567.325513
_symmetry_space_group_name_H-M "P C C M"
_symmetry_group_IT_number 49
_symmetry_cell_setting 'orthorhombic'
loop_
_space_group_symop_operation_xyz
x,y,z
-x,-y,z
x,-y,1/2-z
-x,y,1/2-z
-x,-y,-z
x,y,-z
-x,y,1/2+z
x,-y,1/2+z
loop_
_atom_site_type_symbol
_atom_site_label
_atom_site_fract_x
_atom_site_fract_y
_atom_site_fract_z
Si Si1 0.451163 0.649474 0.686393
Si Si2 0.302036 0.348746 0.187395
Si Si3 0.798792 0.649426 0.187002
Si Si4 0.376718 0.846209 0.185933
Si Si5 0.123306 0.153546 0.812636
Si Si6 0.951231 0.649690 0.686273
O O1 0.437352 0.500000 0.750000
O O2 0.500000 0.674065 0.750000
O O3 0.451736 0.645894 0.500000
O O4 0.418094 0.763760 0.746713
O O5 0.313629 0.500000 0.250000
O O6 0.251440 0.322942 0.233032
O O7 0.334139 0.236762 0.257959
O O8 0.305415 0.347921 0.000000
O O9 0.811339 0.500000 0.250000
O O10 0.833078 0.764229 0.237175
O O11 0.799674 0.643194 0.000000
O O12 0.375948 0.000000 0.250000
O O13 0.378741 0.847520 0.000000
O O14 0.082186 0.237195 0.747098
O O15 0.123745 0.000000 0.750000
O O16 0.121404 0.152661 0.000000
O O17 0.937810 0.500000 0.750000
O O18 0.952038 0.646259 0.500000
O O19 0.000000 0.675690 0.750000
#
# Coordination Sequence:
#
# PCOD9394160 Si02
#       6
#     8   8   8   8   8   8
#     4  11  22  40  64  91 119 153 194 240 287 340
#     4  10  20  38  61  88 117 152 194 240 287 339
#     4   9  20  37  60  86 115 149 192 238 286 339
#     4  12  25  41  59  85 118 156 195 239 291 347
#     4  11  23  39  57  84 118 155 193 236 287 344
#     4  11  22  39  62  88 115 149 190 237 285 339
#
# _framework density 18.696498999999999
#
# number of rings (size 3 to 8) (size 9 to 14) (size 15 to 20)
#    0.000    1.333    0.000    7.500    0.000    4.667 
#    0.000    5.000    0.000    0.000    0.000    0.000 
#    0.000    0.000    0.000    0.000    0.000    0.000 
#
# Total GULP energy -268460.490819 kJ/mol
# GULP energy per Si atom -5592.926892 kJ/mol
# Density = 1.865394 g / cm^3
# Si number density = 18.696499 Si / 1000 Ang^3
#
#
#
# Elastic Constant Matrix: (Units=GPa)
#
#
# Indices 1 2 3 4 5 6 
#
# 1 118.2626 125.6821 59.9119 0.0000 0.0000 0.0000
# 2 125.6821 205.6471 77.5011 0.0000 0.0000 0.0000
# 3 59.9119 77.5011 148.5145 0.0000 0.0000 0.0000
# 4 0.0000 0.0000 0.0000 37.7687 0.0000 0.0000
# 5 0.0000 0.0000 0.0000 0.0000 35.0990 0.0000
# 6 0.0000 0.0000 0.0000 0.0000 0.0000 -60.5485
#
#
#
# Elastic Compliance Matrix: (Units=1/GPa)
#
#
# Indices 1 2 3 4 5 6 
#
# 1 0.024918 -0.014241 -0.002620 0.000000 0.000000 0.000000
# 2 -0.014241 0.014192 -0.001661 0.000000 0.000000 0.000000
# 3 -0.002620 -0.001661 0.008657 0.000000 0.000000 0.000000
# 4 0.000000 0.000000 0.000000 0.026477 0.000000 0.000000
# 5 0.000000 0.000000 0.000000 0.000000 0.028491 0.000000
# 6 0.000000 0.000000 0.000000 0.000000 0.000000 -0.016516
#
#
# Mechanical properties :
#
#
# Convention : Reuss Voigt Hill
#
# Bulk Modulus (GPa) = 93.26602 110.95716 102.11159
# Shear Modulus (GPa) = 39.42015 16.41910 27.91963
#
# Velocity S-wave (km/s) = 4.59674 2.96664 3.86853
# Velocity P-wave (km/s) = 8.84115 8.43860 8.64222
#
# Compressibility (1/GPa) = 0.01072202
#
# Stress axis : x y z
#
# Youngs Moduli (GPa) = 40.13199 70.46125 115.50938
#
# Poissons Ratio (x) = 1.00344 0.30269
# Poissons Ratio (y) = 0.57152 0.19188
# Poissons Ratio (z) = 0.10516 0.11705
#
# Static dielectric constant tensor:
#      x y z
#    x 1.644560 0.000000 0.000000 
#    y 0.000000 1.603190 0.000000 
#    z 0.000000 0.000000 1.627080 
# 
# From -- ./inp_files/2030.got.cif
#   From: 2010.05.17/outbox.cif.g08.bks.cpg/sg49_2_cif.got.tgz:2030.got - 2010.06.03 21:02:19.
