data_PCOD9394612
_publ_section_title
;
Structure prediction by ZEFSAII (Michael W. Deem and Ramdas Pophale) SiO2 
 PCOD9394612
Probable space group: P C C M
;
_chemical_formula_sum "Si O2"
_cell_formula_units_Z 30
_cell_length_a 18.828938
_cell_length_b 7.041787
_cell_length_c 10.352329
_cell_angle_alpha 90.000000
_cell_angle_beta 90.000000
_cell_angle_gamma 90.000000
_cell_volume 1372.608789
_symmetry_space_group_name_H-M "P C C M"
_symmetry_group_IT_number 49
_symmetry_cell_setting 'orthorhombic'
loop_
_space_group_symop_operation_xyz
x,y,z
-x,-y,z
x,-y,1/2-z
-x,y,1/2-z
-x,-y,-z
x,y,-z
-x,y,1/2+z
x,-y,1/2+z
loop_
_atom_site_type_symbol
_atom_site_label
_atom_site_fract_x
_atom_site_fract_y
_atom_site_fract_z
Si Si1 0.195169 0.774289 0.769322
Si Si2 0.302357 0.805721 0.000000
Si Si3 0.041861 0.299059 0.637628
Si Si4 0.500000 0.500000 0.250000
Si Si5 0.736950 0.251858 0.500000
Si Si6 0.594558 0.516519 0.000000
O O1 0.123625 0.684249 0.823812
O O2 0.217692 0.709304 0.627689
O O3 0.182147 0.000000 0.750000
O O4 0.258795 0.747236 0.871577
O O5 0.380467 0.707330 0.000000
O O6 0.293899 0.035268 0.000000
O O7 0.038862 0.202261 0.500000
O O8 0.000000 0.500000 0.626010
O O9 0.000000 0.197665 0.750000
O O10 0.554644 0.573467 0.135201
O O11 0.668987 0.381693 0.500000
#
# Coordination Sequence:
#
# PCOD9394612 Si02
#       6
#     8   4   8   2   4   4
#     4  10  21  40  60  88 123 154 203 269 320 366
#     4  10  21  41  67  92 125 159 208 260 308 366
#     4  10  22  38  56  81 116 156 204 254 306 374
#     4  10  24  42  62  98 136 172 202 242 298 358
#     4  10  23  39  67  98 119 163 210 254 318 368
#     4  11  22  42  66  92 135 168 204 250 295 364
#
# _framework density 21.856192
#
# number of rings (size 3 to 8) (size 9 to 14) (size 15 to 20)
#    0.000    1.867    1.333    1.600    1.867    4.800 
#    0.000    5.333    0.000    0.000    0.000    0.000 
#    0.000    0.000    0.000    0.000    0.000    0.000 
#
# Total GULP energy -167115.537118 kJ/mol
# GULP energy per Si atom -5570.517904 kJ/mol
# Density = 2.180645 g / cm^3
# Si number density = 21.856192 Si / 1000 Ang^3
#
#
#
# Elastic Constant Matrix: (Units=GPa)
#
#
# Indices 1 2 3 4 5 6 
#
# 1 98.7880 17.5221 52.1571 0.0000 0.0000 0.0000
# 2 17.5221 81.0706 8.0010 0.0000 0.0000 0.0000
# 3 52.1571 8.0010 237.1255 0.0000 0.0000 0.0000
# 4 0.0000 0.0000 0.0000 -45.7643 0.0000 0.0000
# 5 0.0000 0.0000 0.0000 0.0000 33.5863 0.0000
# 6 0.0000 0.0000 0.0000 0.0000 0.0000 -8.0729
#
#
#
# Elastic Compliance Matrix: (Units=1/GPa)
#
#
# Indices 1 2 3 4 5 6 
#
# 1 0.011871 -0.002316 -0.002533 0.000000 0.000000 0.000000
# 2 -0.002316 0.012828 0.000077 0.000000 0.000000 0.000000
# 3 -0.002533 0.000077 0.004772 0.000000 0.000000 0.000000
# 4 0.000000 0.000000 0.000000 -0.021851 0.000000 0.000000
# 5 0.000000 0.000000 0.000000 0.000000 0.029774 0.000000
# 6 0.000000 0.000000 0.000000 0.000000 0.000000 -0.123870
#
#
# Mechanical properties :
#
#
# Convention : Reuss Voigt Hill
#
# Bulk Modulus (GPa) = 50.18522 63.59382 56.88952
# Shear Modulus (GPa) = -71.13282 18.57007 -26.28137
#
# Velocity S-wave (km/s) = -5.71109 2.91803 -3.47142
# Velocity P-wave (km/s) = 4.52518 6.36497 3.16509
#
# Compressibility (1/GPa) = 0.01992618
#
# Stress axis : x y z
#
# Youngs Moduli (GPa) = 84.24091 77.95522 209.56808
#
# Poissons Ratio (x) = 0.18052 0.53081
# Poissons Ratio (y) = 0.19508 -0.01603
# Poissons Ratio (z) = 0.21337 -0.00596
#
# Static dielectric constant tensor:
#      x y z
#    x 1.771820 0.000000 0.000000 
#    y 0.000000 1.895600 0.000000 
#    z 0.000000 0.000000 1.823820 
# 
# From -- ./inp_files/9130.got.cif
#   From: 2010.05.17/outbox.cif.g08.bks.cpg/sg49_5_cif.got.tgz:9130.got - 2010.06.03 21:02:19.
