data_PCOD9394351
_publ_section_title
;
Structure prediction by ZEFSAII (Michael W. Deem and Ramdas Pophale) SiO2 
 PCOD9394351
Probable space group: P C C M
;
_chemical_formula_sum "Si O2"
_cell_formula_units_Z 26
_cell_length_a 6.709758
_cell_length_b 8.615449
_cell_length_c 24.862045
_cell_angle_alpha 90.000000
_cell_angle_beta 90.000000
_cell_angle_gamma 90.000000
_cell_volume 1437.214602
_symmetry_space_group_name_H-M "P C C M"
_symmetry_group_IT_number 49
_symmetry_cell_setting 'orthorhombic'
loop_
_space_group_symop_operation_xyz
x,y,z
-x,-y,z
x,-y,1/2-z
-x,y,1/2-z
-x,-y,-z
x,y,-z
-x,y,1/2+z
x,-y,1/2+z
loop_
_atom_site_type_symbol
_atom_site_label
_atom_site_fract_x
_atom_site_fract_y
_atom_site_fract_z
Si Si1 0.563150 0.822061 0.086759
Si Si2 0.000000 0.500000 0.250000
Si Si3 0.701739 0.645321 0.500000
Si Si4 0.378889 0.341389 0.801166
Si Si5 0.836406 0.289774 0.500000
O O1 0.601769 0.762971 0.146624
O O2 0.500000 0.000000 0.085775
O O3 0.404438 0.717743 0.052824
O O4 0.762606 0.799744 0.052301
O O5 0.845454 0.606616 0.215602
O O6 0.723490 0.458057 0.500000
O O7 0.930417 0.693992 0.500000
O O8 0.500000 0.500000 0.813115
O O9 0.500000 0.273348 0.750000
#
# Coordination Sequence:
#
# PCOD9394351 Si02
#       5
#     8   2   4   8   4
#     4  11  22  35  54  82 115 144 173 217 274 327
#     4   8  18  36  60  82 100 132 190 230 260 308
#     4  10  21  38  57  81 106 140 189 225 260 313
#     4   9  19  36  58  80 105 140 181 225 264 312
#     4  10  21  36  59  79 104 146 185 225 262 307
#
# _framework density 18.090547000000001
#
# number of rings (size 3 to 8) (size 9 to 14) (size 15 to 20)
#    0.000    2.462    0.000    5.538    0.000   10.462 
#    0.000    0.000    0.000    7.385    0.000    0.000 
#    0.000    0.000    0.000    0.000    0.000    0.000 
#
# Total GULP energy -144924.880044 kJ/mol
# GULP energy per Si atom -5574.033848 kJ/mol
# Density = 1.804937 g / cm^3
# Si number density = 18.090547 Si / 1000 Ang^3
#
#
#
# Elastic Constant Matrix: (Units=GPa)
#
#
# Indices 1 2 3 4 5 6 
#
# 1 133.2557 57.4003 59.9137 0.0000 0.0000 0.0000
# 2 57.4003 85.6711 69.1022 0.0000 0.0000 0.0000
# 3 59.9137 69.1022 171.0970 0.0000 0.0000 0.0000
# 4 0.0000 0.0000 0.0000 617.7809 0.0000 0.0000
# 5 0.0000 0.0000 0.0000 0.0000 -14.8516 0.0000
# 6 0.0000 0.0000 0.0000 0.0000 0.0000 16.7262
#
#
#
# Elastic Compliance Matrix: (Units=1/GPa)
#
#
# Indices 1 2 3 4 5 6 
#
# 1 0.010731 -0.006168 -0.001266 0.000000 0.000000 0.000000
# 2 -0.006168 0.020858 -0.006264 0.000000 0.000000 0.000000
# 3 -0.001266 -0.006264 0.008818 0.000000 0.000000 0.000000
# 4 0.000000 0.000000 0.000000 0.001619 0.000000 0.000000
# 5 0.000000 0.000000 0.000000 0.000000 -0.067333 0.000000
# 6 0.000000 0.000000 0.000000 0.000000 0.000000 0.059787
#
#
# Mechanical properties :
#
#
# Convention : Reuss Voigt Hill
#
# Bulk Modulus (GPa) = 76.86838 84.76179 80.81508
# Shear Modulus (GPa) = 75.51423 137.50495 106.50959
#
# Velocity S-wave (km/s) = 6.46784 8.72779 7.68138
# Velocity P-wave (km/s) = 9.91768 12.18694 11.11040
#
# Compressibility (1/GPa) = 0.01300925
#
# Stress axis : x y z
#
# Youngs Moduli (GPa) = 93.19026 47.94359 113.40402
#
# Poissons Ratio (x) = 0.29572 0.14362
# Poissons Ratio (y) = 0.57481 0.71037
# Poissons Ratio (z) = 0.11802 0.30032
#
# Static dielectric constant tensor:
#      x y z
#    x 1.629070 0.000000 0.000000 
#    y 0.000000 1.618500 0.000000 
#    z 0.000000 0.000000 1.633850 
# 
# From -- ./inp_files/21470.got.cif
#   From: 2010.05.17/outbox.cif.g08.bks.cpg/sg49_11_cif.got.tgz:21470.got - 2010.06.03 21:02:19.
