data_PCOD9394093
_publ_section_title
;
Structure prediction by ZEFSAII (Michael W. Deem and Ramdas Pophale) SiO2 
 PCOD9394093
Probable space group: P C C M
;
_chemical_formula_sum "Si O2"
_cell_formula_units_Z 48
_cell_length_a 13.950807
_cell_length_b 18.997436
_cell_length_c 9.428411
_cell_angle_alpha 90.000000
_cell_angle_beta 90.000000
_cell_angle_gamma 90.000000
_cell_volume 2498.807648
_symmetry_space_group_name_H-M "P C C M"
_symmetry_group_IT_number 49
_symmetry_cell_setting 'orthorhombic'
loop_
_space_group_symop_operation_xyz
x,y,z
-x,-y,z
x,-y,1/2-z
-x,y,1/2-z
-x,-y,-z
x,y,-z
-x,y,1/2+z
x,-y,1/2+z
loop_
_atom_site_type_symbol
_atom_site_label
_atom_site_fract_x
_atom_site_fract_y
_atom_site_fract_z
Si Si1 0.205808 0.653747 0.253194
Si Si2 0.139255 0.436854 0.000000
Si Si3 0.593757 0.860685 0.170846
Si Si4 0.080923 0.399815 0.500000
Si Si5 0.406527 0.710801 0.169123
Si Si6 0.798553 0.070825 0.668504
Si Si7 0.905733 0.211722 0.336099
O O1 0.196487 0.590758 0.364641
O O2 0.311546 0.664654 0.191875
O O3 0.172845 0.726979 0.323370
O O4 0.127261 0.637304 0.134348
O O5 0.116517 0.519187 0.000000
O O6 0.034040 0.399839 0.000000
O O7 0.500000 0.890784 0.250000
O O8 0.609331 0.785737 0.250532
O O9 0.687634 0.907785 0.191246
O O10 0.579836 0.851334 0.000000
O O11 0.500000 0.680797 0.250000
O O12 0.422684 0.720370 0.000000
O O13 0.812147 0.061572 0.500000
O O14 0.860994 0.138050 0.714974
O O15 0.822907 0.000000 0.750000
O O16 0.931563 0.203953 0.500000
O O17 0.000000 0.230100 0.250000
#
# Coordination Sequence:
#
# PCOD9394093 Si02
#       7
#     8   4   8   4   8   8   8
#     4  12  23  40  66  97 130 166 213 261 315 370
#     4  11  24  40  71  93 136 178 198 261 309 379
#     4  10  20  37  60  88 122 157 203 255 314 375
#     4  11  24  44  61 103 134 168 218 243 315 379
#     4  11  23  38  63  95 127 163 213 266 317 374
#     4  10  23  41  59  84 122 164 206 257 316 370
#     4  11  24  41  63  91 123 164 212 260 310 370
#
# _framework density 19.209161000000002
#
# number of rings (size 3 to 8) (size 9 to 14) (size 15 to 20)
#    0.000    1.167    3.333    4.000    3.500    4.000 
#    0.000    3.333    0.000    3.000    0.000    0.000 
#    0.000    0.000    0.000    0.000    0.000    0.000 
#
# Total GULP energy -268135.695837 kJ/mol
# GULP energy per Si atom -5586.160330 kJ/mol
# Density = 1.916544 g / cm^3
# Si number density = 19.209161 Si / 1000 Ang^3
#
#
#
# Elastic Constant Matrix: (Units=GPa)
#
#
# Indices 1 2 3 4 5 6 
#
# 1 80.7738 20.1247 21.9046 0.0000 0.0000 0.0000
# 2 20.1247 65.9160 17.2367 0.0000 0.0000 0.0000
# 3 21.9046 17.2367 98.9167 0.0000 0.0000 0.0000
# 4 0.0000 0.0000 0.0000 21.4768 0.0000 0.0000
# 5 0.0000 0.0000 0.0000 0.0000 26.8782 0.0000
# 6 0.0000 0.0000 0.0000 0.0000 0.0000 26.5530
#
#
#
# Elastic Compliance Matrix: (Units=1/GPa)
#
#
# Indices 1 2 3 4 5 6 
#
# 1 0.013948 -0.003615 -0.002459 0.000000 0.000000 0.000000
# 2 -0.003615 0.016832 -0.002132 0.000000 0.000000 0.000000
# 3 -0.002459 -0.002132 0.011026 0.000000 0.000000 0.000000
# 4 0.000000 0.000000 0.000000 0.046562 0.000000 0.000000
# 5 0.000000 0.000000 0.000000 0.000000 0.037205 0.000000
# 6 0.000000 0.000000 0.000000 0.000000 0.000000 0.037660
#
#
# Mechanical properties :
#
#
# Convention : Reuss Voigt Hill
#
# Bulk Modulus (GPa) = 39.38179 40.45986 39.92083
# Shear Modulus (GPa) = 26.58017 27.40431 26.99224
#
# Velocity S-wave (km/s) = 3.72388 3.78117 3.75263
# Velocity P-wave (km/s) = 6.24786 6.33810 6.29314
#
# Compressibility (1/GPa) = 0.02539244
#
# Stress axis : x y z
#
# Youngs Moduli (GPa) = 71.69596 59.40966 90.69831
#
# Poissons Ratio (x) = 0.21479 0.22300
# Poissons Ratio (y) = 0.25921 0.19341
# Poissons Ratio (z) = 0.17628 0.12669
#
# Static dielectric constant tensor:
#      x y z
#    x 1.664210 0.000000 0.000000 
#    y 0.000000 1.657790 0.000000 
#    z 0.000000 0.000000 1.644570 
# 
# From -- ./inp_files/3752.got.cif
#   From: 2010.05.17/outbox.cif.g08.bks.cpg/sg49_2_cif.got.tgz:3752.got - 2010.06.03 21:02:19.
