data_PCOD9394325
_publ_section_title
;
Structure prediction by ZEFSAII (Michael W. Deem and Ramdas Pophale) SiO2 
 PCOD9394325
Probable space group: P C C M
;
_chemical_formula_sum "Si O2"
_cell_formula_units_Z 40
_cell_length_a 9.717418
_cell_length_b 26.020980
_cell_length_c 8.685643
_cell_angle_alpha 90.000000
_cell_angle_beta 90.000000
_cell_angle_gamma 90.000000
_cell_volume 2196.223369
_symmetry_space_group_name_H-M "P C C M"
_symmetry_group_IT_number 49
_symmetry_cell_setting 'orthorhombic'
loop_
_space_group_symop_operation_xyz
x,y,z
-x,-y,z
x,-y,1/2-z
-x,y,1/2-z
-x,-y,-z
x,y,-z
-x,y,1/2+z
x,-y,1/2+z
loop_
_atom_site_type_symbol
_atom_site_label
_atom_site_fract_x
_atom_site_fract_y
_atom_site_fract_z
Si Si1 0.153228 0.445862 0.315704
Si Si2 0.651643 0.649059 0.685109
Si Si3 0.350388 0.943585 0.184362
Si Si4 0.846208 0.849477 0.684993
Si Si5 0.653442 0.239644 0.315755
O O1 0.207178 0.500000 0.250000
O O2 0.146272 0.449498 0.500000
O O3 0.247164 0.397406 0.274254
O O4 0.000000 0.438977 0.250000
O O5 0.500000 0.638021 0.750000
O O6 0.645800 0.654030 0.500000
O O7 0.694499 0.703659 0.756677
O O8 0.500000 0.928274 0.250000
O O9 0.236186 0.901610 0.225590
O O10 0.318401 0.000000 0.250000
O O11 0.360429 0.946632 0.000000
O O12 0.849587 0.845211 0.500000
O O13 0.759114 0.802421 0.753634
O O14 0.000000 0.850139 0.750000
O O15 0.500000 0.229512 0.250000
O O16 0.647940 0.238918 0.500000
#
# Coordination Sequence:
#
# PCOD9394325 Si02
#       5
#     8   8   8   8   8
#     4  10  21  36  56  80 109 145 184 225 272 328
#     4  10  21  37  57  83 112 144 184 230 278 330
#     4  10  21  37  60  86 113 147 188 231 277 330
#     4  11  24  40  58  84 116 151 189 232 282 335
#     4  11  22  38  61  85 112 148 187 232 280 333
#
# _framework density 18.213085
#
# number of rings (size 3 to 8) (size 9 to 14) (size 15 to 20)
#    0.000    1.600    0.000    7.200    0.000    9.600 
#    0.000    6.000    0.000    0.000    0.000    0.000 
#    0.000    0.000    0.000    0.000    0.000    0.000 
#
# Total GULP energy -223563.135140 kJ/mol
# GULP energy per Si atom -5589.078378 kJ/mol
# Density = 1.817163 g / cm^3
# Si number density = 18.213085 Si / 1000 Ang^3
#
#
#
# Elastic Constant Matrix: (Units=GPa)
#
#
# Indices 1 2 3 4 5 6 
#
# 1 130.5280 130.8205 65.0562 0.0000 0.0000 0.0000
# 2 130.8205 168.3624 76.8848 0.0000 0.0000 0.0000
# 3 65.0562 76.8848 97.1990 0.0000 0.0000 0.0000
# 4 0.0000 0.0000 0.0000 49.8135 0.0000 0.0000
# 5 0.0000 0.0000 0.0000 0.0000 4.4155 0.0000
# 6 0.0000 0.0000 0.0000 0.0000 0.0000 95.1474
#
#
#
# Elastic Compliance Matrix: (Units=1/GPa)
#
#
# Indices 1 2 3 4 5 6 
#
# 1 0.035183 -0.025962 -0.003012 0.000000 0.000000 0.000000
# 2 -0.025962 0.028456 -0.005132 0.000000 0.000000 0.000000
# 3 -0.003012 -0.005132 0.016364 0.000000 0.000000 0.000000
# 4 0.000000 0.000000 0.000000 0.020075 0.000000 0.000000
# 5 0.000000 0.000000 0.000000 0.000000 0.226477 0.000000
# 6 0.000000 0.000000 0.000000 0.000000 0.000000 0.010510
#
#
# Mechanical properties :
#
#
# Convention : Reuss Voigt Hill
#
# Bulk Modulus (GPa) = 84.81806 104.62360 94.72083
# Shear Modulus (GPa) = 12.21872 38.09711 25.15792
#
# Velocity S-wave (km/s) = 2.59294 4.57852 3.72063
# Velocity P-wave (km/s) = 7.45891 9.24767 8.40103
#
# Compressibility (1/GPa) = 0.01178994
#
# Stress axis : x y z
#
# Youngs Moduli (GPa) = 28.42307 35.14148 61.11022
#
# Poissons Ratio (x) = 0.91235 0.18406
# Poissons Ratio (y) = 0.73792 0.31364
# Poissons Ratio (z) = 0.08561 0.18036
#
# Static dielectric constant tensor:
#      x y z
#    x 1.592480 0.000000 0.000000 
#    y 0.000000 1.617880 0.000000 
#    z 0.000000 0.000000 1.612740 
# 
# From -- ./inp_files/1915.got.cif
#   From: 2010.05.17/outbox.cif.g08.bks.cpg/sg49_1_cif.got.tgz:1915.got - 2010.06.03 21:02:19.
