data_PCOD9394286
_publ_section_title
;
Structure prediction by ZEFSAII (Michael W. Deem and Ramdas Pophale) SiO2 
 PCOD9394286
Probable space group: P C C M
;
_chemical_formula_sum "Si O2"
_cell_formula_units_Z 64
_cell_length_a 8.087490
_cell_length_b 14.417441
_cell_length_c 22.484424
_cell_angle_alpha 90.000000
_cell_angle_beta 90.000000
_cell_angle_gamma 90.000000
_cell_volume 2621.704297
_symmetry_space_group_name_H-M "P C C M"
_symmetry_group_IT_number 49
_symmetry_cell_setting 'orthorhombic'
loop_
_space_group_symop_operation_xyz
x,y,z
-x,-y,z
x,-y,1/2-z
-x,y,1/2-z
-x,-y,-z
x,y,-z
-x,y,1/2+z
x,-y,1/2+z
loop_
_atom_site_type_symbol
_atom_site_label
_atom_site_fract_x
_atom_site_fract_y
_atom_site_fract_z
Si Si1 0.721820 0.772638 0.344613
Si Si2 0.182862 0.046018 0.066422
Si Si3 0.005919 0.236578 0.069033
Si Si4 0.192962 0.965294 0.189210
Si Si5 0.499005 0.269164 0.433706
Si Si6 0.786601 0.623826 0.875952
Si Si7 0.799423 0.390350 0.245858
Si Si8 0.684567 0.543774 0.565322
O O1 0.787218 0.855163 0.303945
O O2 0.541862 0.787068 0.374392
O O3 0.737437 0.676349 0.307288
O O4 0.837822 0.796259 0.401923
O O5 0.142418 0.155337 0.075892
O O6 0.261557 0.002864 0.125867
O O7 0.258568 0.033569 0.000000
O O8 0.000000 0.000000 0.062061
O O9 0.044324 0.328102 0.106818
O O10 0.990776 0.257048 0.000000
O O11 0.271557 0.000000 0.250000
O O12 0.000000 0.000000 0.188270
O O13 0.498579 0.228501 0.500000
O O14 0.664197 0.328009 0.423108
O O15 0.354080 0.348216 0.430448
O O16 0.735932 0.647191 0.809384
O O17 0.785445 0.513889 0.886627
O O18 0.752313 0.500000 0.250000
O O19 0.000000 0.386732 0.250000
O O20 0.500000 0.500000 0.568196
O O21 0.755685 0.524631 0.500000
#
# Coordination Sequence:
#
# PCOD9394286 Si02
#       8
#     8   8   8   8   8   8   8   8
#     4  12  23  39  62  93 128 164 208 268 324 375
#     4   9  17  32  53  86 119 149 198 259 315 375
#     4  11  21  34  59  93 122 157 203 258 319 379
#     4  10  21  34  61  90 119 161 218 266 312 383
#     4  10  22  40  63  93 126 161 208 265 324 381
#     4  11  21  38  63  87 123 169 217 257 309 384
#     4  11  25  41  60  91 133 173 211 264 319 377
#     4   8  15  32  57  84 116 158 205 252 299 362
#
# _framework density 24.411602999999999
#
# number of rings (size 3 to 8) (size 9 to 14) (size 15 to 20)
#    0.000    1.750    3.750    3.000    3.500    1.000 
#    0.000    0.625    0.000    3.750    0.000    2.625 
#    0.000    0.000    0.000    0.000    0.000    0.000 
#
# Total GULP energy -356828.920279 kJ/mol
# GULP energy per Si atom -5575.451879 kJ/mol
# Density = 2.435604 g / cm^3
# Si number density = 24.411603 Si / 1000 Ang^3
#
#
#
# Elastic Constant Matrix: (Units=GPa)
#
#
# Indices 1 2 3 4 5 6 
#
# 1 15.4643 4.2350 -4.1369 0.0000 0.0000 0.0000
# 2 4.2350 103.4874 27.1684 0.0000 0.0000 0.0000
# 3 -4.1369 27.1684 172.0909 0.0000 0.0000 0.0000
# 4 0.0000 0.0000 0.0000 19.2661 0.0000 0.0000
# 5 0.0000 0.0000 0.0000 0.0000 13.2752 0.0000
# 6 0.0000 0.0000 0.0000 0.0000 0.0000 12.8845
#
#
#
# Elastic Compliance Matrix: (Units=1/GPa)
#
#
# Indices 1 2 3 4 5 6 
#
# 1 0.066120 -0.003258 0.002104 0.000000 0.000000 0.000000
# 2 -0.003258 0.010241 -0.001695 0.000000 0.000000 0.000000
# 3 0.002104 -0.001695 0.006129 0.000000 0.000000 0.000000
# 4 0.000000 0.000000 0.000000 0.051905 0.000000 0.000000
# 5 0.000000 0.000000 0.000000 0.000000 0.075329 0.000000
# 6 0.000000 0.000000 0.000000 0.000000 0.000000 0.077613
#
#
# Mechanical properties :
#
#
# Convention : Reuss Voigt Hill
#
# Bulk Modulus (GPa) = 13.02222 38.39730 25.70976
# Shear Modulus (GPa) = 15.69203 26.67021 21.18112
#
# Velocity S-wave (km/s) = 2.53812 3.30892 2.94881
# Velocity P-wave (km/s) = 3.73302 5.51016 4.70623
#
# Compressibility (1/GPa) = 0.07679185
#
# Stress axis : x y z
#
# Youngs Moduli (GPa) = 15.12394 97.64320 163.15676
#
# Poissons Ratio (x) = 0.31814 -0.34325
# Poissons Ratio (y) = 0.04928 0.27658
# Poissons Ratio (z) = -0.03182 0.16552
#
# Static dielectric constant tensor:
#      x y z
#    x 1.995210 0.000000 0.000000 
#    y 0.000000 2.063020 0.000000 
#    z 0.000000 0.000000 1.981700 
# 
# From -- ./inp_files/22554.got.cif
#   From: 2010.05.17/outbox.cif.g08.bks.cpg/sg49_12_cif.got.tgz:22554.got - 2010.06.03 21:02:19.
