data_PCOD9394527
_publ_section_title
;
Structure prediction by ZEFSAII (Michael W. Deem and Ramdas Pophale) SiO2 
 PCOD9394527
Probable space group: P C C M
;
_chemical_formula_sum "Si O2"
_cell_formula_units_Z 64
_cell_length_a 9.184233
_cell_length_b 14.961297
_cell_length_c 21.879225
_cell_angle_alpha 90.000000
_cell_angle_beta 90.000000
_cell_angle_gamma 90.000000
_cell_volume 3006.381372
_symmetry_space_group_name_H-M "P C C M"
_symmetry_group_IT_number 49
_symmetry_cell_setting 'orthorhombic'
loop_
_space_group_symop_operation_xyz
x,y,z
-x,-y,z
x,-y,1/2-z
-x,y,1/2-z
-x,-y,-z
x,y,-z
-x,y,1/2+z
x,-y,1/2+z
loop_
_atom_site_type_symbol
_atom_site_label
_atom_site_fract_x
_atom_site_fract_y
_atom_site_fract_z
Si Si1 0.146738 0.952558 0.185273
Si Si2 0.657599 0.361704 0.768990
Si Si3 0.689476 0.734295 0.568668
Si Si4 0.368056 0.778472 0.572719
Si Si5 0.341349 0.534185 0.108282
Si Si6 0.898671 0.753208 0.334184
Si Si7 0.818426 0.632401 0.855609
Si Si8 0.673429 0.985118 0.929794
O O1 0.093855 0.850701 0.194736
O O2 0.192121 0.000000 0.250000
O O3 0.258469 0.964704 0.128829
O O4 0.000000 0.000000 0.164096
O O5 0.500000 0.326848 0.750000
O O6 0.636425 0.435299 0.821240
O O7 0.762808 0.290793 0.799925
O O8 0.742359 0.389277 0.708584
O O9 0.685206 0.764957 0.500000
O O10 0.535093 0.767565 0.595596
O O11 0.693285 0.626471 0.574042
O O12 0.836602 0.768657 0.598380
O O13 0.366799 0.757844 0.500000
O O14 0.271670 0.708006 0.608958
O O15 0.308718 0.878496 0.580325
O O16 0.500000 0.500000 0.086738
O O17 0.213233 0.459715 0.106912
O O18 0.028100 0.680457 0.339047
O O19 0.500000 0.000000 0.930169
O O20 0.724342 0.006827 0.000000
#
# Coordination Sequence:
#
# PCOD9394527 Si02
#       8
#     8   8   8   8   8   8   8   8
#     4  11  26  45  67  95 140 178 226 285 352 426
#     4  11  23  39  65  90 127 169 216 266 324 392
#     4  10  22  42  66  93 136 178 219 275 334 401
#     4  10  21  38  64  97 123 168 224 269 331 397
#     4  11  21  40  63 100 126 165 221 271 323 394
#     4  11  26  43  61  99 125 178 219 269 347 401
#     4  12  23  38  67  88 135 166 214 277 321 402
#     4  10  22  42  69  99 132 172 228 291 344 411
#
# _framework density 21.288050999999999
#
# number of rings (size 3 to 8) (size 9 to 14) (size 15 to 20)
#    0.000    1.250    2.500    3.000    5.250    5.250 
#    0.000    3.125    0.000    0.000    0.000    0.000 
#    0.000    0.000    0.000    0.000    0.000    0.000 
#
# Total GULP energy -356870.520922 kJ/mol
# GULP energy per Si atom -5576.101889 kJ/mol
# Density = 2.123960 g / cm^3
# Si number density = 21.288051 Si / 1000 Ang^3
#
#
#
# Elastic Constant Matrix: (Units=GPa)
#
#
# Indices 1 2 3 4 5 6 
#
# 1 99.4213 18.3795 19.0278 0.0000 0.0000 0.0000
# 2 18.3795 93.1858 -10.6206 0.0000 0.0000 0.0000
# 3 19.0278 -10.6206 57.7689 0.0000 0.0000 0.0000
# 4 0.0000 0.0000 0.0000 -28.9451 0.0000 0.0000
# 5 0.0000 0.0000 0.0000 0.0000 62.0842 0.0000
# 6 0.0000 0.0000 0.0000 0.0000 0.0000 21.0959
#
#
#
# Elastic Compliance Matrix: (Units=1/GPa)
#
#
# Indices 1 2 3 4 5 6 
#
# 1 0.011376 -0.002728 -0.004248 0.000000 0.000000 0.000000
# 2 -0.002728 0.011615 0.003034 0.000000 0.000000 0.000000
# 3 -0.004248 0.003034 0.019267 0.000000 0.000000 0.000000
# 4 0.000000 0.000000 0.000000 -0.034548 0.000000 0.000000
# 5 0.000000 0.000000 0.000000 0.000000 0.016107 0.000000
# 6 0.000000 0.000000 0.000000 0.000000 0.000000 0.047403
#
#
# Mechanical properties :
#
#
# Convention : Reuss Voigt Hill
#
# Bulk Modulus (GPa) = 29.09229 33.77216 31.43223
# Shear Modulus (GPa) = 55.21075 25.75296 40.48185
#
# Velocity S-wave (km/s) = 5.09818 3.48190 4.36549
# Velocity P-wave (km/s) = 6.95348 5.66248 6.34092
#
# Compressibility (1/GPa) = 0.03437337
#
# Stress axis : x y z
#
# Youngs Moduli (GPa) = 87.90767 86.09518 51.90102
#
# Poissons Ratio (x) = 0.23486 0.22049
# Poissons Ratio (y) = 0.23980 -0.15746
# Poissons Ratio (z) = 0.37346 -0.26120
#
# Static dielectric constant tensor:
#      x y z
#    x 1.747060 0.000000 0.000000 
#    y 0.000000 2.425210 0.000000 
#    z 0.000000 0.000000 1.848730 
# 
# From -- ./inp_files/22559.got.cif
#   From: 2010.05.17/outbox.cif.g08.bks.cpg/sg49_12_cif.got.tgz:22559.got - 2010.06.03 21:02:19.
