data_PCOD9394863
_publ_section_title
;
Structure prediction by ZEFSAII (Michael W. Deem and Ramdas Pophale) SiO2 
 PCOD9394863
Probable space group: P C C M
;
_chemical_formula_sum "Si O2"
_cell_formula_units_Z 64
_cell_length_a 14.293917
_cell_length_b 11.991737
_cell_length_c 18.049597
_cell_angle_alpha 90.000000
_cell_angle_beta 90.000000
_cell_angle_gamma 90.000000
_cell_volume 3093.861447
_symmetry_space_group_name_H-M "P C C M"
_symmetry_group_IT_number 49
_symmetry_cell_setting 'orthorhombic'
loop_
_space_group_symop_operation_xyz
x,y,z
-x,-y,z
x,-y,1/2-z
-x,y,1/2-z
-x,-y,-z
x,y,-z
-x,y,1/2+z
x,-y,1/2+z
loop_
_atom_site_type_symbol
_atom_site_label
_atom_site_fract_x
_atom_site_fract_y
_atom_site_fract_z
Si Si1 0.908181 0.252826 0.284917
Si Si2 0.407990 0.176137 0.800345
Si Si3 0.107980 0.475681 0.163808
Si Si4 0.928010 0.103935 0.418881
Si Si5 0.256270 0.809449 0.176606
Si Si6 0.400153 0.558181 0.673859
Si Si7 0.710208 0.032281 0.585576
Si Si8 0.730429 0.589306 0.414383
O O1 0.863138 0.345713 0.338453
O O2 0.947223 0.162019 0.340935
O O3 0.842082 0.211551 0.218861
O O4 0.000000 0.308835 0.250000
O O5 0.500000 0.148237 0.750000
O O6 0.324066 0.163892 0.743461
O O7 0.411818 0.308485 0.821118
O O8 0.370472 0.099297 0.868494
O O9 0.130847 0.500000 0.250000
O O10 0.166731 0.550481 0.108764
O O11 0.000000 0.500000 0.148824
O O12 0.943775 0.160380 0.500000
O O13 0.815401 0.084727 0.413963
O O14 0.000000 0.000000 0.420454
O O15 0.289024 0.697690 0.135283
O O16 0.267204 0.911908 0.121000
O O17 0.500000 0.500000 0.663439
O O18 0.362688 0.500000 0.750000
O O19 0.334656 0.513658 0.609106
O O20 0.681151 0.023135 0.500000
O O21 0.721711 0.616257 0.500000
#
# Coordination Sequence:
#
# PCOD9394863 Si02
#       8
#     8   8   8   8   8   8   8   8
#     4  12  22  37  69  97 126 179 241 286 339 420
#     4  12  24  44  75 100 130 180 236 284 345 416
#     4  11  21  41  62  91 131 178 230 281 339 407
#     4  10  23  42  63  96 140 178 223 290 357 412
#     4  12  23  42  65  97 135 179 232 287 331 416
#     4  11  21  44  72 101 133 169 222 287 346 410
#     4  11  26  45  65  97 143 184 227 290 355 414
#     4  12  25  39  65 101 136 178 220 276 357 421
#
# _framework density 20.686124
#
# number of rings (size 3 to 8) (size 9 to 14) (size 15 to 20)
#    0.000    0.625    6.250    2.625    0.000    3.750 
#    0.000    6.250    0.000    0.000    0.000    0.000 
#    0.000    0.000    0.000    0.000    0.000    0.000 
#
# Total GULP energy -356862.989674 kJ/mol
# GULP energy per Si atom -5575.984214 kJ/mol
# Density = 2.063904 g / cm^3
# Si number density = 20.686124 Si / 1000 Ang^3
#
#
#
# Elastic Constant Matrix: (Units=GPa)
#
#
# Indices 1 2 3 4 5 6 
#
# 1 74.5792 8.6726 23.0356 0.0000 0.0000 0.0000
# 2 8.6726 78.9816 32.7140 0.0000 0.0000 0.0000
# 3 23.0356 32.7140 112.8802 0.0000 0.0000 0.0000
# 4 0.0000 0.0000 0.0000 28.2011 0.0000 0.0000
# 5 0.0000 0.0000 0.0000 0.0000 4.8955 0.0000
# 6 0.0000 0.0000 0.0000 0.0000 0.0000 23.3410
#
#
#
# Elastic Compliance Matrix: (Units=1/GPa)
#
#
# Indices 1 2 3 4 5 6 
#
# 1 0.014322 -0.000411 -0.002804 0.000000 0.000000 0.000000
# 2 -0.000411 0.014400 -0.004089 0.000000 0.000000 0.000000
# 3 -0.002804 -0.004089 0.010616 0.000000 0.000000 0.000000
# 4 0.000000 0.000000 0.000000 0.035460 0.000000 0.000000
# 5 0.000000 0.000000 0.000000 0.000000 0.204268 0.000000
# 6 0.000000 0.000000 0.000000 0.000000 0.000000 0.042843
#
#
# Mechanical properties :
#
#
# Convention : Reuss Voigt Hill
#
# Bulk Modulus (GPa) = 40.43669 43.92060 42.17864
# Shear Modulus (GPa) = 14.50278 24.75544 19.62911
#
# Velocity S-wave (km/s) = 2.65068 3.46311 3.08377
# Velocity P-wave (km/s) = 5.38129 6.10482 5.75444
#
# Compressibility (1/GPa) = 0.02473002
#
# Stress axis : x y z
#
# Youngs Moduli (GPa) = 69.82094 69.44363 94.19552
#
# Poissons Ratio (x) = 0.02857 0.26408
# Poissons Ratio (y) = 0.02873 0.38520
# Poissons Ratio (z) = 0.19575 0.28398
#
# Static dielectric constant tensor:
#      x y z
#    x 1.892010 0.000000 0.000000 
#    y 0.000000 1.690730 0.000000 
#    z 0.000000 0.000000 1.902490 
# 
# From -- ./inp_files/17978.got.cif
#   From: 2010.05.17/outbox.cif.g08.bks.cpg/sg49_9_cif.got.tgz:17978.got - 2010.06.03 21:02:19.
