data_PCOD9394440
_publ_section_title
;
Structure prediction by ZEFSAII (Michael W. Deem and Ramdas Pophale) SiO2 
 PCOD9394440
Probable space group: P C C M
;
_chemical_formula_sum "Si O2"
_cell_formula_units_Z 50
_cell_length_a 13.844390
_cell_length_b 8.162396
_cell_length_c 19.743550
_cell_angle_alpha 90.000000
_cell_angle_beta 90.000000
_cell_angle_gamma 90.000000
_cell_volume 2231.088151
_symmetry_space_group_name_H-M "P C C M"
_symmetry_group_IT_number 49
_symmetry_cell_setting 'orthorhombic'
loop_
_space_group_symop_operation_xyz
x,y,z
-x,-y,z
x,-y,1/2-z
-x,y,1/2-z
-x,-y,-z
x,y,-z
-x,y,1/2+z
x,-y,1/2+z
loop_
_atom_site_type_symbol
_atom_site_label
_atom_site_fract_x
_atom_site_fract_y
_atom_site_fract_z
Si Si1 0.264849 0.523091 0.574062
Si Si2 0.000000 0.500000 0.750000
Si Si3 0.548800 0.677694 0.423940
Si Si4 0.823092 0.676493 0.320202
Si Si5 0.630059 0.876072 0.689098
Si Si6 0.705701 0.117154 0.575370
Si Si7 0.895377 0.950781 0.421486
O O1 0.215910 0.532460 0.500000
O O2 0.337937 0.370984 0.571822
O O3 0.203119 0.490230 0.639976
O O4 0.321211 0.693969 0.581897
O O5 0.079860 0.371909 0.719203
O O6 0.500000 0.500000 0.417997
O O7 0.522645 0.745418 0.500000
O O8 0.546685 0.776226 0.352576
O O9 0.722637 0.757326 0.290250
O O10 0.853078 0.806824 0.377035
O O11 0.605946 0.000000 0.750000
O O12 0.663451 0.999012 0.630193
O O13 0.680493 0.059047 0.500000
O O14 0.821469 0.102256 0.581511
O O15 0.902339 0.899603 0.500000
O O16 0.000000 0.000000 0.396756
#
# Coordination Sequence:
#
# PCOD9394440 Si02
#       7
#     8   2   8   8   8   8   8
#     4   9  18  35  61  89 116 153 201 252 311 376
#     4  12  28  36  52  80 114 160 222 258 304 368
#     4   9  18  37  66  99 130 162 205 263 324 381
#     4  10  23  37  52  77 117 157 204 257 303 370
#     4  10  21  37  61  90 122 169 209 251 312 386
#     4   9  18  33  56  84 114 151 199 250 305 372
#     4   9  18  33  53  77 105 141 190 254 316 364
#
# _framework density 22.410589000000002
#
# number of rings (size 3 to 8) (size 9 to 14) (size 15 to 20)
#    0.000    2.560    0.000    0.960    4.480    5.120 
#    0.000    1.600    0.000    6.720    0.000    0.000 
#    0.000    1.920    0.000    0.000    0.000    0.000 
#
# Total GULP energy -278366.659238 kJ/mol
# GULP energy per Si atom -5567.333185 kJ/mol
# Density = 2.235958 g / cm^3
# Si number density = 22.410589 Si / 1000 Ang^3
#
#
#
# Elastic Constant Matrix: (Units=GPa)
#
#
# Indices 1 2 3 4 5 6 
#
# 1 89.6986 20.9320 35.3451 0.0000 0.0000 0.0000
# 2 20.9320 85.0942 45.5557 0.0000 0.0000 0.0000
# 3 35.3451 45.5557 87.5408 0.0000 0.0000 0.0000
# 4 0.0000 0.0000 0.0000 42.9970 0.0000 0.0000
# 5 0.0000 0.0000 0.0000 0.0000 20.7799 0.0000
# 6 0.0000 0.0000 0.0000 0.0000 0.0000 33.7697
#
#
#
# Elastic Compliance Matrix: (Units=1/GPa)
#
#
# Indices 1 2 3 4 5 6 
#
# 1 0.013276 -0.000549 -0.005075 0.000000 0.000000 0.000000
# 2 -0.000549 0.016313 -0.008267 0.000000 0.000000 0.000000
# 3 -0.005075 -0.008267 0.017774 0.000000 0.000000 0.000000
# 4 0.000000 0.000000 0.000000 0.023257 0.000000 0.000000
# 5 0.000000 0.000000 0.000000 0.000000 0.048124 0.000000
# 6 0.000000 0.000000 0.000000 0.000000 0.000000 0.029612
#
#
# Mechanical properties :
#
#
# Convention : Reuss Voigt Hill
#
# Bulk Modulus (GPa) = 51.06913 51.77770 51.42341
# Shear Modulus (GPa) = 27.37239 30.20935 28.79087
#
# Velocity S-wave (km/s) = 3.49865 3.67549 3.58816
# Velocity P-wave (km/s) = 6.25765 6.41612 6.33738
#
# Compressibility (1/GPa) = 0.01958130
#
# Stress axis : x y z
#
# Youngs Moduli (GPa) = 75.32284 61.30181 56.26053
#
# Poissons Ratio (x) = 0.03366 0.28550
# Poissons Ratio (y) = 0.04135 0.46513
# Poissons Ratio (z) = 0.38224 0.50681
#
# Static dielectric constant tensor:
#      x y z
#    x 1.883410 0.000000 0.000000 
#    y 0.000000 1.841140 0.000000 
#    z 0.000000 0.000000 1.875260 
# 
# From -- ./inp_files/17776.got.cif
#   From: 2010.05.17/outbox.cif.g08.bks.cpg/sg49_9_cif.got.tgz:17776.got - 2010.06.03 21:02:19.
