data_PCOD9394981
_publ_section_title
;
Structure prediction by ZEFSAII (Michael W. Deem and Ramdas Pophale) SiO2 
 PCOD9394981
Probable space group: P C C M
;
_chemical_formula_sum "Si O2"
_cell_formula_units_Z 56
_cell_length_a 10.211814
_cell_length_b 13.931304
_cell_length_c 23.062774
_cell_angle_alpha 90.000000
_cell_angle_beta 90.000000
_cell_angle_gamma 90.000000
_cell_volume 3280.999833
_symmetry_space_group_name_H-M "P C C M"
_symmetry_group_IT_number 49
_symmetry_cell_setting 'orthorhombic'
loop_
_space_group_symop_operation_xyz
x,y,z
-x,-y,z
x,-y,1/2-z
-x,y,1/2-z
-x,-y,-z
x,y,-z
-x,y,1/2+z
x,-y,1/2+z
loop_
_atom_site_type_symbol
_atom_site_label
_atom_site_fract_x
_atom_site_fract_y
_atom_site_fract_z
Si Si1 0.490229 0.209037 0.431266
Si Si2 0.898552 0.579896 0.929784
Si Si3 0.727062 0.095232 0.616803
Si Si4 0.020630 0.201715 0.931102
Si Si5 0.238511 0.867205 0.867527
Si Si6 0.651408 0.115982 0.254956
Si Si7 0.600336 0.417438 0.429352
O O1 0.470493 0.211333 0.500000
O O2 0.594642 0.126995 0.415210
O O3 0.354453 0.187919 0.400212
O O4 0.550713 0.311539 0.413024
O O5 0.947953 0.687201 0.917829
O O6 0.749282 0.566634 0.909305
O O7 0.000000 0.500000 0.908235
O O8 0.894155 0.571692 0.000000
O O9 0.850418 0.141034 0.584488
O O10 0.711793 0.135794 0.682224
O O11 0.742560 0.980862 0.620796
O O12 0.899655 0.165185 0.893094
O O13 0.992366 0.193023 0.000000
O O14 0.261886 0.850308 0.799128
O O15 0.500000 0.149812 0.250000
O O16 0.645608 0.000000 0.250000
O O17 0.500000 0.500000 0.410299
O O18 0.602347 0.419271 0.500000
#
# Coordination Sequence:
#
# PCOD9394981 Si02
#       7
#     8   8   8   8   8   8   8
#     4  11  21  33  52  82 114 144 181 220 273 337
#     4   9  18  33  52  73 104 144 179 219 271 322
#     4  11  21  37  57  75 110 152 185 225 271 318
#     4  11  23  37  52  81 120 148 178 220 275 341
#     4  11  23  35  54  81 109 149 189 226 266 316
#     4   9  18  36  57  77 101 137 195 246 266 295
#     4   9  18  32  51  76 105 138 181 228 266 314
#
# _framework density 17.067966999999999
#
# number of rings (size 3 to 8) (size 9 to 14) (size 15 to 20)
#    0.000    1.857    2.857    1.714    2.000    4.000 
#    0.000    2.143    0.000    0.000    0.000    6.000 
#    0.000    0.000    0.000    0.000    0.000    0.000 
#
# Total GULP energy -312444.667565 kJ/mol
# GULP energy per Si atom -5579.369064 kJ/mol
# Density = 1.702912 g / cm^3
# Si number density = 17.067967 Si / 1000 Ang^3
#
#
#
# Elastic Constant Matrix: (Units=GPa)
#
#
# Indices 1 2 3 4 5 6 
#
# 1 25.9307 -3.6158 7.0500 0.0000 0.0000 0.0000
# 2 -3.6158 57.9185 5.6992 0.0000 0.0000 0.0000
# 3 7.0500 5.6992 60.1824 0.0000 0.0000 0.0000
# 4 0.0000 0.0000 0.0000 -1.0338 0.0000 0.0000
# 5 0.0000 0.0000 0.0000 0.0000 23.7403 0.0000
# 6 0.0000 0.0000 0.0000 0.0000 0.0000 26.6771
#
#
#
# Elastic Compliance Matrix: (Units=1/GPa)
#
#
# Indices 1 2 3 4 5 6 
#
# 1 0.040347 0.003012 -0.005012 0.000000 0.000000 0.000000
# 2 0.003012 0.017653 -0.002025 0.000000 0.000000 0.000000
# 3 -0.005012 -0.002025 0.017395 0.000000 0.000000 0.000000
# 4 0.000000 0.000000 0.000000 -0.967265 0.000000 0.000000
# 5 0.000000 0.000000 0.000000 0.000000 0.042123 0.000000
# 6 0.000000 0.000000 0.000000 0.000000 0.000000 0.037485
#
#
# Mechanical properties :
#
#
# Convention : Reuss Voigt Hill
#
# Bulk Modulus (GPa) = 14.84862 18.03315 16.44088
# Shear Modulus (GPa) = -6.39578 18.86992 6.23707
#
# Velocity S-wave (km/s) = -1.93788 3.32863 1.91368
# Velocity P-wave (km/s) = 1.92650 5.03601 3.81267
#
# Compressibility (1/GPa) = 0.06734634
#
# Stress axis : x y z
#
# Youngs Moduli (GPa) = 24.78511 56.64790 57.48795
#
# Poissons Ratio (x) = -0.17062 0.28811
# Poissons Ratio (y) = -0.07465 0.11639
# Poissons Ratio (z) = 0.12421 0.11469
#
# Static dielectric constant tensor:
#      x y z
#    x 1.564470 0.000000 0.000000 
#    y 0.000000 1.565870 0.000000 
#    z 0.000000 0.000000 1.589510 
# 
# From -- ./inp_files/19861.got.cif
#   From: 2010.05.17/outbox.cif.g08.bks.cpg/sg49_10_cif.got.tgz:19861.got - 2010.06.03 21:02:19.
