data_PCOD9394598
_publ_section_title
;
Structure prediction by ZEFSAII (Michael W. Deem and Ramdas Pophale) SiO2 
 PCOD9394598
Probable space group: P C C M
;
_chemical_formula_sum "Si O2"
_cell_formula_units_Z 64
_cell_length_a 8.925398
_cell_length_b 11.325274
_cell_length_c 29.652143
_cell_angle_alpha 90.000000
_cell_angle_beta 90.000000
_cell_angle_gamma 90.000000
_cell_volume 2997.315055
_symmetry_space_group_name_H-M "P C C M"
_symmetry_group_IT_number 49
_symmetry_cell_setting 'orthorhombic'
loop_
_space_group_symop_operation_xyz
x,y,z
-x,-y,z
x,-y,1/2-z
-x,y,1/2-z
-x,-y,-z
x,y,-z
-x,y,1/2+z
x,-y,1/2+z
loop_
_atom_site_type_symbol
_atom_site_label
_atom_site_fract_x
_atom_site_fract_y
_atom_site_fract_z
Si Si1 0.225890 0.685624 0.553877
Si Si2 0.180540 0.000205 0.677464
Si Si3 0.175921 0.819645 0.247134
Si Si4 0.892363 0.387478 0.305865
Si Si5 0.925195 0.300266 0.886911
Si Si6 0.656029 0.938388 0.086344
Si Si7 0.675372 0.503304 0.121092
Si Si8 0.870722 0.097579 0.048069
O O1 0.213515 0.686996 0.500000
O O2 0.312182 0.804299 0.570704
O O3 0.314334 0.575586 0.574495
O O4 0.062585 0.671485 0.578260
O O5 0.228803 0.126703 0.699513
O O6 0.238897 0.902031 0.713221
O O7 0.244157 0.959165 0.630384
O O8 0.000000 0.000000 0.673855
O O9 0.174536 0.683503 0.263170
O O10 0.000000 0.848995 0.250000
O O11 0.758748 0.427717 0.338391
O O12 0.000000 0.500000 0.297378
O O13 0.995332 0.302809 0.337879
O O14 0.783579 0.388816 0.885155
O O15 0.871398 0.178839 0.908247
O O16 0.500000 0.000000 0.097621
O O17 0.721051 0.022856 0.047959
O O18 0.500000 0.500000 0.132449
O O19 0.890270 0.161959 0.000000
O O20 0.000000 0.000000 0.051275
#
# Coordination Sequence:
#
# PCOD9394598 Si02
#       8
#     8   8   8   8   8   8   8   8
#     4  11  23  41  63  89 125 168 224 279 325 379
#     4   9  19  37  62  91 117 156 205 260 311 383
#     4   9  18  33  62  96 120 147 202 264 315 360
#     4   9  19  37  62  93 129 162 205 258 311 380
#     4  10  21  39  65  92 123 167 216 263 321 381
#     4  12  26  40  60  90 130 176 213 257 334 398
#     4  10  23  41  63  94 129 174 215 260 324 390
#     4  11  23  39  62  92 125 163 217 273 318 384
#
# _framework density 21.352443000000001
#
# number of rings (size 3 to 8) (size 9 to 14) (size 15 to 20)
#    0.000    1.875    1.250    4.500    5.250    3.000 
#    0.000    1.250    0.000    6.000    0.000    3.500 
#    0.000    0.000    0.000    0.000    0.000    0.000 
#
# Total GULP energy -356671.830219 kJ/mol
# GULP energy per Si atom -5572.997347 kJ/mol
# Density = 2.130384 g / cm^3
# Si number density = 21.352443 Si / 1000 Ang^3
#
#
#
# Elastic Constant Matrix: (Units=GPa)
#
#
# Indices 1 2 3 4 5 6 
#
# 1 73.9190 20.6631 3.2905 0.0000 0.0000 0.0000
# 2 20.6631 92.6291 30.7544 0.0000 0.0000 0.0000
# 3 3.2905 30.7544 121.2149 0.0000 0.0000 0.0000
# 4 0.0000 0.0000 0.0000 40.5068 0.0000 0.0000
# 5 0.0000 0.0000 0.0000 0.0000 6.9332 0.0000
# 6 0.0000 0.0000 0.0000 0.0000 0.0000 11.7383
#
#
#
# Elastic Compliance Matrix: (Units=1/GPa)
#
#
# Indices 1 2 3 4 5 6 
#
# 1 0.014452 -0.003378 0.000465 0.000000 0.000000 0.000000
# 2 -0.003378 0.012578 -0.003100 0.000000 0.000000 0.000000
# 3 0.000465 -0.003100 0.009024 0.000000 0.000000 0.000000
# 4 0.000000 0.000000 0.000000 0.024687 0.000000 0.000000
# 5 0.000000 0.000000 0.000000 0.000000 0.144233 0.000000
# 6 0.000000 0.000000 0.000000 0.000000 0.000000 0.085191
#
#
# Mechanical properties :
#
#
# Convention : Reuss Voigt Hill
#
# Bulk Modulus (GPa) = 41.61823 44.13102 42.87462
# Shear Modulus (GPa) = 16.11857 27.37266 21.74562
#
# Velocity S-wave (km/s) = 2.75049 3.58431 3.19472
# Velocity P-wave (km/s) = 5.44246 6.15162 5.80787
#
# Compressibility (1/GPa) = 0.02402793
#
# Stress axis : x y z
#
# Youngs Moduli (GPa) = 69.19484 79.50089 110.82006
#
# Poissons Ratio (x) = 0.26857 -0.05151
# Poissons Ratio (y) = 0.23375 0.34351
# Poissons Ratio (z) = -0.03216 0.24643
#
# Static dielectric constant tensor:
#      x y z
#    x 2.202480 0.000000 0.000000 
#    y 0.000000 1.738600 0.000000 
#    z 0.000000 0.000000 1.799840 
# 
# From -- ./inp_files/26452.got.cif
#   From: 2010.05.17/outbox.cif.g08.bks.cpg/sg49_14_cif.got.tgz:26452.got - 2010.06.03 21:02:19.
