data_PCOD9394978
_publ_section_title
;
Structure prediction by ZEFSAII (Michael W. Deem and Ramdas Pophale) SiO2 
 PCOD9394978
Probable space group: P C C M
;
_chemical_formula_sum "Si O2"
_cell_formula_units_Z 56
_cell_length_a 15.928471
_cell_length_b 20.601128
_cell_length_c 8.464039
_cell_angle_alpha 90.000000
_cell_angle_beta 90.000000
_cell_angle_gamma 90.000000
_cell_volume 2777.427591
_symmetry_space_group_name_H-M "P C C M"
_symmetry_group_IT_number 49
_symmetry_cell_setting 'orthorhombic'
loop_
_space_group_symop_operation_xyz
x,y,z
-x,-y,z
x,-y,1/2-z
-x,y,1/2-z
-x,-y,-z
x,y,-z
-x,y,1/2+z
x,-y,1/2+z
loop_
_atom_site_type_symbol
_atom_site_label
_atom_site_fract_x
_atom_site_fract_y
_atom_site_fract_z
Si Si1 0.690347 0.569686 0.321351
Si Si2 0.744369 0.149889 0.810484
Si Si3 0.270822 0.708199 0.188076
Si Si4 0.413234 0.926747 0.311379
Si Si5 0.106899 0.568451 0.819829
Si Si6 0.094088 0.073689 0.189027
Si Si7 0.913481 0.298820 0.319600
O O1 0.662605 0.500000 0.250000
O O2 0.656784 0.571664 0.500000
O O3 0.683693 0.642833 0.246023
O O4 0.791696 0.566591 0.328117
O O5 0.709094 0.219952 0.752338
O O6 0.671286 0.101852 0.760004
O O7 0.833516 0.123808 0.744306
O O8 0.752916 0.153169 0.000000
O O9 0.170200 0.710814 0.218009
O O10 0.284183 0.704518 0.000000
O O11 0.500000 0.894926 0.250000
O O12 0.411405 0.924698 0.500000
O O13 0.415327 0.000000 0.250000
O O14 0.082942 0.500000 0.750000
O O15 0.080732 0.623376 0.696754
O O16 0.078724 0.580986 0.000000
O O17 0.000000 0.090190 0.250000
O O18 0.112863 0.000000 0.250000
O O19 0.092637 0.072332 0.000000
O O20 0.901523 0.278569 0.500000
O O21 0.000000 0.271151 0.250000
#
# Coordination Sequence:
#
# PCOD9394978 Si02
#       7
#     8   8   8   8   8   8   8
#     4   8  14  26  44  65  88 120 160 208 262 318
#     4  11  22  38  59  84 116 155 194 238 290 342
#     4   9  20  36  51  69  98 133 173 219 271 330
#     4  11  22  39  63  93 126 159 195 233 276 333
#     4   9  16  27  41  58  79 104 144 197 259 323
#     4  11  22  38  58  82 112 150 197 246 291 340
#     4  11  21  32  45  59  81 115 159 210 266 323
#
# _framework density 20.162542999999999
#
# number of rings (size 3 to 8) (size 9 to 14) (size 15 to 20)
#    0.000    2.000    0.000    6.857    0.000    5.429 
#    0.000    1.429    0.000    0.000    0.000    0.000 
#    0.000    0.571    0.000    6.571    0.000    2.143 
#
# Total GULP energy -311909.143622 kJ/mol
# GULP energy per Si atom -5569.806136 kJ/mol
# Density = 2.011665 g / cm^3
# Si number density = 20.162543 Si / 1000 Ang^3
#
#
#
# Elastic Constant Matrix: (Units=GPa)
#
#
# Indices 1 2 3 4 5 6 
#
# 1 46.0705 25.8256 9.1242 0.0000 0.0000 0.0000
# 2 25.8256 113.6877 24.5767 0.0000 0.0000 0.0000
# 3 9.1242 24.5767 78.9134 0.0000 0.0000 0.0000
# 4 0.0000 0.0000 0.0000 15.3401 0.0000 0.0000
# 5 0.0000 0.0000 0.0000 0.0000 -7.0222 0.0000
# 6 0.0000 0.0000 0.0000 0.0000 0.0000 -8.2426
#
#
#
# Elastic Compliance Matrix: (Units=1/GPa)
#
#
# Indices 1 2 3 4 5 6 
#
# 1 0.024979 -0.005415 -0.001202 0.000000 0.000000 0.000000
# 2 -0.005415 0.010605 -0.002677 0.000000 0.000000 0.000000
# 3 -0.001202 -0.002677 0.013645 0.000000 0.000000 0.000000
# 4 0.000000 0.000000 0.000000 0.065188 0.000000 0.000000
# 5 0.000000 0.000000 0.000000 0.000000 -0.142405 0.000000
# 6 0.000000 0.000000 0.000000 0.000000 0.000000 -0.121320
#
#
# Mechanical properties :
#
#
# Convention : Reuss Voigt Hill
#
# Bulk Modulus (GPa) = 32.63454 39.74719 36.19086
# Shear Modulus (GPa) = -41.49074 11.95806 -14.76634
#
# Velocity S-wave (km/s) = -4.54123 2.43797 -2.70916
# Velocity P-wave (km/s) = 3.35801 5.26128 2.86399
#
# Compressibility (1/GPa) = 0.03064238
#
# Stress axis : x y z
#
# Youngs Moduli (GPa) = 40.03344 94.29839 73.28853
#
# Poissons Ratio (x) = 0.51058 0.08808
# Poissons Ratio (y) = 0.21676 0.19617
# Poissons Ratio (z) = 0.04811 0.25240
#
# Static dielectric constant tensor:
#      x y z
#    x 1.721990 0.000000 0.000000 
#    y 0.000000 1.853920 0.000000 
#    z 0.000000 0.000000 1.700140 
# 
# From -- ./inp_files/5194.got.cif
#   From: 2010.05.17/outbox.cif.g08.bks.cpg/sg49_3_cif.got.tgz:5194.got - 2010.06.03 21:02:19.
