data_PCOD9394871
_publ_section_title
;
Structure prediction by ZEFSAII (Michael W. Deem and Ramdas Pophale) SiO2 
 PCOD9394871
Probable space group: P C C M
;
_chemical_formula_sum "Si O2"
_cell_formula_units_Z 40
_cell_length_a 8.723821
_cell_length_b 8.331985
_cell_length_c 23.784597
_cell_angle_alpha 90.000000
_cell_angle_beta 90.000000
_cell_angle_gamma 90.000000
_cell_volume 1728.824954
_symmetry_space_group_name_H-M "P C C M"
_symmetry_group_IT_number 49
_symmetry_cell_setting 'orthorhombic'
loop_
_space_group_symop_operation_xyz
x,y,z
-x,-y,z
x,-y,1/2-z
-x,y,1/2-z
-x,-y,-z
x,y,-z
-x,y,1/2+z
x,-y,1/2+z
loop_
_atom_site_type_symbol
_atom_site_label
_atom_site_fract_x
_atom_site_fract_y
_atom_site_fract_z
Si Si1 0.374395 0.113801 0.839741
Si Si2 0.822316 0.305458 0.247727
Si Si3 0.828923 0.931925 0.937451
Si Si4 0.832806 0.545413 0.065108
Si Si5 0.608129 0.634779 0.648271
O O1 0.267828 0.213035 0.797106
O O2 0.274146 0.019206 0.885173
O O3 0.482701 0.239635 0.872843
O O4 0.500000 0.000000 0.811379
O O5 0.823714 0.500000 0.250000
O O6 0.725844 0.281774 0.190942
O O7 0.000000 0.253029 0.250000
O O8 0.828125 0.738026 0.934265
O O9 0.774107 0.979383 0.000000
O O10 0.000000 0.000000 0.931473
O O11 0.704586 0.456235 0.100996
O O12 0.000000 0.500000 0.088655
O O13 0.824561 0.492426 0.000000
O O14 0.500000 0.500000 0.678145
#
# Coordination Sequence:
#
# PCOD9394871 Si02
#       5
#     8   8   8   8   8
#     4  12  28  46  68 107 146 183 233 300 359 419
#     4  11  25  45  74 100 132 187 243 284 341 422
#     4  10  23  45  71 101 144 192 237 287 352 428
#     4  10  23  42  71 109 142 184 240 291 347 421
#     4  12  24  43  72 102 141 184 233 293 352 416
#
# _framework density 23.137103
#
# number of rings (size 3 to 8) (size 9 to 14) (size 15 to 20)
#    0.000    1.000    4.000    0.600    8.400    3.200 
#    0.000    1.000    0.000    0.000    0.000    0.000 
#    0.000    0.000    0.000    0.000    0.000    0.000 
#
# Total GULP energy -223598.175430 kJ/mol
# GULP energy per Si atom -5589.954386 kJ/mol
# Density = 2.308444 g / cm^3
# Si number density = 23.137103 Si / 1000 Ang^3
#
#
#
# Elastic Constant Matrix: (Units=GPa)
#
#
# Indices 1 2 3 4 5 6 
#
# 1 183.2676 60.1887 93.8691 0.0000 0.0000 0.0000
# 2 60.1887 61.8160 44.6571 0.0000 0.0000 0.0000
# 3 93.8691 44.6571 136.3729 0.0000 0.0000 0.0000
# 4 0.0000 0.0000 0.0000 18.1697 0.0000 0.0000
# 5 0.0000 0.0000 0.0000 0.0000 105.0758 0.0000
# 6 0.0000 0.0000 0.0000 0.0000 0.0000 45.6526
#
#
#
# Elastic Compliance Matrix: (Units=1/GPa)
#
#
# Indices 1 2 3 4 5 6 
#
# 1 0.009972 -0.006223 -0.004826 0.000000 0.000000 0.000000
# 2 -0.006223 0.025073 -0.003927 0.000000 0.000000 0.000000
# 3 -0.004826 -0.003927 0.011941 0.000000 0.000000 0.000000
# 4 0.000000 0.000000 0.000000 0.055037 0.000000 0.000000
# 5 0.000000 0.000000 0.000000 0.000000 0.009517 0.000000
# 6 0.000000 0.000000 0.000000 0.000000 0.000000 0.021905
#
#
# Mechanical properties :
#
#
# Convention : Reuss Voigt Hill
#
# Bulk Modulus (GPa) = 58.70797 86.54294 72.62545
# Shear Modulus (GPa) = 29.57251 45.96237 37.76744
#
# Velocity S-wave (km/s) = 3.57899 4.46188 4.04460
# Velocity P-wave (km/s) = 6.51981 8.00188 7.29856
#
# Compressibility (1/GPa) = 0.01703346
#
# Stress axis : x y z
#
# Youngs Moduli (GPa) = 100.27702 39.88301 83.74552
#
# Poissons Ratio (x) = 0.24820 0.40419
# Poissons Ratio (y) = 0.62404 0.32887
# Poissons Ratio (z) = 0.48398 0.15662
#
# Static dielectric constant tensor:
#      x y z
#    x 1.851440 0.000000 0.000000 
#    y 0.000000 1.952520 0.000000 
#    z 0.000000 0.000000 1.855900 
# 
# From -- ./inp_files/22187.got.cif
#   From: 2010.05.17/outbox.cif.g08.bks.cpg/sg49_12_cif.got.tgz:22187.got - 2010.06.03 21:02:19.
