data_PCOD9394837
_publ_section_title
;
Structure prediction by ZEFSAII (Michael W. Deem and Ramdas Pophale) SiO2 
 PCOD9394837
Probable space group: P C C M
;
_chemical_formula_sum "Si O2"
_cell_formula_units_Z 56
_cell_length_a 15.174462
_cell_length_b 8.682861
_cell_length_c 21.207401
_cell_angle_alpha 90.000000
_cell_angle_beta 90.000000
_cell_angle_gamma 90.000000
_cell_volume 2794.239318
_symmetry_space_group_name_H-M "P C C M"
_symmetry_group_IT_number 49
_symmetry_cell_setting 'orthorhombic'
loop_
_space_group_symop_operation_xyz
x,y,z
-x,-y,z
x,-y,1/2-z
-x,y,1/2-z
-x,-y,-z
x,y,-z
-x,y,1/2+z
x,-y,1/2+z
loop_
_atom_site_type_symbol
_atom_site_label
_atom_site_fract_x
_atom_site_fract_y
_atom_site_fract_z
Si Si1 0.552526 0.659240 0.069760
Si Si2 0.139055 0.083483 0.927178
Si Si3 0.051232 0.243443 0.426085
Si Si4 0.272855 0.826554 0.769346
Si Si5 0.864183 0.423536 0.183695
Si Si6 0.267785 0.312853 0.861361
Si Si7 0.536386 0.827574 0.684845
O O1 0.500000 0.500000 0.066727
O O2 0.653210 0.641551 0.092715
O O3 0.502236 0.753152 0.122892
O O4 0.551532 0.730308 0.000000
O O5 0.212759 0.166561 0.886423
O O6 0.047542 0.177301 0.919755
O O7 0.115108 0.904939 0.915605
O O8 0.165603 0.095930 0.000000
O O9 0.062298 0.294053 0.500000
O O10 0.070446 0.365711 0.371152
O O11 0.193150 0.725425 0.795767
O O12 0.304426 0.739361 0.706142
O O13 0.357851 0.830282 0.813981
O O14 0.247476 0.000000 0.750000
O O15 0.896847 0.500000 0.250000
O O16 0.798847 0.547414 0.151828
O O17 0.500000 0.753450 0.750000
O O18 0.500000 0.000000 0.685721
#
# Coordination Sequence:
#
# PCOD9394837 Si02
#       7
#     8   8   8   8   8   8   8
#     4  11  24  39  56  83 121 159 197 245 300 359
#     4   9  19  37  64  90 116 152 202 248 298 364
#     4   9  19  39  63  89 117 157 202 246 299 359
#     4  11  20  37  59  84 113 151 202 249 295 357
#     4  10  23  37  56  88 122 158 195 242 299 353
#     4  11  21  37  57  85 118 156 197 244 296 357
#     4  11  20  38  61  87 108 147 201 247 299 347
#
# _framework density 20.041232999999998
#
# number of rings (size 3 to 8) (size 9 to 14) (size 15 to 20)
#    0.000    1.714    2.857    3.000    0.000    2.286 
#    0.000    7.143    0.000    7.714    0.000    0.000 
#    0.000    0.000    0.000    0.000    0.000    0.000 
#
# Total GULP energy -312635.466348 kJ/mol
# GULP energy per Si atom -5582.776185 kJ/mol
# Density = 1.999562 g / cm^3
# Si number density = 20.041233 Si / 1000 Ang^3
#
#
#
# Elastic Constant Matrix: (Units=GPa)
#
#
# Indices 1 2 3 4 5 6 
#
# 1 64.6805 19.8879 45.2577 0.0000 0.0000 0.0000
# 2 19.8879 59.3111 49.6715 0.0000 0.0000 0.0000
# 3 45.2577 49.6715 160.8564 0.0000 0.0000 0.0000
# 4 0.0000 0.0000 0.0000 28.0871 0.0000 0.0000
# 5 0.0000 0.0000 0.0000 0.0000 48.3794 0.0000
# 6 0.0000 0.0000 0.0000 0.0000 0.0000 26.0348
#
#
#
# Elastic Compliance Matrix: (Units=1/GPa)
#
#
# Indices 1 2 3 4 5 6 
#
# 1 0.019550 -0.002629 -0.004689 0.000000 0.000000 0.000000
# 2 -0.002629 0.023095 -0.006392 0.000000 0.000000 0.000000
# 3 -0.004689 -0.006392 0.009510 0.000000 0.000000 0.000000
# 4 0.000000 0.000000 0.000000 0.035604 0.000000 0.000000
# 5 0.000000 0.000000 0.000000 0.000000 0.020670 0.000000
# 6 0.000000 0.000000 0.000000 0.000000 0.000000 0.038410
#
#
# Mechanical properties :
#
#
# Convention : Reuss Voigt Hill
#
# Bulk Modulus (GPa) = 40.42762 57.16468 48.79615
# Shear Modulus (GPa) = 27.39706 31.83565 29.61636
#
# Velocity S-wave (km/s) = 3.70135 3.98993 3.84835
# Velocity P-wave (km/s) = 6.20344 7.05773 6.64433
#
# Compressibility (1/GPa) = 0.02473556
#
# Stress axis : x y z
#
# Youngs Moduli (GPa) = 51.15200 43.29986 105.15590
#
# Poissons Ratio (x) = 0.11382 0.49304
# Poissons Ratio (y) = 0.13446 0.67215
# Poissons Ratio (z) = 0.23983 0.27677
#
# Static dielectric constant tensor:
#      x y z
#    x 1.700960 0.000000 0.000000 
#    y 0.000000 1.696520 0.000000 
#    z 0.000000 0.000000 1.738030 
# 
# From -- ./inp_files/20864.got.cif
#   From: 2010.05.17/outbox.cif.g08.bks.cpg/sg49_11_cif.got.tgz:20864.got - 2010.06.03 21:02:19.
