data_PCOD9394680
_publ_section_title
;
Structure prediction by ZEFSAII (Michael W. Deem and Ramdas Pophale) SiO2 
 PCOD9394680
Probable space group: P C C M
;
_chemical_formula_sum "Si O2"
_cell_formula_units_Z 48
_cell_length_a 9.320223
_cell_length_b 32.717307
_cell_length_c 8.498655
_cell_angle_alpha 90.000000
_cell_angle_beta 90.000000
_cell_angle_gamma 90.000000
_cell_volume 2591.516942
_symmetry_space_group_name_H-M "P C C M"
_symmetry_group_IT_number 49
_symmetry_cell_setting 'orthorhombic'
loop_
_space_group_symop_operation_xyz
x,y,z
-x,-y,z
x,-y,1/2-z
-x,y,1/2-z
-x,-y,-z
x,y,-z
-x,y,1/2+z
x,-y,1/2+z
loop_
_atom_site_type_symbol
_atom_site_label
_atom_site_fract_x
_atom_site_fract_y
_atom_site_fract_z
Si Si1 0.161487 0.201178 0.690133
Si Si2 0.661386 0.878879 0.688979
Si Si3 0.161509 0.955483 0.687633
Si Si4 0.663326 0.719612 0.309532
Si Si5 0.664787 0.542236 0.688537
Si Si6 0.336034 0.630403 0.810133
O O1 0.160112 0.201594 0.500000
O O2 0.249242 0.161053 0.740537
O O3 0.241469 0.242391 0.744770
O O4 0.000000 0.199506 0.750000
O O5 0.500000 0.875976 0.750000
O O6 0.661302 0.880109 0.500000
O O7 0.737163 0.919511 0.752664
O O8 0.158375 0.956271 0.500000
O O9 0.000000 0.948348 0.750000
O O10 0.207578 0.000000 0.750000
O O11 0.500000 0.723720 0.250000
O O12 0.659520 0.720346 0.500000
O O13 0.722284 0.674750 0.259806
O O14 0.731657 0.500000 0.750000
O O15 0.500000 0.542642 0.750000
O O16 0.661825 0.540444 0.500000
O O17 0.728060 0.586411 0.739272
O O18 0.500000 0.630475 0.750000
O O19 0.337318 0.630131 0.000000
#
# Coordination Sequence:
#
# PCOD9394680 Si02
#       6
#     8   8   8   8   8   8
#     4  10  22  37  55  77 104 135 170 209 254 305
#     4  11  23  39  58  84 113 144 180 220 264 312
#     4  11  22  39  62  88 117 151 187 225 265 310
#     4   9  17  31  49  71  96 126 162 203 247 297
#     4   9  14  19  28  45  71 107 144 182 224 274
#     4   8  14  23  36  54  80 112 149 188 233 283
#
# _framework density 18.521972000000002
#
# number of rings (size 3 to 8) (size 9 to 14) (size 15 to 20)
#    0.000    2.333    0.000    4.500    0.000    4.333 
#    0.000    1.667    0.000    0.000    0.000    0.000 
#    0.000    0.667    0.000    8.333    0.000    2.500 
#
# Total GULP energy -267580.653679 kJ/mol
# GULP energy per Si atom -5574.596952 kJ/mol
# Density = 1.847981 g / cm^3
# Si number density = 18.521972 Si / 1000 Ang^3
#
#
#
# Elastic Constant Matrix: (Units=GPa)
#
#
# Indices 1 2 3 4 5 6 
#
# 1 79.6347 98.4134 20.5318 0.0000 0.0000 0.0000
# 2 98.4134 235.5964 45.6659 0.0000 0.0000 0.0000
# 3 20.5318 45.6659 51.0382 0.0000 0.0000 0.0000
# 4 0.0000 0.0000 0.0000 86.9639 0.0000 0.0000
# 5 0.0000 0.0000 0.0000 0.0000 22.7916 0.0000
# 6 0.0000 0.0000 0.0000 0.0000 0.0000 -5.3117
#
#
#
# Elastic Compliance Matrix: (Units=1/GPa)
#
#
# Indices 1 2 3 4 5 6 
#
# 1 0.025991 -0.010683 -0.000897 0.000000 0.000000 0.000000
# 2 -0.010683 0.009526 -0.004226 0.000000 0.000000 0.000000
# 3 -0.000897 -0.004226 0.023735 0.000000 0.000000 0.000000
# 4 0.000000 0.000000 0.000000 0.011499 0.000000 0.000000
# 5 0.000000 0.000000 0.000000 0.000000 0.043876 0.000000
# 6 0.000000 0.000000 0.000000 0.000000 0.000000 -0.188263
#
#
# Mechanical properties :
#
#
# Convention : Reuss Voigt Hill
#
# Bulk Modulus (GPa) = 36.17934 77.27683 56.72809
# Shear Modulus (GPa) = -152.39026 34.33263 -59.02881
#
# Velocity S-wave (km/s) = -9.08042 4.31004 -5.65144
# Velocity P-wave (km/s) = 9.50595 8.15971 3.44835
#
# Compressibility (1/GPa) = 0.02764008
#
# Stress axis : x y z
#
# Youngs Moduli (GPa) = 38.47514 104.97423 42.13167
#
# Poissons Ratio (x) = 1.12144 0.03780
# Poissons Ratio (y) = 0.41103 0.17804
# Poissons Ratio (z) = 0.03452 0.44360
#
# Static dielectric constant tensor:
#      x y z
#    x 1.596700 0.000000 0.000000 
#    y 0.000000 1.707270 0.000000 
#    z 0.000000 0.000000 1.633160 
# 
# From -- ./inp_files/2102.got.cif
#   From: 2010.05.17/outbox.cif.g08.bks.cpg/sg49_2_cif.got.tgz:2102.got - 2010.06.03 21:02:19.
