data_PCOD9394847
_publ_section_title
;
Structure prediction by ZEFSAII (Michael W. Deem and Ramdas Pophale) SiO2 
 PCOD9394847
Probable space group: P C C M
;
_chemical_formula_sum "Si O2"
_cell_formula_units_Z 48
_cell_length_a 10.116393
_cell_length_b 7.581334
_cell_length_c 32.343918
_cell_angle_alpha 90.000000
_cell_angle_beta 90.000000
_cell_angle_gamma 90.000000
_cell_volume 2480.641185
_symmetry_space_group_name_H-M "P C C M"
_symmetry_group_IT_number 49
_symmetry_cell_setting 'orthorhombic'
loop_
_space_group_symop_operation_xyz
x,y,z
-x,-y,z
x,-y,1/2-z
-x,y,1/2-z
-x,-y,-z
x,y,-z
-x,y,1/2+z
x,-y,1/2+z
loop_
_atom_site_type_symbol
_atom_site_label
_atom_site_fract_x
_atom_site_fract_y
_atom_site_fract_z
Si Si1 0.979565 0.293768 0.911893
Si Si2 0.902129 0.165048 0.000000
Si Si3 0.159370 0.982601 0.798884
Si Si4 0.493283 0.786998 0.090899
Si Si5 0.412977 0.822349 0.000000
Si Si6 0.251154 0.319896 0.352767
Si Si7 0.235294 0.269609 0.864654
O O1 0.942505 0.264787 0.958775
O O2 0.855873 0.239898 0.884584
O O3 0.000000 0.500000 0.905709
O O4 0.113460 0.212989 0.894217
O O5 0.743965 0.134848 0.000000
O O6 0.000000 0.000000 0.000000
O O7 0.231353 0.132304 0.826739
O O8 0.179072 0.000000 0.750000
O O9 0.220983 0.795173 0.812559
O O10 0.000000 0.000000 0.806433
O O11 0.450266 0.732518 0.044126
O O12 0.390031 0.716371 0.124882
O O13 0.636925 0.729078 0.106074
O O14 0.500000 0.000000 0.091616
O O15 0.500000 0.000000 0.000000
O O16 0.225211 0.528812 0.348133
#
# Coordination Sequence:
#
# PCOD9394847 Si02
#       7
#     8   4   8   8   4   8   8
#     4  10  23  40  61  88 128 168 216 265 312 369
#     4  12  25  35  63  92 124 171 218 270 314 364
#     4  11  24  42  70 101 130 163 204 264 328 387
#     4  11  22  40  67  91 133 175 215 265 317 379
#     4  10  24  39  56  93 131 167 222 266 312 376
#     4  11  22  43  66  95 130 168 216 260 316 386
#     4  11  24  41  67  97 127 173 214 261 322 380
#
# _framework density 19.349834999999999
#
# number of rings (size 3 to 8) (size 9 to 14) (size 15 to 20)
#    0.000    1.167    5.000    0.750    7.000    0.667 
#    0.000    5.833    0.000    2.000    0.000    0.000 
#    0.000    0.000    0.000    0.000    0.000    0.000 
#
# Total GULP energy -267781.234708 kJ/mol
# GULP energy per Si atom -5578.775723 kJ/mol
# Density = 1.930579 g / cm^3
# Si number density = 19.349835 Si / 1000 Ang^3
#
#
#
# Elastic Constant Matrix: (Units=GPa)
#
#
# Indices 1 2 3 4 5 6 
#
# 1 95.8271 -2.4923 20.4114 0.0000 0.0000 0.0000
# 2 -2.4923 75.7447 16.4213 0.0000 0.0000 0.0000
# 3 20.4114 16.4213 109.0390 0.0000 0.0000 0.0000
# 4 0.0000 0.0000 0.0000 16.1072 0.0000 0.0000
# 5 0.0000 0.0000 0.0000 0.0000 30.8860 0.0000
# 6 0.0000 0.0000 0.0000 0.0000 0.0000 19.8692
#
#
#
# Elastic Compliance Matrix: (Units=1/GPa)
#
#
# Indices 1 2 3 4 5 6 
#
# 1 0.010919 0.000829 -0.002169 0.000000 0.000000 0.000000
# 2 0.000829 0.013711 -0.002220 0.000000 0.000000 0.000000
# 3 -0.002169 -0.002220 0.009911 0.000000 0.000000 0.000000
# 4 0.000000 0.000000 0.000000 0.062084 0.000000 0.000000
# 5 0.000000 0.000000 0.000000 0.000000 0.032377 0.000000
# 6 0.000000 0.000000 0.000000 0.000000 0.000000 0.050329
#
#
# Mechanical properties :
#
#
# Convention : Reuss Voigt Hill
#
# Bulk Modulus (GPa) = 36.46681 38.81016 37.63848
# Shear Modulus (GPa) = 25.56351 29.79051 27.67701
#
# Velocity S-wave (km/s) = 3.63867 3.92800 3.78610
# Velocity P-wave (km/s) = 6.04485 6.37753 6.21341
#
# Compressibility (1/GPa) = 0.02742220
#
# Stress axis : x y z
#
# Youngs Moduli (GPa) = 91.58336 72.93489 100.89411
#
# Poissons Ratio (x) = -0.06050 0.21883
# Poissons Ratio (y) = -0.07597 0.22400
# Poissons Ratio (z) = 0.19863 0.16192
#
# Static dielectric constant tensor:
#      x y z
#    x 1.695100 0.000000 0.000000 
#    y 0.000000 1.685840 0.000000 
#    z 0.000000 0.000000 1.746490 
# 
# From -- ./inp_files/26336.got.cif
#   From: 2010.05.17/outbox.cif.g08.bks.cpg/sg49_14_cif.got.tgz:26336.got - 2010.06.03 21:02:19.
