data_PCOD9394101
_publ_section_title
;
Structure prediction by ZEFSAII (Michael W. Deem and Ramdas Pophale) SiO2 
 PCOD9394101
Probable space group: P C C M
;
_chemical_formula_sum "Si O2"
_cell_formula_units_Z 48
_cell_length_a 12.381071
_cell_length_b 11.871621
_cell_length_c 15.542418
_cell_angle_alpha 90.000000
_cell_angle_beta 90.000000
_cell_angle_gamma 90.000000
_cell_volume 2284.477170
_symmetry_space_group_name_H-M "P C C M"
_symmetry_group_IT_number 49
_symmetry_cell_setting 'orthorhombic'
loop_
_space_group_symop_operation_xyz
x,y,z
-x,-y,z
x,-y,1/2-z
-x,y,1/2-z
-x,-y,-z
x,y,-z
-x,y,1/2+z
x,-y,1/2+z
loop_
_atom_site_type_symbol
_atom_site_label
_atom_site_fract_x
_atom_site_fract_y
_atom_site_fract_z
Si Si1 0.562513 0.848377 0.160674
Si Si2 0.181470 0.742345 0.900126
Si Si3 0.348528 0.920827 0.097465
Si Si4 0.975237 0.127265 0.351544
Si Si5 0.231110 0.734004 0.396603
Si Si6 0.875200 0.498462 0.894740
O O1 0.500000 0.838426 0.250000
O O2 0.462694 0.855724 0.094802
O O3 0.651882 0.755745 0.142991
O O4 0.626035 0.966650 0.150048
O O5 0.259222 0.838356 0.862029
O O6 0.181088 0.616580 0.863425
O O7 0.059669 0.788015 0.895549
O O8 0.215406 0.734690 0.000000
O O9 0.316505 0.953797 0.000000
O O10 0.855170 0.170308 0.369794
O O11 0.000000 0.131612 0.250000
O O12 0.000000 0.000000 0.381273
O O13 0.239932 0.736949 0.500000
O O14 0.182719 0.613543 0.370028
O O15 0.000000 0.500000 0.867015
O O16 0.875818 0.493643 0.000000
#
# Coordination Sequence:
#
# PCOD9394101 Si02
#       6
#     8   8   8   8   8   8
#     4  11  23  38  60  87 122 164 207 265 328 373
#     4  10  20  37  63  91 124 164 212 262 312 379
#     4  10  20  37  61  88 119 160 214 258 313 390
#     4  11  24  37  55  90 134 166 205 260 326 386
#     4  11  22  40  67  93 125 170 223 263 308 386
#     4   9  17  35  62  94 126 165 211 258 313 368
#
# _framework density 21.011369999999999
#
# number of rings (size 3 to 8) (size 9 to 14) (size 15 to 20)
#    0.000    1.667    1.667    4.500    2.333    2.667 
#    3.000    2.500    0.000    6.000    0.000    0.000 
#    0.000    0.000    0.000    0.000    0.000    0.000 
#
# Total GULP energy -268221.947949 kJ/mol
# GULP energy per Si atom -5587.957249 kJ/mol
# Density = 2.096355 g / cm^3
# Si number density = 21.011370 Si / 1000 Ang^3
#
#
#
# Elastic Constant Matrix: (Units=GPa)
#
#
# Indices 1 2 3 4 5 6 
#
# 1 109.1310 39.5736 14.7814 0.0000 0.0000 0.0000
# 2 39.5736 99.6315 20.2271 0.0000 0.0000 0.0000
# 3 14.7814 20.2271 71.3184 0.0000 0.0000 0.0000
# 4 0.0000 0.0000 0.0000 -80.4655 0.0000 0.0000
# 5 0.0000 0.0000 0.0000 0.0000 14.1203 0.0000
# 6 0.0000 0.0000 0.0000 0.0000 0.0000 43.5363
#
#
#
# Elastic Compliance Matrix: (Units=1/GPa)
#
#
# Indices 1 2 3 4 5 6 
#
# 1 0.010783 -0.004063 -0.001083 0.000000 0.000000 0.000000
# 2 -0.004063 0.012181 -0.002613 0.000000 0.000000 0.000000
# 3 -0.001083 -0.002613 0.014987 0.000000 0.000000 0.000000
# 4 0.000000 0.000000 0.000000 -0.012428 0.000000 0.000000
# 5 0.000000 0.000000 0.000000 0.000000 0.070820 0.000000
# 6 0.000000 0.000000 0.000000 0.000000 0.000000 0.022969
#
#
# Mechanical properties :
#
#
# Convention : Reuss Voigt Hill
#
# Bulk Modulus (GPa) = 44.57397 47.69391 46.13394
# Shear Modulus (GPa) = 35.13479 9.13812 22.13645
#
# Velocity S-wave (km/s) = 4.09367 2.08772 3.24936
# Velocity P-wave (km/s) = 6.60336 5.34414 6.00684
#
# Compressibility (1/GPa) = 0.02243462
#
# Stress axis : x y z
#
# Youngs Moduli (GPa) = 92.73503 82.09246 66.72456
#
# Poissons Ratio (x) = 0.33357 0.07223
# Poissons Ratio (y) = 0.37682 0.17433
# Poissons Ratio (z) = 0.10039 0.21448
#
# Static dielectric constant tensor:
#      x y z
#    x 1.728790 0.000000 0.000000 
#    y 0.000000 1.774100 0.000000 
#    z 0.000000 0.000000 1.824310 
# 
# From -- ./inp_files/17077.got.cif
#   From: 2010.05.17/outbox.cif.g08.bks.cpg/sg49_9_cif.got.tgz:17077.got - 2010.06.03 21:02:19.
