data_PCOD9394521
_publ_section_title
;
Structure prediction by ZEFSAII (Michael W. Deem and Ramdas Pophale) SiO2 
 PCOD9394521
Probable space group: P C C M
;
_chemical_formula_sum "Si O2"
_cell_formula_units_Z 40
_cell_length_a 12.365767
_cell_length_b 8.327188
_cell_length_c 17.874191
_cell_angle_alpha 90.000000
_cell_angle_beta 90.000000
_cell_angle_gamma 90.000000
_cell_volume 1840.542386
_symmetry_space_group_name_H-M "P C C M"
_symmetry_group_IT_number 49
_symmetry_cell_setting 'orthorhombic'
loop_
_space_group_symop_operation_xyz
x,y,z
-x,-y,z
x,-y,1/2-z
-x,y,1/2-z
-x,-y,-z
x,y,-z
-x,y,1/2+z
x,-y,1/2+z
loop_
_atom_site_type_symbol
_atom_site_label
_atom_site_fract_x
_atom_site_fract_y
_atom_site_fract_z
Si Si1 0.764590 0.311096 0.910532
Si Si2 0.822625 0.390149 0.678876
Si Si3 0.983360 0.820585 0.659946
Si Si4 0.528556 0.183881 0.910831
Si Si5 0.398441 0.324973 0.209301
O O1 0.765290 0.491870 0.879626
O O2 0.867683 0.234396 0.869343
O O3 0.651393 0.228489 0.889265
O O4 0.777178 0.303411 0.000000
O O5 0.858618 0.500000 0.750000
O O6 0.726681 0.272899 0.708181
O O7 0.921567 0.302660 0.639364
O O8 0.000000 0.823909 0.750000
O O9 0.000000 0.000000 0.631468
O O10 0.444855 0.308214 0.873938
O O11 0.500000 0.000000 0.890437
O O12 0.521806 0.196154 0.000000
O O13 0.392574 0.500000 0.250000
O O14 0.500000 0.238240 0.250000
#
# Coordination Sequence:
#
# PCOD9394521 Si02
#       5
#     8   8   8   8   8
#     4  11  24  42  67  99 130 171 227 277 332 404
#     4  11  22  41  67  94 135 174 223 279 337 408
#     4  11  25  42  66  94 128 178 223 271 343 411
#     4  10  23  43  67  97 138 182 222 277 349 416
#     4  10  21  38  63  98 131 169 223 272 332 405
#
# _framework density 21.732724000000001
#
# number of rings (size 3 to 8) (size 9 to 14) (size 15 to 20)
#    0.000    1.400    2.000    4.200    2.800    3.200 
#    0.000    4.000    0.000    0.000    0.000    0.000 
#    0.000    0.000    0.000    0.000    0.000    0.000 
#
# Total GULP energy -223150.174954 kJ/mol
# GULP energy per Si atom -5578.754374 kJ/mol
# Density = 2.168326 g / cm^3
# Si number density = 21.732724 Si / 1000 Ang^3
#
#
#
# Elastic Constant Matrix: (Units=GPa)
#
#
# Indices 1 2 3 4 5 6 
#
# 1 184.8230 79.2991 50.1783 0.0000 0.0000 0.0000
# 2 79.2991 96.2263 40.2443 0.0000 0.0000 0.0000
# 3 50.1783 40.2443 69.9354 0.0000 0.0000 0.0000
# 4 0.0000 0.0000 0.0000 23.8886 0.0000 0.0000
# 5 0.0000 0.0000 0.0000 0.0000 38.3400 0.0000
# 6 0.0000 0.0000 0.0000 0.0000 0.0000 16.7120
#
#
#
# Elastic Compliance Matrix: (Units=1/GPa)
#
#
# Indices 1 2 3 4 5 6 
#
# 1 0.008770 -0.006052 -0.002810 0.000000 0.000000 0.000000
# 2 -0.006052 0.017863 -0.005937 0.000000 0.000000 0.000000
# 3 -0.002810 -0.005937 0.019731 0.000000 0.000000 0.000000
# 4 0.000000 0.000000 0.000000 0.041861 0.000000 0.000000
# 5 0.000000 0.000000 0.000000 0.000000 0.026082 0.000000
# 6 0.000000 0.000000 0.000000 0.000000 0.000000 0.059837
#
#
# Mechanical properties :
#
#
# Convention : Reuss Voigt Hill
#
# Bulk Modulus (GPa) = 59.64212 76.71422 68.17817
# Shear Modulus (GPa) = 23.88564 27.87231 25.87897
#
# Velocity S-wave (km/s) = 3.31881 3.58509 3.45452
# Velocity P-wave (km/s) = 6.49531 7.24657 6.88120
#
# Compressibility (1/GPa) = 0.01676667
#
# Stress axis : x y z
#
# Youngs Moduli (GPa) = 114.02263 55.98281 50.68143
#
# Poissons Ratio (x) = 0.33883 0.14240
# Poissons Ratio (y) = 0.69010 0.30087
# Poissons Ratio (z) = 0.32038 0.33234
#
# Static dielectric constant tensor:
#      x y z
#    x 1.858740 0.000000 0.000000 
#    y 0.000000 1.856320 0.000000 
#    z 0.000000 0.000000 1.870910 
# 
# From -- ./inp_files/16844.got.cif
#   From: 2010.05.17/outbox.cif.g08.bks.cpg/sg49_9_cif.got.tgz:16844.got - 2010.06.03 21:02:19.
