data_PCOD9394240
_publ_section_title
;
Structure prediction by ZEFSAII (Michael W. Deem and Ramdas Pophale) SiO2 
 PCOD9394240
Probable space group: P C C M
;
_chemical_formula_sum "Si O2"
_cell_formula_units_Z 48
_cell_length_a 17.532362
_cell_length_b 14.269831
_cell_length_c 10.243635
_cell_angle_alpha 90.000000
_cell_angle_beta 90.000000
_cell_angle_gamma 90.000000
_cell_volume 2562.791968
_symmetry_space_group_name_H-M "P C C M"
_symmetry_group_IT_number 49
_symmetry_cell_setting 'orthorhombic'
loop_
_space_group_symop_operation_xyz
x,y,z
-x,-y,z
x,-y,1/2-z
-x,y,1/2-z
-x,-y,-z
x,y,-z
-x,y,1/2+z
x,-y,1/2+z
loop_
_atom_site_type_symbol
_atom_site_label
_atom_site_fract_x
_atom_site_fract_y
_atom_site_fract_z
Si Si1 0.923502 0.209029 0.000000
Si Si2 0.104070 0.204623 0.000000
Si Si3 0.163919 0.111543 0.262871
Si Si4 0.284413 0.610158 0.240168
Si Si5 0.429397 0.270700 0.347311
Si Si6 0.334970 0.083489 0.651231
Si Si7 0.171051 0.392082 0.500000
Si Si8 0.189698 0.387590 0.000000
O O1 0.886607 0.159225 0.874377
O O2 0.898566 0.318885 0.000000
O O3 0.013494 0.192631 0.000000
O O4 0.142566 0.158700 0.873432
O O5 0.121424 0.314779 0.000000
O O6 0.252542 0.122683 0.303196
O O7 0.150292 0.000000 0.250000
O O8 0.302779 0.500000 0.250000
O O9 0.359988 0.665889 0.204327
O O10 0.242607 0.632260 0.375178
O O11 0.223034 0.627219 0.126209
O O12 0.500000 0.281679 0.250000
O O13 0.446494 0.292894 0.500000
O O14 0.397309 0.164872 0.343120
O O15 0.327492 0.051924 0.500000
O O16 0.353940 0.000000 0.750000
O O17 0.159601 0.504929 0.500000
#
# Coordination Sequence:
#
# PCOD9394240 Si02
#       8
#     4   4   8   8   8   8   4   4
#     4  12  23  39  62  86 123 167 198 243 318 367
#     4  12  25  37  58  92 125 159 200 255 306 367
#     4  11  24  41  61  88 119 160 209 252 299 355
#     4  10  21  40  64  89 117 158 202 246 294 353
#     4  11  24  41  61  91 127 162 195 241 303 359
#     4  10  22  41  66  89 117 159 206 250 294 352
#     4  10  20  40  66  86 117 161 205 252 300 364
#     4  10  22  38  62  94 119 151 209 258 300 350
#
# _framework density 18.729572999999998
#
# number of rings (size 3 to 8) (size 9 to 14) (size 15 to 20)
#    0.000    1.333    1.667    4.000    4.667    3.667 
#    0.000    2.500    0.000    5.000    0.000    0.000 
#    0.000    0.000    0.000    0.000    0.000    0.000 
#
# Total GULP energy -268230.774181 kJ/mol
# GULP energy per Si atom -5588.141129 kJ/mol
# Density = 1.868694 g / cm^3
# Si number density = 18.729573 Si / 1000 Ang^3
#
#
#
# Elastic Constant Matrix: (Units=GPa)
#
#
# Indices 1 2 3 4 5 6 
#
# 1 13.2154 13.7072 5.3999 0.0000 0.0000 0.0000
# 2 13.7072 57.4087 23.4471 0.0000 0.0000 0.0000
# 3 5.3999 23.4471 144.3226 0.0000 0.0000 0.0000
# 4 0.0000 0.0000 0.0000 59.5048 0.0000 0.0000
# 5 0.0000 0.0000 0.0000 0.0000 -0.7111 0.0000
# 6 0.0000 0.0000 0.0000 0.0000 0.0000 5.8578
#
#
#
# Elastic Compliance Matrix: (Units=1/GPa)
#
#
# Indices 1 2 3 4 5 6 
#
# 1 0.100580 -0.024075 0.000148 0.000000 0.000000 0.000000
# 2 -0.024075 0.024420 -0.003067 0.000000 0.000000 0.000000
# 3 0.000148 -0.003067 0.007422 0.000000 0.000000 0.000000
# 4 0.000000 0.000000 0.000000 0.016805 0.000000 0.000000
# 5 0.000000 0.000000 0.000000 0.000000 -1.406206 0.000000
# 6 0.000000 0.000000 0.000000 0.000000 0.000000 0.170713
#
#
# Mechanical properties :
#
#
# Convention : Reuss Voigt Hill
#
# Bulk Modulus (GPa) = 12.74959 33.33946 23.04453
# Shear Modulus (GPa) = -4.96952 24.42313 9.72680
#
# Velocity S-wave (km/s) = -1.63066 3.61499 2.28135
# Velocity P-wave (km/s) = 1.81013 5.93829 4.38975
#
# Compressibility (1/GPa) = 0.07843387
#
# Stress axis : x y z
#
# Youngs Moduli (GPa) = 9.94230 40.95040 134.74226
#
# Poissons Ratio (x) = 0.98590 -0.01996
# Poissons Ratio (y) = 0.23937 0.41319
# Poissons Ratio (z) = -0.00147 0.12558
#
# Static dielectric constant tensor:
#      x y z
#    x 1.601100 0.000000 0.000000 
#    y 0.000000 1.665390 0.000000 
#    z 0.000000 0.000000 1.561890 
# 
# From -- ./inp_files/3790.got.cif
#   From: 2010.05.17/outbox.cif.g08.bks.cpg/sg49_2_cif.got.tgz:3790.got - 2010.06.03 21:02:19.
