data_PCOD9394360
_publ_section_title
;
Structure prediction by ZEFSAII (Michael W. Deem and Ramdas Pophale) SiO2 
 PCOD9394360
Probable space group: P C C M
;
_chemical_formula_sum "Si O2"
_cell_formula_units_Z 48
_cell_length_a 25.010015
_cell_length_b 13.986417
_cell_length_c 8.666821
_cell_angle_alpha 90.000000
_cell_angle_beta 90.000000
_cell_angle_gamma 90.000000
_cell_volume 3031.658310
_symmetry_space_group_name_H-M "P C C M"
_symmetry_group_IT_number 49
_symmetry_cell_setting 'orthorhombic'
loop_
_space_group_symop_operation_xyz
x,y,z
-x,-y,z
x,-y,1/2-z
-x,y,1/2-z
-x,-y,-z
x,y,-z
-x,y,1/2+z
x,-y,1/2+z
loop_
_atom_site_type_symbol
_atom_site_label
_atom_site_fract_x
_atom_site_fract_y
_atom_site_fract_z
Si Si1 0.613018 0.395912 0.315724
Si Si2 0.442576 0.790302 0.814725
Si Si3 0.281947 0.701092 0.187120
Si Si4 0.828337 0.392589 0.814011
Si Si5 0.945652 0.391686 0.815245
Si Si6 0.335519 0.103177 0.314993
O O1 0.599616 0.500000 0.250000
O O2 0.610896 0.396564 0.500000
O O3 0.574500 0.313374 0.249906
O O4 0.672492 0.366238 0.259272
O O5 0.500000 0.818306 0.750000
O O6 0.395102 0.862628 0.767871
O O7 0.443771 0.785737 0.000000
O O8 0.222911 0.668560 0.234517
O O9 0.296641 0.809708 0.231262
O O10 0.286387 0.694011 0.000000
O O11 0.823247 0.500000 0.750000
O O12 0.887084 0.352257 0.770875
O O13 0.827528 0.398361 0.000000
O O14 0.944600 0.500000 0.750000
O O15 0.000000 0.345945 0.750000
O O16 0.949562 0.394995 0.000000
O O17 0.334769 0.098228 0.500000
O O18 0.322073 0.000000 0.250000
#
# Coordination Sequence:
#
# PCOD9394360 Si02
#       6
#     8   8   8   8   8   8
#     4  11  21  33  49  69  93 123 153 183 218 260
#     4  10  21  37  53  72  94 117 146 182 218 259
#     4   9  18  33  48  66  91 118 149 187 224 265
#     4   9  17  27  41  61  88 120 154 185 219 257
#     4   9  15  23  35  53  79 115 152 186 217 251
#     4   9  19  34  52  70  91 115 141 176 222 270
#
# _framework density 15.832917999999999
#
# number of rings (size 3 to 8) (size 9 to 14) (size 15 to 20)
#    0.000    2.500    0.000    4.500    0.000    6.667 
#    0.000    3.333    0.000    0.000    0.000    0.000 
#    0.000    0.667    0.000    8.333    0.000    0.000 
#
# Total GULP energy -267546.305923 kJ/mol
# GULP energy per Si atom -5573.881373 kJ/mol
# Density = 1.579688 g / cm^3
# Si number density = 15.832918 Si / 1000 Ang^3
#
#
#
# Elastic Constant Matrix: (Units=GPa)
#
#
# Indices 1 2 3 4 5 6 
#
# 1 122.5140 22.3608 20.4291 0.0000 0.0000 0.0000
# 2 22.3608 59.9413 9.7535 0.0000 0.0000 0.0000
# 3 20.4291 9.7535 38.8889 0.0000 0.0000 0.0000
# 4 0.0000 0.0000 0.0000 21.1156 0.0000 0.0000
# 5 0.0000 0.0000 0.0000 0.0000 28.7846 0.0000
# 6 0.0000 0.0000 0.0000 0.0000 0.0000 9.3608
#
#
#
# Elastic Compliance Matrix: (Units=1/GPa)
#
#
# Indices 1 2 3 4 5 6 
#
# 1 0.009380 -0.002812 -0.004222 0.000000 0.000000 0.000000
# 2 -0.002812 0.018236 -0.003096 0.000000 0.000000 0.000000
# 3 -0.004222 -0.003096 0.028709 0.000000 0.000000 0.000000
# 4 0.000000 0.000000 0.000000 0.047358 0.000000 0.000000
# 5 0.000000 0.000000 0.000000 0.000000 0.034741 0.000000
# 6 0.000000 0.000000 0.000000 0.000000 0.000000 0.106828
#
#
# Mechanical properties :
#
#
# Convention : Reuss Voigt Hill
#
# Bulk Modulus (GPa) = 27.72902 36.27011 31.99957
# Shear Modulus (GPa) = 18.01583 23.10560 20.56072
#
# Velocity S-wave (km/s) = 3.37690 3.82427 3.60753
# Velocity P-wave (km/s) = 5.72330 6.51597 6.13245
#
# Compressibility (1/GPa) = 0.03606330
#
# Stress axis : x y z
#
# Youngs Moduli (GPa) = 106.61459 54.83714 34.83259
#
# Poissons Ratio (x) = 0.15420 0.14706
# Poissons Ratio (y) = 0.29980 0.10786
# Poissons Ratio (z) = 0.45013 0.16980
#
# Static dielectric constant tensor:
#      x y z
#    x 1.569690 0.000000 0.000000 
#    y 0.000000 1.496510 0.000000 
#    z 0.000000 0.000000 1.568780 
# 
# From -- ./inp_files/2968.got.cif
#   From: 2010.05.17/outbox.cif.g08.bks.cpg/sg49_2_cif.got.tgz:2968.got - 2010.06.03 21:02:19.
