data_PCOD9394516
_publ_section_title
;
Structure prediction by ZEFSAII (Michael W. Deem and Ramdas Pophale) SiO2 
 PCOD9394516
Probable space group: P C C M
;
_chemical_formula_sum "Si O2"
_cell_formula_units_Z 48
_cell_length_a 20.179745
_cell_length_b 8.515712
_cell_length_c 14.781672
_cell_angle_alpha 90.000000
_cell_angle_beta 90.000000
_cell_angle_gamma 90.000000
_cell_volume 2540.154897
_symmetry_space_group_name_H-M "P C C M"
_symmetry_group_IT_number 49
_symmetry_cell_setting 'orthorhombic'
loop_
_space_group_symop_operation_xyz
x,y,z
-x,-y,z
x,-y,1/2-z
-x,y,1/2-z
-x,-y,-z
x,y,-z
-x,y,1/2+z
x,-y,1/2+z
loop_
_atom_site_type_symbol
_atom_site_label
_atom_site_fract_x
_atom_site_fract_y
_atom_site_fract_z
Si Si1 0.355654 0.309929 0.105269
Si Si2 0.500000 0.317298 0.389809
Si Si3 0.644346 0.309929 0.894731
Si Si4 0.102351 0.811017 0.750000
Si Si5 1.000000 0.311237 0.894875
Si Si6 0.254584 0.187488 0.250000
O O1 0.428522 0.250870 0.137190
O O2 0.357075 0.500000 0.111374
O O3 0.296041 0.246911 0.164317
O O4 0.347913 0.268500 0.000000
O O5 0.500000 0.500000 0.361515
O O6 0.500000 0.317006 0.500000
O O7 0.428522 0.250870 0.362810
O O8 0.703960 0.246911 0.835683
O O9 0.652088 0.268500 0.000000
O O10 0.063005 0.750105 0.661949
O O11 0.178541 0.757905 0.750000
O O12 0.063005 0.750104 0.838050
O O13 0.099694 0.000000 0.750000
O O14 0.000000 0.500000 0.892047
O O15 1.000000 0.261492 0.000000
O O16 0.253772 0.000000 0.250000
#
# Coordination Sequence:
#
# PCOD9394516 Si02
#       6
#     8   8   8   8   8   8
#     4   9  18  34  56  78 101 136 183 231 275 318
#     4   7  12  27  51  76  99 127 174 232 277 315
#     4   9  18  34  56  78 101 136 183 231 275 318
#     4  10  22  39  57  79 111 149 182 210 246 306
#     4  10  21  38  63  91 112 132 165 215 268 309
#     4  11  24  37  50  76 114 149 178 213 260 314
#
# _framework density 18.896485999999999
#
# number of rings (size 3 to 8) (size 9 to 14) (size 15 to 20)
#    0.000    2.667    0.000    4.500    0.000    6.667 
#    0.000   10.833    0.000    3.000    0.000    0.000 
#    0.000    0.000    0.000    0.000    0.000    0.000 
#
# Total GULP energy -267726.063357 kJ/mol
# GULP energy per Si atom -5577.626320 kJ/mol
# Density = 1.885348 g / cm^3
# Si number density = 18.896486 Si / 1000 Ang^3
#
#
#
# Elastic Constant Matrix: (Units=GPa)
#
#
# Indices 1 2 3 4 5 6 
#
# 1 229.3057 36.2912 101.6169 0.0000 0.0000 0.0000
# 2 36.2912 26.3163 32.7967 0.0000 0.0000 0.0000
# 3 101.6169 32.7967 143.6178 0.0000 0.0000 0.0000
# 4 0.0000 0.0000 0.0000 27.7287 0.0000 0.0000
# 5 0.0000 0.0000 0.0000 0.0000 15.3135 0.0000
# 6 0.0000 0.0000 0.0000 0.0000 0.0000 31.9082
#
#
#
# Elastic Compliance Matrix: (Units=1/GPa)
#
#
# Indices 1 2 3 4 5 6 
#
# 1 0.006743 -0.004687 -0.003700 0.000000 0.000000 0.000000
# 2 -0.004687 0.056373 -0.009558 0.000000 0.000000 0.000000
# 3 -0.003700 -0.009558 0.011764 0.000000 0.000000 0.000000
# 4 0.000000 0.000000 0.000000 0.036064 0.000000 0.000000
# 5 0.000000 0.000000 0.000000 0.000000 0.065302 0.000000
# 6 0.000000 0.000000 0.000000 0.000000 0.000000 0.031340
#
#
# Mechanical properties :
#
#
# Convention : Reuss Voigt Hill
#
# Bulk Modulus (GPa) = 25.64721 82.29437 53.97079
# Shear Modulus (GPa) = 19.49538 30.22575 24.86056
#
# Velocity S-wave (km/s) = 3.21548 4.00377 3.63108
# Velocity P-wave (km/s) = 5.23333 8.06338 6.79727
#
# Compressibility (1/GPa) = 0.03899060
#
# Stress axis : x y z
#
# Youngs Moduli (GPa) = 148.31105 17.73888 85.00672
#
# Poissons Ratio (x) = 0.08313 0.31457
# Poissons Ratio (y) = 0.69507 0.81245
# Poissons Ratio (z) = 0.54882 0.16954
#
# Static dielectric constant tensor:
#      x y z
#    x 1.664230 0.000000 0.000000 
#    y 0.000000 1.646960 0.000000 
#    z 0.000000 0.000000 1.661410 
# 
# From -- ./inp_files/14025.got.cif
#   From: 2010.05.17/outbox.cif.g08.bks.cpg/sg49_8_cif.got.tgz:14025.got - 2010.06.03 21:02:19.
