data_PCOD9394979
_publ_section_title
;
Structure prediction by ZEFSAII (Michael W. Deem and Ramdas Pophale) SiO2 
 PCOD9394979
Probable space group: P C C M
;
_chemical_formula_sum "Si O2"
_cell_formula_units_Z 42
_cell_length_a 13.052378
_cell_length_b 11.576896
_cell_length_c 14.320809
_cell_angle_alpha 90.000000
_cell_angle_beta 90.000000
_cell_angle_gamma 90.000000
_cell_volume 2163.960489
_symmetry_space_group_name_H-M "P C C M"
_symmetry_group_IT_number 49
_symmetry_cell_setting 'orthorhombic'
loop_
_space_group_symop_operation_xyz
x,y,z
-x,-y,z
x,-y,1/2-z
-x,y,1/2-z
-x,-y,-z
x,y,-z
-x,y,1/2+z
x,-y,1/2+z
loop_
_atom_site_type_symbol
_atom_site_label
_atom_site_fract_x
_atom_site_fract_y
_atom_site_fract_z
Si Si1 0.024418 0.362180 0.108892
Si Si2 0.385889 0.835826 0.894412
Si Si3 0.500000 0.000000 0.750000
Si Si4 0.530400 0.626085 0.142350
Si Si5 0.803617 0.318224 0.885760
Si Si6 0.240572 0.420615 0.887112
O O1 0.139056 0.354908 0.148362
O O2 0.000000 0.500000 0.112043
O O3 0.921313 0.303685 0.146559
O O4 0.030824 0.328498 0.000000
O O5 0.465956 0.729502 0.900370
O O6 0.278287 0.779447 0.862633
O O7 0.430202 0.922827 0.818351
O O8 0.375237 0.884381 0.000000
O O9 0.500000 0.500000 0.103729
O O10 0.500000 0.625974 0.250000
O O11 0.652150 0.637118 0.135543
O O12 0.763589 0.445234 0.855126
O O13 0.806199 0.322293 0.000000
O O14 0.232745 0.424855 0.000000
#
# Coordination Sequence:
#
# PCOD9394979 Si02
#       6
#     8   8   2   8   8   8
#     4   7  11  21  40  72 109 141 174 212 257 323
#     4  11  22  38  60  81 109 151 195 242 297 346
#     4  12  26  44  54  82 110 152 206 270 290 334
#     4  11  21  32  49  80 117 154 182 227 289 355
#     4   8  14  26  48  78 108 142 181 221 273 341
#     4   9  15  25  46  77 114 147 177 213 265 347
#
# _framework density 19.408856
#
# number of rings (size 3 to 8) (size 9 to 14) (size 15 to 20)
#    0.000    2.667    2.857    3.143    0.000    0.762 
#    0.000    0.000    0.000    1.143    0.000    2.667 
#    0.000    7.619    0.000    0.190    0.000   20.000 
#
# Total GULP energy -234291.020464 kJ/mol
# GULP energy per Si atom -5578.357630 kJ/mol
# Density = 1.936468 g / cm^3
# Si number density = 19.408856 Si / 1000 Ang^3
#
#
#
# Elastic Constant Matrix: (Units=GPa)
#
#
# Indices 1 2 3 4 5 6 
#
# 1 202.1329 48.3681 31.2559 0.0000 0.0000 0.0000
# 2 48.3681 63.3295 32.3332 0.0000 0.0000 0.0000
# 3 31.2559 32.3332 87.7503 0.0000 0.0000 0.0000
# 4 0.0000 0.0000 0.0000 -16.3411 0.0000 0.0000
# 5 0.0000 0.0000 0.0000 0.0000 38.1642 0.0000
# 6 0.0000 0.0000 0.0000 0.0000 0.0000 21.0878
#
#
#
# Elastic Compliance Matrix: (Units=1/GPa)
#
#
# Indices 1 2 3 4 5 6 
#
# 1 0.006076 -0.004355 -0.000560 0.000000 0.000000 0.000000
# 2 -0.004355 0.022570 -0.006765 0.000000 0.000000 0.000000
# 3 -0.000560 -0.006765 0.014088 0.000000 0.000000 0.000000
# 4 0.000000 0.000000 0.000000 -0.061196 0.000000 0.000000
# 5 0.000000 0.000000 0.000000 0.000000 0.026203 0.000000
# 6 0.000000 0.000000 0.000000 0.000000 0.000000 0.047421
#
#
# Mechanical properties :
#
#
# Convention : Reuss Voigt Hill
#
# Bulk Modulus (GPa) = 51.61282 64.12525 57.86904
# Shear Modulus (GPa) = 58.83743 24.66588 41.75166
#
# Velocity S-wave (km/s) = 5.51185 3.56878 4.64310
# Velocity P-wave (km/s) = 8.19497 7.07760 7.65670
#
# Compressibility (1/GPa) = 0.01937503
#
# Stress axis : x y z
#
# Youngs Moduli (GPa) = 164.58730 44.30567 70.98183
#
# Poissons Ratio (x) = 0.19294 0.03972
# Poissons Ratio (y) = 0.71673 0.48022
# Poissons Ratio (z) = 0.09210 0.29974
#
# Static dielectric constant tensor:
#      x y z
#    x 1.723080 0.000000 0.000000 
#    y 0.000000 1.638980 0.000000 
#    z 0.000000 0.000000 2.002880 
# 
# From -- ./inp_files/16987.got.cif
#   From: 2010.05.17/outbox.cif.g08.bks.cpg/sg49_9_cif.got.tgz:16987.got - 2010.06.03 21:02:19.
