data_PCOD9394926
_publ_section_title
;
Structure prediction by ZEFSAII (Michael W. Deem and Ramdas Pophale) SiO2 
 PCOD9394926
Probable space group: P C C M
;
_chemical_formula_sum "Si O2"
_cell_formula_units_Z 42
_cell_length_a 12.369634
_cell_length_b 7.854391
_cell_length_c 24.142560
_cell_angle_alpha 90.000000
_cell_angle_beta 90.000000
_cell_angle_gamma 90.000000
_cell_volume 2345.593158
_symmetry_space_group_name_H-M "P C C M"
_symmetry_group_IT_number 49
_symmetry_cell_setting 'orthorhombic'
loop_
_space_group_symop_operation_xyz
x,y,z
-x,-y,z
x,-y,1/2-z
-x,y,1/2-z
-x,-y,-z
x,y,-z
-x,y,1/2+z
x,-y,1/2+z
loop_
_atom_site_type_symbol
_atom_site_label
_atom_site_fract_x
_atom_site_fract_y
_atom_site_fract_z
Si Si1 0.732771 0.307844 0.643038
Si Si2 0.500000 0.800089 0.316293
Si Si3 0.127036 0.205521 0.250000
Si Si4 0.267229 0.307844 0.643037
Si Si5 0.000000 0.000000 0.000000
Si Si6 0.777806 1.000000 0.060933
O O1 0.609244 0.285900 0.662684
O O2 0.810563 0.271054 0.695556
O O3 0.751905 0.500000 0.623403
O O4 0.751624 0.166631 0.596359
O O5 0.500000 0.793898 0.250000
O O6 0.609245 0.714100 0.337315
O O7 0.500000 0.000000 0.332765
O O8 0.189436 0.271053 0.304445
O O9 0.000000 0.252849 0.250000
O O10 0.134339 0.000000 0.250000
O O11 0.248377 0.166632 0.596359
O O12 0.095439 1.000000 0.047159
O O13 0.723008 0.999998 0.000000
#
# Coordination Sequence:
#
# PCOD9394926 Si02
#       6
#     8   8   8   8   2   8
#     4  12  24  40  65  98 131 167 213 267 322 385
#     4  11  21  39  65  95 135 176 213 250 318 395
#     4  11  23  38  61  91 133 171 206 258 327 390
#     4  12  24  40  65  98 131 167 213 267 322 385
#     4   8  24  48  74  84 124 178 224 268 326 376
#     4  10  24  46  65  91 122 168 221 264 319 376
#
# _framework density 17.905918
#
# number of rings (size 3 to 8) (size 9 to 14) (size 15 to 20)
#    0.571    0.381    5.714    1.143    2.667    3.048 
#    0.000    2.857    0.000    2.286    0.000    0.000 
#    0.000    0.000    0.000    0.000    0.000    0.000 
#
# Total GULP energy -233983.993021 kJ/mol
# GULP energy per Si atom -5571.047453 kJ/mol
# Density = 1.786516 g / cm^3
# Si number density = 17.905918 Si / 1000 Ang^3
#
#
#
# Elastic Constant Matrix: (Units=GPa)
#
#
# Indices 1 2 3 4 5 6 
#
# 1 143.3748 41.0800 47.9373 0.0000 0.0000 0.0000
# 2 41.0800 164.5623 76.4127 0.0000 0.0000 0.0000
# 3 47.9373 76.4127 130.1496 0.0000 0.0000 0.0000
# 4 0.0000 0.0000 0.0000 -2.0073 0.0000 0.0000
# 5 0.0000 0.0000 0.0000 0.0000 31.0954 0.0000
# 6 0.0000 0.0000 0.0000 0.0000 0.0000 14.7883
#
#
#
# Elastic Compliance Matrix: (Units=1/GPa)
#
#
# Indices 1 2 3 4 5 6 
#
# 1 0.008044 -0.000869 -0.002452 0.000000 0.000000 0.000000
# 2 -0.000869 0.008448 -0.004640 0.000000 0.000000 0.000000
# 3 -0.002452 -0.004640 0.011311 0.000000 0.000000 0.000000
# 4 0.000000 0.000000 0.000000 -0.498171 0.000000 0.000000
# 5 0.000000 0.000000 0.000000 0.000000 0.032159 0.000000
# 6 0.000000 0.000000 0.000000 0.000000 0.000000 0.067621
#
#
# Mechanical properties :
#
#
# Convention : Reuss Voigt Hill
#
# Bulk Modulus (GPa) = 84.17641 85.43851 84.80746
# Shear Modulus (GPa) = -14.25698 26.95238 6.34770
#
# Velocity S-wave (km/s) = -2.82479 3.88393 1.88487
# Velocity P-wave (km/s) = 6.03930 8.24209 7.22514
#
# Compressibility (1/GPa) = 0.01187981
#
# Stress axis : x y z
#
# Youngs Moduli (GPa) = 124.32043 118.36830 88.41042
#
# Poissons Ratio (x) = 0.10289 0.21681
# Poissons Ratio (y) = 0.10806 0.41022
# Poissons Ratio (z) = 0.30488 0.54922
#
# Static dielectric constant tensor:
#      x y z
#    x 1.596170 0.000000 0.000000 
#    y 0.000000 1.623560 0.000000 
#    z 0.000000 0.000000 1.610010 
# 
# From -- ./inp_files/22797.got.cif
#   From: 2010.05.17/outbox.cif.g08.bks.cpg/sg49_12_cif.got.tgz:22797.got - 2010.06.03 21:02:19.
