data_PCOD9394533
_publ_section_title
;
Structure prediction by ZEFSAII (Michael W. Deem and Ramdas Pophale) SiO2 
 PCOD9394533
Probable space group: P C C M
;
_chemical_formula_sum "Si O2"
_cell_formula_units_Z 32
_cell_length_a 5.289961
_cell_length_b 7.052212
_cell_length_c 35.293962
_cell_angle_alpha 90.000000
_cell_angle_beta 90.000000
_cell_angle_gamma 90.000000
_cell_volume 1316.673950
_symmetry_space_group_name_H-M "P C C M"
_symmetry_group_IT_number 49
_symmetry_cell_setting 'orthorhombic'
loop_
_space_group_symop_operation_xyz
x,y,z
-x,-y,z
x,-y,1/2-z
-x,y,1/2-z
-x,-y,-z
x,y,-z
-x,y,1/2+z
x,-y,1/2+z
loop_
_atom_site_type_symbol
_atom_site_label
_atom_site_fract_x
_atom_site_fract_y
_atom_site_fract_z
Si Si1 0.252338 0.213752 0.766855
Si Si2 0.934726 0.716226 0.382529
Si Si3 0.567447 0.725570 0.149370
Si Si4 0.748724 0.129708 0.958018
O O1 0.500000 0.305195 0.750000
O O2 0.294197 0.225032 0.811490
O O3 0.000000 0.299246 0.750000
O O4 0.251000 0.000000 0.750000
O O5 0.718234 0.804303 0.355302
O O6 0.801900 0.728532 0.423420
O O7 0.000000 0.500000 0.371768
O O8 0.221807 0.794126 0.381104
O O9 0.500000 0.500000 0.147093
O O10 0.500000 0.000000 0.952700
O O11 0.725896 0.219048 0.000000
O O12 0.000000 0.000000 0.958301
#
# Coordination Sequence:
#
# PCOD9394533 Si02
#       4
#     8   8   8   8
#     4  10  21  39  56  82 116 148 190 252 298 367
#     4  10  21  39  61  89 120 158 206 249 300 368
#     4  10  21  39  60  84 118 155 199 251 305 362
#     4  10  21  39  59  89 127 160 200 249 302 361
#
# _framework density 24.303661999999999
#
# number of rings (size 3 to 8) (size 9 to 14) (size 15 to 20)
#    0.000    2.000    0.000    3.000    0.000    1.000 
#   27.000    1.250    0.000    9.000    0.000    0.000 
#    0.000    0.000    0.000    0.000    0.000    0.000 
#
# Total GULP energy -178459.687583 kJ/mol
# GULP energy per Si atom -5576.865237 kJ/mol
# Density = 2.424835 g / cm^3
# Si number density = 24.303662 Si / 1000 Ang^3
#
#
#
# Elastic Constant Matrix: (Units=GPa)
#
#
# Indices 1 2 3 4 5 6 
#
# 1 268.0855 35.5509 72.9677 0.0000 0.0000 0.0000
# 2 35.5509 80.9694 -2.0079 0.0000 0.0000 0.0000
# 3 72.9677 -2.0079 142.1308 0.0000 0.0000 0.0000
# 4 0.0000 0.0000 0.0000 139.8699 0.0000 0.0000
# 5 0.0000 0.0000 0.0000 0.0000 40.6365 0.0000
# 6 0.0000 0.0000 0.0000 0.0000 0.0000 -25.9820
#
#
#
# Elastic Compliance Matrix: (Units=1/GPa)
#
#
# Indices 1 2 3 4 5 6 
#
# 1 0.004671 -0.002111 -0.002428 0.000000 0.000000 0.000000
# 2 -0.002111 0.013309 0.001272 0.000000 0.000000 0.000000
# 3 -0.002428 0.001272 0.008300 0.000000 0.000000 0.000000
# 4 0.000000 0.000000 0.000000 0.007150 0.000000 0.000000
# 5 0.000000 0.000000 0.000000 0.000000 0.024608 0.000000
# 6 0.000000 0.000000 0.000000 0.000000 0.000000 -0.038488
#
#
# Mechanical properties :
#
#
# Convention : Reuss Voigt Hill
#
# Bulk Modulus (GPa) = 50.64389 78.24525 64.44457
# Shear Modulus (GPa) = 153.06649 56.54987 104.80818
#
# Velocity S-wave (km/s) = 7.94466 4.82893 6.57404
# Velocity P-wave (km/s) = 10.24890 7.95966 9.17595
#
# Compressibility (1/GPa) = 0.01974572
#
# Stress axis : x y z
#
# Youngs Moduli (GPa) = 214.09173 75.13842 120.48010
#
# Poissons Ratio (x) = 0.15862 0.29250
# Poissons Ratio (y) = 0.45196 -0.15322
# Poissons Ratio (z) = 0.51977 -0.09556
#
# Static dielectric constant tensor:
#      x y z
#    x 1.953350 0.000000 0.000000 
#    y 0.000000 1.945940 0.000000 
#    z 0.000000 0.000000 2.082960 
# 
# From -- ./inp_files/25442.got.cif
#   From: 2010.05.17/outbox.cif.g08.bks.cpg/sg49_13_cif.got.tgz:25442.got - 2010.06.03 21:02:19.
