data_PCOD9394524
_publ_section_title
;
Structure prediction by ZEFSAII (Michael W. Deem and Ramdas Pophale) SiO2 
 PCOD9394524
Probable space group: P C C M
;
_chemical_formula_sum "Si O2"
_cell_formula_units_Z 58
_cell_length_a 24.273312
_cell_length_b 7.764017
_cell_length_c 14.091731
_cell_angle_alpha 90.000000
_cell_angle_beta 90.000000
_cell_angle_gamma 90.000000
_cell_volume 2655.705176
_symmetry_space_group_name_H-M "P C C M"
_symmetry_group_IT_number 49
_symmetry_cell_setting 'orthorhombic'
loop_
_space_group_symop_operation_xyz
x,y,z
-x,-y,z
x,-y,1/2-z
-x,y,1/2-z
-x,-y,-z
x,y,-z
-x,y,1/2+z
x,-y,1/2+z
loop_
_atom_site_type_symbol
_atom_site_label
_atom_site_fract_x
_atom_site_fract_y
_atom_site_fract_z
Si Si1 0.915925 0.198291 0.773855
Si Si2 0.983684 0.207966 0.393768
Si Si3 0.773149 0.377365 0.393175
Si Si4 0.500000 0.500000 0.750000
Si Si5 0.352845 0.263101 0.107956
Si Si6 0.588926 0.396389 0.884776
Si Si7 0.680776 0.893428 0.384808
Si Si8 0.793748 0.245502 0.191995
O O1 0.961922 0.277238 0.841806
O O2 0.856941 0.197440 0.823822
O O3 0.930666 0.266495 0.668542
O O4 0.927884 0.000000 0.750000
O O5 0.976599 0.266083 0.500000
O O6 0.000000 0.000000 0.398415
O O7 0.793523 0.343533 0.500000
O O8 0.707558 0.348107 0.394772
O O9 0.793133 0.260771 0.306483
O O10 0.784581 0.570854 0.358844
O O11 0.534697 0.377407 0.821874
O O12 0.391552 0.411860 0.145826
O O13 0.344731 0.074273 0.149550
O O14 0.371745 0.234029 0.000000
O O15 0.638390 0.262057 0.864697
O O16 0.580076 0.391528 0.000000
O O17 0.687398 0.901942 0.500000
O O18 0.741576 0.864130 0.342397
#
# Coordination Sequence:
#
# PCOD9394524 Si02
#       8
#     8   8   8   2   8   8   8   8
#     4   9  19  32  49  86 121 148 201 261 313 377
#     4   8  15  32  54  73 109 162 205 253 317 374
#     4  10  22  39  55  80 122 164 201 240 298 379
#     4  12  26  40  70  98 120 166 218 266 326 370
#     4   9  19  38  63  88 122 168 207 248 306 374
#     4  10  22  44  65  90 128 166 211 265 313 373
#     4  10  21  38  64  95 127 169 212 250 312 390
#     4  11  22  34  59  90 123 161 199 256 319 374
#
# _framework density 21.839773999999998
#
# number of rings (size 3 to 8) (size 9 to 14) (size 15 to 20)
#    0.000    2.345    1.379    1.448    3.862    1.655 
#    0.000    1.379    0.000    9.931    0.000    7.724 
#    0.000    0.000    0.000    0.000    0.000    0.000 
#
# Total GULP energy -323155.085511 kJ/mol
# GULP energy per Si atom -5571.639405 kJ/mol
# Density = 2.179007 g / cm^3
# Si number density = 21.839774 Si / 1000 Ang^3
#
#
#
# Elastic Constant Matrix: (Units=GPa)
#
#
# Indices 1 2 3 4 5 6 
#
# 1 96.9527 29.8230 40.6111 0.0000 0.0000 0.0000
# 2 29.8230 72.0402 29.5046 0.0000 0.0000 0.0000
# 3 40.6111 29.5046 118.4090 0.0000 0.0000 0.0000
# 4 0.0000 0.0000 0.0000 16.9113 0.0000 0.0000
# 5 0.0000 0.0000 0.0000 0.0000 22.2844 0.0000
# 6 0.0000 0.0000 0.0000 0.0000 0.0000 -32.8357
#
#
#
# Elastic Compliance Matrix: (Units=1/GPa)
#
#
# Indices 1 2 3 4 5 6 
#
# 1 0.012983 -0.003955 -0.003468 0.000000 0.000000 0.000000
# 2 -0.003955 0.016663 -0.002796 0.000000 0.000000 0.000000
# 3 -0.003468 -0.002796 0.010331 0.000000 0.000000 0.000000
# 4 0.000000 0.000000 0.000000 0.059132 0.000000 0.000000
# 5 0.000000 0.000000 0.000000 0.000000 0.044874 0.000000
# 6 0.000000 0.000000 0.000000 0.000000 0.000000 -0.030455
#
#
# Mechanical properties :
#
#
# Convention : Reuss Voigt Hill
#
# Bulk Modulus (GPa) = 51.17196 54.14215 52.65706
# Shear Modulus (GPa) = 35.59247 13.76956 24.68102
#
# Velocity S-wave (km/s) = 4.04134 2.51366 3.36534
# Velocity P-wave (km/s) = 6.72742 5.76794 6.26607
#
# Compressibility (1/GPa) = 0.01954195
#
# Stress axis : x y z
#
# Youngs Moduli (GPa) = 77.02255 60.01224 96.79419
#
# Poissons Ratio (x) = 0.23732 0.33563
# Poissons Ratio (y) = 0.30459 0.27061
# Poissons Ratio (z) = 0.26708 0.16778
#
# Static dielectric constant tensor:
#      x y z
#    x 1.928520 0.000000 0.000000 
#    y 0.000000 1.834910 0.000000 
#    z 0.000000 0.000000 1.866460 
# 
# From -- ./inp_files/14502.got.cif
#   From: 2010.05.17/outbox.cif.g08.bks.cpg/sg49_8_cif.got.tgz:14502.got - 2010.06.03 21:02:19.
