data_PCOD9394399
_publ_section_title
;
Structure prediction by ZEFSAII (Michael W. Deem and Ramdas Pophale) SiO2 
 PCOD9394399
Probable space group: P C C M
;
_chemical_formula_sum "Si O2"
_cell_formula_units_Z 64
_cell_length_a 22.447413
_cell_length_b 8.374862
_cell_length_c 16.700743
_cell_angle_alpha 90.000000
_cell_angle_beta 90.000000
_cell_angle_gamma 90.000000
_cell_volume 3139.639248
_symmetry_space_group_name_H-M "P C C M"
_symmetry_group_IT_number 49
_symmetry_cell_setting 'orthorhombic'
loop_
_space_group_symop_operation_xyz
x,y,z
-x,-y,z
x,-y,1/2-z
-x,y,1/2-z
-x,-y,-z
x,y,-z
-x,y,1/2+z
x,-y,1/2+z
loop_
_atom_site_type_symbol
_atom_site_label
_atom_site_fract_x
_atom_site_fract_y
_atom_site_fract_z
Si Si1 0.029161 0.254777 0.592808
Si Si2 0.761249 0.905802 0.908468
Si Si3 0.907999 0.397310 0.405701
Si Si4 0.861793 0.896645 0.328981
Si Si5 0.568605 0.675199 0.346184
Si Si6 0.570019 0.678997 0.153493
Si Si7 0.370006 0.995272 0.906750
Si Si8 0.200604 0.657740 0.716228
O O1 0.026484 0.209009 0.500000
O O2 0.061837 0.427855 0.596951
O O3 0.073283 0.140353 0.638567
O O4 0.961271 0.277989 0.620041
O O5 0.701364 0.006605 0.898021
O O6 0.760334 0.772921 0.838913
O O7 0.820100 0.010633 0.891689
O O8 0.762086 0.844013 0.000000
O O9 0.892541 0.368044 0.500000
O O10 0.854087 0.384243 0.344094
O O11 0.826528 0.744159 0.294324
O O12 0.867355 0.000000 0.250000
O O13 0.570130 0.674254 0.249818
O O14 0.590750 0.498857 0.373985
O O15 0.499382 0.692336 0.371515
O O16 0.603129 0.832966 0.372210
O O17 0.605267 0.837194 0.127853
O O18 0.384781 0.998872 0.000000
O O19 0.231314 0.500000 0.750000
#
# Coordination Sequence:
#
# PCOD9394399 Si02
#       8
#     8   8   8   8   8   8   8   8
#     4   9  17  33  56  84 114 150 190 226 283 371
#     4  10  24  45  60  78 119 165 205 248 299 371
#     4   9  18  33  57  86 116 148 185 233 296 363
#     4  10  21  37  58  84 117 152 193 243 299 354
#     4   9  19  37  62  91 127 168 205 250 308 372
#     4   9  19  37  61  94 127 161 210 253 304 371
#     4  11  23  39  60  88 122 164 209 258 315 362
#     4  11  21  38  60  88 114 146 196 255 305 346
#
# _framework density 20.384505999999998
#
# number of rings (size 3 to 8) (size 9 to 14) (size 15 to 20)
#    0.000    2.250    1.250    3.000    0.000    6.000 
#    4.500    5.625    0.000    6.750    0.000    0.000 
#    0.000    0.000    0.000    0.000    0.000    0.000 
#
# Total GULP energy -357101.828782 kJ/mol
# GULP energy per Si atom -5579.716075 kJ/mol
# Density = 2.033811 g / cm^3
# Si number density = 20.384506 Si / 1000 Ang^3
#
#
#
# Elastic Constant Matrix: (Units=GPa)
#
#
# Indices 1 2 3 4 5 6 
#
# 1 55.0908 35.6767 19.8070 0.0000 0.0000 0.0000
# 2 35.6767 111.4557 25.6189 0.0000 0.0000 0.0000
# 3 19.8070 25.6189 43.7191 0.0000 0.0000 0.0000
# 4 0.0000 0.0000 0.0000 -7.1367 0.0000 0.0000
# 5 0.0000 0.0000 0.0000 0.0000 29.0279 0.0000
# 6 0.0000 0.0000 0.0000 0.0000 0.0000 14.7033
#
#
#
# Elastic Compliance Matrix: (Units=1/GPa)
#
#
# Indices 1 2 3 4 5 6 
#
# 1 0.024932 -0.006222 -0.007649 0.000000 0.000000 0.000000
# 2 -0.006222 0.011922 -0.004167 0.000000 0.000000 0.000000
# 3 -0.007649 -0.004167 0.028781 0.000000 0.000000 0.000000
# 4 0.000000 0.000000 0.000000 -0.140121 0.000000 0.000000
# 5 0.000000 0.000000 0.000000 0.000000 0.034450 0.000000
# 6 0.000000 0.000000 0.000000 0.000000 0.000000 0.068012
#
#
# Mechanical properties :
#
#
# Convention : Reuss Voigt Hill
#
# Bulk Modulus (GPa) = 33.83286 41.38564 37.60925
# Shear Modulus (GPa) = 67.65573 15.92976 41.79274
#
# Velocity S-wave (km/s) = 5.76731 2.79850 4.53285
# Velocity P-wave (km/s) = 7.80913 5.54876 6.77389
#
# Compressibility (1/GPa) = 0.02955707
#
# Stress axis : x y z
#
# Youngs Moduli (GPa) = 40.10987 83.88046 34.74572
#
# Poissons Ratio (x) = 0.52193 0.26577
# Poissons Ratio (y) = 0.24958 0.14478
# Poissons Ratio (z) = 0.30680 0.34953
#
# Static dielectric constant tensor:
#      x y z
#    x 1.695380 0.000000 0.000000 
#    y 0.000000 1.833530 0.000000 
#    z 0.000000 0.000000 1.703390 
# 
# From -- ./inp_files/14518.got.cif
#   From: 2010.05.17/outbox.cif.g08.bks.cpg/sg49_8_cif.got.tgz:14518.got - 2010.06.03 21:02:19.
