data_PCOD9394637
_publ_section_title
;
Structure prediction by ZEFSAII (Michael W. Deem and Ramdas Pophale) SiO2 
 PCOD9394637
Probable space group: P C C M
;
_chemical_formula_sum "Si O2"
_cell_formula_units_Z 64
_cell_length_a 12.654710
_cell_length_b 13.862092
_cell_length_c 17.193175
_cell_angle_alpha 90.000000
_cell_angle_beta 90.000000
_cell_angle_gamma 90.000000
_cell_volume 3016.039727
_symmetry_space_group_name_H-M "P C C M"
_symmetry_group_IT_number 49
_symmetry_cell_setting 'orthorhombic'
loop_
_space_group_symop_operation_xyz
x,y,z
-x,-y,z
x,-y,1/2-z
-x,y,1/2-z
-x,-y,-z
x,y,-z
-x,y,1/2+z
x,-y,1/2+z
loop_
_atom_site_type_symbol
_atom_site_label
_atom_site_fract_x
_atom_site_fract_y
_atom_site_fract_z
Si Si1 0.160859 0.522256 0.592407
Si Si2 0.547121 0.107046 0.409031
Si Si3 0.822404 0.189309 0.864885
Si Si4 0.264486 0.894942 0.710684
Si Si5 0.877406 0.022416 0.413307
Si Si6 0.985031 0.349970 0.842272
Si Si7 0.381566 0.277830 0.414848
Si Si8 0.385216 0.472146 0.660158
O O1 0.152742 0.512453 0.500000
O O2 0.099415 0.432165 0.631986
O O3 0.282904 0.516779 0.618025
O O4 0.095384 0.617272 0.618715
O O5 0.583793 0.110778 0.500000
O O6 0.637322 0.127901 0.345537
O O7 0.454492 0.185376 0.400380
O O8 0.500000 0.000000 0.396506
O O9 0.770736 0.176941 0.778922
O O10 0.826810 0.082381 0.899510
O O11 0.932566 0.247033 0.863076
O O12 0.739545 0.247221 0.915426
O O13 0.285430 0.000000 0.750000
O O14 0.165435 0.908991 0.653294
O O15 0.854146 0.057960 0.500000
O O16 0.000000 0.000000 0.405671
O O17 0.000000 0.354132 0.750000
O O18 0.410517 0.318189 0.500000
O O19 0.386771 0.357579 0.349336
O O20 0.500000 0.500000 0.627841
O O21 0.378833 0.500000 0.750000
#
# Coordination Sequence:
#
# PCOD9394637 Si02
#       8
#     8   8   8   8   8   8   8   8
#     4  11  23  43  71  98 130 170 218 278 342 406
#     4  10  21  40  68  99 137 181 226 284 346 410
#     4  11  24  38  66  94 128 172 218 275 333 405
#     4  10  22  37  59  91 128 175 221 274 332 398
#     4  10  22  40  61  86 125 172 217 268 328 396
#     4  11  23  40  67  97 130 168 219 280 337 404
#     4  11  24  43  68  99 132 173 226 275 333 411
#     4  11  25  45  69  97 135 181 225 278 343 410
#
# _framework density 21.219878999999999
#
# number of rings (size 3 to 8) (size 9 to 14) (size 15 to 20)
#    0.000    1.375    1.250    4.875    1.750    9.000 
#    0.000    0.000    0.000    0.000    0.000    0.000 
#    0.000    0.000    0.000    0.000    0.000    0.000 
#
# Total GULP energy -357590.311659 kJ/mol
# GULP energy per Si atom -5587.348620 kJ/mol
# Density = 2.117158 g / cm^3
# Si number density = 21.219879 Si / 1000 Ang^3
#
#
#
# Elastic Constant Matrix: (Units=GPa)
#
#
# Indices 1 2 3 4 5 6 
#
# 1 113.3085 14.0032 33.0502 0.0000 0.0000 0.0000
# 2 14.0032 51.0171 17.6629 0.0000 0.0000 0.0000
# 3 33.0502 17.6629 108.5042 0.0000 0.0000 0.0000
# 4 0.0000 0.0000 0.0000 -12.8094 0.0000 0.0000
# 5 0.0000 0.0000 0.0000 0.0000 22.5751 0.0000
# 6 0.0000 0.0000 0.0000 0.0000 0.0000 33.2774
#
#
#
# Elastic Compliance Matrix: (Units=1/GPa)
#
#
# Indices 1 2 3 4 5 6 
#
# 1 0.009833 -0.001761 -0.002708 0.000000 0.000000 0.000000
# 2 -0.001761 0.021087 -0.002896 0.000000 0.000000 0.000000
# 3 -0.002708 -0.002896 0.010513 0.000000 0.000000 0.000000
# 4 0.000000 0.000000 0.000000 -0.078068 0.000000 0.000000
# 5 0.000000 0.000000 0.000000 0.000000 0.044297 0.000000
# 6 0.000000 0.000000 0.000000 0.000000 0.000000 0.030050
#
#
# Mechanical properties :
#
#
# Convention : Reuss Voigt Hill
#
# Bulk Modulus (GPa) = 37.45137 44.69582 41.07360
# Shear Modulus (GPa) = 81.50620 22.48284 51.99452
#
# Velocity S-wave (km/s) = 6.20433 3.25856 4.95539
# Velocity P-wave (km/s) = 8.30737 5.93856 7.22077
#
# Compressibility (1/GPa) = 0.02670129
#
# Stress axis : x y z
#
# Youngs Moduli (GPa) = 101.69689 47.42162 95.12316
#
# Poissons Ratio (x) = 0.08352 0.25764
# Poissons Ratio (y) = 0.17912 0.27550
# Poissons Ratio (z) = 0.27544 0.13734
#
# Static dielectric constant tensor:
#      x y z
#    x 1.794760 0.000000 0.000000 
#    y 0.000000 1.715490 0.000000 
#    z 0.000000 0.000000 1.774710 
# 
# From -- ./inp_files/17296.got.cif
#   From: 2010.05.17/outbox.cif.g08.bks.cpg/sg49_9_cif.got.tgz:17296.got - 2010.06.03 21:02:19.
