data_PCOD9394578
_publ_section_title
;
Structure prediction by ZEFSAII (Michael W. Deem and Ramdas Pophale) SiO2 
 PCOD9394578
Probable space group: P C C M
;
_chemical_formula_sum "Si O2"
_cell_formula_units_Z 34
_cell_length_a 8.541261
_cell_length_b 8.171765
_cell_length_c 21.909514
_cell_angle_alpha 90.000000
_cell_angle_beta 90.000000
_cell_angle_gamma 90.000000
_cell_volume 1529.222242
_symmetry_space_group_name_H-M "P C C M"
_symmetry_group_IT_number 49
_symmetry_cell_setting 'orthorhombic'
loop_
_space_group_symop_operation_xyz
x,y,z
-x,-y,z
x,-y,1/2-z
-x,y,1/2-z
-x,-y,-z
x,y,-z
-x,y,1/2+z
x,-y,1/2+z
loop_
_atom_site_type_symbol
_atom_site_label
_atom_site_fract_x
_atom_site_fract_y
_atom_site_fract_z
Si Si1 0.024204 0.694616 0.566774
Si Si2 0.500000 0.000000 0.000000
Si Si3 0.307549 0.831918 0.103773
Si Si4 0.325228 0.680115 0.772545
Si Si5 0.843775 0.890709 0.823949
O O1 0.095126 0.736567 0.500000
O O2 0.858234 0.788404 0.572061
O O3 0.000000 0.500000 0.569166
O O4 0.122286 0.754620 0.624433
O O5 0.434036 0.873686 0.053431
O O6 0.329651 0.691965 0.154460
O O7 0.285260 0.991891 0.146274
O O8 0.280749 0.500000 0.750000
O O9 0.500000 0.715735 0.750000
O O10 0.210622 0.806091 0.738219
O O11 0.000000 0.000000 0.818949
#
# Coordination Sequence:
#
# PCOD9394578 Si02
#       5
#     8   2   8   8   8
#     4  10  21  39  63  93 134 176 222 283 350 414
#     4  12  24  40  62  98 134 176 228 272 350 422
#     4  11  23  39  65  93 133 175 224 287 343 415
#     4  11  24  44  67  95 137 183 232 286 353 421
#     4  10  23  40  67  98 131 170 231 288 350 406
#
# _framework density 22.233525
#
# number of rings (size 3 to 8) (size 9 to 14) (size 15 to 20)
#    0.000    1.412    1.176    3.529    1.647    8.941 
#    0.000    5.882    0.000    4.235    0.000    0.000 
#    0.000    0.000    0.000    0.000    0.000    0.000 
#
# Total GULP energy -189566.766986 kJ/mol
# GULP energy per Si atom -5575.493147 kJ/mol
# Density = 2.218292 g / cm^3
# Si number density = 22.233525 Si / 1000 Ang^3
#
#
#
# Elastic Constant Matrix: (Units=GPa)
#
#
# Indices 1 2 3 4 5 6 
#
# 1 20.2469 17.0564 22.6887 0.0000 0.0000 0.0000
# 2 17.0564 92.7150 51.7233 0.0000 0.0000 0.0000
# 3 22.6887 51.7233 197.8438 0.0000 0.0000 0.0000
# 4 0.0000 0.0000 0.0000 26.0298 0.0000 0.0000
# 5 0.0000 0.0000 0.0000 0.0000 -22.4070 0.0000
# 6 0.0000 0.0000 0.0000 0.0000 0.0000 24.2430
#
#
#
# Elastic Compliance Matrix: (Units=1/GPa)
#
#
# Indices 1 2 3 4 5 6 
#
# 1 0.062180 -0.008735 -0.004847 0.000000 0.000000 0.000000
# 2 -0.008735 0.013854 -0.002620 0.000000 0.000000 0.000000
# 3 -0.004847 -0.002620 0.006295 0.000000 0.000000 0.000000
# 4 0.000000 0.000000 0.000000 0.038418 0.000000 0.000000
# 5 0.000000 0.000000 0.000000 0.000000 -0.044629 0.000000
# 6 0.000000 0.000000 0.000000 0.000000 0.000000 0.041249
#
#
# Mechanical properties :
#
#
# Convention : Reuss Voigt Hill
#
# Bulk Modulus (GPa) = 20.02989 54.86028 37.44508
# Shear Modulus (GPa) = 30.04540 20.19563 25.12052
#
# Velocity S-wave (km/s) = 3.68007 3.01714 3.36497
# Velocity P-wave (km/s) = 5.20438 6.07171 5.65470
#
# Compressibility (1/GPa) = 0.04992539
#
# Stress axis : x y z
#
# Youngs Moduli (GPa) = 16.08223 72.17878 158.84569
#
# Poissons Ratio (x) = 0.63048 0.76996
# Poissons Ratio (y) = 0.14048 0.41623
# Poissons Ratio (z) = 0.07795 0.18913
#
# Static dielectric constant tensor:
#      x y z
#    x 1.843000 0.000000 0.000000 
#    y 0.000000 1.832370 0.000000 
#    z 0.000000 0.000000 1.857610 
# 
# From -- ./inp_files/19442.got.cif
#   From: 2010.05.17/outbox.cif.g08.bks.cpg/sg49_10_cif.got.tgz:19442.got - 2010.06.03 21:02:19.
