data_PCOD9394595
_publ_section_title
;
Structure prediction by ZEFSAII (Michael W. Deem and Ramdas Pophale) SiO2 
 PCOD9394595
Probable space group: P C C M
;
_chemical_formula_sum "Si O2"
_cell_formula_units_Z 40
_cell_length_a 14.339411
_cell_length_b 13.991525
_cell_length_c 9.576592
_cell_angle_alpha 90.000000
_cell_angle_beta 90.000000
_cell_angle_gamma 90.000000
_cell_volume 1921.353832
_symmetry_space_group_name_H-M "P C C M"
_symmetry_group_IT_number 49
_symmetry_cell_setting 'orthorhombic'
loop_
_space_group_symop_operation_xyz
x,y,z
-x,-y,z
x,-y,1/2-z
-x,y,1/2-z
-x,-y,-z
x,y,-z
-x,y,1/2+z
x,-y,1/2+z
loop_
_atom_site_type_symbol
_atom_site_label
_atom_site_fract_x
_atom_site_fract_y
_atom_site_fract_z
Si Si1 0.201707 0.100450 0.832377
Si Si2 0.585495 0.897934 0.832350
Si Si3 0.587446 0.612028 0.500000
Si Si4 0.378728 0.380571 0.000000
Si Si5 0.732338 0.385916 0.232481
Si Si6 0.091859 0.739012 0.834239
O O1 0.308494 0.138272 0.818690
O O2 0.132073 0.170285 0.750859
O O3 0.196749 0.000000 0.750000
O O4 0.182838 0.091315 0.000000
O O5 0.500000 0.847582 0.750000
O O6 0.591157 0.000000 0.750000
O O7 0.566878 0.907154 0.000000
O O8 0.484523 0.655715 0.500000
O O9 0.597292 0.495093 0.500000
O O10 0.648623 0.639963 0.369950
O O11 0.312443 0.353405 0.875254
O O12 0.744472 0.500000 0.250000
O O13 0.827343 0.339739 0.182155
O O14 0.000000 0.708198 0.750000
O O15 0.075614 0.756938 0.000000
#
# Coordination Sequence:
#
# PCOD9394595 Si02
#       6
#     8   8   4   4   8   8
#     4  10  22  42  68  96 126 164 211 266 328 387
#     4   9  16  28  52  85 121 159 198 241 297 366
#     4   9  16  36  57  97 132 175 215 255 313 375
#     4   9  18  30  65  93 134 173 213 259 309 379
#     4  10  21  39  64  97 134 174 216 261 315 379
#     4  12  27  46  67  91 125 167 218 277 330 382
#
# _framework density 20.818653000000001
#
# number of rings (size 3 to 8) (size 9 to 14) (size 15 to 20)
#    0.000    2.000    1.000    3.000    2.800    5.600 
#    0.000    5.000    0.000    0.000    0.000    0.000 
#    0.000    0.000    0.000    0.000    0.000    0.000 
#
# Total GULP energy -222964.837666 kJ/mol
# GULP energy per Si atom -5574.120942 kJ/mol
# Density = 2.077127 g / cm^3
# Si number density = 20.818653 Si / 1000 Ang^3
#
#
#
# Elastic Constant Matrix: (Units=GPa)
#
#
# Indices 1 2 3 4 5 6 
#
# 1 104.4412 11.6254 50.8422 0.0000 0.0000 0.0000
# 2 11.6254 59.8311 22.6125 0.0000 0.0000 0.0000
# 3 50.8422 22.6125 206.5078 0.0000 0.0000 0.0000
# 4 0.0000 0.0000 0.0000 19.2805 0.0000 0.0000
# 5 0.0000 0.0000 0.0000 0.0000 45.1976 0.0000
# 6 0.0000 0.0000 0.0000 0.0000 0.0000 28.6927
#
#
#
# Elastic Compliance Matrix: (Units=1/GPa)
#
#
# Indices 1 2 3 4 5 6 
#
# 1 0.010955 -0.001157 -0.002570 0.000000 0.000000 0.000000
# 2 -0.001157 0.017557 -0.001638 0.000000 0.000000 0.000000
# 3 -0.002570 -0.001638 0.005655 0.000000 0.000000 0.000000
# 4 0.000000 0.000000 0.000000 0.051866 0.000000 0.000000
# 5 0.000000 0.000000 0.000000 0.000000 0.022125 0.000000
# 6 0.000000 0.000000 0.000000 0.000000 0.000000 0.034852
#
#
# Mechanical properties :
#
#
# Convention : Reuss Voigt Hill
#
# Bulk Modulus (GPa) = 42.66832 60.10448 51.38640
# Shear Modulus (GPa) = 30.94972 37.68083 34.31527
#
# Velocity S-wave (km/s) = 3.85987 4.25897 4.06432
# Velocity P-wave (km/s) = 6.35646 7.28823 6.83823
#
# Compressibility (1/GPa) = 0.02343659
#
# Stress axis : x y z
#
# Youngs Moduli (GPa) = 91.28394 56.95582 176.84775
#
# Poissons Ratio (x) = 0.06590 0.45457
# Poissons Ratio (y) = 0.10563 0.28962
# Poissons Ratio (z) = 0.23463 0.09327
#
# Static dielectric constant tensor:
#      x y z
#    x 1.743500 0.000000 0.000000 
#    y 0.000000 1.823480 0.000000 
#    z 0.000000 0.000000 1.677280 
# 
# From -- ./inp_files/3474.got.cif
#   From: 2010.05.17/outbox.cif.g08.bks.cpg/sg49_2_cif.got.tgz:3474.got - 2010.06.03 21:02:19.
