data_PCOD9394377
_publ_section_title
;
Structure prediction by ZEFSAII (Michael W. Deem and Ramdas Pophale) SiO2 
 PCOD9394377
Probable space group: P C C M
;
_chemical_formula_sum "Si O2"
_cell_formula_units_Z 32
_cell_length_a 14.353035
_cell_length_b 7.054204
_cell_length_c 16.504812
_cell_angle_alpha 90.000000
_cell_angle_beta 90.000000
_cell_angle_gamma 90.000000
_cell_volume 1671.099620
_symmetry_space_group_name_H-M "P C C M"
_symmetry_group_IT_number 49
_symmetry_cell_setting 'orthorhombic'
loop_
_space_group_symop_operation_xyz
x,y,z
-x,-y,z
x,-y,1/2-z
-x,y,1/2-z
-x,-y,-z
x,y,-z
-x,y,1/2+z
x,-y,1/2+z
loop_
_atom_site_type_symbol
_atom_site_label
_atom_site_fract_x
_atom_site_fract_y
_atom_site_fract_z
Si Si1 0.605416 0.951545 0.902948
Si Si2 0.722702 0.629088 0.829742
Si Si3 0.104999 0.728613 0.757200
Si Si4 0.768982 0.751354 0.407774
O O1 0.641700 0.767769 0.856199
O O2 0.500000 0.000000 0.880098
O O3 0.677888 0.123296 0.887644
O O4 0.607450 0.916059 0.000000
O O5 0.702742 0.500000 0.750000
O O6 0.813446 0.759672 0.809030
O O7 0.744991 0.471345 0.897053
O O8 0.098301 0.500000 0.750000
O O9 0.149769 0.785475 0.842703
O O10 0.000000 0.799160 0.750000
O O11 0.796148 0.792739 0.500000
#
# Coordination Sequence:
#
# PCOD9394377 Si02
#       4
#     8   8   8   8
#     4  10  21  37  56  78 108 144 180 221 268 317
#     4   9  19  35  54  79 109 141 177 223 268 315
#     4   8  16  33  53  76 107 140 174 217 272 320
#     4   9  18  34  56  79 105 140 181 221 263 317
#
# _framework density 19.149068
#
# number of rings (size 3 to 8) (size 9 to 14) (size 15 to 20)
#    0.000    3.500    0.000    0.750    0.000    5.000 
#    0.000   32.500    0.000    3.000    0.000    0.000 
#    0.000    0.000    0.000    0.000    0.000    0.000 
#
# Total GULP energy -178208.873472 kJ/mol
# GULP energy per Si atom -5569.027296 kJ/mol
# Density = 1.910548 g / cm^3
# Si number density = 19.149068 Si / 1000 Ang^3
#
#
#
# Elastic Constant Matrix: (Units=GPa)
#
#
# Indices 1 2 3 4 5 6 
#
# 1 194.0518 64.7366 69.4552 0.0000 0.0000 0.0000
# 2 64.7366 88.4547 37.5091 0.0000 0.0000 0.0000
# 3 69.4552 37.5091 54.1825 0.0000 0.0000 0.0000
# 4 0.0000 0.0000 0.0000 13.7774 0.0000 0.0000
# 5 0.0000 0.0000 0.0000 0.0000 22.4793 0.0000
# 6 0.0000 0.0000 0.0000 0.0000 0.0000 -82.7362
#
#
#
# Elastic Compliance Matrix: (Units=1/GPa)
#
#
# Indices 1 2 3 4 5 6 
#
# 1 0.009942 -0.002650 -0.010910 0.000000 0.000000 0.000000
# 2 -0.002650 0.016709 -0.008171 0.000000 0.000000 0.000000
# 3 -0.010910 -0.008171 0.038098 0.000000 0.000000 0.000000
# 4 0.000000 0.000000 0.000000 0.072583 0.000000 0.000000
# 5 0.000000 0.000000 0.000000 0.000000 0.044485 0.000000
# 6 0.000000 0.000000 0.000000 0.000000 0.000000 -0.012087
#
#
# Mechanical properties :
#
#
# Convention : Reuss Voigt Hill
#
# Bulk Modulus (GPa) = 46.97464 75.56562 61.27013
# Shear Modulus (GPa) = 22.69750 1.70332 12.20041
#
# Velocity S-wave (km/s) = 3.44656 0.94416 2.52688
# Velocity P-wave (km/s) = 6.35788 6.38248 6.37019
#
# Compressibility (1/GPa) = 0.02128808
#
# Stress axis : x y z
#
# Youngs Moduli (GPa) = 100.58018 59.84698 26.24805
#
# Poissons Ratio (x) = 0.15859 0.28638
# Poissons Ratio (y) = 0.26653 0.21446
# Poissons Ratio (z) = 1.09737 0.48898
#
# Static dielectric constant tensor:
#      x y z
#    x 1.681960 0.000000 0.000000 
#    y 0.000000 1.696380 0.000000 
#    z 0.000000 0.000000 1.685820 
# 
# From -- ./inp_files/16765.got.cif
#   From: 2010.05.17/outbox.cif.g08.bks.cpg/sg49_9_cif.got.tgz:16765.got - 2010.06.03 21:02:19.
