data_PCOD9394062
_publ_section_title
;
Structure prediction by ZEFSAII (Michael W. Deem and Ramdas Pophale) SiO2 
 PCOD9394062
Probable space group: P C C M
;
_chemical_formula_sum "Si O2"
_cell_formula_units_Z 58
_cell_length_a 7.502086
_cell_length_b 11.813910
_cell_length_c 26.535309
_cell_angle_alpha 90.000000
_cell_angle_beta 90.000000
_cell_angle_gamma 90.000000
_cell_volume 2351.797074
_symmetry_space_group_name_H-M "P C C M"
_symmetry_group_IT_number 49
_symmetry_cell_setting 'orthorhombic'
loop_
_space_group_symop_operation_xyz
x,y,z
-x,-y,z
x,-y,1/2-z
-x,y,1/2-z
-x,-y,-z
x,y,-z
-x,y,1/2+z
x,-y,1/2+z
loop_
_atom_site_type_symbol
_atom_site_label
_atom_site_fract_x
_atom_site_fract_y
_atom_site_fract_z
Si Si1 0.298900 0.134284 0.836452
Si Si2 0.500000 0.000000 0.250000
Si Si3 0.735513 0.245717 0.055162
Si Si4 0.788359 0.517172 0.840372
Si Si5 0.814797 0.697776 0.231767
Si Si6 0.326750 0.261023 0.337568
Si Si7 0.712529 0.511109 0.053137
Si Si8 0.377670 0.887232 0.554263
O O1 0.360789 0.048554 0.792694
O O2 0.148555 0.211396 0.811745
O O3 0.475812 0.212446 0.840262
O O4 0.266427 0.102553 0.894284
O O5 0.778301 0.211458 0.113357
O O6 0.775563 0.380050 0.054161
O O7 0.522508 0.215609 0.054338
O O8 0.799841 0.200407 0.000000
O O9 0.717130 0.594615 0.795422
O O10 0.690953 0.396797 0.841792
O O11 0.766237 0.571689 0.895678
O O12 0.000000 0.500000 0.835213
O O13 0.728498 0.757744 0.279633
O O14 0.000000 0.649797 0.250000
O O15 0.500000 0.500000 0.053061
O O16 0.771451 0.563225 0.000000
O O17 0.282617 0.882871 0.500000
O O18 0.500000 0.000000 0.554807
#
# Coordination Sequence:
#
# PCOD9394062 Si02
#       8
#     8   2   8   8   8   8   8   8
#     4  11  23  39  62  87 119 158 201 254 295 365
#     4  12  20  40  60  86 120 152 202 250 288 346
#     4   8  16  30  51  77 109 140 180 233 285 343
#     4  11  23  36  57  81 119 160 196 246 295 358
#     4  12  24  39  57  82 120 160 194 244 303 353
#     4  10  20  37  58  83 110 152 197 240 292 350
#     4   9  19  35  55  82 114 151 196 245 290 347
#     4   9  17  31  56  89 118 146 187 247 314 355
#
# _framework density 24.661992000000001
#
# number of rings (size 3 to 8) (size 9 to 14) (size 15 to 20)
#    0.000    1.931    3.448    0.414    5.793    0.276 
#    0.000    1.724    0.000    0.828    0.000    0.000 
#    0.000    7.172    0.000    0.000    0.000    0.000 
#
# Total GULP energy -322973.857970 kJ/mol
# GULP energy per Si atom -5568.514793 kJ/mol
# Density = 2.460586 g / cm^3
# Si number density = 24.661992 Si / 1000 Ang^3
#
#
#
# Elastic Constant Matrix: (Units=GPa)
#
#
# Indices 1 2 3 4 5 6 
#
# 1 23.2092 -9.6063 16.8326 0.0000 0.0000 0.0000
# 2 -9.6063 27.0812 28.3038 0.0000 0.0000 0.0000
# 3 16.8326 28.3038 280.9256 0.0000 0.0000 0.0000
# 4 0.0000 0.0000 0.0000 53.1803 0.0000 0.0000
# 5 0.0000 0.0000 0.0000 0.0000 6.8424 0.0000
# 6 0.0000 0.0000 0.0000 0.0000 0.0000 10.9150
#
#
#
# Elastic Compliance Matrix: (Units=1/GPa)
#
#
# Indices 1 2 3 4 5 6 
#
# 1 0.059072 0.027555 -0.006316 0.000000 0.000000 0.000000
# 2 0.027555 0.054125 -0.007104 0.000000 0.000000 0.000000
# 3 -0.006316 -0.007104 0.004654 0.000000 0.000000 0.000000
# 4 0.000000 0.000000 0.000000 0.018804 0.000000 0.000000
# 5 0.000000 0.000000 0.000000 0.000000 0.146148 0.000000
# 6 0.000000 0.000000 0.000000 0.000000 0.000000 0.091617
#
#
# Mechanical properties :
#
#
# Convention : Reuss Voigt Hill
#
# Bulk Modulus (GPa) = 6.84365 44.69736 25.77050
# Shear Modulus (GPa) = 12.66281 33.89994 23.28137
#
# Velocity S-wave (km/s) = 2.26841 3.71156 3.07582
# Velocity P-wave (km/s) = 3.10515 6.04408 4.80483
#
# Compressibility (1/GPa) = 0.14612089
#
# Stress axis : x y z
#
# Youngs Moduli (GPa) = 16.92852 18.47566 214.87558
#
# Poissons Ratio (x) = -0.50910 1.35709
# Poissons Ratio (y) = -0.46646 1.52653
# Poissons Ratio (z) = 0.10692 0.13126
#
# Static dielectric constant tensor:
#      x y z
#    x 1.866490 0.000000 0.000000 
#    y 0.000000 2.013230 0.000000 
#    z 0.000000 0.000000 2.212040 
# 
# From -- ./inp_files/24571.got.cif
#   From: 2010.05.17/outbox.cif.g08.bks.cpg/sg49_13_cif.got.tgz:24571.got - 2010.06.03 21:02:19.
