data_PCOD9394750
_publ_section_title
;
Structure prediction by ZEFSAII (Michael W. Deem and Ramdas Pophale) SiO2 
 PCOD9394750
Probable space group: P C C M
;
_chemical_formula_sum "Si O2"
_cell_formula_units_Z 32
_cell_length_a 9.279725
_cell_length_b 15.228820
_cell_length_c 10.528481
_cell_angle_alpha 90.000000
_cell_angle_beta 90.000000
_cell_angle_gamma 90.000000
_cell_volume 1487.877161
_symmetry_space_group_name_H-M "P C C M"
_symmetry_group_IT_number 49
_symmetry_cell_setting 'orthorhombic'
loop_
_space_group_symop_operation_xyz
x,y,z
-x,-y,z
x,-y,1/2-z
-x,y,1/2-z
-x,-y,-z
x,y,-z
-x,y,1/2+z
x,-y,1/2+z
loop_
_atom_site_type_symbol
_atom_site_label
_atom_site_fract_x
_atom_site_fract_y
_atom_site_fract_z
Si Si1 0.333820 0.832988 0.259478
Si Si2 0.071014 0.596002 0.367098
Si Si3 0.167234 0.879565 0.000000
Si Si4 0.610212 0.634457 0.146313
Si Si5 0.166532 0.908806 0.500000
O O1 0.500000 0.865662 0.250000
O O2 0.348741 0.731968 0.305291
O O3 0.248372 0.879609 0.372566
O O4 0.249538 0.844175 0.126068
O O5 0.044709 0.642871 0.500000
O O6 0.240019 0.583369 0.352671
O O7 0.000000 0.500000 0.373294
O O8 0.000000 0.644766 0.250000
O O9 0.993957 0.866677 0.000000
O O10 0.171369 0.985704 0.000000
O O11 0.500000 0.599778 0.250000
O O12 0.556238 0.636986 0.000000
#
# Coordination Sequence:
#
# PCOD9394750 Si02
#       5
#     8   8   4   8   4
#     4  11  23  40  62  91 125 167 218 271 319 387
#     4   9  19  38  62  91 125 158 201 250 302 369
#     4  11  25  39  63  89 124 174 213 268 337 375
#     4  10  22  40  63  92 125 165 208 260 316 373
#     4  11  23  43  59  89 130 164 219 270 323 397
#
# _framework density 21.507149999999999
#
# number of rings (size 3 to 8) (size 9 to 14) (size 15 to 20)
#    0.000    1.750    1.250    2.250    5.250    8.000 
#    0.000    2.500    0.000   13.500    0.000    0.000 
#    0.000    0.000    0.000    0.000    0.000    0.000 
#
# Total GULP energy -178652.345476 kJ/mol
# GULP energy per Si atom -5582.885796 kJ/mol
# Density = 2.145820 g / cm^3
# Si number density = 21.507150 Si / 1000 Ang^3
#
#
#
# Elastic Constant Matrix: (Units=GPa)
#
#
# Indices 1 2 3 4 5 6 
#
# 1 172.5223 28.1793 117.1934 0.0000 0.0000 0.0000
# 2 28.1793 62.8059 24.3946 0.0000 0.0000 0.0000
# 3 117.1934 24.3946 265.3341 0.0000 0.0000 0.0000
# 4 0.0000 0.0000 0.0000 71.7055 0.0000 0.0000
# 5 0.0000 0.0000 0.0000 0.0000 41.7192 0.0000
# 6 0.0000 0.0000 0.0000 0.0000 0.0000 36.2622
#
#
#
# Elastic Compliance Matrix: (Units=1/GPa)
#
#
# Indices 1 2 3 4 5 6 
#
# 1 0.008639 -0.002483 -0.003587 0.000000 0.000000 0.000000
# 2 -0.002483 0.017225 -0.000487 0.000000 0.000000 0.000000
# 3 -0.003587 -0.000487 0.005398 0.000000 0.000000 0.000000
# 4 0.000000 0.000000 0.000000 0.013946 0.000000 0.000000
# 5 0.000000 0.000000 0.000000 0.000000 0.023970 0.000000
# 6 0.000000 0.000000 0.000000 0.000000 0.000000 0.027577
#
#
# Mechanical properties :
#
#
# Convention : Reuss Voigt Hill
#
# Bulk Modulus (GPa) = 55.10306 93.35520 74.22913
# Shear Modulus (GPa) = 43.13398 51.99707 47.56552
#
# Velocity S-wave (km/s) = 4.48321 4.92231 4.70788
# Velocity P-wave (km/s) = 7.24399 8.70668 8.00880
#
# Compressibility (1/GPa) = 0.01814781
#
# Stress axis : x y z
#
# Youngs Moduli (GPa) = 115.75834 58.05468 185.25133
#
# Poissons Ratio (x) = 0.14413 0.66455
# Poissons Ratio (y) = 0.28738 0.09024
# Poissons Ratio (z) = 0.41526 0.02828
#
# Static dielectric constant tensor:
#      x y z
#    x 1.809020 0.000000 0.000000 
#    y 0.000000 1.786350 0.000000 
#    z 0.000000 0.000000 1.821680 
# 
# From -- ./inp_files/8097.got.cif
#   From: 2010.05.17/outbox.cif.g08.bks.cpg/sg49_5_cif.got.tgz:8097.got - 2010.06.03 21:02:19.
