data_PCOD9394748
_publ_section_title
;
Structure prediction by ZEFSAII (Michael W. Deem and Ramdas Pophale) SiO2 
 PCOD9394748
Probable space group: P C C M
;
_chemical_formula_sum "Si O2"
_cell_formula_units_Z 64
_cell_length_a 14.327159
_cell_length_b 11.743528
_cell_length_c 18.390757
_cell_angle_alpha 90.000000
_cell_angle_beta 90.000000
_cell_angle_gamma 90.000000
_cell_volume 3094.270481
_symmetry_space_group_name_H-M "P C C M"
_symmetry_group_IT_number 49
_symmetry_cell_setting 'orthorhombic'
loop_
_space_group_symop_operation_xyz
x,y,z
-x,-y,z
x,-y,1/2-z
-x,y,1/2-z
-x,-y,-z
x,y,-z
-x,y,1/2+z
x,-y,1/2+z
loop_
_atom_site_type_symbol
_atom_site_label
_atom_site_fract_x
_atom_site_fract_y
_atom_site_fract_z
Si Si1 0.090607 0.234358 0.283178
Si Si2 0.243004 0.154836 0.917127
Si Si3 0.829453 0.377842 0.658288
Si Si4 0.562859 0.727876 0.920275
Si Si5 0.164204 0.376778 0.413577
Si Si6 0.751272 0.052491 0.180160
Si Si7 0.642950 0.252540 0.126661
Si Si8 0.626737 0.620817 0.224201
O O1 0.103204 0.332424 0.221510
O O2 0.099728 0.296386 0.361871
O O3 0.172637 0.140853 0.288430
O O4 0.000000 0.173761 0.250000
O O5 0.192252 0.272224 0.895200
O O6 0.355559 0.177061 0.909692
O O7 0.211197 0.052965 0.865754
O O8 0.223649 0.126976 0.000000
O O9 0.849232 0.494324 0.615920
O O10 0.734198 0.391884 0.702876
O O11 0.453165 0.753796 0.917091
O O12 0.577336 0.650250 0.850588
O O13 0.584235 0.677023 0.000000
O O14 0.145320 0.368627 0.500000
O O15 0.272809 0.336090 0.400031
O O16 0.686163 0.127504 0.129421
O O17 0.700009 0.000000 0.250000
O O18 0.620392 0.289981 0.210002
O O19 0.594440 0.500000 0.250000
#
# Coordination Sequence:
#
# PCOD9394748 Si02
#       8
#     8   8   8   8   8   8   8   8
#     4  11  24  43  71  98 129 164 210 266 329 405
#     4  10  22  40  63  90 126 172 221 270 321 377
#     4  11  19  42  65  92 127 175 219 256 319 398
#     4  10  23  39  56  88 130 173 220 273 329 377
#     4  11  23  40  67 100 135 171 212 266 329 391
#     4  11  21  41  67  91 119 162 217 263 321 394
#     4  11  22  38  62  92 128 170 221 272 321 382
#     4  11  19  38  58  85 124 172 220 265 318 388
#
# _framework density 20.683389999999999
#
# number of rings (size 3 to 8) (size 9 to 14) (size 15 to 20)
#    0.000    1.250    5.000    2.250    0.000    5.750 
#    0.000    4.375    0.000    0.750    0.000    0.000 
#    0.000    0.000    0.000    0.000    0.000    0.000 
#
# Total GULP energy -356823.127371 kJ/mol
# GULP energy per Si atom -5575.361365 kJ/mol
# Density = 2.063631 g / cm^3
# Si number density = 20.683390 Si / 1000 Ang^3
#
#
#
# Elastic Constant Matrix: (Units=GPa)
#
#
# Indices 1 2 3 4 5 6 
#
# 1 46.0553 -8.9483 14.7319 0.0000 0.0000 0.0000
# 2 -8.9483 94.8570 37.5607 0.0000 0.0000 0.0000
# 3 14.7319 37.5607 146.3683 0.0000 0.0000 0.0000
# 4 0.0000 0.0000 0.0000 14.5922 0.0000 0.0000
# 5 0.0000 0.0000 0.0000 0.0000 21.6917 0.0000
# 6 0.0000 0.0000 0.0000 0.0000 0.0000 4.5647
#
#
#
# Elastic Compliance Matrix: (Units=1/GPa)
#
#
# Indices 1 2 3 4 5 6 
#
# 1 0.023435 0.003500 -0.003257 0.000000 0.000000 0.000000
# 2 0.003500 0.012257 -0.003498 0.000000 0.000000 0.000000
# 3 -0.003257 -0.003498 0.008057 0.000000 0.000000 0.000000
# 4 0.000000 0.000000 0.000000 0.068530 0.000000 0.000000
# 5 0.000000 0.000000 0.000000 0.000000 0.046101 0.000000
# 6 0.000000 0.000000 0.000000 0.000000 0.000000 0.219071
#
#
# Mechanical properties :
#
#
# Convention : Reuss Voigt Hill
#
# Bulk Modulus (GPa) = 26.85204 41.55214 34.20209
# Shear Modulus (GPa) = 12.61435 24.43215 18.52325
#
# Velocity S-wave (km/s) = 2.47225 3.44065 2.99584
# Velocity P-wave (km/s) = 4.60000 5.99311 5.34216
#
# Compressibility (1/GPa) = 0.03724112
#
# Stress axis : x y z
#
# Youngs Moduli (GPa) = 42.67132 81.58329 124.10823
#
# Poissons Ratio (x) = -0.28557 0.40422
# Poissons Ratio (y) = -0.14937 0.43410
# Poissons Ratio (z) = 0.13898 0.28536
#
# Static dielectric constant tensor:
#      x y z
#    x 2.009750 0.000000 0.000000 
#    y 0.000000 1.724700 0.000000 
#    z 0.000000 0.000000 1.732720 
# 
# From -- ./inp_files/17958.got.cif
#   From: 2010.05.17/outbox.cif.g08.bks.cpg/sg49_9_cif.got.tgz:17958.got - 2010.06.03 21:02:19.
