data_PCOD9394754
_publ_section_title
;
Structure prediction by ZEFSAII (Michael W. Deem and Ramdas Pophale) SiO2 
 PCOD9394754
Probable space group: P C C M
;
_chemical_formula_sum "Si O2"
_cell_formula_units_Z 34
_cell_length_a 11.194472
_cell_length_b 9.103088
_cell_length_c 14.561059
_cell_angle_alpha 90.000000
_cell_angle_beta 90.000000
_cell_angle_gamma 90.000000
_cell_volume 1483.833997
_symmetry_space_group_name_H-M "P C C M"
_symmetry_group_IT_number 49
_symmetry_cell_setting 'orthorhombic'
loop_
_space_group_symop_operation_xyz
x,y,z
-x,-y,z
x,-y,1/2-z
-x,y,1/2-z
-x,-y,-z
x,y,-z
-x,y,1/2+z
x,-y,1/2+z
loop_
_atom_site_type_symbol
_atom_site_label
_atom_site_fract_x
_atom_site_fract_y
_atom_site_fract_z
Si Si1 0.618147 0.920003 0.848577
Si Si2 0.000000 0.500000 0.750000
Si Si3 0.863476 0.970884 0.359493
Si Si4 0.168414 0.365257 0.605654
Si Si5 0.382976 0.592620 0.608889
O O1 0.605895 0.745574 0.838470
O O2 0.500000 0.000000 0.891387
O O3 0.626644 0.000000 0.750000
O O4 0.750330 0.933757 0.893024
O O5 0.927806 0.601754 0.682098
O O6 0.814753 0.808405 0.383068
O O7 0.872146 0.000000 0.250000
O O8 0.000000 0.000000 0.393943
O O9 0.131868 0.391634 0.500000
O O10 0.274180 0.480690 0.626052
O O11 0.500000 0.500000 0.627211
O O12 0.380005 0.630269 0.500000
#
# Coordination Sequence:
#
# PCOD9394754 Si02
#       5
#     8   2   8   8   8
#     4  10  22  40  64  99 137 180 237 289 356 431
#     4  12  26  44  72  98 140 192 232 302 348 418
#     4  10  22  41  65  98 141 185 231 288 358 420
#     4  11  26  45  71 105 142 190 244 294 359 433
#     4  10  23  45  71 101 140 183 234 298 361 428
#
# _framework density 22.913615
#
# number of rings (size 3 to 8) (size 9 to 14) (size 15 to 20)
#    0.000    1.647    0.000    3.176    9.882    1.882 
#    0.000    0.000    0.000    0.000    0.000    0.000 
#    0.000    0.000    0.000    0.000    0.000    0.000 
#
# Total GULP energy -189686.416666 kJ/mol
# GULP energy per Si atom -5579.012255 kJ/mol
# Density = 2.286146 g / cm^3
# Si number density = 22.913615 Si / 1000 Ang^3
#
#
#
# Elastic Constant Matrix: (Units=GPa)
#
#
# Indices 1 2 3 4 5 6 
#
# 1 165.7987 48.2120 36.9587 0.0000 0.0000 0.0000
# 2 48.2120 171.7872 38.6475 0.0000 0.0000 0.0000
# 3 36.9587 38.6475 121.6344 0.0000 0.0000 0.0000
# 4 0.0000 0.0000 0.0000 25.6377 0.0000 0.0000
# 5 0.0000 0.0000 0.0000 0.0000 32.6433 0.0000
# 6 0.0000 0.0000 0.0000 0.0000 0.0000 10.8820
#
#
#
# Elastic Compliance Matrix: (Units=1/GPa)
#
#
# Indices 1 2 3 4 5 6 
#
# 1 0.006839 -0.001564 -0.001581 0.000000 0.000000 0.000000
# 2 -0.001564 0.006627 -0.001630 0.000000 0.000000 0.000000
# 3 -0.001581 -0.001630 0.009220 0.000000 0.000000 0.000000
# 4 0.000000 0.000000 0.000000 0.039005 0.000000 0.000000
# 5 0.000000 0.000000 0.000000 0.000000 0.030634 0.000000
# 6 0.000000 0.000000 0.000000 0.000000 0.000000 0.091895
#
#
# Mechanical properties :
#
#
# Convention : Reuss Voigt Hill
#
# Bulk Modulus (GPa) = 76.13296 78.53964 77.33630
# Shear Modulus (GPa) = 25.23372 36.19276 30.71324
#
# Velocity S-wave (km/s) = 3.32212 3.97864 3.66511
# Velocity P-wave (km/s) = 6.92918 7.44694 7.19272
#
# Compressibility (1/GPa) = 0.01313492
#
# Stress axis : x y z
#
# Youngs Moduli (GPa) = 146.23075 150.90314 108.46179
#
# Poissons Ratio (x) = 0.23594 0.17149
# Poissons Ratio (y) = 0.22863 0.17684
# Poissons Ratio (z) = 0.23121 0.24604
#
# Static dielectric constant tensor:
#      x y z
#    x 1.780600 0.000000 0.000000 
#    y 0.000000 -5.836700 0.000000 
#    z 0.000000 0.000000 1.850180 
# 
# From -- ./inp_files/12446.got.cif
#   From: 2010.05.17/outbox.cif.g08.bks.cpg/sg49_7_cif.got.tgz:12446.got - 2010.06.03 21:02:19.
