data_PCOD9394768
_publ_section_title
;
Structure prediction by ZEFSAII (Michael W. Deem and Ramdas Pophale) SiO2 
 PCOD9394768
Probable space group: P C C M
;
_chemical_formula_sum "Si O2"
_cell_formula_units_Z 56
_cell_length_a 9.604153
_cell_length_b 15.748651
_cell_length_c 19.408553
_cell_angle_alpha 90.000000
_cell_angle_beta 90.000000
_cell_angle_gamma 90.000000
_cell_volume 2935.591265
_symmetry_space_group_name_H-M "P C C M"
_symmetry_group_IT_number 49
_symmetry_cell_setting 'orthorhombic'
loop_
_space_group_symop_operation_xyz
x,y,z
-x,-y,z
x,-y,1/2-z
-x,y,1/2-z
-x,-y,-z
x,y,-z
-x,y,1/2+z
x,-y,1/2+z
loop_
_atom_site_type_symbol
_atom_site_label
_atom_site_fract_x
_atom_site_fract_y
_atom_site_fract_z
Si Si1 0.627163 0.435930 0.575344
Si Si2 0.775728 0.861331 0.920753
Si Si3 0.869460 0.451166 0.321840
Si Si4 0.163616 0.017789 0.331196
Si Si5 0.876726 0.750529 0.800792
Si Si6 0.640475 0.172985 0.793109
Si Si7 0.499299 0.749989 0.923047
O O1 0.500000 0.500000 0.575657
O O2 0.695772 0.438052 0.500000
O O3 0.734649 0.460440 0.632802
O O4 0.568710 0.341823 0.585357
O O5 0.873044 0.801090 0.872966
O O6 0.625690 0.816790 0.922717
O O7 0.761999 0.949276 0.879804
O O8 0.824129 0.871013 0.000000
O O9 0.849594 0.500000 0.250000
O O10 0.892416 0.350343 0.311670
O O11 0.000000 0.500000 0.354910
O O12 0.257185 0.103286 0.329085
O O13 0.165861 0.000000 0.250000
O O14 0.000000 0.000000 0.350747
O O15 0.734116 0.775319 0.761754
O O16 0.000000 0.780419 0.750000
O O17 0.500000 0.143682 0.750000
O O18 0.593294 0.230662 0.857014
O O19 0.433231 0.752902 0.000000
#
# Coordination Sequence:
#
# PCOD9394768 Si02
#       7
#     8   8   8   8   8   8   8
#     4  10  22  41  64  90 132 176 215 273 339 399
#     4  11  23  42  67  95 130 175 220 266 333 400
#     4  11  23  40  61  99 132 165 221 279 324 393
#     4  11  23  42  64  95 134 173 217 274 335 392
#     4  12  23  43  67  93 137 176 215 272 336 397
#     4  12  23  40  70  99 125 174 229 271 331 408
#     4  10  22  41  63  95 130 167 220 276 335 395
#
# _framework density 19.076224
#
# number of rings (size 3 to 8) (size 9 to 14) (size 15 to 20)
#    0.000    1.000    5.714    0.857    2.000    3.429 
#    0.000    3.571    0.000    0.000    0.000    0.000 
#    0.000    0.000    0.000    0.000    0.000    0.000 
#
# Total GULP energy -312173.278393 kJ/mol
# GULP energy per Si atom -5574.522828 kJ/mol
# Density = 1.903281 g / cm^3
# Si number density = 19.076224 Si / 1000 Ang^3
#
#
#
# Elastic Constant Matrix: (Units=GPa)
#
#
# Indices 1 2 3 4 5 6 
#
# 1 75.0286 22.8846 37.0221 0.0000 0.0000 0.0000
# 2 22.8846 93.2231 41.6025 0.0000 0.0000 0.0000
# 3 37.0221 41.6025 124.8399 0.0000 0.0000 0.0000
# 4 0.0000 0.0000 0.0000 31.7532 0.0000 0.0000
# 5 0.0000 0.0000 0.0000 0.0000 43.6769 0.0000
# 6 0.0000 0.0000 0.0000 0.0000 0.0000 24.2593
#
#
#
# Elastic Compliance Matrix: (Units=1/GPa)
#
#
# Indices 1 2 3 4 5 6 
#
# 1 0.015962 -0.002121 -0.004027 0.000000 0.000000 0.000000
# 2 -0.002121 0.012883 -0.003664 0.000000 0.000000 0.000000
# 3 -0.004027 -0.003664 0.010425 0.000000 0.000000 0.000000
# 4 0.000000 0.000000 0.000000 0.031493 0.000000 0.000000
# 5 0.000000 0.000000 0.000000 0.000000 0.022895 0.000000
# 6 0.000000 0.000000 0.000000 0.000000 0.000000 0.041221
#
#
# Mechanical properties :
#
#
# Convention : Reuss Voigt Hill
#
# Bulk Modulus (GPa) = 50.90063 55.12332 53.01198
# Shear Modulus (GPa) = 31.04559 32.71004 31.87782
#
# Velocity S-wave (km/s) = 4.03854 4.14539 4.09231
# Velocity P-wave (km/s) = 6.96327 7.20218 7.08373
#
# Compressibility (1/GPa) = 0.01964612
#
# Stress axis : x y z
#
# Youngs Moduli (GPa) = 62.64770 77.62237 95.91909
#
# Poissons Ratio (x) = 0.16467 0.38624
# Poissons Ratio (y) = 0.13290 0.35145
# Poissons Ratio (z) = 0.25227 0.28441
#
# Static dielectric constant tensor:
#      x y z
#    x 1.687930 0.000000 0.000000 
#    y 0.000000 1.681780 0.000000 
#    z 0.000000 0.000000 1.583930 
# 
# From -- ./inp_files/19853.got.cif
#   From: 2010.05.17/outbox.cif.g08.bks.cpg/sg49_10_cif.got.tgz:19853.got - 2010.06.03 21:02:19.
