data_PCOD9394365
_publ_section_title
;
Structure prediction by ZEFSAII (Michael W. Deem and Ramdas Pophale) SiO2 
 PCOD9394365
Probable space group: P C C M
;
_chemical_formula_sum "Si O2"
_cell_formula_units_Z 64
_cell_length_a 12.483551
_cell_length_b 9.280080
_cell_length_c 29.568798
_cell_angle_alpha 90.000000
_cell_angle_beta 90.000000
_cell_angle_gamma 90.000000
_cell_volume 3425.496518
_symmetry_space_group_name_H-M "P C C M"
_symmetry_group_IT_number 49
_symmetry_cell_setting 'orthorhombic'
loop_
_space_group_symop_operation_xyz
x,y,z
-x,-y,z
x,-y,1/2-z
-x,y,1/2-z
-x,-y,-z
x,y,-z
-x,y,1/2+z
x,-y,1/2+z
loop_
_atom_site_type_symbol
_atom_site_label
_atom_site_fract_x
_atom_site_fract_y
_atom_site_fract_z
Si Si1 0.316012 0.489772 0.300939
Si Si2 0.913574 0.129997 0.086775
Si Si3 0.917549 0.651210 0.049528
Si Si4 0.404022 0.616793 0.948004
Si Si5 0.809729 0.420387 0.888665
Si Si6 0.461243 0.148532 0.895988
Si Si7 0.255032 0.098610 0.050866
Si Si8 0.496583 0.738526 0.300618
O O1 0.270929 0.500000 0.250000
O O2 0.230244 0.482359 0.340696
O O3 0.399945 0.622147 0.304049
O O4 0.392834 0.350077 0.305942
O O5 0.856732 0.256543 0.117296
O O6 0.981458 0.240793 0.055706
O O7 0.816533 0.040217 0.064330
O O8 0.000000 0.000000 0.101335
O O9 0.891576 0.531148 0.087131
O O10 0.822570 0.765620 0.049768
O O11 0.914889 0.583004 0.000000
O O12 0.500000 0.500000 0.949377
O O13 0.294860 0.579309 0.921627
O O14 0.462040 0.737204 0.918787
O O15 0.379174 0.655266 0.000000
O O16 0.339926 0.148610 0.911914
O O17 0.477160 0.158887 0.842526
O O18 0.500000 0.000000 0.915259
O O19 0.300472 0.078491 0.000000
O O20 0.500000 0.800662 0.250000
#
# Coordination Sequence:
#
# PCOD9394365 Si02
#       8
#     8   8   8   8   8   8   8   8
#     4   9  18  34  60  88 111 144 188 238 291 344
#     4  10  23  40  56  79 113 155 198 250 295 341
#     4  10  21  37  58  83 110 145 198 255 300 340
#     4  11  23  37  55  84 125 164 195 232 284 353
#     4  12  21  34  61  88 116 148 194 245 294 356
#     4  12  23  33  51  82 121 160 194 233 281 349
#     4  10  21  37  54  76 113 163 204 235 284 346
#     4   9  18  35  56  81 117 152 187 238 289 337
#
# _framework density 18.683422
#
# number of rings (size 3 to 8) (size 9 to 14) (size 15 to 20)
#    0.000    1.625    1.250    5.250    0.000    8.250 
#    0.000    0.000    0.000    1.500    0.000    6.125 
#    0.000    0.000    0.000    0.000    0.000    0.000 
#
# Total GULP energy -356309.779848 kJ/mol
# GULP energy per Si atom -5567.340310 kJ/mol
# Density = 1.864090 g / cm^3
# Si number density = 18.683422 Si / 1000 Ang^3
#
#
#
# Elastic Constant Matrix: (Units=GPa)
#
#
# Indices 1 2 3 4 5 6 
#
# 1 79.6611 16.1504 51.1025 0.0000 0.0000 0.0000
# 2 16.1504 68.7996 37.0728 0.0000 0.0000 0.0000
# 3 51.1025 37.0728 134.7507 0.0000 0.0000 0.0000
# 4 0.0000 0.0000 0.0000 23.6707 0.0000 0.0000
# 5 0.0000 0.0000 0.0000 0.0000 148.5711 0.0000
# 6 0.0000 0.0000 0.0000 0.0000 0.0000 2.9791
#
#
#
# Elastic Compliance Matrix: (Units=1/GPa)
#
#
# Indices 1 2 3 4 5 6 
#
# 1 0.016610 -0.000593 -0.006136 0.000000 0.000000 0.000000
# 2 -0.000593 0.017086 -0.004476 0.000000 0.000000 0.000000
# 3 -0.006136 -0.004476 0.010980 0.000000 0.000000 0.000000
# 4 0.000000 0.000000 0.000000 0.042246 0.000000 0.000000
# 5 0.000000 0.000000 0.000000 0.000000 0.006731 0.000000
# 6 0.000000 0.000000 0.000000 0.000000 0.000000 0.335675
#
#
# Mechanical properties :
#
#
# Convention : Reuss Voigt Hill
#
# Bulk Modulus (GPa) = 44.91164 54.65144 49.78154
# Shear Modulus (GPa) = 10.88949 46.96988 28.92969
#
# Velocity S-wave (km/s) = 2.41683 5.01941 3.93926
# Velocity P-wave (km/s) = 5.64611 7.93142 6.88425
#
# Compressibility (1/GPa) = 0.02226594
#
# Stress axis : x y z
#
# Youngs Moduli (GPa) = 60.20649 58.52753 91.07878
#
# Poissons Ratio (x) = 0.03469 0.55885
# Poissons Ratio (y) = 0.03568 0.40766
# Poissons Ratio (z) = 0.36942 0.26197
#
# Static dielectric constant tensor:
#      x y z
#    x 1.759300 0.000000 0.000000 
#    y 0.000000 1.679770 0.000000 
#    z 0.000000 0.000000 1.646650 
# 
# From -- ./inp_files/26663.got.cif
#   From: 2010.05.17/outbox.cif.g08.bks.cpg/sg49_14_cif.got.tgz:26663.got - 2010.06.03 21:02:19.
