data_PCOD9394466
_publ_section_title
;
Structure prediction by ZEFSAII (Michael W. Deem and Ramdas Pophale) SiO2 
 PCOD9394466
Probable space group: P C C M
;
_chemical_formula_sum "Si O2"
_cell_formula_units_Z 42
_cell_length_a 13.096098
_cell_length_b 11.775452
_cell_length_c 14.350007
_cell_angle_alpha 90.000000
_cell_angle_beta 90.000000
_cell_angle_gamma 90.000000
_cell_volume 2212.950073
_symmetry_space_group_name_H-M "P C C M"
_symmetry_group_IT_number 49
_symmetry_cell_setting 'orthorhombic'
loop_
_space_group_symop_operation_xyz
x,y,z
-x,-y,z
x,-y,1/2-z
-x,y,1/2-z
-x,-y,-z
x,y,-z
-x,y,1/2+z
x,-y,1/2+z
loop_
_atom_site_type_symbol
_atom_site_label
_atom_site_fract_x
_atom_site_fract_y
_atom_site_fract_z
Si Si1 0.765623 0.921451 0.388210
Si Si2 0.795823 0.179012 0.392843
Si Si3 0.390143 0.326442 0.113662
Si Si4 0.014146 0.872048 0.859308
Si Si5 0.500000 0.500000 0.750000
Si Si6 0.543933 0.121156 0.112717
O O1 0.757530 0.931113 0.500000
O O2 0.867066 0.847030 0.373456
O O3 0.660082 0.869328 0.352765
O O4 0.780091 0.051627 0.351484
O O5 0.762743 0.167827 0.500000
O O6 0.721443 0.277404 0.357992
O O7 0.917460 0.200451 0.392199
O O8 0.428901 0.426803 0.179828
O O9 0.468512 0.223196 0.133967
O O10 0.392975 0.351258 0.000000
O O11 0.000000 0.878096 0.750000
O O12 0.000000 0.000000 0.898769
O O13 0.500000 0.000000 0.143144
O O14 0.547180 0.117878 0.000000
#
# Coordination Sequence:
#
# PCOD9394466 Si02
#       6
#     8   8   8   8   2   8
#     4   9  15  25  46  75 107 138 169 203 255 336
#     4   9  16  29  50  73 101 140 178 211 261 327
#     4  10  21  38  58  79 107 143 184 236 286 331
#     4   9  17  26  38  65 107 147 171 202 247 309
#     4  12  26  40  54  78 106 144 206 250 284 328
#     4   9  15  28  52  81 109 139 171 213 278 345
#
# _framework density 18.979189999999999
#
# number of rings (size 3 to 8) (size 9 to 14) (size 15 to 20)
#    0.000    2.667    1.905    0.857    0.000    3.810 
#    0.000    0.476    0.000    0.000    0.000    6.000 
#    0.000   16.762    0.000    0.000    0.000    0.000 
#
# Total GULP energy -233894.064651 kJ/mol
# GULP energy per Si atom -5568.906301 kJ/mol
# Density = 1.893599 g / cm^3
# Si number density = 18.979190 Si / 1000 Ang^3
#
#
#
# Elastic Constant Matrix: (Units=GPa)
#
#
# Indices 1 2 3 4 5 6 
#
# 1 183.3381 55.5186 17.8873 0.0000 0.0000 0.0000
# 2 55.5186 72.1194 30.7052 0.0000 0.0000 0.0000
# 3 17.8873 30.7052 74.8894 0.0000 0.0000 0.0000
# 4 0.0000 0.0000 0.0000 17.7053 0.0000 0.0000
# 5 0.0000 0.0000 0.0000 0.0000 -15.7068 0.0000
# 6 0.0000 0.0000 0.0000 0.0000 0.0000 26.1101
#
#
#
# Elastic Compliance Matrix: (Units=1/GPa)
#
#
# Indices 1 2 3 4 5 6 
#
# 1 0.007140 -0.005779 0.000664 0.000000 0.000000 0.000000
# 2 -0.005779 0.021476 -0.007425 0.000000 0.000000 0.000000
# 3 0.000664 -0.007425 0.016239 0.000000 0.000000 0.000000
# 4 0.000000 0.000000 0.000000 0.056480 0.000000 0.000000
# 5 0.000000 0.000000 0.000000 0.000000 -0.063667 0.000000
# 6 0.000000 0.000000 0.000000 0.000000 0.000000 0.038299
#
#
# Mechanical properties :
#
#
# Convention : Reuss Voigt Hill
#
# Bulk Modulus (GPa) = 50.56997 59.84101 55.20549
# Shear Modulus (GPa) = 46.45204 20.70411 33.57808
#
# Velocity S-wave (km/s) = 4.95261 3.30644 4.21075
# Velocity P-wave (km/s) = 7.70761 6.79522 7.26575
#
# Compressibility (1/GPa) = 0.01977458
#
# Stress axis : x y z
#
# Youngs Moduli (GPa) = 140.06421 46.56409 61.58133
#
# Poissons Ratio (x) = 0.26909 -0.04090
# Poissons Ratio (y) = 0.80942 0.45724
# Poissons Ratio (z) = -0.09302 0.34574
#
# Static dielectric constant tensor:
#      x y z
#    x 1.736890 0.000000 0.000000 
#    y 0.000000 1.626540 0.000000 
#    z 0.000000 0.000000 1.739120 
# 
# From -- ./inp_files/16998.got.cif
#   From: 2010.05.17/outbox.cif.g08.bks.cpg/sg49_9_cif.got.tgz:16998.got - 2010.06.03 21:02:19.
