data_PCOD9394570
_publ_section_title
;
Structure prediction by ZEFSAII (Michael W. Deem and Ramdas Pophale) SiO2 
 PCOD9394570
Probable space group: P C C M
;
_chemical_formula_sum "Si O2"
_cell_formula_units_Z 64
_cell_length_a 25.113054
_cell_length_b 9.023591
_cell_length_c 14.804034
_cell_angle_alpha 90.000000
_cell_angle_beta 90.000000
_cell_angle_gamma 90.000000
_cell_volume 3354.741080
_symmetry_space_group_name_H-M "P C C M"
_symmetry_group_IT_number 49
_symmetry_cell_setting 'orthorhombic'
loop_
_space_group_symop_operation_xyz
x,y,z
-x,-y,z
x,-y,1/2-z
-x,y,1/2-z
-x,-y,-z
x,y,-z
-x,y,1/2+z
x,-y,1/2+z
loop_
_atom_site_type_symbol
_atom_site_label
_atom_site_fract_x
_atom_site_fract_y
_atom_site_fract_z
Si Si1 0.610549 0.675697 0.108125
Si Si2 0.891006 0.677248 0.105016
Si Si3 0.687529 0.177164 0.750000
Si Si4 0.610549 0.675697 0.608125
Si Si5 1.000000 0.170610 0.109998
Si Si6 0.500000 0.829432 0.609669
Si Si7 0.197144 0.678348 0.750000
Si Si8 0.108994 0.677248 0.105016
O O1 0.656305 0.757555 0.163563
O O2 0.611439 0.500000 0.126393
O O3 0.553662 0.744562 0.136100
O O4 0.616603 0.696307 0.000000
O O5 0.839818 0.715823 0.164160
O O6 0.898010 0.500000 0.110533
O O7 0.945476 0.751298 0.138694
O O8 0.883137 0.717271 0.000000
O O9 0.656305 0.242445 0.836437
O O10 0.747569 0.236789 0.750000
O O11 0.685636 0.000000 0.750000
O O12 0.616603 0.696307 0.500000
O O13 0.553662 0.744562 0.636100
O O14 0.945476 0.248702 0.138694
O O15 1.000000 0.178743 0.000000
O O16 0.000000 0.000000 0.136730
O O17 0.500000 0.831055 0.500000
O O18 0.500000 0.000000 0.640281
O O19 0.206614 0.500000 0.750000
O O20 0.160182 0.715823 0.835840
O O21 0.116863 0.717271 0.000000
#
# Coordination Sequence:
#
# PCOD9394570 Si02
#       8
#     8   8   8   8   8   8   8   8
#     4  10  21  39  63  88 116 152 193 236 282 336
#     4   9  18  34  56  79 105 139 177 220 271 325
#     4  12  26  41  58  83 116 152 193 240 289 342
#     4  10  21  39  63  88 116 152 193 236 282 336
#     4   9  17  30  51  80 111 139 170 213 267 328
#     4   9  17  32  57  90 124 151 181 228 287 346
#     4  10  22  39  56  77 105 140 189 236 272 324
#     4   9  18  34  56  79 105 139 177 220 271 325
#
# _framework density 19.077479
#
# number of rings (size 3 to 8) (size 9 to 14) (size 15 to 20)
#    0.000    2.250    0.000    2.625    0.000    7.500 
#    0.000    7.500    0.000    0.000    0.000    0.000 
#    0.000    0.000    0.000    0.000    0.000    0.000 
#
# Total GULP energy -357564.768515 kJ/mol
# GULP energy per Si atom -5586.949508 kJ/mol
# Density = 1.903406 g / cm^3
# Si number density = 19.077479 Si / 1000 Ang^3
#
#
#
# Elastic Constant Matrix: (Units=GPa)
#
#
# Indices 1 2 3 4 5 6 
#
# 1 215.2995 108.7732 77.8884 0.0000 0.0000 0.0000
# 2 108.7732 124.1596 60.4917 0.0000 0.0000 0.0000
# 3 77.8884 60.4917 96.9416 0.0000 0.0000 0.0000
# 4 0.0000 0.0000 0.0000 16.4693 0.0000 0.0000
# 5 0.0000 0.0000 0.0000 0.0000 27.6963 0.0000
# 6 0.0000 0.0000 0.0000 0.0000 0.0000 -84.0454
#
#
#
# Elastic Compliance Matrix: (Units=1/GPa)
#
#
# Indices 1 2 3 4 5 6 
#
# 1 0.009024 -0.006283 -0.003329 0.000000 0.000000 0.000000
# 2 -0.006283 0.015947 -0.004903 0.000000 0.000000 0.000000
# 3 -0.003329 -0.004903 0.016050 0.000000 0.000000 0.000000
# 4 0.000000 0.000000 0.000000 0.060719 0.000000 0.000000
# 5 0.000000 0.000000 0.000000 0.000000 0.036106 0.000000
# 6 0.000000 0.000000 0.000000 0.000000 0.000000 -0.011898
#
#
# Mechanical properties :
#
#
# Convention : Reuss Voigt Hill
#
# Bulk Modulus (GPa) = 83.40302 103.41192 93.40747
# Shear Modulus (GPa) = 31.45149 4.64053 18.04601
#
# Velocity S-wave (km/s) = 4.06472 1.56133 3.07894
# Velocity P-wave (km/s) = 8.11432 7.58777 7.85546
#
# Compressibility (1/GPa) = 0.01198997
#
# Stress axis : x y z
#
# Youngs Moduli (GPa) = 110.82155 62.70575 62.30589
#
# Poissons Ratio (x) = 0.39400 0.20743
# Poissons Ratio (y) = 0.69632 0.30548
# Poissons Ratio (z) = 0.36895 0.30744
#
# Static dielectric constant tensor:
#      x y z
#    x 1.613200 0.000000 0.000000 
#    y 0.000000 1.631470 0.000000 
#    z 0.000000 0.000000 1.703960 
# 
# From -- ./inp_files/14512.got.cif
#   From: 2010.05.17/outbox.cif.g08.bks.cpg/sg49_8_cif.got.tgz:14512.got - 2010.06.03 21:02:19.
