data_PCOD9394459
_publ_section_title
;
Structure prediction by ZEFSAII (Michael W. Deem and Ramdas Pophale) SiO2 
 PCOD9394459
Probable space group: P C C M
;
_chemical_formula_sum "Si O2"
_cell_formula_units_Z 64
_cell_length_a 15.752220
_cell_length_b 25.110126
_cell_length_c 8.797931
_cell_angle_alpha 90.000000
_cell_angle_beta 90.000000
_cell_angle_gamma 90.000000
_cell_volume 3479.935642
_symmetry_space_group_name_H-M "P C C M"
_symmetry_group_IT_number 49
_symmetry_cell_setting 'orthorhombic'
loop_
_space_group_symop_operation_xyz
x,y,z
-x,-y,z
x,-y,1/2-z
-x,y,1/2-z
-x,-y,-z
x,y,-z
-x,y,1/2+z
x,-y,1/2+z
loop_
_atom_site_type_symbol
_atom_site_label
_atom_site_fract_x
_atom_site_fract_y
_atom_site_fract_z
Si Si1 0.226188 0.139954 0.314835
Si Si2 0.906041 0.647508 0.683877
Si Si3 0.586514 0.858285 0.326559
Si Si4 0.587643 0.728445 0.673654
Si Si5 0.772478 0.441002 0.182913
Si Si6 0.093309 0.942586 0.682265
Si Si7 0.773503 0.736175 0.314759
Si Si8 0.414813 0.440076 0.318174
O O1 0.222645 0.136113 0.500000
O O2 0.321984 0.125417 0.263047
O O3 0.157857 0.102121 0.239158
O O4 0.213013 0.202128 0.274676
O O5 0.910907 0.647440 0.500000
O O6 0.848903 0.596980 0.731516
O O7 0.851024 0.698955 0.731473
O O8 0.000000 0.646783 0.750000
O O9 0.500000 0.876234 0.250000
O O10 0.584150 0.875764 0.500000
O O11 0.586783 0.793403 0.326738
O O12 0.500000 0.711443 0.750000
O O13 0.585934 0.709174 0.500000
O O14 0.680754 0.716240 0.740708
O O15 0.780218 0.500000 0.250000
O O16 0.678530 0.417849 0.220644
O O17 0.774574 0.444845 0.000000
O O18 0.089349 0.945152 0.500000
O O19 0.000000 0.931365 0.750000
O O20 0.119114 0.000000 0.750000
O O21 0.768001 0.734313 0.500000
O O22 0.412139 0.500000 0.250000
O O23 0.500000 0.414589 0.250000
O O24 0.422992 0.442462 0.500000
#
# Coordination Sequence:
#
# PCOD9394459 Si02
#       8
#     8   8   8   8   8   8   8   8
#     4   9  17  32  53  78 105 137 173 209 249 299
#     4  10  21  38  55  72  95 128 166 208 255 303
#     4   8  14  24  42  68 100 134 169 205 243 287
#     4   8  13  24  43  68  96 130 164 197 237 285
#     4   9  19  34  53  74  98 127 163 203 247 297
#     4  11  22  37  56  78 104 135 169 212 259 305
#     4   8  16  32  53  73 101 137 169 200 245 301
#     4   9  15  25  43  69  97 126 155 189 233 286
#
# _framework density 18.391144000000001
#
# number of rings (size 3 to 8) (size 9 to 14) (size 15 to 20)
#    0.000    3.000    0.000    3.750    0.000    2.250 
#    0.000    6.250    0.000    0.375    0.000    2.625 
#    0.000    0.000    0.000    0.000    0.000    0.000 
#
# Total GULP energy -356592.769022 kJ/mol
# GULP energy per Si atom -5571.762016 kJ/mol
# Density = 1.834929 g / cm^3
# Si number density = 18.391144 Si / 1000 Ang^3
#
#
#
# Elastic Constant Matrix: (Units=GPa)
#
#
# Indices 1 2 3 4 5 6 
#
# 1 204.1644 88.2564 52.7958 0.0000 0.0000 0.0000
# 2 88.2564 86.6300 31.5477 0.0000 0.0000 0.0000
# 3 52.7958 31.5477 47.3318 0.0000 0.0000 0.0000
# 4 0.0000 0.0000 0.0000 12.0519 0.0000 0.0000
# 5 0.0000 0.0000 0.0000 0.0000 33.7465 0.0000
# 6 0.0000 0.0000 0.0000 0.0000 0.0000 127.1123
#
#
#
# Elastic Compliance Matrix: (Units=1/GPa)
#
#
# Indices 1 2 3 4 5 6 
#
# 1 0.009771 -0.007904 -0.005631 0.000000 0.000000 0.000000
# 2 -0.007904 0.021637 -0.005605 0.000000 0.000000 0.000000
# 3 -0.005631 -0.005605 0.031144 0.000000 0.000000 0.000000
# 4 0.000000 0.000000 0.000000 0.082975 0.000000 0.000000
# 5 0.000000 0.000000 0.000000 0.000000 0.029633 0.000000
# 6 0.000000 0.000000 0.000000 0.000000 0.000000 0.007867
#
#
# Mechanical properties :
#
#
# Convention : Reuss Voigt Hill
#
# Bulk Modulus (GPa) = 41.19913 75.92510 58.56212
# Shear Modulus (GPa) = 21.79641 45.61721 33.70681
#
# Velocity S-wave (km/s) = 3.44635 4.98575 4.28574
# Velocity P-wave (km/s) = 6.18762 8.63231 7.51011
#
# Compressibility (1/GPa) = 0.02427236
#
# Stress axis : x y z
#
# Youngs Moduli (GPa) = 102.34731 46.21802 32.10875
#
# Poissons Ratio (x) = 0.36529 0.18079
# Poissons Ratio (y) = 0.80891 0.17998
# Poissons Ratio (z) = 0.57628 0.25906
#
# Static dielectric constant tensor:
#      x y z
#    x 1.655250 0.000000 0.000000 
#    y 0.000000 1.636980 0.000000 
#    z 0.000000 0.000000 1.632180 
# 
# From -- ./inp_files/4372.got.cif
#   From: 2010.05.17/outbox.cif.g08.bks.cpg/sg49_3_cif.got.tgz:4372.got - 2010.06.03 21:02:19.
