data_PCOD9394787
_publ_section_title
;
Structure prediction by ZEFSAII (Michael W. Deem and Ramdas Pophale) SiO2 
 PCOD9394787
Probable space group: P C C M
;
_chemical_formula_sum "Si O2"
_cell_formula_units_Z 38
_cell_length_a 22.567141
_cell_length_b 5.662514
_cell_length_c 14.658853
_cell_angle_alpha 90.000000
_cell_angle_beta 90.000000
_cell_angle_gamma 90.000000
_cell_volume 1873.207211
_symmetry_space_group_name_H-M "P C C M"
_symmetry_group_IT_number 49
_symmetry_cell_setting 'orthorhombic'
loop_
_space_group_symop_operation_xyz
x,y,z
-x,-y,z
x,-y,1/2-z
-x,y,1/2-z
-x,-y,-z
x,y,-z
-x,y,1/2+z
x,-y,1/2+z
loop_
_atom_site_type_symbol
_atom_site_label
_atom_site_fract_x
_atom_site_fract_y
_atom_site_fract_z
Si Si1 0.342166 0.011345 0.500000
Si Si2 0.500000 0.500000 0.750000
Si Si3 0.270414 0.481825 0.000000
Si Si4 0.943380 0.332996 0.101648
Si Si5 0.108944 0.000000 0.250000
Si Si6 0.827214 0.608913 0.150473
Si Si7 0.438049 0.103611 0.849905
O O1 0.305337 0.766923 0.500000
O O2 0.385172 0.976394 0.586669
O O3 0.306887 0.265816 0.500000
O O4 0.455858 0.368026 0.820810
O O5 0.227982 0.454877 0.087913
O O6 0.932625 0.163830 0.187659
O O7 0.884861 0.493830 0.104941
O O8 0.000000 0.500000 0.114042
O O9 0.947541 0.221090 0.000000
O O10 0.152143 0.873112 0.323633
O O11 0.817626 0.500000 0.250000
O O12 0.500000 0.000000 0.886682
O O13 0.427522 0.000000 0.750000
#
# Coordination Sequence:
#
# PCOD9394787 Si02
#       7
#     4   2   4   8   4   8   8
#     4  12  29  43  72 106 140 189 240 297 344 422
#     4   8  18  38  76 102 148 190 222 290 364 436
#     4  12  30  46  69 101 145 188 248 297 344 420
#     4  10  22  41  70 103 135 169 226 297 368 439
#     4  10  24  41  74  96 134 184 233 290 374 440
#     4  10  24  44  69  95 135 181 233 293 355 426
#     4   9  21  42  71 103 145 181 231 289 360 422
#
# _framework density 20.286064
#
# number of rings (size 3 to 8) (size 9 to 14) (size 15 to 20)
#    0.000    2.105    1.053    0.316   13.263    7.579 
#    0.000    2.105    0.000    0.632    0.000    0.000 
#    0.000    0.000    0.000    0.000    0.000    0.000 
#
# Total GULP energy -211551.785913 kJ/mol
# GULP energy per Si atom -5567.152261 kJ/mol
# Density = 2.023989 g / cm^3
# Si number density = 20.286064 Si / 1000 Ang^3
#
#
#
# Elastic Constant Matrix: (Units=GPa)
#
#
# Indices 1 2 3 4 5 6 
#
# 1 160.4875 72.7225 79.1048 0.0000 0.0000 0.0000
# 2 72.7225 109.3427 45.2395 0.0000 0.0000 0.0000
# 3 79.1048 45.2395 127.7957 0.0000 0.0000 0.0000
# 4 0.0000 0.0000 0.0000 122.0080 0.0000 0.0000
# 5 0.0000 0.0000 0.0000 0.0000 44.2497 0.0000
# 6 0.0000 0.0000 0.0000 0.0000 0.0000 35.8809
#
#
#
# Elastic Compliance Matrix: (Units=1/GPa)
#
#
# Indices 1 2 3 4 5 6 
#
# 1 0.011100 -0.005318 -0.004988 0.000000 0.000000 0.000000
# 2 -0.005318 0.013263 -0.001403 0.000000 0.000000 0.000000
# 3 -0.004988 -0.001403 0.011409 0.000000 0.000000 0.000000
# 4 0.000000 0.000000 0.000000 0.008196 0.000000 0.000000
# 5 0.000000 0.000000 0.000000 0.000000 0.022599 0.000000
# 6 0.000000 0.000000 0.000000 0.000000 0.000000 0.027870
#
#
# Mechanical properties :
#
#
# Convention : Reuss Voigt Hill
#
# Bulk Modulus (GPa) = 80.95075 87.97330 84.46203
# Shear Modulus (GPa) = 40.99248 53.79833 47.39541
#
# Velocity S-wave (km/s) = 4.50012 5.15533 4.83883
# Velocity P-wave (km/s) = 8.18491 8.88240 8.54078
#
# Compressibility (1/GPa) = 0.01235319
#
# Stress axis : x y z
#
# Youngs Moduli (GPa) = 90.09405 75.39578 87.64938
#
# Poissons Ratio (x) = 0.40099 0.43718
# Poissons Ratio (y) = 0.47917 0.12298
# Poissons Ratio (z) = 0.44937 0.10579
#
# Static dielectric constant tensor:
#      x y z
#    x 1.691520 0.000000 0.000000 
#    y 0.000000 0.413380 0.000000 
#    z 0.000000 0.000000 1.708860 
# 
# From -- ./inp_files/14466.got.cif
#   From: 2010.05.17/outbox.cif.g08.bks.cpg/sg49_8_cif.got.tgz:14466.got - 2010.06.03 21:02:19.
