data_PCOD9394591
_publ_section_title
;
Structure prediction by ZEFSAII (Michael W. Deem and Ramdas Pophale) SiO2 
 PCOD9394591
Probable space group: P C C M
;
_chemical_formula_sum "Si O2"
_cell_formula_units_Z 34
_cell_length_a 9.723635
_cell_length_b 8.784814
_cell_length_c 19.207614
_cell_angle_alpha 90.000000
_cell_angle_beta 90.000000
_cell_angle_gamma 90.000000
_cell_volume 1640.720628
_symmetry_space_group_name_H-M "P C C M"
_symmetry_group_IT_number 49
_symmetry_cell_setting 'orthorhombic'
loop_
_space_group_symop_operation_xyz
x,y,z
-x,-y,z
x,-y,1/2-z
-x,y,1/2-z
-x,-y,-z
x,y,-z
-x,y,1/2+z
x,-y,1/2+z
loop_
_atom_site_type_symbol
_atom_site_label
_atom_site_fract_x
_atom_site_fract_y
_atom_site_fract_z
Si Si1 0.689752 0.840275 0.137603
Si Si2 0.187783 0.153799 0.416301
Si Si3 0.500000 0.000000 0.250000
Si Si4 0.550403 0.657474 0.580577
Si Si5 0.962026 0.325138 0.330656
O O1 0.576782 0.772502 0.085536
O O2 0.802869 0.714992 0.157416
O O3 0.768406 0.985086 0.106063
O O4 0.599623 0.897651 0.202652
O O5 0.174444 0.160307 0.500000
O O6 0.313095 0.263008 0.391177
O O7 0.052289 0.214362 0.378832
O O8 0.500000 0.500000 0.614245
O O9 0.583452 0.625451 0.500000
O O10 0.000000 0.500000 0.347337
O O11 0.000000 0.298187 0.250000
#
# Coordination Sequence:
#
# PCOD9394591 Si02
#       5
#     8   8   2   8   8
#     4  12  23  41  66  92 130 170 220 276 322 403
#     4  11  23  42  68 100 134 173 223 274 335 397
#     4  12  24  40  66 100 128 176 236 270 348 396
#     4  10  21  39  64  94 129 166 210 269 329 388
#     4  11  26  45  65  94 134 177 221 274 335 399
#
# _framework density 20.722598999999999
#
# number of rings (size 3 to 8) (size 9 to 14) (size 15 to 20)
#    0.000    0.941    2.353    4.235    0.000    6.118 
#    0.000    0.000    0.000    0.000    0.000    0.000 
#    0.000    0.000    0.000    0.000    0.000    0.000 
#
# Total GULP energy -190075.991789 kJ/mol
# GULP energy per Si atom -5590.470347 kJ/mol
# Density = 2.067543 g / cm^3
# Si number density = 20.722599 Si / 1000 Ang^3
#
#
#
# Elastic Constant Matrix: (Units=GPa)
#
#
# Indices 1 2 3 4 5 6 
#
# 1 126.6444 30.9100 17.2805 0.0000 0.0000 0.0000
# 2 30.9100 95.9327 20.0232 0.0000 0.0000 0.0000
# 3 17.2805 20.0232 54.8827 0.0000 0.0000 0.0000
# 4 0.0000 0.0000 0.0000 226.0656 0.0000 0.0000
# 5 0.0000 0.0000 0.0000 0.0000 36.5696 0.0000
# 6 0.0000 0.0000 0.0000 0.0000 0.0000 42.2285
#
#
#
# Elastic Compliance Matrix: (Units=1/GPa)
#
#
# Indices 1 2 3 4 5 6 
#
# 1 0.008743 -0.002427 -0.001867 0.000000 0.000000 0.000000
# 2 -0.002427 0.011957 -0.003598 0.000000 0.000000 0.000000
# 3 -0.001867 -0.003598 0.020121 0.000000 0.000000 0.000000
# 4 0.000000 0.000000 0.000000 0.004423 0.000000 0.000000
# 5 0.000000 0.000000 0.000000 0.000000 0.027345 0.000000
# 6 0.000000 0.000000 0.000000 0.000000 0.000000 0.023681
#
#
# Mechanical properties :
#
#
# Convention : Reuss Voigt Hill
#
# Bulk Modulus (GPa) = 39.94227 45.98747 42.96487
# Shear Modulus (GPa) = 41.52750 74.92250 58.22500
#
# Velocity S-wave (km/s) = 4.48143 6.01942 5.30644
# Velocity P-wave (km/s) = 6.78927 8.39949 7.63694
#
# Compressibility (1/GPa) = 0.02503613
#
# Stress axis : x y z
#
# Youngs Moduli (GPa) = 114.37229 83.63238 49.69846
#
# Poissons Ratio (x) = 0.20301 0.09280
# Poissons Ratio (y) = 0.27763 0.17882
# Poissons Ratio (z) = 0.21357 0.30092
#
# Static dielectric constant tensor:
#      x y z
#    x 1.722200 0.000000 0.000000 
#    y 0.000000 1.771940 0.000000 
#    z 0.000000 0.000000 1.728350 
# 
# From -- ./inp_files/19421.got.cif
#   From: 2010.05.17/outbox.cif.g08.bks.cpg/sg49_10_cif.got.tgz:19421.got - 2010.06.03 21:02:19.
