data_PCOD9394151
_publ_section_title
;
Structure prediction by ZEFSAII (Michael W. Deem and Ramdas Pophale) SiO2 
 PCOD9394151
Probable space group: P C C M
;
_chemical_formula_sum "Si O2"
_cell_formula_units_Z 64
_cell_length_a 15.066102
_cell_length_b 9.330339
_cell_length_c 24.326815
_cell_angle_alpha 90.000000
_cell_angle_beta 90.000000
_cell_angle_gamma 90.000000
_cell_volume 3419.665123
_symmetry_space_group_name_H-M "P C C M"
_symmetry_group_IT_number 49
_symmetry_cell_setting 'orthorhombic'
loop_
_space_group_symop_operation_xyz
x,y,z
-x,-y,z
x,-y,1/2-z
-x,y,1/2-z
-x,-y,-z
x,y,-z
-x,y,1/2+z
x,-y,1/2+z
loop_
_atom_site_type_symbol
_atom_site_label
_atom_site_fract_x
_atom_site_fract_y
_atom_site_fract_z
Si Si1 0.829958 0.634528 0.559672
Si Si2 0.042819 0.867194 0.905205
Si Si3 0.695641 0.231906 0.137349
Si Si4 0.891125 0.668969 0.064713
Si Si5 0.282753 0.753512 0.370928
Si Si6 0.397298 0.505438 0.184317
Si Si7 0.174241 0.992566 0.813271
Si Si8 0.606083 0.010664 0.435063
O O1 0.788416 0.611464 0.500000
O O2 0.883989 0.781509 0.561535
O O3 0.759467 0.655765 0.606737
O O4 0.895726 0.502635 0.569432
O O5 0.093778 0.939921 0.853202
O O6 0.962414 0.754214 0.898577
O O7 0.000000 0.000000 0.935946
O O8 0.629967 0.333853 0.168667
O O9 0.752260 0.130955 0.177366
O O10 0.651192 0.128590 0.092364
O O11 0.791510 0.701916 0.085337
O O12 0.903565 0.705752 0.000000
O O13 0.335522 0.621904 0.341730
O O14 0.353223 0.854020 0.402690
O O15 0.223977 0.860301 0.331783
O O16 0.500000 0.500000 0.166739
O O17 0.391046 0.500000 0.250000
O O18 0.146344 0.000000 0.750000
O O19 0.626740 0.019006 0.500000
O O20 0.500000 0.000000 0.428691
#
# Coordination Sequence:
#
# PCOD9394151 Si02
#       8
#     8   8   8   8   8   8   8   8
#     4  10  21  37  59  83 117 155 189 233 289 353
#     4  11  22  38  56  89 115 151 195 244 287 341
#     4  10  20  38  60  86 118 155 200 244 296 358
#     4  11  22  38  58  85 121 156 191 235 295 357
#     4  11  21  40  61  87 120 157 198 246 299 355
#     4  11  23  39  63  91 118 153 200 255 307 357
#     4  10  22  40  62  84 114 160 201 247 298 349
#     4  10  21  37  58  87 123 159 196 243 300 363
#
# _framework density 18.715282999999999
#
# number of rings (size 3 to 8) (size 9 to 14) (size 15 to 20)
#    0.000    1.500    2.500    3.000    0.000    2.250 
#    0.000    0.000    0.000    9.000    3.250    0.000 
#    0.000    0.000    0.000    0.000    0.000    0.000 
#
# Total GULP energy -356653.933153 kJ/mol
# GULP energy per Si atom -5572.717706 kJ/mol
# Density = 1.867269 g / cm^3
# Si number density = 18.715283 Si / 1000 Ang^3
#
#
#
# Elastic Constant Matrix: (Units=GPa)
#
#
# Indices 1 2 3 4 5 6 
#
# 1 83.5814 24.4306 30.8460 0.0000 0.0000 0.0000
# 2 24.4306 100.7389 37.8684 0.0000 0.0000 0.0000
# 3 30.8460 37.8684 85.9168 0.0000 0.0000 0.0000
# 4 0.0000 0.0000 0.0000 4.3413 0.0000 0.0000
# 5 0.0000 0.0000 0.0000 0.0000 27.9816 0.0000
# 6 0.0000 0.0000 0.0000 0.0000 0.0000 22.6742
#
#
#
# Elastic Compliance Matrix: (Units=1/GPa)
#
#
# Indices 1 2 3 4 5 6 
#
# 1 0.014063 -0.001813 -0.004250 0.000000 0.000000 0.000000
# 2 -0.001813 0.012132 -0.004696 0.000000 0.000000 0.000000
# 3 -0.004250 -0.004696 0.015235 0.000000 0.000000 0.000000
# 4 0.000000 0.000000 0.000000 0.230348 0.000000 0.000000
# 5 0.000000 0.000000 0.000000 0.000000 0.035738 0.000000
# 6 0.000000 0.000000 0.000000 0.000000 0.000000 0.044103
#
#
# Mechanical properties :
#
#
# Convention : Reuss Voigt Hill
#
# Bulk Modulus (GPa) = 50.22259 50.72526 50.47392
# Shear Modulus (GPa) = 13.16575 22.80554 17.98565
#
# Velocity S-wave (km/s) = 2.65519 3.49456 3.10339
# Velocity P-wave (km/s) = 6.02440 6.59129 6.31421
#
# Compressibility (1/GPa) = 0.01991136
#
# Stress axis : x y z
#
# Youngs Moduli (GPa) = 71.11023 82.42900 65.63902
#
# Poissons Ratio (x) = 0.14943 0.27895
# Poissons Ratio (y) = 0.12891 0.30826
# Poissons Ratio (z) = 0.30220 0.38711
#
# Static dielectric constant tensor:
#      x y z
#    x 1.673770 0.000000 0.000000 
#    y 0.000000 1.668490 0.000000 
#    z 0.000000 0.000000 1.627810 
# 
# From -- ./inp_files/23209.got.cif
#   From: 2010.05.17/outbox.cif.g08.bks.cpg/sg49_12_cif.got.tgz:23209.got - 2010.06.03 21:02:19.
