data_PCOD9394731
_publ_section_title
;
Structure prediction by ZEFSAII (Michael W. Deem and Ramdas Pophale) SiO2 
 PCOD9394731
Probable space group: P C C M
;
_chemical_formula_sum "Si O2"
_cell_formula_units_Z 40
_cell_length_a 9.088379
_cell_length_b 25.177480
_cell_length_c 9.842608
_cell_angle_alpha 90.000000
_cell_angle_beta 90.000000
_cell_angle_gamma 90.000000
_cell_volume 2252.209977
_symmetry_space_group_name_H-M "P C C M"
_symmetry_group_IT_number 49
_symmetry_cell_setting 'orthorhombic'
loop_
_space_group_symop_operation_xyz
x,y,z
-x,-y,z
x,-y,1/2-z
-x,y,1/2-z
-x,-y,-z
x,y,-z
-x,y,1/2+z
x,-y,1/2+z
loop_
_atom_site_type_symbol
_atom_site_label
_atom_site_fract_x
_atom_site_fract_y
_atom_site_fract_z
Si Si1 0.644680 0.764572 0.659756
Si Si2 0.322692 0.882014 0.760936
Si Si3 0.855636 0.334363 0.841187
Si Si4 0.844972 0.452193 0.834930
Si Si5 0.159008 0.926321 0.500000
Si Si6 0.185933 0.053014 0.500000
O O1 0.500000 0.759108 0.750000
O O2 0.607125 0.765112 0.500000
O O3 0.714014 0.821739 0.695456
O O4 0.750161 0.714941 0.686490
O O5 0.500000 0.884481 0.750000
O O6 0.235287 0.898280 0.627131
O O7 0.269388 0.923661 0.871646
O O8 0.782284 0.392619 0.821342
O O9 0.000000 0.330426 0.750000
O O10 0.898812 0.332517 0.000000
O O11 0.768772 0.500000 0.750000
O O12 0.000000 0.447733 0.750000
O O13 0.860125 0.462739 0.000000
O O14 0.981584 0.925031 0.500000
O O15 0.189524 0.989482 0.500000
#
# Coordination Sequence:
#
# PCOD9394731 Si02
#       6
#     8   8   8   8   4   4
#     4  10  22  40  59  80 110 145 184 229 278 327
#     4  11  23  40  62  86 114 150 195 236 278 336
#     4   9  19  34  52  81 112 143 184 231 276 329
#     4   9  15  25  44  70 106 142 178 222 272 322
#     4  11  25  39  63  87 119 153 184 227 292 341
#     4  11  23  43  59  89 121 149 184 233 284 343
#
# _framework density 17.760334
#
# number of rings (size 3 to 8) (size 9 to 14) (size 15 to 20)
#    0.000    2.000    1.000    3.000    4.200    7.200 
#    0.000    0.000    0.000    0.600    0.000    4.200 
#    0.000    0.000    0.000    0.000    0.000    0.000 
#
# Total GULP energy -222841.512408 kJ/mol
# GULP energy per Si atom -5571.037810 kJ/mol
# Density = 1.771991 g / cm^3
# Si number density = 17.760334 Si / 1000 Ang^3
#
#
#
# Elastic Constant Matrix: (Units=GPa)
#
#
# Indices 1 2 3 4 5 6 
#
# 1 49.1803 54.7100 33.2742 0.0000 0.0000 0.0000
# 2 54.7100 137.9633 53.2150 0.0000 0.0000 0.0000
# 3 33.2742 53.2150 109.8642 0.0000 0.0000 0.0000
# 4 0.0000 0.0000 0.0000 34.0414 0.0000 0.0000
# 5 0.0000 0.0000 0.0000 0.0000 13.0899 0.0000
# 6 0.0000 0.0000 0.0000 0.0000 0.0000 27.9188
#
#
#
# Elastic Compliance Matrix: (Units=1/GPa)
#
#
# Indices 1 2 3 4 5 6 
#
# 1 0.038720 -0.013320 -0.005275 0.000000 0.000000 0.000000
# 2 -0.013320 0.013496 -0.002503 0.000000 0.000000 0.000000
# 3 -0.005275 -0.002503 0.011912 0.000000 0.000000 0.000000
# 4 0.000000 0.000000 0.000000 0.029376 0.000000 0.000000
# 5 0.000000 0.000000 0.000000 0.000000 0.076395 0.000000
# 6 0.000000 0.000000 0.000000 0.000000 0.000000 0.035818
#
#
# Mechanical properties :
#
#
# Convention : Reuss Voigt Hill
#
# Bulk Modulus (GPa) = 45.59537 64.37846 54.98691
# Shear Modulus (GPa) = 19.59070 25.39726 22.49398
#
# Velocity S-wave (km/s) = 3.32484 3.78564 3.56269
# Velocity P-wave (km/s) = 6.36142 7.44548 6.92470
#
# Compressibility (1/GPa) = 0.02193205
#
# Stress axis : x y z
#
# Youngs Moduli (GPa) = 25.82647 74.09756 83.94808
#
# Poissons Ratio (x) = 0.98697 0.44285
# Poissons Ratio (y) = 0.34400 0.21011
# Poissons Ratio (z) = 0.13624 0.18545
#
# Static dielectric constant tensor:
#      x y z
#    x 1.580950 0.000000 0.000000 
#    y 0.000000 1.643470 0.000000 
#    z 0.000000 0.000000 1.586150 
# 
# From -- ./inp_files/1955.got.cif
#   From: 2010.05.17/outbox.cif.g08.bks.cpg/sg49_1_cif.got.tgz:1955.got - 2010.06.03 21:02:19.
