data_PCOD9394150
_publ_section_title
;
Structure prediction by ZEFSAII (Michael W. Deem and Ramdas Pophale) SiO2 
 PCOD9394150
Probable space group: P C C M
;
_chemical_formula_sum "Si O2"
_cell_formula_units_Z 64
_cell_length_a 18.396277
_cell_length_b 9.855848
_cell_length_c 18.058732
_cell_angle_alpha 90.000000
_cell_angle_beta 90.000000
_cell_angle_gamma 90.000000
_cell_volume 3274.245130
_symmetry_space_group_name_H-M "P C C M"
_symmetry_group_IT_number 49
_symmetry_cell_setting 'orthorhombic'
loop_
_space_group_symop_operation_xyz
x,y,z
-x,-y,z
x,-y,1/2-z
-x,y,1/2-z
-x,-y,-z
x,y,-z
-x,y,1/2+z
x,-y,1/2+z
loop_
_atom_site_type_symbol
_atom_site_label
_atom_site_fract_x
_atom_site_fract_y
_atom_site_fract_z
Si Si1 0.451108 0.124221 0.916397
Si Si2 0.784201 0.500548 0.338882
Si Si3 0.314125 0.254344 0.834720
Si Si4 0.553119 0.384130 0.916946
Si Si5 0.693718 0.747819 0.657809
Si Si6 0.781664 0.008915 0.660919
Si Si7 0.928274 0.083973 0.588701
Si Si8 0.933172 0.599426 0.089491
O O1 0.384432 0.184296 0.869982
O O2 0.503928 0.251543 0.922698
O O3 0.500000 0.000000 0.885372
O O4 0.427288 0.083368 0.000000
O O5 0.794242 0.500000 0.250000
O O6 0.714349 0.403614 0.355897
O O7 0.762085 0.652155 0.359261
O O8 0.857023 0.453322 0.378207
O O9 0.321218 0.251612 0.745904
O O10 0.248469 0.156932 0.857149
O O11 0.500000 0.500000 0.882430
O O12 0.624671 0.325944 0.878004
O O13 0.572462 0.434203 0.000000
O O14 0.721019 0.898179 0.636843
O O15 0.787899 0.000000 0.750000
O O16 0.860164 0.006253 0.624516
O O17 0.917976 0.084980 0.500000
O O18 0.938616 0.241675 0.612061
O O19 0.000000 0.000000 0.606516
O O20 0.000000 0.500000 0.112536
O O21 0.930946 0.595549 0.000000
#
# Coordination Sequence:
#
# PCOD9394150 Si02
#       8
#     8   8   8   8   8   8   8   8
#     4  10  21  36  58  85 114 150 194 243 292 346
#     4  10  21  38  58  85 117 153 198 241 289 349
#     4  10  20  38  57  81 119 151 195 246 289 349
#     4  10  21  38  56  81 116 150 191 242 295 351
#     4  10  22  36  57  85 115 154 194 243 293 348
#     4  10  21  38  58  85 119 154 196 243 292 349
#     4  10  22  40  61  87 119 154 194 241 292 349
#     4  10  22  40  61  87 119 153 195 243 289 346
#
# _framework density 19.546491
#
# number of rings (size 3 to 8) (size 9 to 14) (size 15 to 20)
#    0.000    2.000    1.250    1.500    1.750    3.000 
#    0.000    2.500    0.000    0.000    0.000    0.000 
#    0.000    0.000    0.000    0.000    0.000    0.000 
#
# Total GULP energy -356661.471585 kJ/mol
# GULP energy per Si atom -5572.835494 kJ/mol
# Density = 1.950200 g / cm^3
# Si number density = 19.546491 Si / 1000 Ang^3
#
#
#
# Elastic Constant Matrix: (Units=GPa)
#
#
# Indices 1 2 3 4 5 6 
#
# 1 124.7679 33.6477 44.8587 0.0000 0.0000 0.0000
# 2 33.6477 92.6638 24.3272 0.0000 0.0000 0.0000
# 3 44.8587 24.3272 22.0080 0.0000 0.0000 0.0000
# 4 0.0000 0.0000 0.0000 20.8861 0.0000 0.0000
# 5 0.0000 0.0000 0.0000 0.0000 46.5050 0.0000
# 6 0.0000 0.0000 0.0000 0.0000 0.0000 31.3359
#
#
#
# Elastic Compliance Matrix: (Units=1/GPa)
#
#
# Indices 1 2 3 4 5 6 
#
# 1 0.033932 0.008223 -0.078253 0.000000 0.000000 0.000000
# 2 0.008223 0.017196 -0.035769 0.000000 0.000000 0.000000
# 3 -0.078253 -0.035769 0.244478 0.000000 0.000000 0.000000
# 4 0.000000 0.000000 0.000000 0.047879 0.000000 0.000000
# 5 0.000000 0.000000 0.000000 0.000000 0.021503 0.000000
# 6 0.000000 0.000000 0.000000 0.000000 0.000000 0.031912
#
#
# Mechanical properties :
#
#
# Convention : Reuss Voigt Hill
#
# Bulk Modulus (GPa) = 11.90348 49.45634 30.67991
# Shear Modulus (GPa) = 7.85545 28.85248 18.35396
#
# Velocity S-wave (km/s) = 2.00688 3.84617 3.06762
# Velocity P-wave (km/s) = 3.38720 6.71423 5.31761
#
# Compressibility (1/GPa) = 0.08400908
#
# Stress axis : x y z
#
# Youngs Moduli (GPa) = 29.47053 58.15192 4.09035
#
# Poissons Ratio (x) = -0.47816 0.32008
# Poissons Ratio (y) = -0.24232 0.14631
# Poissons Ratio (z) = 2.30615 2.08001
#
# Static dielectric constant tensor:
#      x y z
#    x 1.740240 0.000000 0.000000 
#    y 0.000000 1.417820 0.000000 
#    z 0.000000 0.000000 1.692560 
# 
# From -- ./inp_files/21066.got.cif
#   From: 2010.05.17/outbox.cif.g08.bks.cpg/sg49_11_cif.got.tgz:21066.got - 2010.06.03 21:02:19.
