data_PCOD9394668
_publ_section_title
;
Structure prediction by ZEFSAII (Michael W. Deem and Ramdas Pophale) SiO2 
 PCOD9394668
Probable space group: P C C M
;
_chemical_formula_sum "Si O2"
_cell_formula_units_Z 56
_cell_length_a 14.610273
_cell_length_b 9.037419
_cell_length_c 21.294237
_cell_angle_alpha 90.000000
_cell_angle_beta 90.000000
_cell_angle_gamma 90.000000
_cell_volume 2811.673141
_symmetry_space_group_name_H-M "P C C M"
_symmetry_group_IT_number 49
_symmetry_cell_setting 'orthorhombic'
loop_
_space_group_symop_operation_xyz
x,y,z
-x,-y,z
x,-y,1/2-z
-x,y,1/2-z
-x,-y,-z
x,y,-z
-x,y,1/2+z
x,-y,1/2+z
loop_
_atom_site_type_symbol
_atom_site_label
_atom_site_fract_x
_atom_site_fract_y
_atom_site_fract_z
Si Si1 0.412178 0.917810 0.682922
Si Si2 0.929408 0.865562 0.427194
Si Si3 0.580022 0.781036 0.000000
Si Si4 0.371909 0.885227 0.000000
Si Si5 0.264416 0.406831 0.688606
Si Si6 0.953172 0.655997 0.314035
Si Si7 0.726843 0.112948 0.875669
Si Si8 0.589552 0.395663 0.628989
O O1 0.421340 0.741356 0.678576
O O2 0.500000 0.000000 0.650881
O O3 0.407412 0.000000 0.750000
O O4 0.320573 0.963514 0.646800
O O5 0.916189 0.815478 0.500000
O O6 0.968138 0.749432 0.376860
O O7 0.831655 0.906819 0.395998
O O8 0.000000 0.000000 0.428958
O O9 0.475141 0.832894 0.000000
O O10 0.594986 0.684999 0.061986
O O11 0.635088 0.935535 0.000000
O O12 0.323297 0.829837 0.062298
O O13 0.288932 0.500000 0.750000
O O14 0.154675 0.383636 0.689834
O O15 0.292568 0.236645 0.677446
O O16 0.319099 0.505803 0.638081
O O17 0.000000 0.500000 0.321701
O O18 0.000000 0.721847 0.250000
O O19 0.500000 0.500000 0.633235
#
# Coordination Sequence:
#
# PCOD9394668 Si02
#       8
#     8   8   4   4   8   8   8   8
#     4  11  23  41  63  93 131 176 228 275 329 400
#     4  10  23  43  66  97 133 169 220 280 338 400
#     4  11  23  40  64  94 134 179 223 274 319 395
#     4  11  20  40  67  88 128 180 228 269 327 389
#     4  11  23  41  66  94 129 172 216 271 331 392
#     4  10  21  44  70  95 129 170 218 273 335 405
#     4  11  22  41  65  93 127 178 219 272 337 398
#     4  12  25  40  63  99 138 174 222 273 330 392
#
# _framework density 19.916967
#
# number of rings (size 3 to 8) (size 9 to 14) (size 15 to 20)
#    0.000    1.143    3.571    3.643    0.000    3.714 
#    6.429    0.000    0.000    0.000    0.000    0.000 
#    0.000    0.000    0.000    0.000    0.000    0.000 
#
# Total GULP energy -312185.527471 kJ/mol
# GULP energy per Si atom -5574.741562 kJ/mol
# Density = 1.987163 g / cm^3
# Si number density = 19.916967 Si / 1000 Ang^3
#
#
#
# Elastic Constant Matrix: (Units=GPa)
#
#
# Indices 1 2 3 4 5 6 
#
# 1 73.7927 36.2677 36.0381 0.0000 0.0000 0.0000
# 2 36.2677 107.9931 47.5763 0.0000 0.0000 0.0000
# 3 36.0381 47.5763 114.7830 0.0000 0.0000 0.0000
# 4 0.0000 0.0000 0.0000 17.6726 0.0000 0.0000
# 5 0.0000 0.0000 0.0000 0.0000 26.3601 0.0000
# 6 0.0000 0.0000 0.0000 0.0000 0.0000 30.7558
#
#
#
# Elastic Compliance Matrix: (Units=1/GPa)
#
#
# Indices 1 2 3 4 5 6 
#
# 1 0.017445 -0.004215 -0.003730 0.000000 0.000000 0.000000
# 2 -0.004215 0.012347 -0.003794 0.000000 0.000000 0.000000
# 3 -0.003730 -0.003794 0.011456 0.000000 0.000000 0.000000
# 4 0.000000 0.000000 0.000000 0.056585 0.000000 0.000000
# 5 0.000000 0.000000 0.000000 0.000000 0.037936 0.000000
# 6 0.000000 0.000000 0.000000 0.000000 0.000000 0.032514
#
#
# Mechanical properties :
#
#
# Convention : Reuss Voigt Hill
#
# Bulk Modulus (GPa) = 56.27861 59.59256 57.93559
# Shear Modulus (GPa) = 25.29279 26.73680 26.01480
#
# Velocity S-wave (km/s) = 3.56745 3.66787 3.61801
# Velocity P-wave (km/s) = 6.72955 6.92265 6.82679
#
# Compressibility (1/GPa) = 0.01776874
#
# Stress axis : x y z
#
# Youngs Moduli (GPa) = 57.32365 80.99099 87.29189
#
# Poissons Ratio (x) = 0.34141 0.32559
# Poissons Ratio (y) = 0.24164 0.33121
# Poissons Ratio (z) = 0.21381 0.30730
#
# Static dielectric constant tensor:
#      x y z
#    x 1.764250 0.000000 0.000000 
#    y 0.000000 1.707360 0.000000 
#    z 0.000000 0.000000 1.768890 
# 
# From -- ./inp_files/20923.got.cif
#   From: 2010.05.17/outbox.cif.g08.bks.cpg/sg49_11_cif.got.tgz:20923.got - 2010.06.03 21:02:19.
