data_PCOD9394581
_publ_section_title
;
Structure prediction by ZEFSAII (Michael W. Deem and Ramdas Pophale) SiO2 
 PCOD9394581
Probable space group: P C C M
;
_chemical_formula_sum "Si O2"
_cell_formula_units_Z 32
_cell_length_a 5.117696
_cell_length_b 18.071509
_cell_length_c 16.035805
_cell_angle_alpha 90.000000
_cell_angle_beta 90.000000
_cell_angle_gamma 90.000000
_cell_volume 1483.063236
_symmetry_space_group_name_H-M "P C C M"
_symmetry_group_IT_number 49
_symmetry_cell_setting 'orthorhombic'
loop_
_space_group_symop_operation_xyz
x,y,z
-x,-y,z
x,-y,1/2-z
-x,y,1/2-z
-x,-y,-z
x,y,-z
-x,y,1/2+z
x,-y,1/2+z
loop_
_atom_site_type_symbol
_atom_site_label
_atom_site_fract_x
_atom_site_fract_y
_atom_site_fract_z
Si Si1 0.862847 0.211467 0.903371
Si Si2 0.241287 0.450653 0.901982
Si Si3 0.373243 0.710057 0.659945
Si Si4 0.254245 0.046386 0.601659
O O1 0.613479 0.265636 0.899084
O O2 0.769563 0.131284 0.871342
O O3 0.115001 0.241370 0.855019
O O4 0.945079 0.203806 0.000000
O O5 0.500000 0.500000 0.896756
O O6 0.286356 0.374097 0.855294
O O7 0.000000 0.500000 0.871121
O O8 0.191355 0.433034 0.000000
O O9 0.500000 0.719427 0.750000
O O10 0.271360 0.048913 0.500000
O O11 0.500000 0.000000 0.632610
O O12 0.000000 0.000000 0.623915
#
# Coordination Sequence:
#
# PCOD9394581 Si02
#       4
#     8   8   8   8
#     4  11  22  39  65  92 124 169 217 263 314 378
#     4  10  21  39  64  90 117 154 203 256 307 367
#     4  12  25  41  61  92 132 169 208 260 320 381
#     4   9  17  31  55  89 121 151 201 264 311 352
#
# _framework density 21.576961000000001
#
# number of rings (size 3 to 8) (size 9 to 14) (size 15 to 20)
#    0.000    1.500    0.000    6.000    0.000    6.500 
#    0.000    1.250    0.000   11.250    0.000    0.000 
#    0.000    0.000    0.000    0.000    0.000    1.000 
#
# Total GULP energy -179007.220643 kJ/mol
# GULP energy per Si atom -5593.975645 kJ/mol
# Density = 2.152785 g / cm^3
# Si number density = 21.576961 Si / 1000 Ang^3
#
#
#
# Elastic Constant Matrix: (Units=GPa)
#
#
# Indices 1 2 3 4 5 6 
#
# 1 187.2312 87.6093 34.0662 0.0000 0.0000 0.0000
# 2 87.6093 153.0902 43.1802 0.0000 0.0000 0.0000
# 3 34.0662 43.1802 48.3153 0.0000 0.0000 0.0000
# 4 0.0000 0.0000 0.0000 -19.5849 0.0000 0.0000
# 5 0.0000 0.0000 0.0000 0.0000 44.5834 0.0000
# 6 0.0000 0.0000 0.0000 0.0000 0.0000 38.5997
#
#
#
# Elastic Compliance Matrix: (Units=1/GPa)
#
#
# Indices 1 2 3 4 5 6 
#
# 1 0.007425 -0.003707 -0.001922 0.000000 0.000000 0.000000
# 2 -0.003707 0.010584 -0.006846 0.000000 0.000000 0.000000
# 3 -0.001922 -0.006846 0.028171 0.000000 0.000000 0.000000
# 4 0.000000 0.000000 0.000000 -0.051060 0.000000 0.000000
# 5 0.000000 0.000000 0.000000 0.000000 0.022430 0.000000
# 6 0.000000 0.000000 0.000000 0.000000 0.000000 0.025907
#
#
# Mechanical properties :
#
#
# Convention : Reuss Voigt Hill
#
# Bulk Modulus (GPa) = 47.10231 79.81645 63.45938
# Shear Modulus (GPa) = 66.23827 27.63836 46.93832
#
# Velocity S-wave (km/s) = 5.54664 3.58288 4.66917
# Velocity P-wave (km/s) = 7.93080 7.36124 7.65132
#
# Compressibility (1/GPa) = 0.02123038
#
# Stress axis : x y z
#
# Youngs Moduli (GPa) = 134.67275 94.47815 35.49760
#
# Poissons Ratio (x) = 0.35024 0.06824
# Poissons Ratio (y) = 0.49925 0.24300
# Poissons Ratio (z) = 0.25889 0.64677
#
# Static dielectric constant tensor:
#      x y z
#    x 1.734040 0.000000 0.000000 
#    y 0.000000 1.749520 0.000000 
#    z 0.000000 0.000000 1.834070 
# 
# From -- ./inp_files/15134.got.cif
#   From: 2010.05.17/outbox.cif.g08.bks.cpg/sg49_8_cif.got.tgz:15134.got - 2010.06.03 21:02:19.
