data_PCOD9394784
_publ_section_title
;
Structure prediction by ZEFSAII (Michael W. Deem and Ramdas Pophale) SiO2 
 PCOD9394784
Probable space group: P C C M
;
_chemical_formula_sum "Si O2"
_cell_formula_units_Z 48
_cell_length_a 32.969227
_cell_length_b 7.565812
_cell_length_c 9.903136
_cell_angle_alpha 90.000000
_cell_angle_beta 90.000000
_cell_angle_gamma 90.000000
_cell_volume 2470.228076
_symmetry_space_group_name_H-M "P C C M"
_symmetry_group_IT_number 49
_symmetry_cell_setting 'orthorhombic'
loop_
_space_group_symop_operation_xyz
x,y,z
-x,-y,z
x,-y,1/2-z
-x,y,1/2-z
-x,-y,-z
x,y,-z
-x,y,1/2+z
x,-y,1/2+z
loop_
_atom_site_type_symbol
_atom_site_label
_atom_site_fract_x
_atom_site_fract_y
_atom_site_fract_z
Si Si1 0.284632 0.319232 0.838564
Si Si2 0.046690 0.213092 0.248230
Si Si3 0.895105 0.706678 0.000000
Si Si4 0.167896 0.978026 0.000000
Si Si5 0.099487 0.683276 0.000000
Si Si6 0.463392 0.312536 0.834820
Si Si7 0.375212 0.328136 0.843148
Si Si8 0.226738 0.000000 0.250000
O O1 0.280912 0.500000 0.750000
O O2 0.330907 0.245554 0.822514
O O3 0.254069 0.169183 0.787861
O O4 0.278627 0.353856 0.000000
O O5 0.074660 0.264826 0.124045
O O6 0.070082 0.290073 0.374594
O O7 0.000000 0.272549 0.250000
O O8 0.046160 0.000000 0.250000
O O9 0.857561 0.839909 0.000000
O O10 0.880209 0.507000 0.000000
O O11 0.196948 0.960635 0.127008
O O12 0.133560 0.830605 0.000000
O O13 0.459912 0.500000 0.750000
O O14 0.500000 0.223570 0.750000
O O15 0.418221 0.231046 0.820394
O O16 0.471184 0.330184 0.000000
O O17 0.374840 0.500000 0.750000
O O18 0.376712 0.384823 0.000000
#
# Coordination Sequence:
#
# PCOD9394784 Si02
#       8
#     8   8   4   4   4   8   8   4
#     4  10  22  41  66  95 123 156 205 260 323 384
#     4  11  22  41  68  98 135 174 211 258 306 350
#     4  12  25  43  67  94 130 170 212 255 306 361
#     4  12  26  46  65  92 126 162 209 262 316 380
#     4  12  25  43  69  94 128 172 212 255 304 363
#     4   9  14  20  34  59  99 145 188 230 280 346
#     4   8  15  28  46  72 107 146 188 243 299 356
#     4  12  26  44  70  88 124 160 206 264 322 390
#
# _framework density 19.431404000000001
#
# number of rings (size 3 to 8) (size 9 to 14) (size 15 to 20)
#    0.000    1.667    2.500    3.000    1.167    5.333 
#    0.000    0.000    0.000    0.000    0.000    0.583 
#    0.000    4.000    0.000    0.000    0.000    0.000 
#
# Total GULP energy -267434.436699 kJ/mol
# GULP energy per Si atom -5571.550765 kJ/mol
# Density = 1.938718 g / cm^3
# Si number density = 19.431404 Si / 1000 Ang^3
#
#
#
# Elastic Constant Matrix: (Units=GPa)
#
#
# Indices 1 2 3 4 5 6 
#
# 1 173.0850 49.8050 74.7410 0.0000 0.0000 0.0000
# 2 49.8050 90.6835 24.9828 0.0000 0.0000 0.0000
# 3 74.7410 24.9828 154.8687 0.0000 0.0000 0.0000
# 4 0.0000 0.0000 0.0000 28.2825 0.0000 0.0000
# 5 0.0000 0.0000 0.0000 0.0000 41.4470 0.0000
# 6 0.0000 0.0000 0.0000 0.0000 0.0000 1.9722
#
#
#
# Elastic Compliance Matrix: (Units=1/GPa)
#
#
# Indices 1 2 3 4 5 6 
#
# 1 0.008294 -0.003613 -0.003420 0.000000 0.000000 0.000000
# 2 -0.003613 0.013114 -0.000372 0.000000 0.000000 0.000000
# 3 -0.003420 -0.000372 0.008168 0.000000 0.000000 0.000000
# 4 0.000000 0.000000 0.000000 0.035358 0.000000 0.000000
# 5 0.000000 0.000000 0.000000 0.000000 0.024127 0.000000
# 6 0.000000 0.000000 0.000000 0.000000 0.000000 0.507048
#
#
# Mechanical properties :
#
#
# Convention : Reuss Voigt Hill
#
# Bulk Modulus (GPa) = 67.72265 79.74386 73.73326
# Shear Modulus (GPa) = 8.11900 32.28091 20.19995
#
# Velocity S-wave (km/s) = 2.04630 4.08030 3.22771
# Velocity P-wave (km/s) = 6.36482 7.95777 7.20545
#
# Compressibility (1/GPa) = 0.01476611
#
# Stress axis : x y z
#
# Youngs Moduli (GPa) = 120.57041 76.25361 122.43600
#
# Poissons Ratio (x) = 0.27550 0.41872
# Poissons Ratio (y) = 0.43562 0.04553
# Poissons Ratio (z) = 0.41234 0.02835
#
# Static dielectric constant tensor:
#      x y z
#    x 1.696390 0.000000 0.000000 
#    y 0.000000 1.675670 0.000000 
#    z 0.000000 0.000000 1.640900 
# 
# From -- ./inp_files/6938.got.cif
#   From: 2010.05.17/outbox.cif.g08.bks.cpg/sg49_4_cif.got.tgz:6938.got - 2010.06.03 21:02:19.
