data_PCOD9394924
_publ_section_title
;
Structure prediction by ZEFSAII (Michael W. Deem and Ramdas Pophale) SiO2 
 PCOD9394924
Probable space group: P C C M
;
_chemical_formula_sum "Si O2"
_cell_formula_units_Z 48
_cell_length_a 8.415843
_cell_length_b 9.138783
_cell_length_c 28.204386
_cell_angle_alpha 90.000000
_cell_angle_beta 90.000000
_cell_angle_gamma 90.000000
_cell_volume 2169.215205
_symmetry_space_group_name_H-M "P C C M"
_symmetry_group_IT_number 49
_symmetry_cell_setting 'orthorhombic'
loop_
_space_group_symop_operation_xyz
x,y,z
-x,-y,z
x,-y,1/2-z
-x,y,1/2-z
-x,-y,-z
x,y,-z
-x,y,1/2+z
x,-y,1/2+z
loop_
_atom_site_type_symbol
_atom_site_label
_atom_site_fract_x
_atom_site_fract_y
_atom_site_fract_z
Si Si1 0.127333 0.603669 0.875520
Si Si2 0.549458 0.160015 0.945139
Si Si3 0.377954 0.383827 0.123989
Si Si4 0.931735 0.842876 0.554321
Si Si5 0.815422 0.834584 0.695787
Si Si6 0.798281 0.835023 0.805219
O O1 0.247945 0.491566 0.899949
O O2 0.031687 0.709447 0.910959
O O3 0.225931 0.707462 0.840445
O O4 0.000000 0.500000 0.849243
O O5 0.468174 0.283329 0.913697
O O6 0.740466 0.159340 0.944939
O O7 0.500000 0.000000 0.927745
O O8 0.497134 0.175016 0.000000
O O9 0.500000 0.500000 0.146541
O O10 0.289835 0.279637 0.161596
O O11 0.986414 0.822285 0.500000
O O12 0.000000 0.000000 0.570637
O O13 0.761345 0.810483 0.749632
O O14 0.008901 0.830504 0.693348
O O15 0.758812 0.996559 0.681640
#
# Coordination Sequence:
#
# PCOD9394924 Si02
#       6
#     8   8   8   8   8   8
#     4  12  25  39  65 102 138 177 221 277 344 402
#     4  10  24  45  69  95 131 181 227 274 337 407
#     4  12  25  42  65 103 141 178 219 275 350 408
#     4  10  24  45  69  98 131 174 231 283 330 402
#     4   9  20  41  68  99 127 176 236 279 327 388
#     4   9  20  41  70  96 130 178 232 279 325 402
#
# _framework density 22.127815999999999
#
# number of rings (size 3 to 8) (size 9 to 14) (size 15 to 20)
#    0.000    1.667    3.333    1.000    7.000    2.000 
#    0.000    1.667    0.000    2.000    0.000    0.000 
#    0.000    0.000    0.000    0.000    0.000    0.000 
#
# Total GULP energy -268103.921219 kJ/mol
# GULP energy per Si atom -5585.498359 kJ/mol
# Density = 2.207745 g / cm^3
# Si number density = 22.127816 Si / 1000 Ang^3
#
#
#
# Elastic Constant Matrix: (Units=GPa)
#
#
# Indices 1 2 3 4 5 6 
#
# 1 48.8206 60.7206 32.1957 0.0000 0.0000 0.0000
# 2 60.7206 197.6676 91.5050 0.0000 0.0000 0.0000
# 3 32.1957 91.5050 94.9818 0.0000 0.0000 0.0000
# 4 0.0000 0.0000 0.0000 -65.1009 0.0000 0.0000
# 5 0.0000 0.0000 0.0000 0.0000 23.1877 0.0000
# 6 0.0000 0.0000 0.0000 0.0000 0.0000 50.0259
#
#
#
# Elastic Compliance Matrix: (Units=1/GPa)
#
#
# Indices 1 2 3 4 5 6 
#
# 1 0.033500 -0.009086 -0.002602 0.000000 0.000000 0.000000
# 2 -0.009086 0.011596 -0.008091 0.000000 0.000000 0.000000
# 3 -0.002602 -0.008091 0.019205 0.000000 0.000000 0.000000
# 4 0.000000 0.000000 0.000000 -0.015361 0.000000 0.000000
# 5 0.000000 0.000000 0.000000 0.000000 0.043126 0.000000
# 6 0.000000 0.000000 0.000000 0.000000 0.000000 0.019990
#
#
# Mechanical properties :
#
#
# Convention : Reuss Voigt Hill
#
# Bulk Modulus (GPa) = 40.41638 78.92361 59.67000
# Shear Modulus (GPa) = 31.27679 12.09247 21.68463
#
# Velocity S-wave (km/s) = 3.76368 2.34023 3.13385
# Velocity P-wave (km/s) = 6.09850 6.56101 6.33398
#
# Compressibility (1/GPa) = 0.02474244
#
# Stress axis : x y z
#
# Youngs Moduli (GPa) = 29.85076 86.23720 52.06842
#
# Poissons Ratio (x) = 0.78358 0.13546
# Poissons Ratio (y) = 0.27123 0.42131
# Poissons Ratio (z) = 0.07766 0.69779
#
# Static dielectric constant tensor:
#      x y z
#    x 1.892880 0.000000 0.000000 
#    y 0.000000 1.816060 0.000000 
#    z 0.000000 0.000000 1.820440 
# 
# From -- ./inp_files/26253.got.cif
#   From: 2010.05.17/outbox.cif.g08.bks.cpg/sg49_14_cif.got.tgz:26253.got - 2010.06.03 21:02:19.
