data_PCOD9394508
_publ_section_title
;
Structure prediction by ZEFSAII (Michael W. Deem and Ramdas Pophale) SiO2 
 PCOD9394508
Probable space group: P C C M
;
_chemical_formula_sum "Si O2"
_cell_formula_units_Z 34
_cell_length_a 6.095787
_cell_length_b 14.232744
_cell_length_c 18.998865
_cell_angle_alpha 90.000000
_cell_angle_beta 90.000000
_cell_angle_gamma 90.000000
_cell_volume 1648.337269
_symmetry_space_group_name_H-M "P C C M"
_symmetry_group_IT_number 49
_symmetry_cell_setting 'orthorhombic'
loop_
_space_group_symop_operation_xyz
x,y,z
-x,-y,z
x,-y,1/2-z
-x,y,1/2-z
-x,-y,-z
x,y,-z
-x,y,1/2+z
x,-y,1/2+z
loop_
_atom_site_type_symbol
_atom_site_label
_atom_site_fract_x
_atom_site_fract_y
_atom_site_fract_z
Si Si1 0.162487 0.640734 0.184132
Si Si2 0.162484 0.077111 0.420678
Si Si3 0.476004 0.180919 0.672155
Si Si4 0.869726 0.265321 0.580074
Si Si5 0.500000 0.500000 0.250000
O O1 0.297955 0.737100 0.184410
O O2 0.341585 0.560691 0.199216
O O3 0.000000 0.636957 0.250000
O O4 0.009663 0.649672 0.114825
O O5 0.215267 0.045568 0.500000
O O6 0.378974 0.102193 0.378636
O O7 0.027506 0.174461 0.424555
O O8 0.000000 0.000000 0.388043
O O9 0.500000 0.140210 0.750000
O O10 0.678775 0.232383 0.633540
O O11 0.792757 0.285522 0.500000
#
# Coordination Sequence:
#
# PCOD9394508 Si02
#       5
#     8   8   8   8   2
#     4  11  21  39  62  91 122 160 206 256 311 378
#     4   9  20  37  57  83 121 166 210 260 312 369
#     4  11  20  36  61  87 118 165 213 260 311 372
#     4  10  21  38  62  89 122 165 210 257 312 377
#     4  12  22  36  66  98 120 158 206 262 312 386
#
# _framework density 20.626844999999999
#
# number of rings (size 3 to 8) (size 9 to 14) (size 15 to 20)
#    0.000    1.647    3.529    1.059    0.000    1.882 
#    0.000    7.647    0.000    7.059    0.000    0.000 
#    0.000    0.000    0.000    0.000    0.000    0.000 
#
# Total GULP energy -189647.405383 kJ/mol
# GULP energy per Si atom -5577.864864 kJ/mol
# Density = 2.057990 g / cm^3
# Si number density = 20.626845 Si / 1000 Ang^3
#
#
#
# Elastic Constant Matrix: (Units=GPa)
#
#
# Indices 1 2 3 4 5 6 
#
# 1 96.9018 30.6477 55.8602 0.0000 0.0000 0.0000
# 2 30.6477 71.9171 23.0338 0.0000 0.0000 0.0000
# 3 55.8602 23.0338 132.8179 0.0000 0.0000 0.0000
# 4 0.0000 0.0000 0.0000 21.0269 0.0000 0.0000
# 5 0.0000 0.0000 0.0000 0.0000 23.4079 0.0000
# 6 0.0000 0.0000 0.0000 0.0000 0.0000 39.6431
#
#
#
# Elastic Compliance Matrix: (Units=1/GPa)
#
#
# Indices 1 2 3 4 5 6 
#
# 1 0.014939 -0.004610 -0.005483 0.000000 0.000000 0.000000
# 2 -0.004610 0.016145 -0.000861 0.000000 0.000000 0.000000
# 3 -0.005483 -0.000861 0.009985 0.000000 0.000000 0.000000
# 4 0.000000 0.000000 0.000000 0.047558 0.000000 0.000000
# 5 0.000000 0.000000 0.000000 0.000000 0.042721 0.000000
# 6 0.000000 0.000000 0.000000 0.000000 0.000000 0.025225
#
#
# Mechanical properties :
#
#
# Convention : Reuss Voigt Hill
#
# Bulk Modulus (GPa) = 52.19308 57.85782 55.02545
# Shear Modulus (GPa) = 27.04632 29.62191 28.33412
#
# Velocity S-wave (km/s) = 3.62500 3.79368 3.71030
# Velocity P-wave (km/s) = 6.54823 6.87750 6.71488
#
# Compressibility (1/GPa) = 0.01915963
#
# Stress axis : x y z
#
# Youngs Moduli (GPa) = 66.94013 61.93774 100.15373
#
# Poissons Ratio (x) = 0.28553 0.54918
# Poissons Ratio (y) = 0.30859 0.08625
# Poissons Ratio (z) = 0.36706 0.05334
#
# Static dielectric constant tensor:
#      x y z
#    x 1.775410 0.000000 0.000000 
#    y 0.000000 1.715280 0.000000 
#    z 0.000000 0.000000 1.777330 
# 
# From -- ./inp_files/15151.got.cif
#   From: 2010.05.17/outbox.cif.g08.bks.cpg/sg49_8_cif.got.tgz:15151.got - 2010.06.03 21:02:19.
