data_PCOD9394405
_publ_section_title
;
Structure prediction by ZEFSAII (Michael W. Deem and Ramdas Pophale) SiO2 
 PCOD9394405
Probable space group: P C C M
;
_chemical_formula_sum "Si O2"
_cell_formula_units_Z 40
_cell_length_a 25.534025
_cell_length_b 9.842768
_cell_length_c 8.742504
_cell_angle_alpha 90.000000
_cell_angle_beta 90.000000
_cell_angle_gamma 90.000000
_cell_volume 2197.214051
_symmetry_space_group_name_H-M "P C C M"
_symmetry_group_IT_number 49
_symmetry_cell_setting 'orthorhombic'
loop_
_space_group_symop_operation_xyz
x,y,z
-x,-y,z
x,-y,1/2-z
-x,y,1/2-z
-x,-y,-z
x,y,-z
-x,y,1/2+z
x,-y,1/2+z
loop_
_atom_site_type_symbol
_atom_site_label
_atom_site_fract_x
_atom_site_fract_y
_atom_site_fract_z
Si Si1 0.263620 0.351098 0.817550
Si Si2 0.944634 0.848816 0.682970
Si Si3 0.349260 0.849026 0.183231
Si Si4 0.140977 0.351193 0.817027
Si Si5 0.442347 0.353807 0.683526
O O1 0.276106 0.500000 0.750000
O O2 0.300431 0.237099 0.745923
O O3 0.202322 0.322755 0.785090
O O4 0.270687 0.355054 0.000000
O O5 0.947329 0.854164 0.500000
O O6 0.897265 0.755916 0.739096
O O7 0.000000 0.796931 0.750000
O O8 0.937744 0.000000 0.750000
O O9 0.401175 0.762907 0.224890
O O10 0.350476 0.000000 0.250000
O O11 0.346362 0.855770 0.000000
O O12 0.129652 0.500000 0.750000
O O13 0.133731 0.350440 0.000000
O O14 0.425252 0.500000 0.750000
O O15 0.500000 0.326113 0.750000
O O16 0.445335 0.364062 0.500000
#
# Coordination Sequence:
#
# PCOD9394405 Si02
#       5
#     8   8   8   8   8
#     4  10  21  38  61  85 113 148 187 231 279 333
#     4  11  22  38  59  83 113 150 189 231 279 334
#     4  11  24  39  57  83 115 150 189 232 282 334
#     4  10  21  38  59  86 115 146 186 232 281 332
#     4  10  21  37  59  85 111 145 186 230 277 331
#
# _framework density 18.204872000000002
#
# number of rings (size 3 to 8) (size 9 to 14) (size 15 to 20)
#    0.000    1.600    0.000    6.000    0.000    8.800 
#    0.000    4.000    0.000    0.000    0.000    0.000 
#    0.000    0.000    0.000    0.000    0.000    0.000 
#
# Total GULP energy -223592.542337 kJ/mol
# GULP energy per Si atom -5589.813558 kJ/mol
# Density = 1.816344 g / cm^3
# Si number density = 18.204872 Si / 1000 Ang^3
#
#
#
# Elastic Constant Matrix: (Units=GPa)
#
#
# Indices 1 2 3 4 5 6 
#
# 1 116.8602 111.9301 73.6477 0.0000 0.0000 0.0000
# 2 111.9301 158.3050 75.5194 0.0000 0.0000 0.0000
# 3 73.6477 75.5194 109.2108 0.0000 0.0000 0.0000
# 4 0.0000 0.0000 0.0000 36.7651 0.0000 0.0000
# 5 0.0000 0.0000 0.0000 0.0000 28.9854 0.0000
# 6 0.0000 0.0000 0.0000 0.0000 0.0000 56.5852
#
#
#
# Elastic Compliance Matrix: (Units=1/GPa)
#
#
# Indices 1 2 3 4 5 6 
#
# 1 0.031137 -0.017905 -0.008616 0.000000 0.000000 0.000000
# 2 -0.017905 0.019723 -0.001564 0.000000 0.000000 0.000000
# 3 -0.008616 -0.001564 0.016048 0.000000 0.000000 0.000000
# 4 0.000000 0.000000 0.000000 0.027200 0.000000 0.000000
# 5 0.000000 0.000000 0.000000 0.000000 0.034500 0.000000
# 6 0.000000 0.000000 0.000000 0.000000 0.000000 0.017672
#
#
# Mechanical properties :
#
#
# Convention : Reuss Voigt Hill
#
# Bulk Modulus (GPa) = 93.12756 100.73006 96.92881
# Shear Modulus (GPa) = 24.26815 32.68574 28.47694
#
# Velocity S-wave (km/s) = 3.65507 4.24186 3.95935
# Velocity P-wave (km/s) = 8.31138 8.91306 8.61747
#
# Compressibility (1/GPa) = 0.01073796
#
# Stress axis : x y z
#
# Youngs Moduli (GPa) = 32.11565 50.70225 62.31134
#
# Poissons Ratio (x) = 0.90785 0.53689
# Poissons Ratio (y) = 0.57504 0.09744
# Poissons Ratio (z) = 0.27672 0.07928
#
# Static dielectric constant tensor:
#      x y z
#    x 1.618950 0.000000 0.000000 
#    y 0.000000 1.591400 0.000000 
#    z 0.000000 0.000000 1.606480 
# 
# From -- ./inp_files/1680.got.cif
#   From: 2010.05.17/outbox.cif.g08.bks.cpg/sg49_1_cif.got.tgz:1680.got - 2010.06.03 21:02:19.
