data_PCOD9394204
_publ_section_title
;
Structure prediction by ZEFSAII (Michael W. Deem and Ramdas Pophale) SiO2 
 PCOD9394204
Probable space group: P C C M
;
_chemical_formula_sum "Si O2"
_cell_formula_units_Z 34
_cell_length_a 5.522070
_cell_length_b 11.456411
_cell_length_c 28.360788
_cell_angle_alpha 90.000000
_cell_angle_beta 90.000000
_cell_angle_gamma 90.000000
_cell_volume 1794.191466
_symmetry_space_group_name_H-M "P C C M"
_symmetry_group_IT_number 49
_symmetry_cell_setting 'orthorhombic'
loop_
_space_group_symop_operation_xyz
x,y,z
-x,-y,z
x,-y,1/2-z
-x,y,1/2-z
-x,-y,-z
x,y,-z
-x,y,1/2+z
x,-y,1/2+z
loop_
_atom_site_type_symbol
_atom_site_label
_atom_site_fract_x
_atom_site_fract_y
_atom_site_fract_z
Si Si1 0.005714 0.357754 0.555256
Si Si2 0.492734 0.638862 0.601947
Si Si3 0.000000 0.500000 0.250000
Si Si4 0.339601 0.313030 0.703666
Si Si5 0.244812 0.046785 0.304264
O O1 0.006603 0.328831 0.500000
O O2 0.757396 0.315872 0.579775
O O3 0.000000 0.500000 0.558816
O O4 0.254640 0.315992 0.579668
O O5 0.500000 0.500000 0.593015
O O6 0.504527 0.658162 0.657766
O O7 0.154929 0.416210 0.283988
O O8 0.500000 0.302257 0.750000
O O9 0.226869 0.186042 0.696145
O O10 0.500000 0.000000 0.324528
O O11 0.245979 0.000000 0.250000
O O12 0.000000 0.000000 0.327362
#
# Coordination Sequence:
#
# PCOD9394204 Si02
#       5
#     8   8   2   8   8
#     4   9  18  34  54  75 106 150 193 239 285 335
#     4  10  21  33  52  80 116 149 195 230 282 353
#     4  12  26  36  54  78 126 172 194 214 294 364
#     4  12  25  38  56  83 123 164 199 233 291 352
#     4  10  20  39  59  77 101 152 199 255 281 312
#
# _framework density 18.950040000000001
#
# number of rings (size 3 to 8) (size 9 to 14) (size 15 to 20)
#    0.000    1.647    2.353    3.882    8.235    2.824 
#    0.000    0.000    0.000    0.000    0.000    0.000 
#    0.000   18.824    0.000    0.000    0.000    0.000 
#
# Total GULP energy -189733.609139 kJ/mol
# GULP energy per Si atom -5580.400269 kJ/mol
# Density = 1.890691 g / cm^3
# Si number density = 18.950040 Si / 1000 Ang^3
#
#
#
# Elastic Constant Matrix: (Units=GPa)
#
#
# Indices 1 2 3 4 5 6 
#
# 1 183.8686 42.9370 75.0729 0.0000 0.0000 0.0000
# 2 42.9370 86.8943 -8.3461 0.0000 0.0000 0.0000
# 3 75.0729 -8.3461 102.8610 0.0000 0.0000 0.0000
# 4 0.0000 0.0000 0.0000 -16.1472 0.0000 0.0000
# 5 0.0000 0.0000 0.0000 0.0000 17.1366 0.0000
# 6 0.0000 0.0000 0.0000 0.0000 0.0000 10.1563
#
#
#
# Elastic Compliance Matrix: (Units=1/GPa)
#
#
# Indices 1 2 3 4 5 6 
#
# 1 0.009882 -0.005619 -0.007668 0.000000 0.000000 0.000000
# 2 -0.005619 0.014794 0.005302 0.000000 0.000000 0.000000
# 3 -0.007668 0.005302 0.015749 0.000000 0.000000 0.000000
# 4 0.000000 0.000000 0.000000 -0.061930 0.000000 0.000000
# 5 0.000000 0.000000 0.000000 0.000000 0.058355 0.000000
# 6 0.000000 0.000000 0.000000 0.000000 0.000000 0.098461
#
#
# Mechanical properties :
#
#
# Convention : Reuss Voigt Hill
#
# Bulk Modulus (GPa) = 40.89500 65.88351 53.38926
# Shear Modulus (GPa) = 31.36114 19.82647 25.59381
#
# Velocity S-wave (km/s) = 4.07251 3.23809 3.67903
# Velocity P-wave (km/s) = 6.61370 6.98732 6.80308
#
# Compressibility (1/GPa) = 0.02445287
#
# Stress axis : x y z
#
# Youngs Moduli (GPa) = 101.19622 67.59419 63.49759
#
# Poissons Ratio (x) = 0.37984 0.48691
# Poissons Ratio (y) = 0.56866 -0.33665
# Poissons Ratio (z) = 0.77599 -0.35836
#
# Static dielectric constant tensor:
#      x y z
#    x 1.714920 0.000000 0.000000 
#    y 0.000000 1.591300 0.000000 
#    z 0.000000 0.000000 1.630700 
# 
# From -- ./inp_files/21629.got.cif
#   From: 2010.05.17/outbox.cif.g08.bks.cpg/sg49_11_cif.got.tgz:21629.got - 2010.06.03 21:02:19.
