data_PCOD9394869
_publ_section_title
;
Structure prediction by ZEFSAII (Michael W. Deem and Ramdas Pophale) SiO2 
 PCOD9394869
Probable space group: P C C M
;
_chemical_formula_sum "Si O2"
_cell_formula_units_Z 48
_cell_length_a 9.342681
_cell_length_b 29.314073
_cell_length_c 9.009118
_cell_angle_alpha 90.000000
_cell_angle_beta 90.000000
_cell_angle_gamma 90.000000
_cell_volume 2467.345461
_symmetry_space_group_name_H-M "P C C M"
_symmetry_group_IT_number 49
_symmetry_cell_setting 'orthorhombic'
loop_
_space_group_symop_operation_xyz
x,y,z
-x,-y,z
x,-y,1/2-z
-x,y,1/2-z
-x,-y,-z
x,y,-z
-x,y,1/2+z
x,-y,1/2+z
loop_
_atom_site_type_symbol
_atom_site_label
_atom_site_fract_x
_atom_site_fract_y
_atom_site_fract_z
Si Si1 0.648809 0.704308 0.823430
Si Si2 0.154662 0.792457 0.675328
Si Si3 0.343344 0.871501 0.179785
Si Si4 0.142815 0.564005 0.500000
Si Si5 0.808027 0.456374 0.000000
Si Si6 0.847275 0.050341 0.681064
Si Si7 0.671869 0.395567 0.757169
O O1 0.500000 0.720484 0.750000
O O2 0.764936 0.743969 0.815566
O O3 0.691179 0.659031 0.730873
O O4 0.627855 0.692403 0.000000
O O5 0.145219 0.805073 0.500000
O O6 0.247099 0.829384 0.764834
O O7 0.000000 0.789780 0.750000
O O8 0.500000 0.865709 0.250000
O O9 0.272060 0.916106 0.254122
O O10 0.347333 0.874396 0.000000
O O11 0.187390 0.510751 0.500000
O O12 0.217512 0.590744 0.630825
O O13 0.971279 0.562109 0.500000
O O14 0.721204 0.433946 0.130749
O O15 0.851276 0.049497 0.500000
O O16 0.000000 0.065934 0.750000
O O17 0.824553 0.000000 0.750000
O O18 0.500000 0.400180 0.750000
#
# Coordination Sequence:
#
# PCOD9394869 Si02
#       7
#     8   8   8   4   4   8   8
#     4  10  23  42  65  91 124 161 201 253 311 373
#     4  11  24  43  65  96 128 165 212 261 317 380
#     4  12  25  43  65  94 129 172 218 270 328 386
#     4  11  23  43  61  87 131 155 213 249 316 375
#     4  11  25  39  63  91 119 173 197 259 312 375
#     4  11  22  40  65  96 132 175 221 273 328 387
#     4  11  23  41  63  93 122 161 207 258 311 376
#
# _framework density 19.454107
#
# number of rings (size 3 to 8) (size 9 to 14) (size 15 to 20)
#    0.000    1.000    0.833    6.500    3.500    7.667 
#    0.000    1.667    0.000    0.000    0.000    0.000 
#    0.000    0.000    0.000    0.000    0.000    0.000 
#
# Total GULP energy -267686.830012 kJ/mol
# GULP energy per Si atom -5576.808959 kJ/mol
# Density = 1.940983 g / cm^3
# Si number density = 19.454107 Si / 1000 Ang^3
#
#
#
# Elastic Constant Matrix: (Units=GPa)
#
#
# Indices 1 2 3 4 5 6 
#
# 1 134.2773 73.2743 34.0650 0.0000 0.0000 0.0000
# 2 73.2743 77.2462 25.8015 0.0000 0.0000 0.0000
# 3 34.0650 25.8015 81.9177 0.0000 0.0000 0.0000
# 4 0.0000 0.0000 0.0000 33.0910 0.0000 0.0000
# 5 0.0000 0.0000 0.0000 0.0000 28.1127 0.0000
# 6 0.0000 0.0000 0.0000 0.0000 0.0000 41.7794
#
#
#
# Elastic Compliance Matrix: (Units=1/GPa)
#
#
# Indices 1 2 3 4 5 6 
#
# 1 0.015744 -0.014246 -0.002060 0.000000 0.000000 0.000000
# 2 -0.014246 0.027359 -0.002693 0.000000 0.000000 0.000000
# 3 -0.002060 -0.002693 0.013912 0.000000 0.000000 0.000000
# 4 0.000000 0.000000 0.000000 0.030220 0.000000 0.000000
# 5 0.000000 0.000000 0.000000 0.000000 0.035571 0.000000
# 6 0.000000 0.000000 0.000000 0.000000 0.000000 0.023935
#
#
# Mechanical properties :
#
#
# Convention : Reuss Voigt Hill
#
# Bulk Modulus (GPa) = 52.58541 62.19141 57.38841
# Shear Modulus (GPa) = 26.16723 31.28334 28.72529
#
# Velocity S-wave (km/s) = 3.67151 4.01441 3.84678
# Velocity P-wave (km/s) = 6.71286 7.31608 7.02095
#
# Compressibility (1/GPa) = 0.01901668
#
# Stress axis : x y z
#
# Youngs Moduli (GPa) = 63.51601 36.55097 71.87967
#
# Poissons Ratio (x) = 0.52072 0.14806
# Poissons Ratio (y) = 0.90488 0.19357
# Poissons Ratio (z) = 0.13083 0.09843
#
# Static dielectric constant tensor:
#      x y z
#    x 1.649280 0.000000 0.000000 
#    y 0.000000 1.653600 0.000000 
#    z 0.000000 0.000000 1.674670 
# 
# From -- ./inp_files/2144.got.cif
#   From: 2010.05.17/outbox.cif.g08.bks.cpg/sg49_2_cif.got.tgz:2144.got - 2010.06.03 21:02:19.
