data_PCOD9394447
_publ_section_title
;
Structure prediction by ZEFSAII (Michael W. Deem and Ramdas Pophale) SiO2 
 PCOD9394447
Probable space group: P C C M
;
_chemical_formula_sum "Si O2"
_cell_formula_units_Z 64
_cell_length_a 8.657849
_cell_length_b 13.320615
_cell_length_c 27.801472
_cell_angle_alpha 90.000000
_cell_angle_beta 90.000000
_cell_angle_gamma 90.000000
_cell_volume 3206.284639
_symmetry_space_group_name_H-M "P C C M"
_symmetry_group_IT_number 49
_symmetry_cell_setting 'orthorhombic'
loop_
_space_group_symop_operation_xyz
x,y,z
-x,-y,z
x,-y,1/2-z
-x,y,1/2-z
-x,-y,-z
x,y,-z
-x,y,1/2+z
x,-y,1/2+z
loop_
_atom_site_type_symbol
_atom_site_label
_atom_site_fract_x
_atom_site_fract_y
_atom_site_fract_z
Si Si1 0.678666 0.981632 0.446718
Si Si2 0.086409 0.403306 0.644785
Si Si3 0.018690 0.296497 0.553835
Si Si4 0.547959 0.598513 0.376721
Si Si5 0.923106 0.238469 0.297190
Si Si6 0.354859 0.607136 0.278697
Si Si7 0.901096 0.896414 0.111879
Si Si8 0.632678 0.760356 0.445693
O O1 0.755150 0.982876 0.500000
O O2 0.745951 0.065163 0.412618
O O3 0.500000 0.000000 0.452593
O O4 0.683878 0.869065 0.426923
O O5 0.271088 0.410738 0.638585
O O6 0.000000 0.500000 0.666079
O O7 0.993984 0.379742 0.594897
O O8 0.052639 0.307723 0.677617
O O9 0.955026 0.311361 0.500000
O O10 0.968691 0.189536 0.576365
O O11 0.204452 0.296350 0.550028
O O12 0.500000 0.500000 0.406557
O O13 0.429662 0.595601 0.331833
O O14 0.531321 0.698008 0.408619
O O15 0.786964 0.316519 0.283061
O O16 0.878080 0.156138 0.336762
O O17 0.000000 0.192444 0.250000
O O18 0.321762 0.500000 0.250000
O O19 0.500000 0.652748 0.250000
O O20 0.000000 0.000000 0.114405
O O21 0.567821 0.772112 0.500000
#
# Coordination Sequence:
#
# PCOD9394447 Si02
#       8
#     8   8   8   8   8   8   8   8
#     4  10  21  37  61  93 128 164 204 251 299 360
#     4  10  22  37  59  89 123 163 201 249 313 365
#     4   9  18  35  59  91 122 159 206 249 295 359
#     4  11  21  37  60  87 125 159 202 256 298 369
#     4  11  26  41  63  91 120 155 202 268 320 375
#     4  11  23  41  64  93 116 153 204 258 316 371
#     4  11  22  40  65  92 120 162 212 255 310 370
#     4   9  19  35  58  88 125 166 202 241 298 362
#
# _framework density 19.960798
#
# number of rings (size 3 to 8) (size 9 to 14) (size 15 to 20)
#    0.000    1.750    2.500    1.875    3.500    1.250 
#    0.000    0.000    0.000    0.000    0.000    0.000 
#    0.000    0.000    0.000    0.000    0.000    0.000 
#
# Total GULP energy -356582.572686 kJ/mol
# GULP energy per Si atom -5571.602698 kJ/mol
# Density = 1.991537 g / cm^3
# Si number density = 19.960798 Si / 1000 Ang^3
#
#
#
# Elastic Constant Matrix: (Units=GPa)
#
#
# Indices 1 2 3 4 5 6 
#
# 1 68.7146 21.9858 24.0668 0.0000 0.0000 0.0000
# 2 21.9858 77.3748 45.0684 0.0000 0.0000 0.0000
# 3 24.0668 45.0684 122.5019 0.0000 0.0000 0.0000
# 4 0.0000 0.0000 0.0000 26.7184 0.0000 0.0000
# 5 0.0000 0.0000 0.0000 0.0000 23.4012 0.0000
# 6 0.0000 0.0000 0.0000 0.0000 0.0000 14.7825
#
#
#
# Elastic Compliance Matrix: (Units=1/GPa)
#
#
# Indices 1 2 3 4 5 6 
#
# 1 0.016353 -0.003532 -0.001913 0.000000 0.000000 0.000000
# 2 -0.003532 0.017212 -0.005638 0.000000 0.000000 0.000000
# 3 -0.001913 -0.005638 0.010613 0.000000 0.000000 0.000000
# 4 0.000000 0.000000 0.000000 0.037427 0.000000 0.000000
# 5 0.000000 0.000000 0.000000 0.000000 0.042733 0.000000
# 6 0.000000 0.000000 0.000000 0.000000 0.000000 0.067647
#
#
# Mechanical properties :
#
#
# Convention : Reuss Voigt Hill
#
# Bulk Modulus (GPa) = 45.43220 50.09256 47.76238
# Shear Modulus (GPa) = 22.57429 24.81177 23.69303
#
# Velocity S-wave (km/s) = 3.36658 3.52948 3.44899
# Velocity P-wave (km/s) = 6.15808 6.46217 6.31195
#
# Compressibility (1/GPa) = 0.02201082
#
# Stress axis : x y z
#
# Youngs Moduli (GPa) = 61.14999 58.09920 94.22103
#
# Poissons Ratio (x) = 0.20523 0.18027
# Poissons Ratio (y) = 0.21600 0.53125
# Poissons Ratio (z) = 0.11699 0.32758
#
# Static dielectric constant tensor:
#      x y z
#    x 1.719820 0.000000 0.000000 
#    y 0.000000 1.735710 0.000000 
#    z 0.000000 0.000000 1.789770 
# 
# From -- ./inp_files/26433.got.cif
#   From: 2010.05.17/outbox.cif.g08.bks.cpg/sg49_14_cif.got.tgz:26433.got - 2010.06.03 21:02:19.
