data_PCOD9394912
_publ_section_title
;
Structure prediction by ZEFSAII (Michael W. Deem and Ramdas Pophale) SiO2 
 PCOD9394912
Probable space group: P C C M
;
_chemical_formula_sum "Si O2"
_cell_formula_units_Z 64
_cell_length_a 15.660002
_cell_length_b 25.188039
_cell_length_c 8.876162
_cell_angle_alpha 90.000000
_cell_angle_beta 90.000000
_cell_angle_gamma 90.000000
_cell_volume 3501.155422
_symmetry_space_group_name_H-M "P C C M"
_symmetry_group_IT_number 49
_symmetry_cell_setting 'orthorhombic'
loop_
_space_group_symop_operation_xyz
x,y,z
-x,-y,z
x,-y,1/2-z
-x,y,1/2-z
-x,-y,-z
x,y,-z
-x,y,1/2+z
x,-y,1/2+z
loop_
_atom_site_type_symbol
_atom_site_label
_atom_site_fract_x
_atom_site_fract_y
_atom_site_fract_z
Si Si1 0.673515 0.260896 0.674704
Si Si2 0.589582 0.642221 0.321132
Si Si3 0.590609 0.058654 0.180986
Si Si4 0.278505 0.141047 0.182296
Si Si5 0.087489 0.830572 0.681306
Si Si6 0.087013 0.599813 0.820982
Si Si7 0.730349 0.556281 0.682077
Si Si8 0.128214 0.289507 0.824186
O O1 0.646617 0.263260 0.500000
O O2 0.613465 0.298240 0.771621
O O3 0.682796 0.199285 0.718099
O O4 0.769313 0.284532 0.684056
O O5 0.500000 0.626345 0.250000
O O6 0.583940 0.639638 0.500000
O O7 0.665056 0.602537 0.271299
O O8 0.500000 0.077780 0.250000
O O9 0.666453 0.096741 0.235197
O O10 0.603966 0.000000 0.250000
O O11 0.585217 0.056099 0.000000
O O12 0.177779 0.142564 0.224098
O O13 0.283247 0.134720 0.000000
O O14 0.083082 0.832033 0.500000
O O15 0.095222 0.768307 0.725094
O O16 0.000000 0.852546 0.750000
O O17 0.173481 0.570985 0.768579
O O18 0.096910 0.661359 0.772838
O O19 0.000000 0.578469 0.750000
O O20 0.082156 0.596159 0.000000
O O21 0.705065 0.500000 0.750000
O O22 0.729918 0.553802 0.500000
O O23 0.104789 0.297867 0.000000
#
# Coordination Sequence:
#
# PCOD9394912 Si02
#       8
#     8   8   8   8   8   8   8   8
#     4   9  18  34  57  83 114 151 186 223 274 329
#     4  11  23  40  60  85 112 141 180 225 276 335
#     4  11  22  38  61  87 115 151 193 239 290 339
#     4   9  19  36  56  83 119 155 194 237 279 331
#     4   9  18  31  49  77 115 154 192 233 275 324
#     4  11  22  36  54  81 110 140 178 222 271 327
#     4  10  24  43  61  80 106 138 178 227 278 331
#     4   9  17  31  52  79 109 146 185 222 269 323
#
# _framework density 18.279681
#
# number of rings (size 3 to 8) (size 9 to 14) (size 15 to 20)
#    0.000    2.125    1.250    4.125    0.000    5.500 
#    0.000    5.000    0.000    0.375    0.000    2.625 
#    0.000    0.000    0.000    0.000    0.000    0.000 
#
# Total GULP energy -357256.156215 kJ/mol
# GULP energy per Si atom -5582.127441 kJ/mol
# Density = 1.823808 g / cm^3
# Si number density = 18.279681 Si / 1000 Ang^3
#
#
#
# Elastic Constant Matrix: (Units=GPa)
#
#
# Indices 1 2 3 4 5 6 
#
# 1 122.6424 54.1811 45.0315 0.0000 0.0000 0.0000
# 2 54.1811 68.3616 32.2914 0.0000 0.0000 0.0000
# 3 45.0315 32.2914 49.3796 0.0000 0.0000 0.0000
# 4 0.0000 0.0000 0.0000 26.4384 0.0000 0.0000
# 5 0.0000 0.0000 0.0000 0.0000 32.2615 0.0000
# 6 0.0000 0.0000 0.0000 0.0000 0.0000 4.3649
#
#
#
# Elastic Compliance Matrix: (Units=1/GPa)
#
#
# Indices 1 2 3 4 5 6 
#
# 1 0.014571 -0.007628 -0.008300 0.000000 0.000000 0.000000
# 2 -0.007628 0.025160 -0.009496 0.000000 0.000000 0.000000
# 3 -0.008300 -0.009496 0.034030 0.000000 0.000000 0.000000
# 4 0.000000 0.000000 0.000000 0.037824 0.000000 0.000000
# 5 0.000000 0.000000 0.000000 0.000000 0.030997 0.000000
# 6 0.000000 0.000000 0.000000 0.000000 0.000000 0.229100
#
#
# Mechanical properties :
#
#
# Convention : Reuss Voigt Hill
#
# Bulk Modulus (GPa) = 43.64450 55.93239 49.78844
# Shear Modulus (GPa) = 11.62336 19.87160 15.74748
#
# Velocity S-wave (km/s) = 2.52437 3.30068 2.93827
# Velocity P-wave (km/s) = 5.69424 6.72239 6.22956
#
# Compressibility (1/GPa) = 0.02291240
#
# Stress axis : x y z
#
# Youngs Moduli (GPa) = 68.62814 39.74600 29.38554
#
# Poissons Ratio (x) = 0.30319 0.24389
# Poissons Ratio (y) = 0.52351 0.27906
# Poissons Ratio (z) = 0.56960 0.37745
#
# Static dielectric constant tensor:
#      x y z
#    x 1.649710 0.000000 0.000000 
#    y 0.000000 1.603180 0.000000 
#    z 0.000000 0.000000 1.613630 
# 
# From -- ./inp_files/4399.got.cif
#   From: 2010.05.17/outbox.cif.g08.bks.cpg/sg49_3_cif.got.tgz:4399.got - 2010.06.03 21:02:19.
