data_PCOD9394250
_publ_section_title
;
Structure prediction by ZEFSAII (Michael W. Deem and Ramdas Pophale) SiO2 
 PCOD9394250
Probable space group: P C C M
;
_chemical_formula_sum "Si O2"
_cell_formula_units_Z 30
_cell_length_a 10.026043
_cell_length_b 15.663507
_cell_length_c 9.609805
_cell_angle_alpha 90.000000
_cell_angle_beta 90.000000
_cell_angle_gamma 90.000000
_cell_volume 1509.152556
_symmetry_space_group_name_H-M "P C C M"
_symmetry_group_IT_number 49
_symmetry_cell_setting 'orthorhombic'
loop_
_space_group_symop_operation_xyz
x,y,z
-x,-y,z
x,-y,1/2-z
-x,y,1/2-z
-x,-y,-z
x,y,-z
-x,y,1/2+z
x,-y,1/2+z
loop_
_atom_site_type_symbol
_atom_site_label
_atom_site_fract_x
_atom_site_fract_y
_atom_site_fract_z
Si Si1 0.847238 0.773894 0.267871
Si Si2 0.322933 0.513934 0.000000
Si Si3 0.500000 0.500000 0.250000
Si Si4 0.629807 0.087192 0.165149
Si Si5 0.214498 0.329790 0.000000
Si Si6 0.907434 0.362936 0.000000
O O1 0.751123 0.847029 0.323277
O O2 0.864617 0.694146 0.369973
O O3 0.000000 0.806362 0.250000
O O4 0.782548 0.732824 0.131072
O O5 0.400679 0.544162 0.861175
O O6 0.313738 0.410417 0.000000
O O7 0.176069 0.551493 0.000000
O O8 0.500000 0.120707 0.250000
O O9 0.662089 0.000000 0.250000
O O10 0.602926 0.072970 0.000000
O O11 0.065727 0.370104 0.000000
#
# Coordination Sequence:
#
# PCOD9394250 Si02
#       6
#     8   4   2   8   4   4
#     4  10  22  41  62  95 128 159 207 264 312 368
#     4  11  21  42  58  86 121 169 208 254 310 359
#     4  10  24  38  54  82 128 154 202 268 300 366
#     4  11  24  44  66  94 126 164 208 253 307 380
#     4  10  22  37  65  90 119 161 211 258 307 364
#     4  10  20  41  63  86 121 159 211 264 303 364
#
# _framework density 19.878705
#
# number of rings (size 3 to 8) (size 9 to 14) (size 15 to 20)
#    0.000    1.600    1.333    3.600    3.733    0.533 
#   14.400    6.667    0.000    0.000    0.000    0.000 
#    0.000    0.000    0.000    0.000    0.000    0.000 
#
# Total GULP energy -167260.631702 kJ/mol
# GULP energy per Si atom -5575.354390 kJ/mol
# Density = 1.983346 g / cm^3
# Si number density = 19.878705 Si / 1000 Ang^3
#
#
#
# Elastic Constant Matrix: (Units=GPa)
#
#
# Indices 1 2 3 4 5 6 
#
# 1 75.9477 52.8630 27.2977 0.0000 0.0000 0.0000
# 2 52.8630 62.6745 27.9202 0.0000 0.0000 0.0000
# 3 27.2977 27.9202 167.3480 0.0000 0.0000 0.0000
# 4 0.0000 0.0000 0.0000 -207.6111 0.0000 0.0000
# 5 0.0000 0.0000 0.0000 0.0000 33.3046 0.0000
# 6 0.0000 0.0000 0.0000 0.0000 0.0000 21.3413
#
#
#
# Elastic Compliance Matrix: (Units=1/GPa)
#
#
# Indices 1 2 3 4 5 6 
#
# 1 0.031980 -0.026629 -0.000774 0.000000 0.000000 0.000000
# 2 -0.026629 0.039410 -0.002231 0.000000 0.000000 0.000000
# 3 -0.000774 -0.002231 0.006474 0.000000 0.000000 0.000000
# 4 0.000000 0.000000 0.000000 -0.004817 0.000000 0.000000
# 5 0.000000 0.000000 0.000000 0.000000 0.030026 0.000000
# 6 0.000000 0.000000 0.000000 0.000000 0.000000 0.046858
#
#
# Mechanical properties :
#
#
# Convention : Reuss Voigt Hill
#
# Bulk Modulus (GPa) = 53.77625 58.01468 55.89546
# Shear Modulus (GPa) = 23.21292 -17.40042 2.90625
#
# Velocity S-wave (km/s) = 3.42091 -2.96181 1.21044
# Velocity P-wave (km/s) = 6.53563 4.18943 5.48934
#
# Compressibility (1/GPa) = 0.01859557
#
# Stress axis : x y z
#
# Youngs Moduli (GPa) = 31.26955 25.37446 154.46211
#
# Poissons Ratio (x) = 0.67569 0.11953
# Poissons Ratio (y) = 0.83267 0.34466
# Poissons Ratio (z) = 0.02420 0.05662
#
# Static dielectric constant tensor:
#      x y z
#    x 1.714570 0.000000 0.000000 
#    y 0.000000 1.653760 0.000000 
#    z 0.000000 0.000000 1.682500 
# 
# From -- ./inp_files/2529.got.cif
#   From: 2010.05.17/outbox.cif.g08.bks.cpg/sg49_2_cif.got.tgz:2529.got - 2010.06.03 21:02:19.
