data_PCOD9394980
_publ_section_title
;
Structure prediction by ZEFSAII (Michael W. Deem and Ramdas Pophale) SiO2 
 PCOD9394980
Probable space group: P C C M
;
_chemical_formula_sum "Si O2"
_cell_formula_units_Z 56
_cell_length_a 19.513501
_cell_length_b 19.372003
_cell_length_c 8.658408
_cell_angle_alpha 90.000000
_cell_angle_beta 90.000000
_cell_angle_gamma 90.000000
_cell_volume 3273.013294
_symmetry_space_group_name_H-M "P C C M"
_symmetry_group_IT_number 49
_symmetry_cell_setting 'orthorhombic'
loop_
_space_group_symop_operation_xyz
x,y,z
-x,-y,z
x,-y,1/2-z
-x,y,1/2-z
-x,-y,-z
x,y,-z
-x,y,1/2+z
x,-y,1/2+z
loop_
_atom_site_type_symbol
_atom_site_label
_atom_site_fract_x
_atom_site_fract_y
_atom_site_fract_z
Si Si1 0.068251 0.577855 0.816144
Si Si2 0.342387 0.924799 0.814471
Si Si3 0.425272 0.207930 0.313558
Si Si4 0.220359 0.422984 0.685987
Si Si5 0.204499 0.154903 0.313321
Si Si6 0.924818 0.076792 0.684687
Si Si7 0.290707 0.712513 0.188220
O O1 0.069077 0.500000 0.750000
O O2 0.143633 0.604354 0.775137
O O3 0.000000 0.612880 0.750000
O O4 0.062123 0.575077 0.000000
O O5 0.397739 0.867617 0.764554
O O6 0.266789 0.896969 0.770855
O O7 0.355522 0.000000 0.750000
O O8 0.343692 0.926749 0.000000
O O9 0.500000 0.222943 0.250000
O O10 0.427387 0.208916 0.500000
O O11 0.365188 0.260317 0.263432
O O12 0.230097 0.500000 0.750000
O O13 0.223499 0.427973 0.500000
O O14 0.272319 0.364255 0.740669
O O15 0.197187 0.153894 0.500000
O O16 0.134372 0.129033 0.238711
O O17 0.233418 0.230469 0.268143
O O18 0.927703 0.073401 0.500000
O O19 0.000000 0.095563 0.750000
O O20 0.908862 0.000000 0.750000
O O21 0.290483 0.712296 0.000000
#
# Coordination Sequence:
#
# PCOD9394980 Si02
#       7
#     8   8   8   8   8   8   8
#     4   9  15  23  38  60  87 116 146 178 217 262
#     4   9  18  30  46  69  96 125 156 190 232 278
#     4   9  18  33  51  71  94 124 158 190 227 277
#     4   9  17  30  49  72  95 124 159 197 238 282
#     4   9  17  32  51  69  92 125 163 202 242 288
#     4  11  21  33  49  70  96 128 167 210 251 289
#     4   8  16  33  54  71  94 128 160 189 236 297
#
# _framework density 17.109615000000002
#
# number of rings (size 3 to 8) (size 9 to 14) (size 15 to 20)
#    0.000    2.857    0.000    4.714    0.000    3.143 
#    0.000    5.714    0.000    2.143    0.000    3.000 
#    0.000    0.000    0.000    0.000    0.000    0.000 
#
# Total GULP energy -311953.709985 kJ/mol
# GULP energy per Si atom -5570.601964 kJ/mol
# Density = 1.707067 g / cm^3
# Si number density = 17.109615 Si / 1000 Ang^3
#
#
#
# Elastic Constant Matrix: (Units=GPa)
#
#
# Indices 1 2 3 4 5 6 
#
# 1 139.1421 80.9534 36.7066 0.0000 0.0000 0.0000
# 2 80.9534 110.2799 24.2472 0.0000 0.0000 0.0000
# 3 36.7066 24.2472 38.0186 0.0000 0.0000 0.0000
# 4 0.0000 0.0000 0.0000 14.2513 0.0000 0.0000
# 5 0.0000 0.0000 0.0000 0.0000 27.4733 0.0000
# 6 0.0000 0.0000 0.0000 0.0000 0.0000 13.8640
#
#
#
# Elastic Compliance Matrix: (Units=1/GPa)
#
#
# Indices 1 2 3 4 5 6 
#
# 1 0.014539 -0.008824 -0.008410 0.000000 0.000000 0.000000
# 2 -0.008824 0.015902 -0.001623 0.000000 0.000000 0.000000
# 3 -0.008410 -0.001623 0.035457 0.000000 0.000000 0.000000
# 4 0.000000 0.000000 0.000000 0.070169 0.000000 0.000000
# 5 0.000000 0.000000 0.000000 0.000000 0.036399 0.000000
# 6 0.000000 0.000000 0.000000 0.000000 0.000000 0.072129
#
#
# Mechanical properties :
#
#
# Convention : Reuss Voigt Hill
#
# Bulk Modulus (GPa) = 35.47844 63.47277 49.47561
# Shear Modulus (GPa) = 17.14070 20.81994 18.98032
#
# Velocity S-wave (km/s) = 3.16858 3.49213 3.33428
# Velocity P-wave (km/s) = 5.84530 7.31015 6.61837
#
# Compressibility (1/GPa) = 0.02818613
#
# Stress axis : x y z
#
# Youngs Moduli (GPa) = 68.77974 62.88590 28.20282
#
# Poissons Ratio (x) = 0.55489 0.23718
# Poissons Ratio (y) = 0.60689 0.04576
# Poissons Ratio (z) = 0.57843 0.10203
#
# Static dielectric constant tensor:
#      x y z
#    x 1.599000 0.000000 0.000000 
#    y 0.000000 1.574460 0.000000 
#    z 0.000000 0.000000 1.583980 
# 
# From -- ./inp_files/5188.got.cif
#   From: 2010.05.17/outbox.cif.g08.bks.cpg/sg49_3_cif.got.tgz:5188.got - 2010.06.03 21:02:19.
