data_PCOD9394371
_publ_section_title
;
Structure prediction by ZEFSAII (Michael W. Deem and Ramdas Pophale) SiO2 
 PCOD9394371
Probable space group: P C C M
;
_chemical_formula_sum "Si O2"
_cell_formula_units_Z 58
_cell_length_a 20.059982
_cell_length_b 16.862315
_cell_length_c 9.015162
_cell_angle_alpha 90.000000
_cell_angle_beta 90.000000
_cell_angle_gamma 90.000000
_cell_volume 3049.448282
_symmetry_space_group_name_H-M "P C C M"
_symmetry_group_IT_number 49
_symmetry_cell_setting 'orthorhombic'
loop_
_space_group_symop_operation_xyz
x,y,z
-x,-y,z
x,-y,1/2-z
-x,y,1/2-z
-x,-y,-z
x,y,-z
-x,y,1/2+z
x,-y,1/2+z
loop_
_atom_site_type_symbol
_atom_site_label
_atom_site_fract_x
_atom_site_fract_y
_atom_site_fract_z
Si Si1 0.429214 0.299033 0.820671
Si Si2 0.743699 0.871317 0.675165
Si Si3 0.500000 0.000000 0.250000
Si Si4 0.893572 0.918925 0.322267
Si Si5 0.611051 0.122161 0.667412
Si Si6 0.067581 0.247623 0.822532
Si Si7 0.200731 0.701294 0.176610
Si Si8 0.319851 0.413931 0.322859
O O1 0.500000 0.321019 0.750000
O O2 0.413655 0.207754 0.775411
O O3 0.373085 0.356298 0.754949
O O4 0.431635 0.303299 0.000000
O O5 0.733984 0.872907 0.500000
O O6 0.813772 0.913486 0.706574
O O7 0.676767 0.903899 0.746100
O O8 0.756444 0.779531 0.719798
O O9 0.551031 0.059548 0.330350
O O10 0.904345 0.916339 0.500000
O O11 0.922929 0.840960 0.244724
O O12 0.918673 0.000000 0.250000
O O13 0.633120 0.134876 0.500000
O O14 0.132585 0.295239 0.767609
O O15 0.000000 0.280158 0.750000
O O16 0.063619 0.244781 0.000000
O O17 0.247181 0.625637 0.199090
O O18 0.185694 0.709767 0.000000
O O19 0.323380 0.500000 0.250000
O O20 0.332233 0.417065 0.500000
#
# Coordination Sequence:
#
# PCOD9394371 Si02
#       8
#     8   8   2   8   8   8   8   8
#     4  11  23  41  63  89 120 162 207 253 309 372
#     4   9  19  36  58  80 108 146 190 240 297 354
#     4  12  26  44  52  82 116 160 202 258 318 360
#     4  10  21  37  54  81 116 153 197 249 306 360
#     4  11  24  39  58  81 111 152 203 254 304 364
#     4  11  22  37  60  88 120 160 204 249 296 359
#     4   9  19  38  62  89 121 157 195 240 295 354
#     4  11  23  41  66  97 129 161 198 249 305 365
#
# _framework density 19.019832999999998
#
# number of rings (size 3 to 8) (size 9 to 14) (size 15 to 20)
#    0.000    1.655    2.069    3.517    0.966    6.069 
#    0.000    2.759    0.000    0.414    0.000    2.897 
#    0.000    0.000    0.000    0.000    0.000    0.000 
#
# Total GULP energy -323912.477638 kJ/mol
# GULP energy per Si atom -5584.697890 kJ/mol
# Density = 1.897654 g / cm^3
# Si number density = 19.019833 Si / 1000 Ang^3
#
#
#
# Elastic Constant Matrix: (Units=GPa)
#
#
# Indices 1 2 3 4 5 6 
#
# 1 136.1089 34.2290 67.3248 0.0000 0.0000 0.0000
# 2 34.2290 105.3463 44.2290 0.0000 0.0000 0.0000
# 3 67.3248 44.2290 80.7674 0.0000 0.0000 0.0000
# 4 0.0000 0.0000 0.0000 48.4814 0.0000 0.0000
# 5 0.0000 0.0000 0.0000 0.0000 26.3047 0.0000
# 6 0.0000 0.0000 0.0000 0.0000 0.0000 10.3991
#
#
#
# Elastic Compliance Matrix: (Units=1/GPa)
#
#
# Indices 1 2 3 4 5 6 
#
# 1 0.012515 0.000407 -0.010655 0.000000 0.000000 0.000000
# 2 0.000407 0.012340 -0.007097 0.000000 0.000000 0.000000
# 3 -0.010655 -0.007097 0.025149 0.000000 0.000000 0.000000
# 4 0.000000 0.000000 0.000000 0.020626 0.000000 0.000000
# 5 0.000000 0.000000 0.000000 0.000000 0.038016 0.000000
# 6 0.000000 0.000000 0.000000 0.000000 0.000000 0.096163
#
#
# Mechanical properties :
#
#
# Convention : Reuss Voigt Hill
#
# Bulk Modulus (GPa) = 65.29705 68.19869 66.74787
# Shear Modulus (GPa) = 20.44127 28.79967 24.62047
#
# Velocity S-wave (km/s) = 3.28187 3.89548 3.60177
# Velocity P-wave (km/s) = 6.98330 7.49450 7.24341
#
# Compressibility (1/GPa) = 0.01531463
#
# Stress axis : x y z
#
# Youngs Moduli (GPa) = 79.90348 81.03906 39.76285
#
# Poissons Ratio (x) = -0.03299 0.42368
# Poissons Ratio (y) = -0.03253 0.28218
# Poissons Ratio (z) = 0.85138 0.57511
#
# Static dielectric constant tensor:
#      x y z
#    x 1.688050 0.000000 0.000000 
#    y 0.000000 1.667040 0.000000 
#    z 0.000000 0.000000 1.642460 
# 
# From -- ./inp_files/5128.got.cif
#   From: 2010.05.17/outbox.cif.g08.bks.cpg/sg49_3_cif.got.tgz:5128.got - 2010.06.03 21:02:19.
