data_PCOD9394139
_publ_section_title
;
Structure prediction by ZEFSAII (Michael W. Deem and Ramdas Pophale) SiO2 
 PCOD9394139
Probable space group: P C C M
;
_chemical_formula_sum "Si O2"
_cell_formula_units_Z 40
_cell_length_a 9.817295
_cell_length_b 8.569647
_cell_length_c 20.468153
_cell_angle_alpha 90.000000
_cell_angle_beta 90.000000
_cell_angle_gamma 90.000000
_cell_volume 1722.001117
_symmetry_space_group_name_H-M "P C C M"
_symmetry_group_IT_number 49
_symmetry_cell_setting 'orthorhombic'
loop_
_space_group_symop_operation_xyz
x,y,z
-x,-y,z
x,-y,1/2-z
-x,y,1/2-z
-x,-y,-z
x,y,-z
-x,y,1/2+z
x,-y,1/2+z
loop_
_atom_site_type_symbol
_atom_site_label
_atom_site_fract_x
_atom_site_fract_y
_atom_site_fract_z
Si Si1 0.851496 0.082854 0.312351
Si Si2 0.472986 0.685511 0.425881
Si Si3 0.141912 0.587802 0.072126
Si Si4 0.722381 0.399243 0.685837
Si Si5 0.258231 0.900086 0.926995
O O1 0.838484 0.267972 0.300737
O O2 0.784359 0.000000 0.250000
O O3 0.769319 0.033541 0.376121
O O4 0.000000 0.000000 0.317286
O O5 0.500000 0.500000 0.429945
O O6 0.417936 0.725344 0.500000
O O7 0.392459 0.690563 0.356674
O O8 0.605267 0.796710 0.418347
O O9 0.221331 0.520262 0.132845
O O10 0.136366 0.773267 0.079139
O O11 0.000000 0.500000 0.071046
O O12 0.206656 0.561627 0.000000
O O13 0.684113 0.500000 0.750000
O O14 0.258694 0.961756 0.000000
#
# Coordination Sequence:
#
# PCOD9394139 Si02
#       5
#     8   8   8   8   8
#     4  11  26  47  64  92 141 183 225 283 351 411
#     4  10  21  42  71 100 137 175 224 288 339 401
#     4  10  20  37  63  94 126 167 227 283 333 397
#     4  12  25  41  68  99 132 179 233 283 338 414
#     4  10  21  41  69  99 134 179 225 278 342 403
#
# _framework density 23.228788999999999
#
# number of rings (size 3 to 8) (size 9 to 14) (size 15 to 20)
#    0.000    1.400    2.000    3.000    0.000    5.200 
#    0.000    3.000    0.000    0.000    0.000    0.000 
#    0.000    0.000    0.000    0.000    0.000    0.000 
#
# Total GULP energy -223131.192322 kJ/mol
# GULP energy per Si atom -5578.279808 kJ/mol
# Density = 2.317592 g / cm^3
# Si number density = 23.228789 Si / 1000 Ang^3
#
#
#
# Elastic Constant Matrix: (Units=GPa)
#
#
# Indices 1 2 3 4 5 6 
#
# 1 52.8891 21.2493 43.1028 0.0000 0.0000 0.0000
# 2 21.2493 112.4171 52.4683 0.0000 0.0000 0.0000
# 3 43.1028 52.4683 192.9585 0.0000 0.0000 0.0000
# 4 0.0000 0.0000 0.0000 18.2882 0.0000 0.0000
# 5 0.0000 0.0000 0.0000 0.0000 32.9957 0.0000
# 6 0.0000 0.0000 0.0000 0.0000 0.0000 18.4327
#
#
#
# Elastic Compliance Matrix: (Units=1/GPa)
#
#
# Indices 1 2 3 4 5 6 
#
# 1 0.023621 -0.002293 -0.004653 0.000000 0.000000 0.000000
# 2 -0.002293 0.010411 -0.002319 0.000000 0.000000 0.000000
# 3 -0.004653 -0.002319 0.006852 0.000000 0.000000 0.000000
# 4 0.000000 0.000000 0.000000 0.054680 0.000000 0.000000
# 5 0.000000 0.000000 0.000000 0.000000 0.030307 0.000000
# 6 0.000000 0.000000 0.000000 0.000000 0.000000 0.054251
#
#
# Mechanical properties :
#
#
# Convention : Reuss Voigt Hill
#
# Bulk Modulus (GPa) = 44.73336 65.76727 55.25031
# Shear Modulus (GPa) = 24.25967 30.03961 27.14964
#
# Velocity S-wave (km/s) = 3.23519 3.60002 3.42247
# Velocity P-wave (km/s) = 5.76670 6.75681 6.28129
#
# Compressibility (1/GPa) = 0.02235468
#
# Stress axis : x y z
#
# Youngs Moduli (GPa) = 42.33577 96.05121 145.93680
#
# Poissons Ratio (x) = 0.22027 0.67901
# Poissons Ratio (y) = 0.09709 0.33838
# Poissons Ratio (z) = 0.19698 0.22271
#
# Static dielectric constant tensor:
#      x y z
#    x 1.989970 0.000000 0.000000 
#    y 0.000000 1.840080 0.000000 
#    z 0.000000 0.000000 1.875090 
# 
# From -- ./inp_files/16836.got.cif
#   From: 2010.05.17/outbox.cif.g08.bks.cpg/sg49_9_cif.got.tgz:16836.got - 2010.06.03 21:02:19.
