data_PCOD9394746
_publ_section_title
;
Structure prediction by ZEFSAII (Michael W. Deem and Ramdas Pophale) SiO2 
 PCOD9394746
Probable space group: P C C M
;
_chemical_formula_sum "Si O2"
_cell_formula_units_Z 64
_cell_length_a 24.006795
_cell_length_b 15.401719
_cell_length_c 8.808855
_cell_angle_alpha 90.000000
_cell_angle_beta 90.000000
_cell_angle_gamma 90.000000
_cell_volume 3257.038114
_symmetry_space_group_name_H-M "P C C M"
_symmetry_group_IT_number 49
_symmetry_cell_setting 'orthorhombic'
loop_
_space_group_symop_operation_xyz
x,y,z
-x,-y,z
x,-y,1/2-z
-x,y,1/2-z
-x,-y,-z
x,y,-z
-x,y,1/2+z
x,-y,1/2+z
loop_
_atom_site_type_symbol
_atom_site_label
_atom_site_fract_x
_atom_site_fract_y
_atom_site_fract_z
Si Si1 0.793516 0.908195 0.817052
Si Si2 0.443988 0.404959 0.822510
Si Si3 0.557366 0.097291 0.317218
Si Si4 0.339487 0.342997 0.669614
Si Si5 0.938419 0.405632 0.817939
Si Si6 0.323989 0.856569 0.173945
Si Si7 0.764013 0.418708 0.674748
Si Si8 0.146159 0.269403 0.822997
O O1 0.730316 0.894670 0.755898
O O2 0.832564 0.825862 0.772131
O O3 0.813582 0.000000 0.750000
O O4 0.792016 0.910530 0.000000
O O5 0.434869 0.500000 0.750000
O O6 0.500000 0.368348 0.750000
O O7 0.391430 0.347751 0.780788
O O8 0.451156 0.414372 0.000000
O O9 0.500000 0.138627 0.250000
O O10 0.554855 0.098166 0.500000
O O11 0.617014 0.131640 0.258748
O O12 0.557130 0.000000 0.250000
O O13 0.357924 0.367402 0.500000
O O14 0.315622 0.246551 0.666256
O O15 0.291518 0.404566 0.729688
O O16 0.920865 0.500000 0.750000
O O17 0.899657 0.324714 0.768326
O O18 0.000000 0.390648 0.750000
O O19 0.939901 0.412491 0.000000
O O20 0.328366 0.890408 0.000000
O O21 0.794664 0.500000 0.750000
O O22 0.751269 0.436737 0.500000
O O23 0.800096 0.332045 0.681516
O O24 0.128396 0.262861 0.000000
#
# Coordination Sequence:
#
# PCOD9394746 Si02
#       8
#     8   8   8   8   8   8   8   8
#     4  11  23  41  64  91 124 163 209 261 317 374
#     4  11  22  38  58  77 102 136 182 234 289 353
#     4  11  22  38  59  81 108 139 180 233 297 369
#     4  11  23  38  56  79 109 144 187 238 291 353
#     4  11  22  38  64  97 138 181 223 263 309 363
#     4  11  23  39  59  83 113 149 194 246 303 368
#     4  11  22  37  57  84 119 158 198 242 299 356
#     4  10  22  40  62  91 128 167 212 261 308 361
#
# _framework density 19.649754000000001
#
# number of rings (size 3 to 8) (size 9 to 14) (size 15 to 20)
#    0.000    1.125    1.250    7.125    0.000    5.000 
#    0.000    0.000    0.000    0.375    0.000    2.625 
#    0.000    0.000    0.000    0.000    0.000    0.000 
#
# Total GULP energy -357523.613066 kJ/mol
# GULP energy per Si atom -5586.306454 kJ/mol
# Density = 1.960503 g / cm^3
# Si number density = 19.649754 Si / 1000 Ang^3
#
#
#
# Elastic Constant Matrix: (Units=GPa)
#
#
# Indices 1 2 3 4 5 6 
#
# 1 98.5921 45.2019 51.6174 0.0000 0.0000 0.0000
# 2 45.2019 124.3623 48.8614 0.0000 0.0000 0.0000
# 3 51.6174 48.8614 158.0627 0.0000 0.0000 0.0000
# 4 0.0000 0.0000 0.0000 28.5914 0.0000 0.0000
# 5 0.0000 0.0000 0.0000 0.0000 26.4180 0.0000
# 6 0.0000 0.0000 0.0000 0.0000 0.0000 26.3788
#
#
#
# Elastic Compliance Matrix: (Units=1/GPa)
#
#
# Indices 1 2 3 4 5 6 
#
# 1 0.013530 -0.003622 -0.003299 0.000000 0.000000 0.000000
# 2 -0.003622 0.010122 -0.001946 0.000000 0.000000 0.000000
# 3 -0.003299 -0.001946 0.008006 0.000000 0.000000 0.000000
# 4 0.000000 0.000000 0.000000 0.034976 0.000000 0.000000
# 5 0.000000 0.000000 0.000000 0.000000 0.037853 0.000000
# 6 0.000000 0.000000 0.000000 0.000000 0.000000 0.037909
#
#
# Mechanical properties :
#
#
# Convention : Reuss Voigt Hill
#
# Bulk Modulus (GPa) = 71.81782 74.70873 73.26328
# Shear Modulus (GPa) = 30.34511 31.96674 31.15592
#
# Velocity S-wave (km/s) = 3.93402 4.03777 3.98623
# Velocity P-wave (km/s) = 7.56728 7.73569 7.65194
#
# Compressibility (1/GPa) = 0.01392412
#
# Stress axis : x y z
#
# Youngs Moduli (GPa) = 73.90743 98.79371 124.91305
#
# Poissons Ratio (x) = 0.35781 0.41208
# Poissons Ratio (y) = 0.26767 0.24312
# Poissons Ratio (z) = 0.24382 0.19228
#
# Static dielectric constant tensor:
#      x y z
#    x 1.698760 0.000000 0.000000 
#    y 0.000000 1.708090 0.000000 
#    z 0.000000 0.000000 1.686970 
# 
# From -- ./inp_files/6542.got.cif
#   From: 2010.05.17/outbox.cif.g08.bks.cpg/sg49_4_cif.got.tgz:6542.got - 2010.06.03 21:02:19.
