data_PCOD9394460
_publ_section_title
;
Structure prediction by ZEFSAII (Michael W. Deem and Ramdas Pophale) SiO2 
 PCOD9394460
Probable space group: P C C M
;
_chemical_formula_sum "Si O2"
_cell_formula_units_Z 36
_cell_length_a 16.298680
_cell_length_b 12.597465
_cell_length_c 9.740424
_cell_angle_alpha 90.000000
_cell_angle_beta 90.000000
_cell_angle_gamma 90.000000
_cell_volume 1999.923832
_symmetry_space_group_name_H-M "P C C M"
_symmetry_group_IT_number 49
_symmetry_cell_setting 'orthorhombic'
loop_
_space_group_symop_operation_xyz
x,y,z
-x,-y,z
x,-y,1/2-z
-x,y,1/2-z
-x,-y,-z
x,y,-z
-x,y,1/2+z
x,-y,1/2+z
loop_
_atom_site_type_symbol
_atom_site_label
_atom_site_fract_x
_atom_site_fract_y
_atom_site_fract_z
Si Si1 0.421082 0.111634 0.167461
Si Si2 0.250079 0.800711 0.244602
Si Si3 0.838742 0.402827 0.850071
Si Si4 0.866312 0.161969 0.500000
Si Si5 0.828174 0.081186 0.000000
Si Si6 0.958398 0.269375 0.000000
O O1 0.500000 0.157114 0.250000
O O2 0.340368 0.180391 0.197203
O O3 0.408382 0.000000 0.250000
O O4 0.432143 0.099081 0.000000
O O5 0.230013 0.685404 0.182206
O O6 0.185563 0.810393 0.366729
O O7 0.227471 0.890493 0.131713
O O8 0.844664 0.500000 0.750000
O O9 0.820007 0.448027 0.000000
O O10 0.924646 0.338957 0.872035
O O11 0.949988 0.228318 0.500000
O O12 0.868928 0.033879 0.500000
O O13 0.901067 0.166007 0.000000
#
# Coordination Sequence:
#
# PCOD9394460 Si02
#       6
#     8   8   8   4   4   4
#     4  11  23  37  59  93 127 171 205 249 307 374
#     4  11  23  38  59  91 123 159 212 253 308 363
#     4   9  21  42  65  87 117 161 209 260 312 357
#     4  12  21  35  61  83 124 162 205 250 294 381
#     4  10  21  38  55  86 120 169 200 252 304 356
#     4   8  21  39  58  87 120 154 210 249 312 346
#
# _framework density 18.000686000000002
#
# number of rings (size 3 to 8) (size 9 to 14) (size 15 to 20)
#    0.667    1.111    2.222    3.667    4.667    3.556 
#    0.000    7.778    2.444    0.667    0.000    3.111 
#    0.000    0.000    0.000    0.000    0.000    0.000 
#
# Total GULP energy -200549.513503 kJ/mol
# GULP energy per Si atom -5570.819820 kJ/mol
# Density = 1.795972 g / cm^3
# Si number density = 18.000686 Si / 1000 Ang^3
#
#
#
# Elastic Constant Matrix: (Units=GPa)
#
#
# Indices 1 2 3 4 5 6 
#
# 1 144.2850 46.6344 59.1841 0.0000 0.0000 0.0000
# 2 46.6344 93.6076 46.4125 0.0000 0.0000 0.0000
# 3 59.1841 46.4125 155.7068 0.0000 0.0000 0.0000
# 4 0.0000 0.0000 0.0000 37.5911 0.0000 0.0000
# 5 0.0000 0.0000 0.0000 0.0000 30.9502 0.0000
# 6 0.0000 0.0000 0.0000 0.0000 0.0000 -23.9492
#
#
#
# Elastic Compliance Matrix: (Units=1/GPa)
#
#
# Indices 1 2 3 4 5 6 
#
# 1 0.008989 -0.003267 -0.002443 0.000000 0.000000 0.000000
# 2 -0.003267 0.013723 -0.002849 0.000000 0.000000 0.000000
# 3 -0.002443 -0.002849 0.008200 0.000000 0.000000 0.000000
# 4 0.000000 0.000000 0.000000 0.026602 0.000000 0.000000
# 5 0.000000 0.000000 0.000000 0.000000 0.032310 0.000000
# 6 0.000000 0.000000 0.000000 0.000000 0.000000 -0.041755
#
#
# Mechanical properties :
#
#
# Convention : Reuss Voigt Hill
#
# Bulk Modulus (GPa) = 72.49168 77.56239 75.02703
# Shear Modulus (GPa) = 71.65021 25.00964 48.32992
#
# Velocity S-wave (km/s) = 6.31590 3.73147 5.18722
# Velocity P-wave (km/s) = 9.67194 7.85794 8.81175
#
# Compressibility (1/GPa) = 0.01379469
#
# Stress axis : x y z
#
# Youngs Moduli (GPa) = 111.25184 72.87112 121.95156
#
# Poissons Ratio (x) = 0.23806 0.29790
# Poissons Ratio (y) = 0.36344 0.34741
# Poissons Ratio (z) = 0.27177 0.20759
#
# Static dielectric constant tensor:
#      x y z
#    x 1.622590 0.000000 0.000000 
#    y 0.000000 1.625490 0.000000 
#    z 0.000000 0.000000 1.648170 
# 
# From -- ./inp_files/3410.got.cif
#   From: 2010.05.17/outbox.cif.g08.bks.cpg/sg49_2_cif.got.tgz:3410.got - 2010.06.03 21:02:19.
