data_PCOD9394994
_publ_section_title
;
Structure prediction by ZEFSAII (Michael W. Deem and Ramdas Pophale) SiO2 
 PCOD9394994
Probable space group: P C C M
;
_chemical_formula_sum "Si O2"
_cell_formula_units_Z 64
_cell_length_a 20.370955
_cell_length_b 10.406406
_cell_length_c 16.001117
_cell_angle_alpha 90.000000
_cell_angle_beta 90.000000
_cell_angle_gamma 90.000000
_cell_volume 3392.051644
_symmetry_space_group_name_H-M "P C C M"
_symmetry_group_IT_number 49
_symmetry_cell_setting 'orthorhombic'
loop_
_space_group_symop_operation_xyz
x,y,z
-x,-y,z
x,-y,1/2-z
-x,y,1/2-z
-x,-y,-z
x,y,-z
-x,y,1/2+z
x,-y,1/2+z
loop_
_atom_site_type_symbol
_atom_site_label
_atom_site_fract_x
_atom_site_fract_y
_atom_site_fract_z
Si Si1 0.149817 0.259088 0.137628
Si Si2 0.924765 0.512160 0.351937
Si Si3 0.925740 0.997341 0.096715
Si Si4 0.151230 0.236473 0.663599
Si Si5 0.428605 0.654269 0.099198
Si Si6 0.288789 0.354463 0.099759
Si Si7 0.284372 0.349247 0.398427
Si Si8 0.430286 0.343021 0.900834
O O1 0.117451 0.394687 0.112737
O O2 0.147249 0.248993 0.237247
O O3 0.226259 0.265882 0.114585
O O4 0.107687 0.141761 0.102735
O O5 0.923499 0.500000 0.250000
O O6 0.893086 0.648434 0.373991
O O7 0.000000 0.500000 0.378226
O O8 0.878838 0.100540 0.139600
O O9 0.930811 0.035508 0.000000
O O10 0.000000 0.000000 0.132161
O O11 0.225208 0.263593 0.634599
O O12 0.356985 0.694886 0.130773
O O13 0.498932 0.699455 0.134831
O O14 0.428615 0.498661 0.105277
O O15 0.429190 0.683530 0.000000
O O16 0.275389 0.501258 0.129791
O O17 0.358960 0.303843 0.133505
O O18 0.297349 0.366694 0.000000
O O19 0.283396 0.347838 0.500000
O O20 0.432085 0.311492 0.000000
#
# Coordination Sequence:
#
# PCOD9394994 Si02
#       8
#     8   8   8   8   8   8   8   8
#     4  11  21  35  55  78 105 138 173 210 254 311
#     4   9  18  32  51  75 100 127 164 206 247 297
#     4  11  25  43  59  77 102 131 168 217 267 312
#     4  11  21  35  55  78 105 138 173 210 254 311
#     4   7  10  18  35  62  96 134 173 209 247 292
#     4   9  16  27  46  73 106 139 172 215 259 298
#     4   9  16  27  46  73 106 139 172 215 259 298
#     4   7  10  18  35  62  96 134 173 209 247 292
#
# _framework density 18.867636000000001
#
# number of rings (size 3 to 8) (size 9 to 14) (size 15 to 20)
#    0.000    2.750    1.250    4.125    0.000    2.000 
#    0.000    0.000    0.000    3.750    0.000    4.375 
#    0.000    7.000    0.000    0.000    0.000    0.000 
#
# Total GULP energy -356546.595057 kJ/mol
# GULP energy per Si atom -5571.040548 kJ/mol
# Density = 1.882469 g / cm^3
# Si number density = 18.867636 Si / 1000 Ang^3
#
#
#
# Elastic Constant Matrix: (Units=GPa)
#
#
# Indices 1 2 3 4 5 6 
#
# 1 176.3407 25.3580 0.9933 0.0000 0.0000 0.0000
# 2 25.3580 44.7038 -3.1246 0.0000 0.0000 0.0000
# 3 0.9933 -3.1246 21.3266 0.0000 0.0000 0.0000
# 4 0.0000 0.0000 0.0000 6.0338 0.0000 0.0000
# 5 0.0000 0.0000 0.0000 0.0000 -37.1237 0.0000
# 6 0.0000 0.0000 0.0000 0.0000 0.0000 17.1403
#
#
#
# Elastic Compliance Matrix: (Units=1/GPa)
#
#
# Indices 1 2 3 4 5 6 
#
# 1 0.006188 -0.003567 -0.000811 0.000000 0.000000 0.000000
# 2 -0.003567 0.024657 0.003779 0.000000 0.000000 0.000000
# 3 -0.000811 0.003779 0.047481 0.000000 0.000000 0.000000
# 4 0.000000 0.000000 0.000000 0.165732 0.000000 0.000000
# 5 0.000000 0.000000 0.000000 0.000000 -0.026937 0.000000
# 6 0.000000 0.000000 0.000000 0.000000 0.000000 0.058342
#
#
# Mechanical properties :
#
#
# Convention : Reuss Voigt Hill
#
# Bulk Modulus (GPa) = 12.96542 32.09160 22.52851
# Shear Modulus (GPa) = 16.53596 11.81972 14.17784
#
# Velocity S-wave (km/s) = 2.96365 2.50562 2.74421
# Velocity P-wave (km/s) = 4.31250 5.04149 4.69118
#
# Compressibility (1/GPa) = 0.07712822
#
# Stress axis : x y z
#
# Youngs Moduli (GPa) = 161.59408 40.55658 21.06096
#
# Poissons Ratio (x) = 0.14466 0.01708
# Poissons Ratio (y) = 0.57640 -0.07958
# Poissons Ratio (z) = 0.13102 -0.15325
#
# Static dielectric constant tensor:
#      x y z
#    x 1.721310 0.000000 0.000000 
#    y 0.000000 1.616820 0.000000 
#    z 0.000000 0.000000 1.676490 
# 
# From -- ./inp_files/18316.got.cif
#   From: 2010.05.17/outbox.cif.g08.bks.cpg/sg49_10_cif.got.tgz:18316.got - 2010.06.03 21:02:19.
