data_PCOD9394661
_publ_section_title
;
Structure prediction by ZEFSAII (Michael W. Deem and Ramdas Pophale) SiO2 
 PCOD9394661
Probable space group: P C C M
;
_chemical_formula_sum "Si O2"
_cell_formula_units_Z 56
_cell_length_a 21.675328
_cell_length_b 7.372029
_cell_length_c 17.290964
_cell_angle_alpha 90.000000
_cell_angle_beta 90.000000
_cell_angle_gamma 90.000000
_cell_volume 2762.942963
_symmetry_space_group_name_H-M "P C C M"
_symmetry_group_IT_number 49
_symmetry_cell_setting 'orthorhombic'
loop_
_space_group_symop_operation_xyz
x,y,z
-x,-y,z
x,-y,1/2-z
-x,y,1/2-z
-x,-y,-z
x,y,-z
-x,y,1/2+z
x,-y,1/2+z
loop_
_atom_site_type_symbol
_atom_site_label
_atom_site_fract_x
_atom_site_fract_y
_atom_site_fract_z
Si Si1 0.199485 0.728752 0.909154
Si Si2 0.070143 0.234528 0.907791
Si Si3 0.192832 0.612573 0.330099
Si Si4 0.064243 0.797364 0.908614
Si Si5 0.506211 0.710826 0.657442
Si Si6 0.590609 0.997443 0.909252
Si Si7 0.718919 0.958981 0.165023
O O1 0.221162 0.526413 0.892773
O O2 0.128809 0.725442 0.878418
O O3 0.238192 0.877523 0.864489
O O4 0.198789 0.773037 0.000000
O O5 0.126133 0.317190 0.859776
O O6 0.000752 0.278012 0.878668
O O7 0.069960 0.015102 0.902462
O O8 0.076794 0.280317 0.000000
O O9 0.190351 0.500000 0.250000
O O10 0.237832 0.784067 0.326798
O O11 0.061801 0.755744 0.000000
O O12 0.500000 0.500000 0.633617
O O13 0.500000 0.718010 0.750000
O O14 0.568465 0.815877 0.631891
O O15 0.452563 0.835319 0.621367
O O16 0.660898 0.947652 0.891150
O O17 0.580982 0.020778 0.000000
O O18 0.693360 0.000000 0.250000
#
# Coordination Sequence:
#
# PCOD9394661 Si02
#       7
#     8   8   8   8   8   8   8
#     4  11  23  40  65  94 124 164 221 276 334 406
#     4   9  17  34  62  89 119 158 210 269 330 403
#     4  12  25  41  62  91 128 172 221 273 340 399
#     4   8  16  33  60  91 117 155 205 264 337 405
#     4  10  21  42  71 105 143 181 215 259 318 382
#     4  11  24  41  68 102 135 174 223 272 326 379
#     4  12  25  46  67  86 130 180 224 277 331 401
#
# _framework density 20.268242000000001
#
# number of rings (size 3 to 8) (size 9 to 14) (size 15 to 20)
#    0.000    1.571    2.857    4.286    0.000    4.571 
#    2.571    3.571    0.000    2.571    0.000    0.000 
#    0.000    0.000    0.000    0.000    0.000    0.000 
#
# Total GULP energy -312665.863898 kJ/mol
# GULP energy per Si atom -5583.318998 kJ/mol
# Density = 2.022211 g / cm^3
# Si number density = 20.268242 Si / 1000 Ang^3
#
#
#
# Elastic Constant Matrix: (Units=GPa)
#
#
# Indices 1 2 3 4 5 6 
#
# 1 99.3640 34.1221 29.1266 0.0000 0.0000 0.0000
# 2 34.1221 111.3421 33.5016 0.0000 0.0000 0.0000
# 3 29.1266 33.5016 72.3908 0.0000 0.0000 0.0000
# 4 0.0000 0.0000 0.0000 72.8512 0.0000 0.0000
# 5 0.0000 0.0000 0.0000 0.0000 51.4150 0.0000
# 6 0.0000 0.0000 0.0000 0.0000 0.0000 -105.9825
#
#
#
# Elastic Compliance Matrix: (Units=1/GPa)
#
#
# Indices 1 2 3 4 5 6 
#
# 1 0.012019 -0.002589 -0.003638 0.000000 0.000000 0.000000
# 2 -0.002589 0.010992 -0.004045 0.000000 0.000000 0.000000
# 3 -0.003638 -0.004045 0.017150 0.000000 0.000000 0.000000
# 4 0.000000 0.000000 0.000000 0.013727 0.000000 0.000000
# 5 0.000000 0.000000 0.000000 0.000000 0.019450 0.000000
# 6 0.000000 0.000000 0.000000 0.000000 0.000000 -0.009436
#
#
# Mechanical properties :
#
#
# Convention : Reuss Voigt Hill
#
# Bulk Modulus (GPa) = 50.97651 52.95528 51.96589
# Shear Modulus (GPa) = 54.95417 16.07984 35.51700
#
# Velocity S-wave (km/s) = 5.21271 2.81970 4.19065
# Velocity P-wave (km/s) = 7.83806 6.06506 7.00786
#
# Compressibility (1/GPa) = 0.01961688
#
# Stress axis : x y z
#
# Youngs Moduli (GPa) = 83.19855 90.97613 58.30992
#
# Poissons Ratio (x) = 0.23553 0.21213
# Poissons Ratio (y) = 0.21539 0.23588
# Poissons Ratio (z) = 0.30267 0.36802
#
# Static dielectric constant tensor:
#      x y z
#    x 1.730570 0.000000 0.000000 
#    y 0.000000 1.753240 0.000000 
#    z 0.000000 0.000000 1.715250 
# 
# From -- ./inp_files/14377.got.cif
#   From: 2010.05.17/outbox.cif.g08.bks.cpg/sg49_8_cif.got.tgz:14377.got - 2010.06.03 21:02:19.
