data_PCOD9394698
_publ_section_title
;
Structure prediction by ZEFSAII (Michael W. Deem and Ramdas Pophale) SiO2 
 PCOD9394698
Probable space group: P C C M
;
_chemical_formula_sum "Si O2"
_cell_formula_units_Z 28
_cell_length_a 13.283399
_cell_length_b 11.402127
_cell_length_c 9.449744
_cell_angle_alpha 90.000000
_cell_angle_beta 90.000000
_cell_angle_gamma 90.000000
_cell_volume 1431.248799
_symmetry_space_group_name_H-M "P C C M"
_symmetry_group_IT_number 49
_symmetry_cell_setting 'orthorhombic'
loop_
_space_group_symop_operation_xyz
x,y,z
-x,-y,z
x,-y,1/2-z
-x,y,1/2-z
-x,-y,-z
x,y,-z
-x,y,1/2+z
x,-y,1/2+z
loop_
_atom_site_type_symbol
_atom_site_label
_atom_site_fract_x
_atom_site_fract_y
_atom_site_fract_z
Si Si1 0.719222 0.876000 0.671526
Si Si2 0.900370 0.294424 0.840622
Si Si3 0.241522 0.500000 0.750000
Si Si4 0.596381 0.681246 0.162553
O O1 0.705024 0.882726 0.500000
O O2 0.826846 0.813002 0.698511
O O3 0.638750 0.790786 0.747075
O O4 0.715466 0.000000 0.750000
O O5 0.830956 0.410220 0.831208
O O6 0.000000 0.306194 0.750000
O O7 0.933572 0.276180 0.000000
O O8 0.316351 0.416876 0.837804
O O9 0.500000 0.638211 0.250000
O O10 0.571670 0.711416 0.000000
#
# Coordination Sequence:
#
# PCOD9394698 Si02
#       4
#     8   8   4   8
#     4  10  22  41  62  86 117 152 195 243 292 346
#     4  10  22  38  58  86 118 153 193 238 288 343
#     4  10  22  38  60  86 118 156 196 240 286 340
#     4  11  23  39  61  88 119 155 195 240 292 347
#
# _framework density 19.563333
#
# number of rings (size 3 to 8) (size 9 to 14) (size 15 to 20)
#    0.000    1.714    0.000    3.429    0.000   13.714 
#    0.000    5.714    0.000    0.000    0.000    0.000 
#    0.000    0.000    0.000    0.000    0.000    0.000 
#
# Total GULP energy -156282.017418 kJ/mol
# GULP energy per Si atom -5581.500622 kJ/mol
# Density = 1.951881 g / cm^3
# Si number density = 19.563333 Si / 1000 Ang^3
#
#
#
# Elastic Constant Matrix: (Units=GPa)
#
#
# Indices 1 2 3 4 5 6 
#
# 1 110.1978 32.5681 68.8024 0.0000 0.0000 0.0000
# 2 32.5681 127.2705 47.3050 0.0000 0.0000 0.0000
# 3 68.8024 47.3050 124.4304 0.0000 0.0000 0.0000
# 4 0.0000 0.0000 0.0000 -137.8050 0.0000 0.0000
# 5 0.0000 0.0000 0.0000 0.0000 20.2805 0.0000
# 6 0.0000 0.0000 0.0000 0.0000 0.0000 4.2906
#
#
#
# Elastic Compliance Matrix: (Units=1/GPa)
#
#
# Indices 1 2 3 4 5 6 
#
# 1 0.013932 -0.000817 -0.007393 0.000000 0.000000 0.000000
# 2 -0.000817 0.009198 -0.003045 0.000000 0.000000 0.000000
# 3 -0.007393 -0.003045 0.013282 0.000000 0.000000 0.000000
# 4 0.000000 0.000000 0.000000 -0.007257 0.000000 0.000000
# 5 0.000000 0.000000 0.000000 0.000000 0.049309 0.000000
# 6 0.000000 0.000000 0.000000 0.000000 0.000000 0.233069
#
#
# Mechanical properties :
#
#
# Convention : Reuss Voigt Hill
#
# Bulk Modulus (GPa) = 71.93236 73.24999 72.59117
# Shear Modulus (GPa) = 14.76333 -8.43192 3.16571
#
# Velocity S-wave (km/s) = 2.75006 -2.07832 1.27346
# Velocity P-wave (km/s) = 6.85073 5.63600 6.27284
#
# Compressibility (1/GPa) = 0.01390195
#
# Stress axis : x y z
#
# Youngs Moduli (GPa) = 71.77814 108.71669 75.29000
#
# Poissons Ratio (x) = 0.08886 0.55660
# Poissons Ratio (y) = 0.05867 0.22926
# Poissons Ratio (z) = 0.53064 0.33104
#
# Static dielectric constant tensor:
#      x y z
#    x 1.707390 0.000000 0.000000 
#    y 0.000000 1.686320 0.000000 
#    z 0.000000 0.000000 1.667620 
# 
# From -- ./inp_files/2403.got.cif
#   From: 2010.05.17/outbox.cif.g08.bks.cpg/sg49_2_cif.got.tgz:2403.got - 2010.06.03 21:02:19.
