data_PCOD9394785
_publ_section_title
;
Structure prediction by ZEFSAII (Michael W. Deem and Ramdas Pophale) SiO2 
 PCOD9394785
Probable space group: P C C M
;
_chemical_formula_sum "Si O2"
_cell_formula_units_Z 48
_cell_length_a 13.957310
_cell_length_b 18.010143
_cell_length_c 9.331349
_cell_angle_alpha 90.000000
_cell_angle_beta 90.000000
_cell_angle_gamma 90.000000
_cell_volume 2345.650583
_symmetry_space_group_name_H-M "P C C M"
_symmetry_group_IT_number 49
_symmetry_cell_setting 'orthorhombic'
loop_
_space_group_symop_operation_xyz
x,y,z
-x,-y,z
x,-y,1/2-z
-x,y,1/2-z
-x,-y,-z
x,y,-z
-x,y,1/2+z
x,-y,1/2+z
loop_
_atom_site_type_symbol
_atom_site_label
_atom_site_fract_x
_atom_site_fract_y
_atom_site_fract_z
Si Si1 0.080033 0.392205 0.500000
Si Si2 0.867079 0.435267 0.500000
Si Si3 0.212799 0.654006 0.252839
Si Si4 0.410909 0.920103 0.829977
Si Si5 0.094249 0.210689 0.167137
Si Si6 0.597484 0.578585 0.670990
Si Si7 0.806414 0.920678 0.329504
O O1 0.105652 0.479387 0.500000
O O2 0.132500 0.357040 0.366730
O O3 0.965812 0.388098 0.500000
O O4 0.806806 0.411540 0.364570
O O5 0.183394 0.731983 0.322056
O O6 0.318018 0.638393 0.193092
O O7 0.500000 0.880969 0.750000
O O8 0.303144 0.890197 0.815698
O O9 0.404821 0.000000 0.750000
O O10 0.430449 0.927924 0.000000
O O11 0.124695 0.136444 0.250351
O O12 0.000000 0.239289 0.250000
O O13 0.072876 0.197838 0.000000
O O14 0.621042 0.500000 0.750000
O O15 0.500000 0.603457 0.750000
O O16 0.584640 0.566722 0.500000
O O17 0.825744 0.928125 0.500000
O O18 0.811955 0.000000 0.250000
#
# Coordination Sequence:
#
# PCOD9394785 Si02
#       7
#     4   4   8   8   8   8   8
#     4  11  22  38  61  93 130 168 215 260 317 375
#     4  11  22  38  61  93 130 170 213 262 311 381
#     4  12  25  40  64  94 131 173 215 269 327 387
#     4   9  16  28  52  87 123 160 195 244 302 365
#     4  12  27  45  68  93 126 171 215 265 330 400
#     4  11  24  41  67  96 130 173 224 278 329 390
#     4  10  22  41  66  95 129 165 216 273 326 392
#
# _framework density 20.463405000000002
#
# number of rings (size 3 to 8) (size 9 to 14) (size 15 to 20)
#    0.000    1.167    1.667    6.000    4.667    3.667 
#    0.000    2.500    0.000    0.000    0.000    0.000 
#    0.000    0.000    0.000    0.000    0.000    0.000 
#
# Total GULP energy -267972.109761 kJ/mol
# GULP energy per Si atom -5582.752287 kJ/mol
# Density = 2.041683 g / cm^3
# Si number density = 20.463405 Si / 1000 Ang^3
#
#
#
# Elastic Constant Matrix: (Units=GPa)
#
#
# Indices 1 2 3 4 5 6 
#
# 1 120.4035 38.6230 55.0094 0.0000 0.0000 0.0000
# 2 38.6230 56.2014 28.1814 0.0000 0.0000 0.0000
# 3 55.0094 28.1814 180.9203 0.0000 0.0000 0.0000
# 4 0.0000 0.0000 0.0000 23.8498 0.0000 0.0000
# 5 0.0000 0.0000 0.0000 0.0000 30.7550 0.0000
# 6 0.0000 0.0000 0.0000 0.0000 0.0000 29.6524
#
#
#
# Elastic Compliance Matrix: (Units=1/GPa)
#
#
# Indices 1 2 3 4 5 6 
#
# 1 0.011595 -0.006726 -0.002478 0.000000 0.000000 0.000000
# 2 -0.006726 0.023202 -0.001569 0.000000 0.000000 0.000000
# 3 -0.002478 -0.001569 0.006525 0.000000 0.000000 0.000000
# 4 0.000000 0.000000 0.000000 0.041929 0.000000 0.000000
# 5 0.000000 0.000000 0.000000 0.000000 0.032515 0.000000
# 6 0.000000 0.000000 0.000000 0.000000 0.000000 0.033724
#
#
# Mechanical properties :
#
#
# Convention : Reuss Voigt Hill
#
# Bulk Modulus (GPa) = 50.56476 66.79474 58.67975
# Shear Modulus (GPa) = 28.14867 32.56553 30.35710
#
# Velocity S-wave (km/s) = 3.71288 3.99357 3.85578
# Velocity P-wave (km/s) = 6.56842 7.34688 6.96853
#
# Compressibility (1/GPa) = 0.01977662
#
# Stress axis : x y z
#
# Youngs Moduli (GPa) = 86.24417 43.09948 153.25432
#
# Poissons Ratio (x) = 0.28988 0.37974
# Poissons Ratio (y) = 0.58007 0.24047
# Poissons Ratio (z) = 0.21370 0.06763
#
# Static dielectric constant tensor:
#      x y z
#    x 1.765540 0.000000 0.000000 
#    y 0.000000 1.722150 0.000000 
#    z 0.000000 0.000000 1.747700 
# 
# From -- ./inp_files/3760.got.cif
#   From: 2010.05.17/outbox.cif.g08.bks.cpg/sg49_2_cif.got.tgz:3760.got - 2010.06.03 21:02:19.
