data_PCOD9394700
_publ_section_title
;
Structure prediction by ZEFSAII (Michael W. Deem and Ramdas Pophale) SiO2 
 PCOD9394700
Probable space group: P C C M
;
_chemical_formula_sum "Si O2"
_cell_formula_units_Z 56
_cell_length_a 8.951708
_cell_length_b 13.722421
_cell_length_c 21.757529
_cell_angle_alpha 90.000000
_cell_angle_beta 90.000000
_cell_angle_gamma 90.000000
_cell_volume 2672.675408
_symmetry_space_group_name_H-M "P C C M"
_symmetry_group_IT_number 49
_symmetry_cell_setting 'orthorhombic'
loop_
_space_group_symop_operation_xyz
x,y,z
-x,-y,z
x,-y,1/2-z
-x,y,1/2-z
-x,-y,-z
x,y,-z
-x,y,1/2+z
x,-y,1/2+z
loop_
_atom_site_type_symbol
_atom_site_label
_atom_site_fract_x
_atom_site_fract_y
_atom_site_fract_z
Si Si1 0.737584 0.334878 0.429648
Si Si2 0.454961 0.230854 0.432376
Si Si3 0.142737 0.111414 0.931415
Si Si4 0.174182 0.116362 0.257846
Si Si5 0.611333 0.915217 0.157831
Si Si6 0.853572 0.790993 0.617924
Si Si7 0.964557 0.613269 0.824235
O O1 0.774236 0.373815 0.500000
O O2 0.557740 0.326636 0.424435
O O3 0.791322 0.221685 0.432050
O O4 0.812292 0.374662 0.366502
O O5 0.490479 0.191683 0.500000
O O6 0.510942 0.154063 0.383134
O O7 0.278441 0.240500 0.426587
O O8 0.250769 0.051648 0.886305
O O9 0.975666 0.132558 0.907930
O O10 0.144471 0.071789 0.000000
O O11 0.298325 0.146665 0.208666
O O12 0.216449 0.157340 0.322967
O O13 0.000000 0.145066 0.250000
O O14 0.177436 0.000000 0.250000
O O15 0.500000 0.000000 0.180052
O O16 0.933481 0.693235 0.641828
O O17 0.000000 0.500000 0.832661
O O18 0.000000 0.630247 0.750000
#
# Coordination Sequence:
#
# PCOD9394700 Si02
#       7
#     8   8   8   8   8   8   8
#     4   8  17  36  59  84 121 163 200 243 304 377
#     4  10  22  38  58  89 123 159 207 255 307 375
#     4   9  18  34  58  84 114 161 207 246 298 363
#     4  11  23  39  59  86 123 159 209 260 298 361
#     4  11  22  38  58  86 122 162 206 254 314 371
#     4  11  21  38  64  87 120 167 204 257 312 367
#     4  10  22  39  63  95 124 155 205 264 320 381
#
# _framework density 20.952787000000001
#
# number of rings (size 3 to 8) (size 9 to 14) (size 15 to 20)
#    0.000    2.000    1.429    3.000    4.000    4.000 
#    0.000    0.714    0.000    6.000    0.000    0.000 
#    0.000    0.000    0.000    0.000    0.000    0.000 
#
# Total GULP energy -311800.210444 kJ/mol
# GULP energy per Si atom -5567.860901 kJ/mol
# Density = 2.090510 g / cm^3
# Si number density = 20.952787 Si / 1000 Ang^3
#
#
#
# Elastic Constant Matrix: (Units=GPa)
#
#
# Indices 1 2 3 4 5 6 
#
# 1 148.8656 15.7611 71.2489 0.0000 0.0000 0.0000
# 2 15.7611 52.2086 15.2191 0.0000 0.0000 0.0000
# 3 71.2489 15.2191 137.9045 0.0000 0.0000 0.0000
# 4 0.0000 0.0000 0.0000 4.6925 0.0000 0.0000
# 5 0.0000 0.0000 0.0000 0.0000 34.3400 0.0000
# 6 0.0000 0.0000 0.0000 0.0000 0.0000 11.3303
#
#
#
# Elastic Compliance Matrix: (Units=1/GPa)
#
#
# Indices 1 2 3 4 5 6 
#
# 1 0.009024 -0.001410 -0.004506 0.000000 0.000000 0.000000
# 2 -0.001410 0.020011 -0.001480 0.000000 0.000000 0.000000
# 3 -0.004506 -0.001480 0.009743 0.000000 0.000000 0.000000
# 4 0.000000 0.000000 0.000000 0.213106 0.000000 0.000000
# 5 0.000000 0.000000 0.000000 0.000000 0.029121 0.000000
# 6 0.000000 0.000000 0.000000 0.000000 0.000000 0.088259
#
#
# Mechanical properties :
#
#
# Convention : Reuss Voigt Hill
#
# Bulk Modulus (GPa) = 41.69365 60.38190 51.03777
# Shear Modulus (GPa) = 12.75341 25.85585 19.30463
#
# Velocity S-wave (km/s) = 2.46981 3.51665 3.03865
# Velocity P-wave (km/s) = 5.29862 6.73571 6.05991
#
# Compressibility (1/GPa) = 0.02398447
#
# Stress axis : x y z
#
# Youngs Moduli (GPa) = 110.82000 49.97231 102.63814
#
# Poissons Ratio (x) = 0.07048 0.46253
# Poissons Ratio (y) = 0.15631 0.15187
# Poissons Ratio (z) = 0.49940 0.07394
#
# Static dielectric constant tensor:
#      x y z
#    x 1.875080 0.000000 0.000000 
#    y 0.000000 1.720730 0.000000 
#    z 0.000000 0.000000 1.837500 
# 
# From -- ./inp_files/19873.got.cif
#   From: 2010.05.17/outbox.cif.g08.bks.cpg/sg49_10_cif.got.tgz:19873.got - 2010.06.03 21:02:19.
