data_PCOD9394707
_publ_section_title
;
Structure prediction by ZEFSAII (Michael W. Deem and Ramdas Pophale) SiO2 
 PCOD9394707
Probable space group: P C C M
;
_chemical_formula_sum "Si O2"
_cell_formula_units_Z 32
_cell_length_a 7.068222
_cell_length_b 5.288316
_cell_length_c 36.257466
_cell_angle_alpha 90.000000
_cell_angle_beta 90.000000
_cell_angle_gamma 90.000000
_cell_volume 1355.267513
_symmetry_space_group_name_H-M "P C C M"
_symmetry_group_IT_number 49
_symmetry_cell_setting 'orthorhombic'
loop_
_space_group_symop_operation_xyz
x,y,z
-x,-y,z
x,-y,1/2-z
-x,y,1/2-z
-x,-y,-z
x,y,-z
-x,y,1/2+z
x,-y,1/2+z
loop_
_atom_site_type_symbol
_atom_site_label
_atom_site_fract_x
_atom_site_fract_y
_atom_site_fract_z
Si Si1 0.787756 0.752385 0.733482
Si Si2 0.369280 0.254171 0.655027
Si Si3 0.271648 0.037934 0.958182
Si Si4 0.274033 0.541091 0.077592
O O1 0.701690 0.500000 0.750000
O O2 0.769832 0.770342 0.689690
O O3 0.000000 0.751611 0.750000
O O4 0.696221 0.000000 0.750000
O O5 0.500000 0.500000 0.662565
O O6 0.259293 0.332854 0.617856
O O7 0.500000 0.000000 0.650430
O O8 0.200890 0.755429 0.950053
O O9 0.500000 0.000000 0.954838
O O10 0.205034 0.257076 0.930201
O O11 0.231790 0.117605 0.000000
O O12 0.500000 0.500000 0.072343
#
# Coordination Sequence:
#
# PCOD9394707 Si02
#       4
#     8   8   8   8
#     4  10  22  39  56  75 101 134 167 213 267 316
#     4  11  21  33  52  76 103 136 174 217 262 308
#     4   9  15  23  37  57  87 131 174 204 238 289
#     4   9  16  26  38  60  93 127 167 209 247 289
#
# _framework density 23.611577
#
# number of rings (size 3 to 8) (size 9 to 14) (size 15 to 20)
#    0.000    2.250    0.000    6.000    0.000    6.000 
#    0.000    0.000    0.000    0.000    0.000    0.000 
#    0.000    0.000    0.000   90.000    0.000  107.000 
#
# Total GULP energy -178543.818531 kJ/mol
# GULP energy per Si atom -5579.494329 kJ/mol
# Density = 2.355784 g / cm^3
# Si number density = 23.611577 Si / 1000 Ang^3
#
#
#
# Elastic Constant Matrix: (Units=GPa)
#
#
# Indices 1 2 3 4 5 6 
#
# 1 99.7505 3.6503 16.8140 0.0000 0.0000 0.0000
# 2 3.6503 200.2030 89.5491 0.0000 0.0000 0.0000
# 3 16.8140 89.5491 144.1348 0.0000 0.0000 0.0000
# 4 0.0000 0.0000 0.0000 34.5001 0.0000 0.0000
# 5 0.0000 0.0000 0.0000 0.0000 106.6514 0.0000
# 6 0.0000 0.0000 0.0000 0.0000 0.0000 -42.7517
#
#
#
# Elastic Compliance Matrix: (Units=1/GPa)
#
#
# Indices 1 2 3 4 5 6 
#
# 1 0.010260 0.000482 -0.001496 0.000000 0.000000 0.000000
# 2 0.000482 0.006940 -0.004368 0.000000 0.000000 0.000000
# 3 -0.001496 -0.004368 0.009826 0.000000 0.000000 0.000000
# 4 0.000000 0.000000 0.000000 0.028985 0.000000 0.000000
# 5 0.000000 0.000000 0.000000 0.000000 0.009376 0.000000
# 6 0.000000 0.000000 0.000000 0.000000 0.000000 -0.023391
#
#
# Mechanical properties :
#
#
# Convention : Reuss Voigt Hill
#
# Bulk Modulus (GPa) = 61.49477 73.79055 67.64266
# Shear Modulus (GPa) = 85.93831 41.95164 63.94497
#
# Velocity S-wave (km/s) = 6.03951 4.21971 5.20969
# Velocity P-wave (km/s) = 8.64495 7.42031 8.05593
#
# Compressibility (1/GPa) = 0.01626155
#
# Stress axis : x y z
#
# Youngs Moduli (GPa) = 97.46964 144.09505 101.76829
#
# Poissons Ratio (x) = -0.06950 0.15229
# Poissons Ratio (y) = -0.04701 0.44451
# Poissons Ratio (z) = 0.14586 0.62939
#
# Static dielectric constant tensor:
#      x y z
#    x 1.916920 0.000000 0.000000 
#    y 0.000000 2.051570 0.000000 
#    z 0.000000 0.000000 1.904300 
# 
# From -- ./inp_files/25999.got.cif
#   From: 2010.05.17/outbox.cif.g08.bks.cpg/sg49_13_cif.got.tgz:25999.got - 2010.06.03 21:02:19.
