data_PCOD9394864
_publ_section_title
;
Structure prediction by ZEFSAII (Michael W. Deem and Ramdas Pophale) SiO2 
 PCOD9394864
Probable space group: P C C M
;
_chemical_formula_sum "Si O2"
_cell_formula_units_Z 48
_cell_length_a 7.262466
_cell_length_b 21.029599
_cell_length_c 15.071508
_cell_angle_alpha 90.000000
_cell_angle_beta 90.000000
_cell_angle_gamma 90.000000
_cell_volume 2301.822400
_symmetry_space_group_name_H-M "P C C M"
_symmetry_group_IT_number 49
_symmetry_cell_setting 'orthorhombic'
loop_
_space_group_symop_operation_xyz
x,y,z
-x,-y,z
x,-y,1/2-z
-x,y,1/2-z
-x,-y,-z
x,y,-z
-x,y,1/2+z
x,-y,1/2+z
loop_
_atom_site_type_symbol
_atom_site_label
_atom_site_fract_x
_atom_site_fract_y
_atom_site_fract_z
Si Si1 0.012297 0.928098 0.100561
Si Si2 0.235220 0.606584 0.500000
Si Si3 0.549311 0.071486 0.101290
Si Si4 0.223014 0.503388 0.352146
Si Si5 0.467377 0.715030 0.000000
Si Si6 0.792228 0.402679 0.000000
Si Si7 0.000000 0.165578 0.750000
Si Si8 0.609631 0.203255 0.827130
O O1 0.230875 0.919609 0.095564
O O2 0.928074 0.880055 0.170709
O O3 0.939339 0.923046 0.000000
O O4 0.000000 0.000000 0.132600
O O5 0.279406 0.564712 0.411377
O O6 0.342764 0.673690 0.500000
O O7 0.012108 0.609070 0.500000
O O8 0.509584 0.134268 0.157515
O O9 0.500000 0.000000 0.134180
O O10 0.477141 0.074775 0.000000
O O11 0.286839 0.500000 0.250000
O O12 0.268227 0.443245 0.414017
O O13 0.000000 0.500000 0.349290
O O14 0.429633 0.759343 0.083794
O O15 0.310205 0.662655 0.000000
O O16 0.823488 0.199422 0.795148
O O17 0.500000 0.237746 0.750000
#
# Coordination Sequence:
#
# PCOD9394864 Si02
#       8
#     8   4   8   8   4   4   4   8
#     4   9  18  33  57  94 120 141 188 255 336 415
#     4   9  20  38  64  99 131 173 217 254 321 378
#     4   9  18  36  63  86 115 153 191 257 344 397
#     4   8  15  33  63 103 136 164 211 266 316 377
#     4  12  26  45  63  88 137 176 227 275 300 380
#     4   9  20  38  64  93 131 178 210 260 324 364
#     4  10  23  42  64  86 120 160 209 276 324 388
#     4  11  26  45  63  91 121 169 223 274 326 393
#
# _framework density 20.853044000000001
#
# number of rings (size 3 to 8) (size 9 to 14) (size 15 to 20)
#    0.000    2.500    0.833    1.250    3.500    4.333 
#    1.500    2.500    0.000    0.000    0.000    0.000 
#    0.000    0.000    0.000    0.000    0.000    0.000 
#
# Total GULP energy -267437.228188 kJ/mol
# GULP energy per Si atom -5571.608921 kJ/mol
# Density = 2.080558 g / cm^3
# Si number density = 20.853044 Si / 1000 Ang^3
#
#
#
# Elastic Constant Matrix: (Units=GPa)
#
#
# Indices 1 2 3 4 5 6 
#
# 1 98.5148 17.2916 23.6395 0.0000 0.0000 0.0000
# 2 17.2916 81.6842 53.8724 0.0000 0.0000 0.0000
# 3 23.6395 53.8724 166.3578 0.0000 0.0000 0.0000
# 4 0.0000 0.0000 0.0000 34.2608 0.0000 0.0000
# 5 0.0000 0.0000 0.0000 0.0000 8.2835 0.0000
# 6 0.0000 0.0000 0.0000 0.0000 0.0000 33.5007
#
#
#
# Elastic Compliance Matrix: (Units=1/GPa)
#
#
# Indices 1 2 3 4 5 6 
#
# 1 0.010671 -0.001601 -0.000998 0.000000 0.000000 0.000000
# 2 -0.001601 0.015807 -0.004891 0.000000 0.000000 0.000000
# 3 -0.000998 -0.004891 0.007737 0.000000 0.000000 0.000000
# 4 0.000000 0.000000 0.000000 0.029188 0.000000 0.000000
# 5 0.000000 0.000000 0.000000 0.000000 0.120722 0.000000
# 6 0.000000 0.000000 0.000000 0.000000 0.000000 0.029850
#
#
# Mechanical properties :
#
#
# Convention : Reuss Voigt Hill
#
# Bulk Modulus (GPa) = 51.98879 59.57375 55.78127
# Shear Modulus (GPa) = 21.24336 31.99254 26.61795
#
# Velocity S-wave (km/s) = 3.19520 3.92112 3.57663
# Velocity P-wave (km/s) = 6.21269 7.00933 6.62300
#
# Compressibility (1/GPa) = 0.01923492
#
# Stress axis : x y z
#
# Youngs Moduli (GPa) = 93.71008 63.26265 129.24973
#
# Poissons Ratio (x) = 0.10127 0.12899
# Poissons Ratio (y) = 0.15001 0.63221
# Poissons Ratio (z) = 0.09352 0.30944
#
# Static dielectric constant tensor:
#      x y z
#    x 1.866710 0.000000 0.000000 
#    y 0.000000 1.740060 0.000000 
#    z 0.000000 0.000000 1.724540 
# 
# From -- ./inp_files/11920.got.cif
#   From: 2010.05.17/outbox.cif.g08.bks.cpg/sg49_6_cif.got.tgz:11920.got - 2010.06.03 21:02:19.
