data_PCOD9394096
_publ_section_title
;
Structure prediction by ZEFSAII (Michael W. Deem and Ramdas Pophale) SiO2 
 PCOD9394096
Probable space group: P C C M
;
_chemical_formula_sum "Si O2"
_cell_formula_units_Z 52
_cell_length_a 19.782232
_cell_length_b 5.201103
_cell_length_c 24.099863
_cell_angle_alpha 90.000000
_cell_angle_beta 90.000000
_cell_angle_gamma 90.000000
_cell_volume 2479.621076
_symmetry_space_group_name_H-M "P C C M"
_symmetry_group_IT_number 49
_symmetry_cell_setting 'orthorhombic'
loop_
_space_group_symop_operation_xyz
x,y,z
-x,-y,z
x,-y,1/2-z
-x,y,1/2-z
-x,-y,-z
x,y,-z
-x,y,1/2+z
x,-y,1/2+z
loop_
_atom_site_type_symbol
_atom_site_label
_atom_site_fract_x
_atom_site_fract_y
_atom_site_fract_z
Si Si1 0.251720 0.270481 0.500000
Si Si2 0.704061 0.125168 0.882009
Si Si3 0.839665 0.228333 0.500000
Si Si4 0.428253 0.892443 0.186683
Si Si5 0.636567 0.500000 0.250000
Si Si6 0.903091 0.257606 0.285550
Si Si7 0.751433 0.647072 0.175528
Si Si8 0.044141 0.751782 0.410405
O O1 0.294429 0.219093 0.555260
O O2 0.216818 0.549066 0.500000
O O3 0.193358 0.053084 0.500000
O O4 0.630261 0.061784 0.857687
O O5 0.738431 0.358915 0.847149
O O6 0.744307 0.861431 0.871987
O O7 0.888109 0.257869 0.446657
O O8 0.413342 0.594659 0.201619
O O9 0.500000 0.000000 0.167950
O O10 0.420252 0.000000 0.250000
O O11 0.691368 0.687655 0.220546
O O12 0.926981 0.500000 0.250000
O O13 0.823786 0.309840 0.297551
O O14 0.938012 0.237142 0.345253
O O15 0.911463 0.000000 0.250000
O O16 0.000000 0.500000 0.421440
O O17 0.000000 0.000000 0.425536
#
# Coordination Sequence:
#
# PCOD9394096 Si02
#       8
#     4   8   4   8   4   8   8   8
#     4  12  24  43  71  96 130 160 217 270 347 381
#     4  11  23  40  61  94 128 172 209 274 326 388
#     4  12  26  49  72 100 119 164 223 290 327 387
#     4  10  21  37  58  91 132 170 218 254 313 374
#     4  10  20  37  60  92 129 168 216 272 322 370
#     4  12  25  39  63  96 133 173 214 259 329 405
#     4  11  22  39  62  93 129 164 218 267 328 376
#     4  12  26  46  69  94 129 172 218 270 327 393
#
# _framework density 20.970945
#
# number of rings (size 3 to 8) (size 9 to 14) (size 15 to 20)
#    0.000    0.769    2.308    6.000    2.154    3.077 
#    0.000    0.385    0.000    0.000    0.000    4.308 
#    0.000    0.000    0.000    0.000    0.000    0.000 
#
# Total GULP energy -290604.732598 kJ/mol
# GULP energy per Si atom -5588.552550 kJ/mol
# Density = 2.092321 g / cm^3
# Si number density = 20.970945 Si / 1000 Ang^3
#
#
#
# Elastic Constant Matrix: (Units=GPa)
#
#
# Indices 1 2 3 4 5 6 
#
# 1 109.1382 31.7709 27.6521 0.0000 0.0000 0.0000
# 2 31.7709 104.1281 15.5743 0.0000 0.0000 0.0000
# 3 27.6521 15.5743 114.0515 0.0000 0.0000 0.0000
# 4 0.0000 0.0000 0.0000 57.0225 0.0000 0.0000
# 5 0.0000 0.0000 0.0000 0.0000 10.2955 0.0000
# 6 0.0000 0.0000 0.0000 0.0000 0.0000 38.5926
#
#
#
# Elastic Compliance Matrix: (Units=1/GPa)
#
#
# Indices 1 2 3 4 5 6 
#
# 1 0.010554 -0.002897 -0.002163 0.000000 0.000000 0.000000
# 2 -0.002897 0.010599 -0.000745 0.000000 0.000000 0.000000
# 3 -0.002163 -0.000745 0.009394 0.000000 0.000000 0.000000
# 4 0.000000 0.000000 0.000000 0.017537 0.000000 0.000000
# 5 0.000000 0.000000 0.000000 0.000000 0.097130 0.000000
# 6 0.000000 0.000000 0.000000 0.000000 0.000000 0.025912
#
#
# Mechanical properties :
#
#
# Convention : Reuss Voigt Hill
#
# Bulk Modulus (GPa) = 52.80630 53.03469 52.92049
# Shear Modulus (GPa) = 26.44830 38.00350 32.22590
#
# Velocity S-wave (km/s) = 3.55517 4.26161 3.92432
# Velocity P-wave (km/s) = 6.48750 7.03986 6.76932
#
# Compressibility (1/GPa) = 0.01893713
#
# Stress axis : x y z
#
# Youngs Moduli (GPa) = 94.75053 94.35050 106.44863
#
# Poissons Ratio (x) = 0.27330 0.23028
# Poissons Ratio (y) = 0.27446 0.07931
# Poissons Ratio (z) = 0.20497 0.07029
#
# Static dielectric constant tensor:
#      x y z
#    x 1.736840 0.000000 0.000000 
#    y 0.000000 1.893760 0.000000 
#    z 0.000000 0.000000 1.762590 
# 
# From -- ./inp_files/21202.got.cif
#   From: 2010.05.17/outbox.cif.g08.bks.cpg/sg49_11_cif.got.tgz:21202.got - 2010.06.03 21:02:19.
