data_PCOD9394648
_publ_section_title
;
Structure prediction by ZEFSAII (Michael W. Deem and Ramdas Pophale) SiO2 
 PCOD9394648
Probable space group: P C C M
;
_chemical_formula_sum "Si O2"
_cell_formula_units_Z 64
_cell_length_a 13.962093
_cell_length_b 12.343742
_cell_length_c 17.815501
_cell_angle_alpha 90.000000
_cell_angle_beta 90.000000
_cell_angle_gamma 90.000000
_cell_volume 3070.403145
_symmetry_space_group_name_H-M "P C C M"
_symmetry_group_IT_number 49
_symmetry_cell_setting 'orthorhombic'
loop_
_space_group_symop_operation_xyz
x,y,z
-x,-y,z
x,-y,1/2-z
-x,y,1/2-z
-x,-y,-z
x,y,-z
-x,y,1/2+z
x,-y,1/2+z
loop_
_atom_site_type_symbol
_atom_site_label
_atom_site_fract_x
_atom_site_fract_y
_atom_site_fract_z
Si Si1 0.605776 0.483784 0.161200
Si Si2 0.233894 0.662111 0.356528
Si Si3 0.096870 0.056253 0.331113
Si Si4 0.112522 0.518527 0.918746
Si Si5 0.297821 0.956480 0.089914
Si Si6 0.385270 0.173549 0.090051
Si Si7 0.102871 0.309139 0.287809
Si Si8 0.408492 0.738405 0.909387
O O1 0.500000 0.500000 0.127259
O O2 0.598887 0.500000 0.250000
O O3 0.682712 0.572123 0.139521
O O4 0.631389 0.364415 0.134568
O O5 0.154202 0.601112 0.404686
O O6 0.287650 0.766807 0.386837
O O7 0.184554 0.684900 0.276373
O O8 0.192160 0.031927 0.377385
O O9 0.090134 0.186556 0.319368
O O10 0.108300 0.000000 0.250000
O O11 0.000000 0.000000 0.362907
O O12 0.129704 0.603570 0.851744
O O13 0.000000 0.500000 0.921068
O O14 0.147118 0.559920 0.000000
O O15 0.342591 0.840776 0.108143
O O16 0.370562 0.050430 0.115871
O O17 0.292449 0.964103 0.000000
O O18 0.482667 0.232205 0.116107
O O19 0.393089 0.173951 0.000000
O O20 0.000000 0.339047 0.250000
O O21 0.408572 0.720211 0.000000
#
# Coordination Sequence:
#
# PCOD9394648 Si02
#       8
#     8   8   8   8   8   8   8   8
#     4  11  24  42  61  95 137 174 221 274 332 396
#     4  12  24  41  69  98 133 184 225 275 333 408
#     4  11  24  44  66  96 131 172 224 277 337 410
#     4  11  25  42  63  96 133 170 223 280 334 402
#     4  10  23  42  69 101 133 175 228 282 340 402
#     4  10  21  41  69 100 136 179 226 277 336 404
#     4  12  24  44  70  92 131 177 223 273 345 408
#     4  10  22  43  69  98 137 180 224 278 339 409
#
# _framework density 20.844168
#
# number of rings (size 3 to 8) (size 9 to 14) (size 15 to 20)
#    0.000    1.125    3.750    2.625    3.500    3.500 
#    0.000    0.000    0.000    0.750    0.000    0.000 
#    0.000    0.000    0.000    0.000    0.000    0.000 
#
# Total GULP energy -357461.287967 kJ/mol
# GULP energy per Si atom -5585.332624 kJ/mol
# Density = 2.079673 g / cm^3
# Si number density = 20.844168 Si / 1000 Ang^3
#
#
#
# Elastic Constant Matrix: (Units=GPa)
#
#
# Indices 1 2 3 4 5 6 
#
# 1 96.6491 15.8763 5.1271 0.0000 0.0000 0.0000
# 2 15.8763 119.8314 23.8841 0.0000 0.0000 0.0000
# 3 5.1271 23.8841 26.0185 0.0000 0.0000 0.0000
# 4 0.0000 0.0000 0.0000 32.6138 0.0000 0.0000
# 5 0.0000 0.0000 0.0000 0.0000 23.2067 0.0000
# 6 0.0000 0.0000 0.0000 0.0000 0.0000 29.6793
#
#
#
# Elastic Compliance Matrix: (Units=1/GPa)
#
#
# Indices 1 2 3 4 5 6 
#
# 1 0.010597 -0.001209 -0.000978 0.000000 0.000000 0.000000
# 2 -0.001209 0.010352 -0.009264 0.000000 0.000000 0.000000
# 3 -0.000978 -0.009264 0.047131 0.000000 0.000000 0.000000
# 4 0.000000 0.000000 0.000000 0.030662 0.000000 0.000000
# 5 0.000000 0.000000 0.000000 0.000000 0.043091 0.000000
# 6 0.000000 0.000000 0.000000 0.000000 0.000000 0.033693
#
#
# Mechanical properties :
#
#
# Convention : Reuss Voigt Hill
#
# Bulk Modulus (GPa) = 22.13527 36.91934 29.52731
# Shear Modulus (GPa) = 23.42044 30.27408 26.84726
#
# Velocity S-wave (km/s) = 3.35565 3.81517 3.59276
# Velocity P-wave (km/s) = 5.06520 6.09573 5.60420
#
# Compressibility (1/GPa) = 0.04517676
#
# Stress axis : x y z
#
# Youngs Moduli (GPa) = 94.36449 96.60221 21.21738
#
# Poissons Ratio (x) = 0.11679 0.02076
# Poissons Ratio (y) = 0.11409 0.19656
# Poissons Ratio (z) = 0.09233 0.89495
#
# Static dielectric constant tensor:
#      x y z
#    x 0.949810 0.000000 0.000000 
#    y 0.000000 1.963110 0.000000 
#    z 0.000000 0.000000 1.738880 
# 
# From -- ./inp_files/17965.got.cif
#   From: 2010.05.17/outbox.cif.g08.bks.cpg/sg49_9_cif.got.tgz:17965.got - 2010.06.03 21:02:19.
