data_PCOD9394195
_publ_section_title
;
Structure prediction by ZEFSAII (Michael W. Deem and Ramdas Pophale) SiO2 
 PCOD9394195
Probable space group: P C C M
;
_chemical_formula_sum "Si O2"
_cell_formula_units_Z 26
_cell_length_a 13.510414
_cell_length_b 4.719924
_cell_length_c 15.640238
_cell_angle_alpha 90.000000
_cell_angle_beta 90.000000
_cell_angle_gamma 90.000000
_cell_volume 997.348688
_symmetry_space_group_name_H-M "P C C M"
_symmetry_group_IT_number 49
_symmetry_cell_setting 'orthorhombic'
loop_
_space_group_symop_operation_xyz
x,y,z
-x,-y,z
x,-y,1/2-z
-x,y,1/2-z
-x,-y,-z
x,y,-z
-x,y,1/2+z
x,-y,1/2+z
loop_
_atom_site_type_symbol
_atom_site_label
_atom_site_fract_x
_atom_site_fract_y
_atom_site_fract_z
Si Si1 0.000000 0.000000 0.143971
Si Si2 0.500000 0.000000 0.750000
Si Si3 0.863652 0.225312 0.000000
Si Si4 0.329664 0.661812 0.837080
Si Si5 0.274756 0.699356 0.500000
Si Si6 0.168589 0.000000 0.250000
O O1 0.084029 0.174091 0.198019
O O2 0.932101 0.179828 0.081495
O O3 0.432361 0.816812 0.814685
O O4 0.760769 0.028115 0.000000
O O5 0.830104 0.546766 0.000000
O O6 0.308672 0.500000 0.750000
O O7 0.327611 0.442195 0.916127
O O8 0.241104 0.886903 0.824085
#
# Coordination Sequence:
#
# PCOD9394195 Si02
#       6
#     4   2   4   8   4   4
#     4  10  20  38  66  96 148 190 244 282 344 407
#     4  10  26  48  76 100 140 176 238 308 374 454
#     4  11  24  44  64 105 145 191 247 290 346 418
#     4  11  24  46  72 104 142 185 242 300 373 433
#     4  12  26  46  77 104 146 196 237 306 358 427
#     4  10  20  40  62 100 140 194 234 292 346 412
#
# _framework density 26.069113999999999
#
# number of rings (size 3 to 8) (size 9 to 14) (size 15 to 20)
#    0.000    1.231    3.077    2.308    4.308    3.077 
#    5.538    4.615    0.000    0.000    0.000    0.000 
#    0.000    0.000    0.000    0.000    0.000    0.000 
#
# Total GULP energy -144736.529737 kJ/mol
# GULP energy per Si atom -5566.789605 kJ/mol
# Density = 2.600978 g / cm^3
# Si number density = 26.069114 Si / 1000 Ang^3
#
#
#
# Elastic Constant Matrix: (Units=GPa)
#
#
# Indices 1 2 3 4 5 6 
#
# 1 145.6810 17.4832 35.0194 0.0000 0.0000 0.0000
# 2 17.4832 61.1285 17.5849 0.0000 0.0000 0.0000
# 3 35.0194 17.5849 173.0819 0.0000 0.0000 0.0000
# 4 0.0000 0.0000 0.0000 32.0025 0.0000 0.0000
# 5 0.0000 0.0000 0.0000 0.0000 39.7623 0.0000
# 6 0.0000 0.0000 0.0000 0.0000 0.0000 16.0235
#
#
#
# Elastic Compliance Matrix: (Units=1/GPa)
#
#
# Indices 1 2 3 4 5 6 
#
# 1 0.007389 -0.001734 -0.001319 0.000000 0.000000 0.000000
# 2 -0.001734 0.017258 -0.001403 0.000000 0.000000 0.000000
# 3 -0.001319 -0.001403 0.006187 0.000000 0.000000 0.000000
# 4 0.000000 0.000000 0.000000 0.031248 0.000000 0.000000
# 5 0.000000 0.000000 0.000000 0.000000 0.025149 0.000000
# 6 0.000000 0.000000 0.000000 0.000000 0.000000 0.062408
#
#
# Mechanical properties :
#
#
# Convention : Reuss Voigt Hill
#
# Bulk Modulus (GPa) = 45.61260 57.78516 51.69888
# Shear Modulus (GPa) = 30.14608 38.21126 34.17867
#
# Velocity S-wave (km/s) = 3.40426 3.83269 3.62481
# Velocity P-wave (km/s) = 5.74341 6.46531 6.11502
#
# Compressibility (1/GPa) = 0.02192377
#
# Stress axis : x y z
#
# Youngs Moduli (GPa) = 135.32786 57.94271 161.63000
#
# Poissons Ratio (x) = 0.10047 0.21318
# Poissons Ratio (y) = 0.23466 0.22670
# Poissons Ratio (z) = 0.17849 0.08127
#
# Static dielectric constant tensor:
#      x y z
#    x 1.927280 0.000000 0.000000 
#    y 0.000000 2.207630 0.000000 
#    z 0.000000 0.000000 2.320880 
# 
# From -- ./inp_files/17427.got.cif
#   From: 2010.05.17/outbox.cif.g08.bks.cpg/sg49_9_cif.got.tgz:17427.got - 2010.06.03 21:02:19.
