data_PCOD9394977
_publ_section_title
;
Structure prediction by ZEFSAII (Michael W. Deem and Ramdas Pophale) SiO2 
 PCOD9394977
Probable space group: P C C M
;
_chemical_formula_sum "Si O2"
_cell_formula_units_Z 40
_cell_length_a 12.095894
_cell_length_b 8.129035
_cell_length_c 16.795058
_cell_angle_alpha 90.000000
_cell_angle_beta 90.000000
_cell_angle_gamma 90.000000
_cell_volume 1651.423551
_symmetry_space_group_name_H-M "P C C M"
_symmetry_group_IT_number 49
_symmetry_cell_setting 'orthorhombic'
loop_
_space_group_symop_operation_xyz
x,y,z
-x,-y,z
x,-y,1/2-z
-x,y,1/2-z
-x,-y,-z
x,y,-z
-x,y,1/2+z
x,-y,1/2+z
loop_
_atom_site_type_symbol
_atom_site_label
_atom_site_fract_x
_atom_site_fract_y
_atom_site_fract_z
Si Si1 0.263144 0.343514 0.643559
Si Si2 0.119662 0.925248 0.410054
Si Si3 0.980460 0.308142 0.841248
Si Si4 0.510770 0.803872 0.587735
Si Si5 0.703473 0.718943 0.830197
O O1 0.141973 0.271875 0.625757
O O2 0.365282 0.258522 0.600405
O O3 0.274739 0.304132 0.737261
O O4 0.265638 0.540446 0.632678
O O5 0.140907 0.979694 0.500000
O O6 0.231566 0.883977 0.361104
O O7 0.070967 0.741566 0.405434
O O8 0.000000 0.000000 0.378965
O O9 0.000000 0.500000 0.831301
O O10 0.000000 0.242041 0.750000
O O11 0.471780 0.749370 0.500000
O O12 0.426003 0.737013 0.652467
O O13 0.500000 0.000000 0.590533
#
# Coordination Sequence:
#
# PCOD9394977 Si02
#       5
#     8   8   8   8   8
#     4  11  23  42  73  98 128 172 230 280 332 400
#     4  11  25  41  62  96 138 178 215 267 335 400
#     4  11  20  43  67  97 134 168 216 275 330 393
#     4  11  27  46  64  95 139 177 218 279 343 406
#     4  11  22  46  69  97 130 174 225 284 333 396
#
# _framework density 24.221525
#
# number of rings (size 3 to 8) (size 9 to 14) (size 15 to 20)
#    0.000    1.000    4.000    3.000    2.800    7.200 
#    0.000    0.000    0.000    0.000    0.000    0.000 
#    0.000    0.000    0.000    0.000    0.000    0.000 
#
# Total GULP energy -223047.308981 kJ/mol
# GULP energy per Si atom -5576.182725 kJ/mol
# Density = 2.416640 g / cm^3
# Si number density = 24.221525 Si / 1000 Ang^3
#
#
#
# Elastic Constant Matrix: (Units=GPa)
#
#
# Indices 1 2 3 4 5 6 
#
# 1 141.2599 9.9017 5.8391 0.0000 0.0000 0.0000
# 2 9.9017 32.6962 16.6504 0.0000 0.0000 0.0000
# 3 5.8391 16.6504 47.3078 0.0000 0.0000 0.0000
# 4 0.0000 0.0000 0.0000 139.8564 0.0000 0.0000
# 5 0.0000 0.0000 0.0000 0.0000 -40.0491 0.0000
# 6 0.0000 0.0000 0.0000 0.0000 0.0000 45.4213
#
#
#
# Elastic Compliance Matrix: (Units=1/GPa)
#
#
# Indices 1 2 3 4 5 6 
#
# 1 0.007234 -0.002115 -0.000148 0.000000 0.000000 0.000000
# 2 -0.002115 0.037882 -0.013072 0.000000 0.000000 0.000000
# 3 -0.000148 -0.013072 0.025757 0.000000 0.000000 0.000000
# 4 0.000000 0.000000 0.000000 0.007150 0.000000 0.000000
# 5 0.000000 0.000000 0.000000 0.000000 -0.024969 0.000000
# 6 0.000000 0.000000 0.000000 0.000000 0.000000 0.022016
#
#
# Mechanical properties :
#
#
# Convention : Reuss Voigt Hill
#
# Bulk Modulus (GPa) = 24.87433 31.78294 28.32863
# Shear Modulus (GPa) = 41.96719 41.63723 41.80221
#
# Velocity S-wave (km/s) = 4.16702 4.15060 4.15882
# Velocity P-wave (km/s) = 5.78306 6.01001 5.89763
#
# Compressibility (1/GPa) = 0.04020209
#
# Stress axis : x y z
#
# Youngs Moduli (GPa) = 138.24490 26.39788 38.82408
#
# Poissons Ratio (x) = 0.05583 0.00576
# Poissons Ratio (y) = 0.29239 0.50750
# Poissons Ratio (z) = 0.02052 0.34507
#
# Static dielectric constant tensor:
#      x y z
#    x 1.928180 0.000000 0.000000 
#    y 0.000000 2.296660 0.000000 
#    z 0.000000 0.000000 1.955220 
# 
# From -- ./inp_files/16832.got.cif
#   From: 2010.05.17/outbox.cif.g08.bks.cpg/sg49_9_cif.got.tgz:16832.got - 2010.06.03 21:02:19.
