data_PCOD9394146
_publ_section_title
;
Structure prediction by ZEFSAII (Michael W. Deem and Ramdas Pophale) SiO2 
 PCOD9394146
Probable space group: P C C M
;
_chemical_formula_sum "Si O2"
_cell_formula_units_Z 38
_cell_length_a 9.693512
_cell_length_b 7.303185
_cell_length_c 23.515079
_cell_angle_alpha 90.000000
_cell_angle_beta 90.000000
_cell_angle_gamma 90.000000
_cell_volume 1664.715014
_symmetry_space_group_name_H-M "P C C M"
_symmetry_group_IT_number 49
_symmetry_cell_setting 'orthorhombic'
loop_
_space_group_symop_operation_xyz
x,y,z
-x,-y,z
x,-y,1/2-z
-x,y,1/2-z
-x,-y,-z
x,y,-z
-x,y,1/2+z
x,-y,1/2+z
loop_
_atom_site_type_symbol
_atom_site_label
_atom_site_fract_x
_atom_site_fract_y
_atom_site_fract_z
Si Si1 0.019517 0.282763 0.438565
Si Si2 0.302201 0.981384 0.685604
Si Si3 0.500000 0.500000 0.000000
Si Si4 0.661367 0.555858 0.812353
Si Si5 0.000000 0.000000 0.345543
Si Si6 0.323642 0.722616 0.093783
O O1 0.957813 0.231363 0.500000
O O2 0.181628 0.231578 0.438116
O O3 0.000000 0.500000 0.432945
O O4 0.960775 0.168338 0.386708
O O5 0.364265 0.110799 0.636113
O O6 0.355328 0.000000 0.750000
O O7 0.320565 0.767497 0.674249
O O8 0.140460 0.039675 0.687181
O O9 0.433767 0.636920 0.050382
O O10 0.500000 0.500000 0.811997
O O11 0.716638 0.500000 0.750000
O O12 0.723147 0.435681 0.862318
#
# Coordination Sequence:
#
# PCOD9394146 Si02
#       6
#     8   8   2   8   4   8
#     4  10  20  37  64  94 131 181 226 278 341 422
#     4  11  23  43  69 101 136 178 236 295 367 426
#     4  12  24  48  66 102 154 186 234 292 362 432
#     4  11  23  42  66  96 133 180 232 290 348 420
#     4  10  22  38  64  98 138 171 227 290 360 422
#     4  11  23  43  67  97 140 180 230 287 348 431
#
# _framework density 22.826727999999999
#
# number of rings (size 3 to 8) (size 9 to 14) (size 15 to 20)
#    0.000    1.263    4.211    1.895    0.000    0.842 
#    0.000    2.105    0.000    0.000    0.000    0.000 
#    0.000    0.000    0.000    0.000    0.000    0.000 
#
# Total GULP energy -211694.414270 kJ/mol
# GULP energy per Si atom -5570.905639 kJ/mol
# Density = 2.277477 g / cm^3
# Si number density = 22.826728 Si / 1000 Ang^3
#
#
#
# Elastic Constant Matrix: (Units=GPa)
#
#
# Indices 1 2 3 4 5 6 
#
# 1 79.6993 6.6313 22.5465 0.0000 0.0000 0.0000
# 2 6.6313 167.7521 67.6538 0.0000 0.0000 0.0000
# 3 22.5465 67.6538 184.6150 0.0000 0.0000 0.0000
# 4 0.0000 0.0000 0.0000 -90.8813 0.0000 0.0000
# 5 0.0000 0.0000 0.0000 0.0000 -68.0465 0.0000
# 6 0.0000 0.0000 0.0000 0.0000 0.0000 28.9606
#
#
#
# Elastic Compliance Matrix: (Units=1/GPa)
#
#
# Indices 1 2 3 4 5 6 
#
# 1 0.012999 0.000148 -0.001642 0.000000 0.000000 0.000000
# 2 0.000148 0.006997 -0.002582 0.000000 0.000000 0.000000
# 3 -0.001642 -0.002582 0.006563 0.000000 0.000000 0.000000
# 4 0.000000 0.000000 0.000000 -0.011003 0.000000 0.000000
# 5 0.000000 0.000000 0.000000 0.000000 -0.014696 0.000000
# 6 0.000000 0.000000 0.000000 0.000000 0.000000 0.034530
#
#
# Mechanical properties :
#
#
# Convention : Reuss Voigt Hill
#
# Bulk Modulus (GPa) = 54.32424 69.52552 61.92488
# Shear Modulus (GPa) = 100.64948 -3.64446 48.50251
#
# Velocity S-wave (km/s) = 6.64745 -1.26493 4.61457
# Velocity P-wave (km/s) = 9.09771 5.32829 7.45516
#
# Compressibility (1/GPa) = 0.01840799
#
# Stress axis : x y z
#
# Youngs Moduli (GPa) = 76.92715 142.92526 152.35922
#
# Poissons Ratio (x) = -0.02120 0.25016
# Poissons Ratio (y) = -0.01141 0.39341
# Poissons Ratio (z) = 0.12631 0.36905
#
# Static dielectric constant tensor:
#      x y z
#    x 3.054070 0.000000 0.000000 
#    y 0.000000 1.866060 0.000000 
#    z 0.000000 0.000000 1.893410 
# 
# From -- ./inp_files/24710.got.cif
#   From: 2010.05.17/outbox.cif.g08.bks.cpg/sg49_13_cif.got.tgz:24710.got - 2010.06.03 21:02:19.
