data_PCOD9394969
_publ_section_title
;
Structure prediction by ZEFSAII (Michael W. Deem and Ramdas Pophale) SiO2 
 PCOD9394969
Probable space group: P C C M
;
_chemical_formula_sum "Si O2"
_cell_formula_units_Z 40
_cell_length_a 10.259035
_cell_length_b 11.382366
_cell_length_c 13.634589
_cell_angle_alpha 90.000000
_cell_angle_beta 90.000000
_cell_angle_gamma 90.000000
_cell_volume 1592.139470
_symmetry_space_group_name_H-M "P C C M"
_symmetry_group_IT_number 49
_symmetry_cell_setting 'orthorhombic'
loop_
_space_group_symop_operation_xyz
x,y,z
-x,-y,z
x,-y,1/2-z
-x,y,1/2-z
-x,-y,-z
x,y,-z
-x,y,1/2+z
x,-y,1/2+z
loop_
_atom_site_type_symbol
_atom_site_label
_atom_site_fract_x
_atom_site_fract_y
_atom_site_fract_z
Si Si1 0.855657 0.031003 0.863095
Si Si2 0.620938 0.298314 0.175794
Si Si3 0.105583 0.284616 0.330168
Si Si4 0.748465 0.148085 0.500000
Si Si5 0.472668 0.859211 0.000000
Si Si6 0.927532 0.366395 0.500000
Si Si7 0.657277 0.523607 0.500000
O O1 0.849905 0.167892 0.886811
O O2 0.846315 0.000000 0.750000
O O3 0.756325 0.942319 0.911191
O O4 0.000000 0.000000 0.895818
O O5 0.500000 0.316498 0.250000
O O6 0.760217 0.303046 0.231837
O O7 0.587536 0.187969 0.103092
O O8 0.660528 0.398896 0.098036
O O9 0.026980 0.369607 0.405546
O O10 0.000000 0.250077 0.250000
O O11 0.610917 0.210302 0.500000
O O12 0.867233 0.236224 0.500000
O O13 0.500000 0.000000 0.000000
O O14 0.208877 0.556756 0.500000
O O15 0.500000 0.500000 0.500000
#
# Coordination Sequence:
#
# PCOD9394969 Si02
#       7
#     8   8   8   4   4   4   4
#     4  11  20  37  61 105 159 193 232 297 372 453
#     4  11  28  51  77 107 156 201 249 318 386 460
#     4  12  25  43  74 114 150 191 251 309 379 462
#     4  12  22  37  72 104 144 201 250 292 372 460
#     4  11  25  47  70 111 156 203 253 297 372 469
#     4  12  24  44  79 108 146 195 258 330 379 448
#     4  11  28  55  80 106 144 196 257 322 402 461
#
# _framework density 25.123425999999998
#
# number of rings (size 3 to 8) (size 9 to 14) (size 15 to 20)
#    0.000    0.600    4.000    4.500    8.400    2.400 
#    0.000    1.000    0.000    0.000    0.000    0.000 
#    0.000    0.000    0.000    0.000    0.000    0.000 
#
# Total GULP energy -222708.942885 kJ/mol
# GULP energy per Si atom -5567.723572 kJ/mol
# Density = 2.506624 g / cm^3
# Si number density = 25.123426 Si / 1000 Ang^3
#
#
#
# Elastic Constant Matrix: (Units=GPa)
#
#
# Indices 1 2 3 4 5 6 
#
# 1 238.9734 41.1471 51.1607 0.0000 0.0000 0.0000
# 2 41.1471 101.9824 23.1253 0.0000 0.0000 0.0000
# 3 51.1607 23.1253 129.7928 0.0000 0.0000 0.0000
# 4 0.0000 0.0000 0.0000 -9.0079 0.0000 0.0000
# 5 0.0000 0.0000 0.0000 0.0000 33.9355 0.0000
# 6 0.0000 0.0000 0.0000 0.0000 0.0000 31.6150
#
#
#
# Elastic Compliance Matrix: (Units=1/GPa)
#
#
# Indices 1 2 3 4 5 6 
#
# 1 0.004800 -0.001571 -0.001612 0.000000 0.000000 0.000000
# 2 -0.001571 0.010733 -0.001293 0.000000 0.000000 0.000000
# 3 -0.001612 -0.001293 0.008570 0.000000 0.000000 0.000000
# 4 0.000000 0.000000 0.000000 -0.111014 0.000000 0.000000
# 5 0.000000 0.000000 0.000000 0.000000 0.029468 0.000000
# 6 0.000000 0.000000 0.000000 0.000000 0.000000 0.031631
#
#
# Mechanical properties :
#
#
# Convention : Reuss Voigt Hill
#
# Bulk Modulus (GPa) = 66.00323 77.95721 71.98022
# Shear Modulus (GPa) = -423.38621 34.99623 -194.19499
#
# Velocity S-wave (km/s) = -12.99570 3.73630 -8.80137
# Velocity P-wave (km/s) = 14.10162 7.05056 8.63555
#
# Compressibility (1/GPa) = 0.01515077
#
# Stress axis : x y z
#
# Youngs Moduli (GPa) = 208.32281 93.17294 116.68027
#
# Poissons Ratio (x) = 0.14639 0.18811
# Poissons Ratio (y) = 0.32732 0.15086
# Poissons Ratio (z) = 0.33585 0.12047
#
# Static dielectric constant tensor:
#      x y z
#    x 2.677800 0.000000 0.000000 
#    y 0.000000 2.172190 0.000000 
#    z 0.000000 0.000000 1.847580 
# 
# From -- ./inp_files/11652.got.cif
#   From: 2010.05.17/outbox.cif.g08.bks.cpg/sg49_6_cif.got.tgz:11652.got - 2010.06.03 21:02:19.
