data_PCOD9394903
_publ_section_title
;
Structure prediction by ZEFSAII (Michael W. Deem and Ramdas Pophale) SiO2 
 PCOD9394903
Probable space group: P C C M
;
_chemical_formula_sum "Si O2"
_cell_formula_units_Z 30
_cell_length_a 11.265415
_cell_length_b 14.087677
_cell_length_c 9.738010
_cell_angle_alpha 90.000000
_cell_angle_beta 90.000000
_cell_angle_gamma 90.000000
_cell_volume 1545.456541
_symmetry_space_group_name_H-M "P C C M"
_symmetry_group_IT_number 49
_symmetry_cell_setting 'orthorhombic'
loop_
_space_group_symop_operation_xyz
x,y,z
-x,-y,z
x,-y,1/2-z
-x,y,1/2-z
-x,-y,-z
x,y,-z
-x,y,1/2+z
x,-y,1/2+z
loop_
_atom_site_type_symbol
_atom_site_label
_atom_site_fract_x
_atom_site_fract_y
_atom_site_fract_z
Si Si1 0.500000 0.500000 0.500000
Si Si2 0.122265 0.089182 0.835942
Si Si3 0.840844 0.415855 0.500000
Si Si4 0.500000 0.349676 0.250000
Si Si5 0.120427 0.633390 0.000000
Si Si6 0.757443 0.282848 0.262146
O O1 0.509403 0.417526 0.380978
O O2 0.200689 0.183135 0.822616
O O3 0.000000 0.107172 0.750000
O O4 0.174584 0.000000 0.750000
O O5 0.103827 0.070530 0.000000
O O6 0.820192 0.528565 0.500000
O O7 0.785050 0.367427 0.368036
O O8 0.980529 0.389243 0.500000
O O9 0.618505 0.287535 0.232594
O O10 0.163092 0.691581 0.869283
#
# Coordination Sequence:
#
# PCOD9394903 Si02
#       6
#     2   8   4   4   4   8
#     4  10  24  42  64  86 128 182 240 274 296 372
#     4  11  24  44  73 102 133 171 220 278 341 402
#     4  11  23  42  60  93 133 171 219 266 340 392
#     4  11  26  42  65  96 128 184 233 266 327 374
#     4  11  25  38  62  95 129 179 213 268 332 402
#     4  12  25  40  67  94 137 172 222 275 326 399
#
# _framework density 19.411740999999999
#
# number of rings (size 3 to 8) (size 9 to 14) (size 15 to 20)
#    0.000    0.800    1.333    6.400   14.933    2.133 
#    0.000    0.667    0.000    1.600    0.000    0.000 
#    0.000    0.000    0.000    0.000    0.000    0.000 
#
# Total GULP energy -167160.005409 kJ/mol
# GULP energy per Si atom -5572.000180 kJ/mol
# Density = 1.936756 g / cm^3
# Si number density = 19.411741 Si / 1000 Ang^3
#
#
#
# Elastic Constant Matrix: (Units=GPa)
#
#
# Indices 1 2 3 4 5 6 
#
# 1 65.0459 33.0024 13.9974 0.0000 0.0000 0.0000
# 2 33.0024 107.4135 29.9495 0.0000 0.0000 0.0000
# 3 13.9974 29.9495 173.2289 0.0000 0.0000 0.0000
# 4 0.0000 0.0000 0.0000 56.0113 0.0000 0.0000
# 5 0.0000 0.0000 0.0000 0.0000 5.9594 0.0000
# 6 0.0000 0.0000 0.0000 0.0000 0.0000 -5.3252
#
#
#
# Elastic Compliance Matrix: (Units=1/GPa)
#
#
# Indices 1 2 3 4 5 6 
#
# 1 0.018259 -0.005462 -0.000531 0.000000 0.000000 0.000000
# 2 -0.005462 0.011415 -0.001532 0.000000 0.000000 0.000000
# 3 -0.000531 -0.001532 0.006081 0.000000 0.000000 0.000000
# 4 0.000000 0.000000 0.000000 0.017854 0.000000 0.000000
# 5 0.000000 0.000000 0.000000 0.000000 0.167802 0.000000
# 6 0.000000 0.000000 0.000000 0.000000 0.000000 -0.187787
#
#
# Mechanical properties :
#
#
# Convention : Reuss Voigt Hill
#
# Bulk Modulus (GPa) = 48.29891 55.50966 51.90429
# Shear Modulus (GPa) = 89.96765 29.24503 59.60634
#
# Velocity S-wave (km/s) = 6.81525 3.88566 5.54734
# Velocity P-wave (km/s) = 9.32017 6.98492 8.23573
#
# Compressibility (1/GPa) = 0.02070440
#
# Stress axis : x y z
#
# Youngs Moduli (GPa) = 54.76651 87.60227 164.45936
#
# Poissons Ratio (x) = 0.47849 0.08734
# Poissons Ratio (y) = 0.29914 0.25199
# Poissons Ratio (z) = 0.02909 0.13423
#
# Static dielectric constant tensor:
#      x y z
#    x 1.731970 0.000000 0.000000 
#    y 0.000000 1.658180 0.000000 
#    z 0.000000 0.000000 1.660190 
# 
# From -- ./inp_files/2514.got.cif
#   From: 2010.05.17/outbox.cif.g08.bks.cpg/sg49_2_cif.got.tgz:2514.got - 2010.06.03 21:02:19.
