data_PCOD9394947
_publ_section_title
;
Structure prediction by ZEFSAII (Michael W. Deem and Ramdas Pophale) SiO2 
 PCOD9394947
Probable space group: P C C M
;
_chemical_formula_sum "Si O2"
_cell_formula_units_Z 30
_cell_length_a 11.524207
_cell_length_b 5.902197
_cell_length_c 19.239701
_cell_angle_alpha 90.000000
_cell_angle_beta 90.000000
_cell_angle_gamma 90.000000
_cell_volume 1308.648676
_symmetry_space_group_name_H-M "P C C M"
_symmetry_group_IT_number 49
_symmetry_cell_setting 'orthorhombic'
loop_
_space_group_symop_operation_xyz
x,y,z
-x,-y,z
x,-y,1/2-z
-x,y,1/2-z
-x,-y,-z
x,y,-z
-x,y,1/2+z
x,-y,1/2+z
loop_
_atom_site_type_symbol
_atom_site_label
_atom_site_fract_x
_atom_site_fract_y
_atom_site_fract_z
Si Si1 0.112004 0.156392 0.649253
Si Si2 0.875508 0.365063 0.000000
Si Si3 0.302692 0.000000 0.750000
Si Si4 0.628482 0.625418 0.000000
Si Si5 0.561078 0.749029 0.850100
Si Si6 0.000000 0.500000 0.750000
O O1 0.125406 0.220102 0.569874
O O2 0.082777 0.366399 0.698178
O O3 0.224102 0.049481 0.683438
O O4 0.000000 0.000000 0.657323
O O5 0.000000 0.500000 0.000000
O O6 0.752269 0.496103 0.000000
O O7 0.371960 0.782125 0.722894
O O8 0.500000 0.500000 0.000000
O O9 0.626796 0.747517 0.075054
O O10 0.500000 0.500000 0.848995
O O11 0.500000 0.000000 0.852327
#
# Coordination Sequence:
#
# PCOD9394947 Si02
#       6
#     8   4   4   4   8   2
#     4  12  27  50  74 118 161 213 266 342 419 497
#     4  12  29  49  84 117 159 220 275 349 402 512
#     4  12  28  46  84 116 162 218 276 346 422 506
#     4  10  27  53  81 116 161 215 273 340 416 492
#     4  11  28  54  81 119 162 214 281 345 414 498
#     4  12  22  46  76 106 170 202 274 336 418 480
#
# _framework density 22.924410999999999
#
# number of rings (size 3 to 8) (size 9 to 14) (size 15 to 20)
#    0.000    0.533    4.000    1.200   14.933    3.200 
#    0.000    0.000    0.000    0.000    0.000    0.000 
#    0.000    0.000    0.000    0.000    0.000    0.000 
#
# Total GULP energy -167331.210958 kJ/mol
# GULP energy per Si atom -5577.707032 kJ/mol
# Density = 2.287223 g / cm^3
# Si number density = 22.924411 Si / 1000 Ang^3
#
#
#
# Elastic Constant Matrix: (Units=GPa)
#
#
# Indices 1 2 3 4 5 6 
#
# 1 112.9451 49.1475 51.8601 0.0000 0.0000 0.0000
# 2 49.1475 112.0821 67.6544 0.0000 0.0000 0.0000
# 3 51.8601 67.6544 220.9413 0.0000 0.0000 0.0000
# 4 0.0000 0.0000 0.0000 57.2627 0.0000 0.0000
# 5 0.0000 0.0000 0.0000 0.0000 105.5710 0.0000
# 6 0.0000 0.0000 0.0000 0.0000 0.0000 -17.8621
#
#
#
# Elastic Compliance Matrix: (Units=1/GPa)
#
#
# Indices 1 2 3 4 5 6 
#
# 1 0.011279 -0.004107 -0.001390 0.000000 0.000000 0.000000
# 2 -0.004107 0.012440 -0.002845 0.000000 0.000000 0.000000
# 3 -0.001390 -0.002845 0.005724 0.000000 0.000000 0.000000
# 4 0.000000 0.000000 0.000000 0.017463 0.000000 0.000000
# 5 0.000000 0.000000 0.000000 0.000000 0.009472 0.000000
# 6 0.000000 0.000000 0.000000 0.000000 0.000000 -0.055985
#
#
# Mechanical properties :
#
#
# Convention : Reuss Voigt Hill
#
# Bulk Modulus (GPa) = 78.37732 87.03250 82.70491
# Shear Modulus (GPa) = 234.39442 47.48144 140.93793
#
# Velocity S-wave (km/s) = 10.12268 4.55600 7.84939
# Velocity P-wave (km/s) = 13.07243 8.10701 10.87686
#
# Compressibility (1/GPa) = 0.01275879
#
# Stress axis : x y z
#
# Youngs Moduli (GPa) = 88.65923 80.38327 174.71458
#
# Poissons Ratio (x) = 0.33012 0.24284
# Poissons Ratio (y) = 0.36411 0.49713
# Poissons Ratio (z) = 0.12323 0.22872
#
# Static dielectric constant tensor:
#      x y z
#    x 2.186560 0.000000 0.000000 
#    y 0.000000 1.855240 0.000000 
#    z 0.000000 0.000000 1.852140 
# 
# From -- ./inp_files/20215.got.cif
#   From: 2010.05.17/outbox.cif.g08.bks.cpg/sg49_11_cif.got.tgz:20215.got - 2010.06.03 21:02:19.
