data_PCOD9394292
_publ_section_title
;
Structure prediction by ZEFSAII (Michael W. Deem and Ramdas Pophale) SiO2 
 PCOD9394292
Probable space group: P C C M
;
_chemical_formula_sum "Si O2"
_cell_formula_units_Z 64
_cell_length_a 20.329779
_cell_length_b 20.300720
_cell_length_c 8.693774
_cell_angle_alpha 90.000000
_cell_angle_beta 90.000000
_cell_angle_gamma 90.000000
_cell_volume 3588.000088
_symmetry_space_group_name_H-M "P C C M"
_symmetry_group_IT_number 49
_symmetry_cell_setting 'orthorhombic'
loop_
_space_group_symop_operation_xyz
x,y,z
-x,-y,z
x,-y,1/2-z
-x,y,1/2-z
-x,-y,-z
x,y,-z
-x,y,1/2+z
x,-y,1/2+z
loop_
_atom_site_type_symbol
_atom_site_label
_atom_site_fract_x
_atom_site_fract_y
_atom_site_fract_z
Si Si1 0.103273 0.068861 0.180369
Si Si2 0.570785 0.573556 0.315662
Si Si3 0.931724 0.789644 0.315813
Si Si4 0.790023 0.256031 0.181696
Si Si5 0.430939 0.211679 0.314649
Si Si6 0.388366 0.931959 0.816127
Si Si7 0.760494 0.101882 0.181774
Si Si8 0.666736 0.681635 0.817390
O O1 0.075933 0.134794 0.259608
O O2 0.181440 0.073013 0.215489
O O3 0.079117 0.000000 0.250000
O O4 0.090116 0.071242 0.000000
O O5 0.579908 0.500000 0.250000
O O6 0.500000 0.597155 0.250000
O O7 0.567399 0.572421 0.500000
O O8 0.629778 0.620095 0.260037
O O9 0.932715 0.790116 0.500000
O O10 0.866020 0.750274 0.266776
O O11 0.000000 0.763237 0.250000
O O12 0.762877 0.181118 0.197832
O O13 0.742102 0.305640 0.268977
O O14 0.788436 0.271529 0.000000
O O15 0.500000 0.236411 0.250000
O O16 0.428580 0.215657 0.500000
O O17 0.422404 0.135584 0.265755
O O18 0.373155 0.255160 0.244794
O O19 0.311192 0.924018 0.775599
O O20 0.414597 0.000000 0.750000
O O21 0.392360 0.934464 0.000000
O O22 0.773493 0.087707 0.000000
O O23 0.661042 0.676673 0.000000
#
# Coordination Sequence:
#
# PCOD9394292 Si02
#       8
#     8   8   8   8   8   8   8   8
#     4  11  21  32  47  69  95 126 166 212 265 329
#     4  11  22  39  61  88 125 163 198 233 273 323
#     4  10  21  37  55  75 103 136 172 217 274 333
#     4   9  18  35  56  78 107 139 174 221 272 318
#     4  11  23  40  55  73 100 134 175 226 280 331
#     4  10  21  35  51  68  93 125 165 218 278 337
#     4   9  17  33  51  70  95 126 163 213 274 330
#     4  12  23  36  58  87 114 147 189 229 270 321
#
# _framework density 17.837233999999999
#
# number of rings (size 3 to 8) (size 9 to 14) (size 15 to 20)
#    0.000    1.625    1.250    6.000    0.000    5.500 
#    0.000    2.500    0.000    0.000    0.000    0.000 
#    0.000    0.500    0.000    5.250    0.000    2.875 
#
# Total GULP energy -357623.367152 kJ/mol
# GULP energy per Si atom -5587.865112 kJ/mol
# Density = 1.779664 g / cm^3
# Si number density = 17.837234 Si / 1000 Ang^3
#
#
#
# Elastic Constant Matrix: (Units=GPa)
#
#
# Indices 1 2 3 4 5 6 
#
# 1 120.1428 43.6305 44.6932 0.0000 0.0000 0.0000
# 2 43.6305 75.1884 33.7945 0.0000 0.0000 0.0000
# 3 44.6932 33.7945 94.1500 0.0000 0.0000 0.0000
# 4 0.0000 0.0000 0.0000 23.9922 0.0000 0.0000
# 5 0.0000 0.0000 0.0000 0.0000 35.0320 0.0000
# 6 0.0000 0.0000 0.0000 0.0000 0.0000 179.0329
#
#
#
# Elastic Compliance Matrix: (Units=1/GPa)
#
#
# Indices 1 2 3 4 5 6 
#
# 1 0.011513 -0.005037 -0.003657 0.000000 0.000000 0.000000
# 2 -0.005037 0.018062 -0.004092 0.000000 0.000000 0.000000
# 3 -0.003657 -0.004092 0.013826 0.000000 0.000000 0.000000
# 4 0.000000 0.000000 0.000000 0.041680 0.000000 0.000000
# 5 0.000000 0.000000 0.000000 0.000000 0.028545 0.000000
# 6 0.000000 0.000000 0.000000 0.000000 0.000000 0.005586
#
#
# Mechanical properties :
#
#
# Convention : Reuss Voigt Hill
#
# Bulk Modulus (GPa) = 56.08981 59.30195 57.69588
# Shear Modulus (GPa) = 33.17217 58.76895 45.97056
#
# Velocity S-wave (km/s) = 4.31712 5.74620 5.08214
# Velocity P-wave (km/s) = 7.50757 8.79451 8.17640
#
# Compressibility (1/GPa) = 0.01782855
#
# Stress axis : x y z
#
# Youngs Moduli (GPa) = 86.85689 55.36451 72.32567
#
# Poissons Ratio (x) = 0.27887 0.26452
# Poissons Ratio (y) = 0.43750 0.29597
# Poissons Ratio (z) = 0.31766 0.22656
#
# Static dielectric constant tensor:
#      x y z
#    x 1.495950 0.000000 0.000000 
#    y 0.000000 1.601080 0.000000 
#    z 0.000000 0.000000 1.535790 
# 
# From -- ./inp_files/5994.got.cif
#   From: 2010.05.17/outbox.cif.g08.bks.cpg/sg49_3_cif.got.tgz:5994.got - 2010.06.03 21:02:19.
