data_PCOD9394321
_publ_section_title
;
Structure prediction by ZEFSAII (Michael W. Deem and Ramdas Pophale) SiO2 
 PCOD9394321
Probable space group: P C C M
;
_chemical_formula_sum "Si O2"
_cell_formula_units_Z 48
_cell_length_a 9.469274
_cell_length_b 31.408855
_cell_length_c 8.635931
_cell_angle_alpha 90.000000
_cell_angle_beta 90.000000
_cell_angle_gamma 90.000000
_cell_volume 2568.490429
_symmetry_space_group_name_H-M "P C C M"
_symmetry_group_IT_number 49
_symmetry_cell_setting 'orthorhombic'
loop_
_space_group_symop_operation_xyz
x,y,z
-x,-y,z
x,-y,1/2-z
-x,y,1/2-z
-x,-y,-z
x,y,-z
-x,y,1/2+z
x,-y,1/2+z
loop_
_atom_site_type_symbol
_atom_site_label
_atom_site_fract_x
_atom_site_fract_y
_atom_site_fract_z
Si Si1 0.658349 0.955296 0.685792
Si Si2 0.157859 0.622630 0.185382
Si Si3 0.654302 0.547459 0.185830
Si Si4 0.842375 0.874007 0.314305
Si Si5 0.842046 0.216712 0.314772
Si Si6 0.341455 0.700656 0.313744
O O1 0.500000 0.951169 0.750000
O O2 0.653975 0.957483 0.500000
O O3 0.748056 0.914166 0.732805
O O4 0.716946 0.000000 0.750000
O O5 0.229582 0.580109 0.252874
O O6 0.253167 0.661957 0.241805
O O7 0.000000 0.627512 0.250000
O O8 0.155269 0.620917 0.000000
O O9 0.680404 0.500000 0.250000
O O10 0.500000 0.560695 0.250000
O O11 0.650706 0.546873 0.000000
O O12 0.846769 0.872084 0.500000
O O13 0.790563 0.828539 0.251001
O O14 0.000000 0.879570 0.250000
O O15 0.851588 0.213788 0.500000
O O16 0.739149 0.255463 0.274130
O O17 0.000000 0.224276 0.250000
O O18 0.500000 0.700705 0.250000
O O19 0.343421 0.696229 0.500000
#
# Coordination Sequence:
#
# PCOD9394321 Si02
#       6
#     8   8   8   8   8   8
#     4  10  21  36  55  79 107 143 183 227 276 330
#     4  12  25  42  63  89 120 157 198 243 293 347
#     4  11  22  40  64  92 124 160 200 244 293 346
#     4  10  21  36  56  82 111 144 184 227 277 332
#     4  10  21  37  59  84 113 148 187 230 282 337
#     4  11  24  41  61  88 118 153 194 239 288 341
#
# _framework density 18.688020000000002
#
# number of rings (size 3 to 8) (size 9 to 14) (size 15 to 20)
#    0.000    1.333    0.000    8.000    0.000    8.000 
#    0.000    6.667    0.000    0.000    0.000    0.000 
#    0.000    0.000    0.000    0.000    0.000    0.000 
#
# Total GULP energy -268405.963245 kJ/mol
# GULP energy per Si atom -5591.790901 kJ/mol
# Density = 1.864549 g / cm^3
# Si number density = 18.688020 Si / 1000 Ang^3
#
#
#
# Elastic Constant Matrix: (Units=GPa)
#
#
# Indices 1 2 3 4 5 6 
#
# 1 123.5872 98.9156 57.1091 0.0000 0.0000 0.0000
# 2 98.9156 139.8584 67.1995 0.0000 0.0000 0.0000
# 3 57.1091 67.1995 120.8796 0.0000 0.0000 0.0000
# 4 0.0000 0.0000 0.0000 48.0488 0.0000 0.0000
# 5 0.0000 0.0000 0.0000 0.0000 12.4861 0.0000
# 6 0.0000 0.0000 0.0000 0.0000 0.0000 42.7503
#
#
#
# Elastic Compliance Matrix: (Units=1/GPa)
#
#
# Indices 1 2 3 4 5 6 
#
# 1 0.019014 -0.012460 -0.002057 0.000000 0.000000 0.000000
# 2 -0.012460 0.017921 -0.004076 0.000000 0.000000 0.000000
# 3 -0.002057 -0.004076 0.011510 0.000000 0.000000 0.000000
# 4 0.000000 0.000000 0.000000 0.020812 0.000000 0.000000
# 5 0.000000 0.000000 0.000000 0.000000 0.080089 0.000000
# 6 0.000000 0.000000 0.000000 0.000000 0.000000 0.023392
#
#
# Mechanical properties :
#
#
# Convention : Reuss Voigt Hill
#
# Bulk Modulus (GPa) = 88.80487 92.30816 90.55651
# Shear Modulus (GPa) = 23.39988 31.39710 27.39849
#
# Velocity S-wave (km/s) = 3.54239 4.10331 3.83312
# Velocity P-wave (km/s) = 8.02211 8.48240 8.25546
#
# Compressibility (1/GPa) = 0.01126064
#
# Stress axis : x y z
#
# Youngs Moduli (GPa) = 52.59222 55.80120 86.87944
#
# Poissons Ratio (x) = 0.69527 0.17867
# Poissons Ratio (y) = 0.65529 0.35412
# Poissons Ratio (z) = 0.10816 0.22744
#
# Static dielectric constant tensor:
#      x y z
#    x 1.612550 0.000000 0.000000 
#    y 0.000000 1.643340 0.000000 
#    z 0.000000 0.000000 1.626100 
# 
# From -- ./inp_files/2060.got.cif
#   From: 2010.05.17/outbox.cif.g08.bks.cpg/sg49_2_cif.got.tgz:2060.got - 2010.06.03 21:02:19.
