data_PCOD9394676
_publ_section_title
;
Structure prediction by ZEFSAII (Michael W. Deem and Ramdas Pophale) SiO2 
 PCOD9394676
Probable space group: P C C M
;
_chemical_formula_sum "Si O2"
_cell_formula_units_Z 64
_cell_length_a 11.660191
_cell_length_b 9.519780
_cell_length_c 30.580549
_cell_angle_alpha 90.000000
_cell_angle_beta 90.000000
_cell_angle_gamma 90.000000
_cell_volume 3394.515955
_symmetry_space_group_name_H-M "P C C M"
_symmetry_group_IT_number 49
_symmetry_cell_setting 'orthorhombic'
loop_
_space_group_symop_operation_xyz
x,y,z
-x,-y,z
x,-y,1/2-z
-x,y,1/2-z
-x,-y,-z
x,y,-z
-x,y,1/2+z
x,-y,1/2+z
loop_
_atom_site_type_symbol
_atom_site_label
_atom_site_fract_x
_atom_site_fract_y
_atom_site_fract_z
Si Si1 0.127925 0.492520 0.868753
Si Si2 0.768393 0.056679 0.948829
Si Si3 0.686292 0.508667 0.201826
Si Si4 0.436304 0.351292 0.047387
Si Si5 0.501265 0.263037 0.298569
Si Si6 0.184603 0.270677 0.931047
Si Si7 0.439165 0.144072 0.389944
Si Si8 0.074762 0.685182 0.047598
O O1 0.225633 0.534864 0.835449
O O2 0.160827 0.334325 0.883163
O O3 0.119262 0.589425 0.912476
O O4 0.000000 0.500000 0.849698
O O5 0.682602 0.128642 0.914008
O O6 0.879707 0.156160 0.947472
O O7 0.791351 0.894880 0.936053
O O8 0.727646 0.058581 0.000000
O O9 0.741100 0.500000 0.250000
O O10 0.624007 0.659288 0.193568
O O11 0.587010 0.392670 0.203635
O O12 0.500000 0.500000 0.047721
O O13 0.298826 0.350216 0.052354
O O14 0.490221 0.266588 0.086872
O O15 0.461811 0.284019 0.000000
O O16 0.500000 0.196969 0.250000
O O17 0.454903 0.169166 0.338282
O O18 0.062978 0.307955 0.952819
O O19 0.500000 0.000000 0.401605
O O20 0.115713 0.633151 0.000000
#
# Coordination Sequence:
#
# PCOD9394676 Si02
#       8
#     8   8   8   8   8   8   8   8
#     4  10  22  36  55  86 118 144 188 243 287 340
#     4  11  23  38  57  82 116 158 201 238 278 339
#     4   9  18  36  62  85 110 144 185 233 292 350
#     4  11  25  39  56  83 117 160 198 236 283 341
#     4   9  20  37  60  86 111 143 186 237 287 352
#     4  11  22  38  58  80 115 155 198 240 281 337
#     4  12  24  37  58  85 118 155 186 239 296 345
#     4  10  22  38  58  82 112 156 199 244 286 326
#
# _framework density 18.853939
#
# number of rings (size 3 to 8) (size 9 to 14) (size 15 to 20)
#    0.000    1.625    1.250    4.125    5.250    5.250 
#    0.000    0.000    0.000    0.000    0.000    0.000 
#    0.000    4.000    0.000    0.000    0.000    0.000 
#
# Total GULP energy -356757.865325 kJ/mol
# GULP energy per Si atom -5574.341646 kJ/mol
# Density = 1.881103 g / cm^3
# Si number density = 18.853939 Si / 1000 Ang^3
#
#
#
# Elastic Constant Matrix: (Units=GPa)
#
#
# Indices 1 2 3 4 5 6 
#
# 1 98.0767 38.7253 61.9817 0.0000 0.0000 0.0000
# 2 38.7253 65.9743 28.0218 0.0000 0.0000 0.0000
# 3 61.9817 28.0218 116.2895 0.0000 0.0000 0.0000
# 4 0.0000 0.0000 0.0000 22.9127 0.0000 0.0000
# 5 0.0000 0.0000 0.0000 0.0000 17.1869 0.0000
# 6 0.0000 0.0000 0.0000 0.0000 0.0000 24.8263
#
#
#
# Elastic Compliance Matrix: (Units=1/GPa)
#
#
# Indices 1 2 3 4 5 6 
#
# 1 0.018023 -0.007240 -0.007862 0.000000 0.000000 0.000000
# 2 -0.007240 0.019794 -0.000911 0.000000 0.000000 0.000000
# 3 -0.007862 -0.000911 0.013009 0.000000 0.000000 0.000000
# 4 0.000000 0.000000 0.000000 0.043644 0.000000 0.000000
# 5 0.000000 0.000000 0.000000 0.000000 0.058184 0.000000
# 6 0.000000 0.000000 0.000000 0.000000 0.000000 0.040280
#
#
# Mechanical properties :
#
#
# Convention : Reuss Voigt Hill
#
# Bulk Modulus (GPa) = 53.18824 59.75534 56.47179
# Shear Modulus (GPa) = 21.62390 23.09262 22.35826
#
# Velocity S-wave (km/s) = 3.39029 3.50353 3.44738
# Velocity P-wave (km/s) = 6.60283 6.93750 6.77223
#
# Compressibility (1/GPa) = 0.01880115
#
# Stress axis : x y z
#
# Youngs Moduli (GPa) = 55.48420 50.52042 76.87038
#
# Poissons Ratio (x) = 0.36577 0.60433
# Poissons Ratio (y) = 0.40171 0.07001
# Poissons Ratio (z) = 0.43620 0.04601
#
# Static dielectric constant tensor:
#      x y z
#    x 1.668980 0.000000 0.000000 
#    y 0.000000 1.658110 0.000000 
#    z 0.000000 0.000000 1.708380 
# 
# From -- ./inp_files/26667.got.cif
#   From: 2010.05.17/outbox.cif.g08.bks.cpg/sg49_14_cif.got.tgz:26667.got - 2010.06.03 21:02:19.
