data_PCOD9394230
_publ_section_title
;
Structure prediction by ZEFSAII (Michael W. Deem and Ramdas Pophale) SiO2 
 PCOD9394230
Probable space group: P C C M
;
_chemical_formula_sum "Si O2"
_cell_formula_units_Z 48
_cell_length_a 9.046052
_cell_length_b 10.063887
_cell_length_c 28.954303
_cell_angle_alpha 90.000000
_cell_angle_beta 90.000000
_cell_angle_gamma 90.000000
_cell_volume 2635.954725
_symmetry_space_group_name_H-M "P C C M"
_symmetry_group_IT_number 49
_symmetry_cell_setting 'orthorhombic'
loop_
_space_group_symop_operation_xyz
x,y,z
-x,-y,z
x,-y,1/2-z
-x,y,1/2-z
-x,-y,-z
x,y,-z
-x,y,1/2+z
x,-y,1/2+z
loop_
_atom_site_type_symbol
_atom_site_label
_atom_site_fract_x
_atom_site_fract_y
_atom_site_fract_z
Si Si1 0.855390 0.593328 0.050705
Si Si2 0.824557 0.528420 0.150613
Si Si3 0.661307 0.727348 0.310702
Si Si4 0.856589 0.093307 0.551608
Si Si5 0.675386 0.992021 0.638666
Si Si6 0.687295 0.233674 0.703404
O O1 0.773915 0.549937 0.097441
O O2 0.893609 0.749802 0.056476
O O3 0.000000 0.500000 0.049111
O O4 0.781815 0.579556 0.000000
O O5 0.733697 0.409852 0.173908
O O6 0.793193 0.661373 0.179023
O O7 0.000000 0.500000 0.150712
O O8 0.482178 0.724675 0.308991
O O9 0.705207 0.763122 0.258293
O O10 0.711254 0.842680 0.345849
O O11 0.790362 0.077586 0.500000
O O12 0.754137 0.045545 0.593136
O O13 0.000000 0.000000 0.553290
O O14 0.711099 0.089693 0.681274
O O15 0.500000 0.000000 0.631491
#
# Coordination Sequence:
#
# PCOD9394230 Si02
#       6
#     8   8   8   8   8   8
#     4   9  19  36  57  80 110 146 183 223 273 330
#     4  11  22  35  56  86 111 144 183 233 279 324
#     4  10  22  36  59  80 111 148 190 224 272 336
#     4  10  21  37  60  85 111 147 188 226 276 338
#     4  10  21  37  58  84 111 145 186 233 277 322
#     4  10  20  40  57  79 109 152 188 226 272 331
#
# _framework density 18.209721999999999
#
# number of rings (size 3 to 8) (size 9 to 14) (size 15 to 20)
#    0.000    2.000    1.667    1.500    4.667    5.000 
#    0.000    0.000    0.000    6.000    0.000    0.000 
#    0.000    0.000    0.000    0.000    0.000    0.000 
#
# Total GULP energy -267681.979187 kJ/mol
# GULP energy per Si atom -5576.707900 kJ/mol
# Density = 1.816828 g / cm^3
# Si number density = 18.209722 Si / 1000 Ang^3
#
#
#
# Elastic Constant Matrix: (Units=GPa)
#
#
# Indices 1 2 3 4 5 6 
#
# 1 14.5724 18.0863 24.4814 0.0000 0.0000 0.0000
# 2 18.0863 71.6474 22.5621 0.0000 0.0000 0.0000
# 3 24.4814 22.5621 121.9645 0.0000 0.0000 0.0000
# 4 0.0000 0.0000 0.0000 16.6952 0.0000 0.0000
# 5 0.0000 0.0000 0.0000 0.0000 26.8166 0.0000
# 6 0.0000 0.0000 0.0000 0.0000 0.0000 20.4248
#
#
#
# Elastic Compliance Matrix: (Units=1/GPa)
#
#
# Indices 1 2 3 4 5 6 
#
# 1 0.144211 -0.028976 -0.023587 0.000000 0.000000 0.000000
# 2 -0.028976 0.020643 0.001998 0.000000 0.000000 0.000000
# 3 -0.023587 0.001998 0.012564 0.000000 0.000000 0.000000
# 4 0.000000 0.000000 0.000000 0.059897 0.000000 0.000000
# 5 0.000000 0.000000 0.000000 0.000000 0.037290 0.000000
# 6 0.000000 0.000000 0.000000 0.000000 0.000000 0.048960
#
#
# Mechanical properties :
#
#
# Convention : Reuss Voigt Hill
#
# Bulk Modulus (GPa) = 13.10832 37.60486 25.35659
# Shear Modulus (GPa) = 11.10801 22.32431 16.71616
#
# Velocity S-wave (km/s) = 2.47251 3.50516 3.03311
# Velocity P-wave (km/s) = 3.91985 6.08912 5.12067
#
# Compressibility (1/GPa) = 0.07628743
#
# Stress axis : x y z
#
# Youngs Moduli (GPa) = 6.93427 48.44303 79.59255
#
# Poissons Ratio (x) = 1.40370 1.87731
# Poissons Ratio (y) = 0.20093 -0.15899
# Poissons Ratio (z) = 0.16356 -0.09677
#
# Static dielectric constant tensor:
#      x y z
#    x 1.601540 0.000000 0.000000 
#    y 0.000000 1.605320 0.000000 
#    z 0.000000 0.000000 1.643230 
# 
# From -- ./inp_files/26247.got.cif
#   From: 2010.05.17/outbox.cif.g08.bks.cpg/sg49_14_cif.got.tgz:26247.got - 2010.06.03 21:02:19.
