data_PCOD9394836
_publ_section_title
;
Structure prediction by ZEFSAII (Michael W. Deem and Ramdas Pophale) SiO2 
 PCOD9394836
Probable space group: P C C M
;
_chemical_formula_sum "Si O2"
_cell_formula_units_Z 48
_cell_length_a 17.736890
_cell_length_b 9.985131
_cell_length_c 13.913043
_cell_angle_alpha 90.000000
_cell_angle_beta 90.000000
_cell_angle_gamma 90.000000
_cell_volume 2464.071848
_symmetry_space_group_name_H-M "P C C M"
_symmetry_group_IT_number 49
_symmetry_cell_setting 'orthorhombic'
loop_
_space_group_symop_operation_xyz
x,y,z
-x,-y,z
x,-y,1/2-z
-x,y,1/2-z
-x,-y,-z
x,y,-z
-x,y,1/2+z
x,-y,1/2+z
loop_
_atom_site_type_symbol
_atom_site_label
_atom_site_fract_x
_atom_site_fract_y
_atom_site_fract_z
Si Si1 0.208094 0.714029 0.610899
Si Si2 0.086048 0.661652 0.243009
Si Si3 0.458119 0.361581 0.108300
Si Si4 0.434919 0.106190 0.608771
Si Si5 0.222804 0.609548 0.111068
Si Si6 0.334778 0.756816 0.748441
O O1 0.204448 0.750154 0.500000
O O2 0.130325 0.726329 0.668010
O O3 0.223169 0.552579 0.618133
O O4 0.272866 0.792156 0.668071
O O5 0.081728 0.500000 0.250000
O O6 0.144467 0.671714 0.153032
O O7 0.000000 0.709942 0.250000
O O8 0.500000 0.500000 0.126476
O O9 0.521520 0.247357 0.106279
O O10 0.398654 0.321772 0.189046
O O11 0.423328 0.366999 0.000000
O O12 0.407446 0.075526 0.500000
O O13 0.371745 0.126044 0.688654
O O14 0.500000 0.000000 0.632659
O O15 0.290392 0.663867 0.176037
O O16 0.232412 0.645125 0.000000
#
# Coordination Sequence:
#
# PCOD9394836 Si02
#       6
#     8   8   8   8   8   8
#     4   9  18  29  43  68 101 136 176 224 279 325
#     4   8  14  25  41  63  93 135 184 225 264 320
#     4  10  23  37  53  78 104 132 172 225 281 332
#     4  10  23  41  57  75 101 134 175 225 284 340
#     4   9  18  29  43  68 100 137 176 224 277 326
#     4  11  20  32  52  71  97 131 179 225 276 334
#
# _framework density 19.479952000000001
#
# number of rings (size 3 to 8) (size 9 to 14) (size 15 to 20)
#    0.000    2.500    0.000    3.000    4.667    2.667 
#    0.000    3.333    0.000    2.000    0.000    0.000 
#    0.000    0.000    0.000   48.000    0.000  274.667 
#
# Total GULP energy -267838.914662 kJ/mol
# GULP energy per Si atom -5579.977389 kJ/mol
# Density = 1.943561 g / cm^3
# Si number density = 19.479952 Si / 1000 Ang^3
#
#
#
# Elastic Constant Matrix: (Units=GPa)
#
#
# Indices 1 2 3 4 5 6 
#
# 1 101.4195 7.3297 81.9682 0.0000 0.0000 0.0000
# 2 7.3297 35.5673 12.6392 0.0000 0.0000 0.0000
# 3 81.9682 12.6392 183.6554 0.0000 0.0000 0.0000
# 4 0.0000 0.0000 0.0000 14.3042 0.0000 0.0000
# 5 0.0000 0.0000 0.0000 0.0000 11.7176 0.0000
# 6 0.0000 0.0000 0.0000 0.0000 0.0000 15.6011
#
#
#
# Elastic Compliance Matrix: (Units=1/GPa)
#
#
# Indices 1 2 3 4 5 6 
#
# 1 0.015443 -0.000752 -0.006841 0.000000 0.000000 0.000000
# 2 -0.000752 0.028857 -0.001651 0.000000 0.000000 0.000000
# 3 -0.006841 -0.001651 0.008612 0.000000 0.000000 0.000000
# 4 0.000000 0.000000 0.000000 0.069909 0.000000 0.000000
# 5 0.000000 0.000000 0.000000 0.000000 0.085342 0.000000
# 6 0.000000 0.000000 0.000000 0.000000 0.000000 0.064098
#
#
# Mechanical properties :
#
#
# Convention : Reuss Voigt Hill
#
# Bulk Modulus (GPa) = 29.04761 58.27959 43.66360
# Shear Modulus (GPa) = 16.54411 22.90493 19.72452
#
# Velocity S-wave (km/s) = 2.91742 3.43274 3.18552
# Velocity P-wave (km/s) = 5.12761 6.75976 5.99944
#
# Compressibility (1/GPa) = 0.03442624
#
# Stress axis : x y z
#
# Youngs Moduli (GPa) = 64.75367 34.65351 116.12087
#
# Poissons Ratio (x) = 0.02604 0.79436
# Poissons Ratio (y) = 0.04867 0.19166
# Poissons Ratio (z) = 0.44297 0.05720
#
# Static dielectric constant tensor:
#      x y z
#    x 1.708340 0.000000 0.000000 
#    y 0.000000 1.665590 0.000000 
#    z 0.000000 0.000000 1.728180 
# 
# From -- ./inp_files/14044.got.cif
#   From: 2010.05.17/outbox.cif.g08.bks.cpg/sg49_8_cif.got.tgz:14044.got - 2010.06.03 21:02:19.
