data_PCOD9394845
_publ_section_title
;
Structure prediction by ZEFSAII (Michael W. Deem and Ramdas Pophale) SiO2 
 PCOD9394845
Probable space group: P C C M
;
_chemical_formula_sum "Si O2"
_cell_formula_units_Z 40
_cell_length_a 8.627628
_cell_length_b 14.651271
_cell_length_c 14.714585
_cell_angle_alpha 90.000000
_cell_angle_beta 90.000000
_cell_angle_gamma 90.000000
_cell_volume 1860.007651
_symmetry_space_group_name_H-M "P C C M"
_symmetry_group_IT_number 49
_symmetry_cell_setting 'orthorhombic'
loop_
_space_group_symop_operation_xyz
x,y,z
-x,-y,z
x,-y,1/2-z
-x,y,1/2-z
-x,-y,-z
x,y,-z
-x,y,1/2+z
x,-y,1/2+z
loop_
_atom_site_type_symbol
_atom_site_label
_atom_site_fract_x
_atom_site_fract_y
_atom_site_fract_z
Si Si1 0.461816 0.752379 0.000000
Si Si2 0.296973 0.754447 0.658606
Si Si3 0.231968 0.076159 0.500000
Si Si4 0.825697 0.619265 0.500000
Si Si5 0.673777 0.960395 0.834745
Si Si6 0.822575 0.405801 0.787103
Si Si7 0.050952 0.219930 0.000000
O O1 0.566088 0.730115 0.088075
O O2 0.384245 0.854764 0.000000
O O3 0.319400 0.685742 0.000000
O O4 0.342047 0.854945 0.689488
O O5 0.260396 0.681926 0.738543
O O6 0.152601 0.778390 0.591545
O O7 0.082642 0.142749 0.500000
O O8 0.239659 0.004143 0.581245
O O9 0.823035 0.580088 0.603110
O O10 0.977106 0.680485 0.500000
O O11 0.500000 0.000000 0.843017
O O12 0.762630 0.000000 0.750000
O O13 0.752710 0.500000 0.750000
O O14 0.000000 0.399111 0.750000
#
# Coordination Sequence:
#
# PCOD9394845 Si02
#       7
#     4   8   4   4   8   8   4
#     4  10  23  40  75  97 142 183 226 288 348 419
#     4  11  23  44  66 102 134 183 232 289 346 415
#     4  11  21  44  60  98 138 188 229 291 347 415
#     4  11  24  45  71 106 133 184 227 285 360 418
#     4  11  24  37  62  95 134 179 228 280 349 419
#     4  11  26  47  75 105 141 182 234 298 361 426
#     4  10  23  39  69  95 138 178 235 290 347 420
#
# _framework density 21.505288
#
# number of rings (size 3 to 8) (size 9 to 14) (size 15 to 20)
#    0.000    1.200    4.000    1.500    5.600    5.600 
#    0.000    4.000    0.000    0.000    0.000    0.000 
#    0.000    0.000    0.000    0.000    0.000    0.000 
#
# Total GULP energy -222692.446141 kJ/mol
# GULP energy per Si atom -5567.311154 kJ/mol
# Density = 2.145634 g / cm^3
# Si number density = 21.505288 Si / 1000 Ang^3
#
#
#
# Elastic Constant Matrix: (Units=GPa)
#
#
# Indices 1 2 3 4 5 6 
#
# 1 46.0562 18.7888 16.1728 0.0000 0.0000 0.0000
# 2 18.7888 127.2366 59.9167 0.0000 0.0000 0.0000
# 3 16.1728 59.9167 190.0920 0.0000 0.0000 0.0000
# 4 0.0000 0.0000 0.0000 16.6538 0.0000 0.0000
# 5 0.0000 0.0000 0.0000 0.0000 -5.7615 0.0000
# 6 0.0000 0.0000 0.0000 0.0000 0.0000 -35.4218
#
#
#
# Elastic Compliance Matrix: (Units=1/GPa)
#
#
# Indices 1 2 3 4 5 6 
#
# 1 0.023283 -0.002942 -0.001054 0.000000 0.000000 0.000000
# 2 -0.002942 0.009601 -0.002776 0.000000 0.000000 0.000000
# 3 -0.001054 -0.002776 0.006225 0.000000 0.000000 0.000000
# 4 0.000000 0.000000 0.000000 0.060046 0.000000 0.000000
# 5 0.000000 0.000000 0.000000 0.000000 -0.173567 0.000000
# 6 0.000000 0.000000 0.000000 0.000000 0.000000 -0.028231
#
#
# Mechanical properties :
#
#
# Convention : Reuss Voigt Hill
#
# Bulk Modulus (GPa) = 39.11441 61.46018 50.28729
# Shear Modulus (GPa) = -62.05174 12.99454 -24.52860
#
# Velocity S-wave (km/s) = -5.37744 2.46081 -3.38092
# Velocity P-wave (km/s) = 4.50866 6.05931 2.86245
#
# Compressibility (1/GPa) = 0.02556602
#
# Stress axis : x y z
#
# Youngs Moduli (GPa) = 42.95023 104.15563 160.63708
#
# Poissons Ratio (x) = 0.30643 0.16924
# Poissons Ratio (y) = 0.12636 0.44592
# Poissons Ratio (z) = 0.04525 0.28913
#
# Static dielectric constant tensor:
#      x y z
#    x 1.825580 0.000000 0.000000 
#    y 0.000000 1.883150 0.000000 
#    z 0.000000 0.000000 -0.015930 
# 
# From -- ./inp_files/11640.got.cif
#   From: 2010.05.17/outbox.cif.g08.bks.cpg/sg49_6_cif.got.tgz:11640.got - 2010.06.03 21:02:19.
