data_PCOD9394688
_publ_section_title
;
Structure prediction by ZEFSAII (Michael W. Deem and Ramdas Pophale) SiO2 
 PCOD9394688
Probable space group: P C C M
;
_chemical_formula_sum "Si O2"
_cell_formula_units_Z 48
_cell_length_a 19.825091
_cell_length_b 7.884857
_cell_length_c 15.809541
_cell_angle_alpha 90.000000
_cell_angle_beta 90.000000
_cell_angle_gamma 90.000000
_cell_volume 2471.315949
_symmetry_space_group_name_H-M "P C C M"
_symmetry_group_IT_number 49
_symmetry_cell_setting 'orthorhombic'
loop_
_space_group_symop_operation_xyz
x,y,z
-x,-y,z
x,-y,1/2-z
-x,y,1/2-z
-x,-y,-z
x,y,-z
-x,y,1/2+z
x,-y,1/2+z
loop_
_atom_site_type_symbol
_atom_site_label
_atom_site_fract_x
_atom_site_fract_y
_atom_site_fract_z
Si Si1 0.923720 0.032454 0.396547
Si Si2 0.306832 0.381224 0.833090
Si Si3 0.823120 0.263249 0.102961
Si Si4 0.832756 0.343674 0.602541
Si Si5 0.672773 0.721793 0.406129
Si Si6 0.424323 0.200716 0.743875
O O1 0.924161 0.029595 0.500000
O O2 0.891503 0.213543 0.372344
O O3 0.875460 0.878530 0.368264
O O4 0.000000 0.000000 0.368161
O O5 0.296732 0.500000 0.750000
O O6 0.238105 0.286704 0.856177
O O7 0.319249 0.518196 0.906191
O O8 0.372565 0.272015 0.813633
O O9 0.840962 0.457534 0.127396
O O10 0.746111 0.218862 0.127753
O O11 0.822695 0.262710 0.000000
O O12 0.827370 0.338162 0.500000
O O13 0.662506 0.788804 0.500000
O O14 0.611656 0.759787 0.344627
O O15 0.500000 0.271807 0.750000
O O16 0.427979 0.000000 0.750000
#
# Coordination Sequence:
#
# PCOD9394688 Si02
#       6
#     8   8   8   8   8   8
#     4   9  17  27  43  73 108 139 172 212 267 323
#     4   9  18  33  54  77 100 134 180 223 267 320
#     4   8  15  28  46  72 104 134 173 224 264 305
#     4   9  17  30  49  75 105 136 178 223 264 316
#     4   9  18  35  57  80 104 139 185 228 268 312
#     4  10  22  38  53  78 114 144 174 215 273 335
#
# _framework density 19.42285
#
# number of rings (size 3 to 8) (size 9 to 14) (size 15 to 20)
#    0.000    3.000    0.000    1.500    2.333    3.667 
#    0.000    8.333    0.000    0.000    0.000   30.333 
#    0.000    0.000    0.000    0.000    0.000    0.000 
#
# Total GULP energy -267451.087586 kJ/mol
# GULP energy per Si atom -5571.897658 kJ/mol
# Density = 1.937864 g / cm^3
# Si number density = 19.422850 Si / 1000 Ang^3
#
#
#
# Elastic Constant Matrix: (Units=GPa)
#
#
# Indices 1 2 3 4 5 6 
#
# 1 173.5313 60.5894 28.9999 0.0000 0.0000 0.0000
# 2 60.5894 62.8839 9.5944 0.0000 0.0000 0.0000
# 3 28.9999 9.5944 33.8114 0.0000 0.0000 0.0000
# 4 0.0000 0.0000 0.0000 5.8551 0.0000 0.0000
# 5 0.0000 0.0000 0.0000 0.0000 22.8997 0.0000
# 6 0.0000 0.0000 0.0000 0.0000 0.0000 -101.1404
#
#
#
# Elastic Compliance Matrix: (Units=1/GPa)
#
#
# Indices 1 2 3 4 5 6 
#
# 1 0.009701 -0.008443 -0.005924 0.000000 0.000000 0.000000
# 2 -0.008443 0.023970 0.000440 0.000000 0.000000 0.000000
# 3 -0.005924 0.000440 0.034532 0.000000 0.000000 0.000000
# 4 0.000000 0.000000 0.000000 0.170792 0.000000 0.000000
# 5 0.000000 0.000000 0.000000 0.000000 0.043669 0.000000
# 6 0.000000 0.000000 0.000000 0.000000 0.000000 -0.009887
#
#
# Mechanical properties :
#
#
# Convention : Reuss Voigt Hill
#
# Bulk Modulus (GPa) = 24.78456 52.06601 38.42529
# Shear Modulus (GPa) = 15.91950 -3.07425 6.42263
#
# Velocity S-wave (km/s) = 2.86602 -1.25946 1.82042
# Velocity P-wave (km/s) = 4.87240 4.97492 4.92393
#
# Compressibility (1/GPa) = 0.04034769
#
# Stress axis : x y z
#
# Youngs Moduli (GPa) = 103.08740 41.71904 28.95835
#
# Poissons Ratio (x) = 0.35222 0.17156
# Poissons Ratio (y) = 0.87033 -0.01273
# Poissons Ratio (z) = 0.61073 -0.01834
#
# Static dielectric constant tensor:
#      x y z
#    x 1.697180 0.000000 0.000000 
#    y 0.000000 1.698180 0.000000 
#    z 0.000000 0.000000 1.720500 
# 
# From -- ./inp_files/18119.got.cif
#   From: 2010.05.17/outbox.cif.g08.bks.cpg/sg49_10_cif.got.tgz:18119.got - 2010.06.03 21:02:19.
