data_PCOD9394411
_publ_section_title
;
Structure prediction by ZEFSAII (Michael W. Deem and Ramdas Pophale) SiO2 
 PCOD9394411
Probable space group: P C C M
;
_chemical_formula_sum "Si O2"
_cell_formula_units_Z 48
_cell_length_a 31.483626
_cell_length_b 9.463952
_cell_length_c 8.652980
_cell_angle_alpha 90.000000
_cell_angle_beta 90.000000
_cell_angle_gamma 90.000000
_cell_volume 2578.237813
_symmetry_space_group_name_H-M "P C C M"
_symmetry_group_IT_number 49
_symmetry_cell_setting 'orthorhombic'
loop_
_space_group_symop_operation_xyz
x,y,z
-x,-y,z
x,-y,1/2-z
-x,y,1/2-z
-x,-y,-z
x,y,-z
-x,y,1/2+z
x,-y,1/2+z
loop_
_atom_site_type_symbol
_atom_site_label
_atom_site_fract_x
_atom_site_fract_y
_atom_site_fract_z
Si Si1 0.953772 0.656220 0.685418
Si Si2 0.544890 0.658852 0.814823
Si Si3 0.204578 0.341868 0.814884
Si Si4 0.377986 0.841496 0.814934
Si Si5 0.287021 0.842313 0.314366
Si Si6 0.127048 0.842068 0.814630
O O1 0.943720 0.500000 0.750000
O O2 0.955897 0.648088 0.500000
O O3 0.917046 0.765520 0.729954
O O4 0.000000 0.696424 0.750000
O O5 0.548851 0.500000 0.750000
O O6 0.500000 0.715753 0.750000
O O7 0.584405 0.748022 0.753799
O O8 0.543774 0.656509 0.000000
O O9 0.204182 0.500000 0.750000
O O10 0.248294 0.260900 0.775318
O O11 0.165644 0.251848 0.748139
O O12 0.201070 0.346507 0.000000
O O13 0.331554 0.792340 0.757782
O O14 0.382624 0.000000 0.750000
O O15 0.379484 0.842212 0.000000
O O16 0.291264 0.850662 0.500000
O O17 0.278587 0.000000 0.250000
O O18 0.129352 0.000000 0.750000
O O19 0.129256 0.846437 0.000000
#
# Coordination Sequence:
#
# PCOD9394411 Si02
#       6
#     8   8   8   8   8   8
#     4  10  21  37  59  86 115 151 191 236 286 341
#     4  11  22  39  60  85 116 152 193 238 288 343
#     4  11  24  40  61  87 117 152 193 238 287 341
#     4  11  22  38  60  87 117 153 193 237 287 341
#     4  10  21  38  59  85 115 150 190 235 286 342
#     4  11  24  40  60  86 117 153 194 238 289 343
#
# _framework density 18.617366000000001
#
# number of rings (size 3 to 8) (size 9 to 14) (size 15 to 20)
#    0.000    1.333    0.000    8.000    0.000    9.333 
#    0.000    5.000    0.000    0.000    0.000    0.000 
#    0.000    0.000    0.000    0.000    0.000    0.000 
#
# Total GULP energy -268416.863926 kJ/mol
# GULP energy per Si atom -5592.017998 kJ/mol
# Density = 1.857499 g / cm^3
# Si number density = 18.617366 Si / 1000 Ang^3
#
#
#
# Elastic Constant Matrix: (Units=GPa)
#
#
# Indices 1 2 3 4 5 6 
#
# 1 191.4487 125.5041 85.0640 0.0000 0.0000 0.0000
# 2 125.5041 128.2395 61.0511 0.0000 0.0000 0.0000
# 3 85.0640 61.0511 124.7504 0.0000 0.0000 0.0000
# 4 0.0000 0.0000 0.0000 36.0692 0.0000 0.0000
# 5 0.0000 0.0000 0.0000 0.0000 29.9559 0.0000
# 6 0.0000 0.0000 0.0000 0.0000 0.0000 39.7851
#
#
#
# Elastic Compliance Matrix: (Units=1/GPa)
#
#
# Indices 1 2 3 4 5 6 
#
# 1 0.016149 -0.013770 -0.004272 0.000000 0.000000 0.000000
# 2 -0.013770 0.021909 -0.001332 0.000000 0.000000 0.000000
# 3 -0.004272 -0.001332 0.011581 0.000000 0.000000 0.000000
# 4 0.000000 0.000000 0.000000 0.027724 0.000000 0.000000
# 5 0.000000 0.000000 0.000000 0.000000 0.033382 0.000000
# 6 0.000000 0.000000 0.000000 0.000000 0.000000 0.025135
#
#
# Mechanical properties :
#
#
# Convention : Reuss Voigt Hill
#
# Bulk Modulus (GPa) = 91.83724 109.74189 100.78956
# Shear Modulus (GPa) = 28.04888 32.68335 30.36612
#
# Velocity S-wave (km/s) = 3.88570 4.19445 4.04302
# Velocity P-wave (km/s) = 8.34071 9.08470 8.72065
#
# Compressibility (1/GPa) = 0.01088883
#
# Stress axis : x y z
#
# Youngs Moduli (GPa) = 61.92406 45.64381 86.34677
#
# Poissons Ratio (x) = 0.62853 0.36891
# Poissons Ratio (y) = 0.85272 0.11503
# Poissons Ratio (z) = 0.26457 0.06081
#
# Static dielectric constant tensor:
#      x y z
#    x 1.637130 0.000000 0.000000 
#    y 0.000000 1.620260 0.000000 
#    z 0.000000 0.000000 1.623120 
# 
# From -- ./inp_files/6885.got.cif
#   From: 2010.05.17/outbox.cif.g08.bks.cpg/sg49_4_cif.got.tgz:6885.got - 2010.06.03 21:02:19.
