data_PCOD9394407
_publ_section_title
;
Structure prediction by ZEFSAII (Michael W. Deem and Ramdas Pophale) SiO2 
 PCOD9394407
Probable space group: P C C M
;
_chemical_formula_sum "Si O2"
_cell_formula_units_Z 48
_cell_length_a 32.107967
_cell_length_b 9.285426
_cell_length_c 8.693682
_cell_angle_alpha 90.000000
_cell_angle_beta 90.000000
_cell_angle_gamma 90.000000
_cell_volume 2591.900895
_symmetry_space_group_name_H-M "P C C M"
_symmetry_group_IT_number 49
_symmetry_cell_setting 'orthorhombic'
loop_
_space_group_symop_operation_xyz
x,y,z
-x,-y,z
x,-y,1/2-z
-x,y,1/2-z
-x,-y,-z
x,y,-z
-x,y,1/2+z
x,-y,1/2+z
loop_
_atom_site_type_symbol
_atom_site_label
_atom_site_fract_x
_atom_site_fract_y
_atom_site_fract_z
Si Si1 0.544527 0.839976 0.815639
Si Si2 0.133865 0.161748 0.314384
Si Si3 0.626222 0.339523 0.684664
Si Si4 0.785739 0.660110 0.685631
Si Si5 0.957884 0.837078 0.315959
Si Si6 0.296339 0.160776 0.315153
O O1 0.500000 0.790971 0.750000
O O2 0.582487 0.735995 0.773387
O O3 0.552303 0.000000 0.750000
O O4 0.541917 0.848907 0.000000
O O5 0.135267 0.152107 0.500000
O O6 0.171926 0.260925 0.262252
O O7 0.087832 0.221726 0.273258
O O8 0.138190 0.000000 0.250000
O O9 0.628283 0.500000 0.750000
O O10 0.629278 0.342938 0.500000
O O11 0.663906 0.245648 0.751300
O O12 0.782673 0.500000 0.750000
O O13 0.786466 0.653340 0.500000
O O14 0.745619 0.754322 0.730520
O O15 0.961185 0.842642 0.500000
O O16 0.000000 0.767325 0.250000
O O17 0.957050 0.000000 0.250000
O O18 0.298324 0.155972 0.500000
O O19 0.295556 0.000000 0.250000
#
# Coordination Sequence:
#
# PCOD9394407 Si02
#       6
#     8   8   8   8   8   8
#     4  10  21  37  59  85 113 148 189 233 278 325
#     4   9  18  32  50  74 103 134 171 215 261 311
#     4  11  24  40  59  85 117 152 188 228 276 328
#     4  10  22  38  55  78 107 139 176 218 265 317
#     4   9  15  24  41  66  97 129 163 207 256 305
#     4  11  23  39  61  86 112 143 181 225 271 323
#
# _framework density 18.519226
#
# number of rings (size 3 to 8) (size 9 to 14) (size 15 to 20)
#    0.000    2.000    0.000    4.500    0.000    8.333 
#    0.000    1.667    0.000    0.500    0.000    3.500 
#    0.000    0.000    0.000    0.000    0.000    0.000 
#
# Total GULP energy -267975.929722 kJ/mol
# GULP energy per Si atom -5582.831869 kJ/mol
# Density = 1.847708 g / cm^3
# Si number density = 18.519226 Si / 1000 Ang^3
#
#
#
# Elastic Constant Matrix: (Units=GPa)
#
#
# Indices 1 2 3 4 5 6 
#
# 1 217.4461 115.6723 59.9872 0.0000 0.0000 0.0000
# 2 115.6723 132.6117 37.5754 0.0000 0.0000 0.0000
# 3 59.9872 37.5754 43.6305 0.0000 0.0000 0.0000
# 4 0.0000 0.0000 0.0000 27.4037 0.0000 0.0000
# 5 0.0000 0.0000 0.0000 0.0000 26.0387 0.0000
# 6 0.0000 0.0000 0.0000 0.0000 0.0000 -49.0814
#
#
#
# Elastic Compliance Matrix: (Units=1/GPa)
#
#
# Indices 1 2 3 4 5 6 
#
# 1 0.010627 -0.006785 -0.008767 0.000000 0.000000 0.000000
# 2 -0.006785 0.014307 -0.002993 0.000000 0.000000 0.000000
# 3 -0.008767 -0.002993 0.037551 0.000000 0.000000 0.000000
# 4 0.000000 0.000000 0.000000 0.036491 0.000000 0.000000
# 5 0.000000 0.000000 0.000000 0.000000 0.038404 0.000000
# 6 0.000000 0.000000 0.000000 0.000000 0.000000 -0.020374
#
#
# Mechanical properties :
#
#
# Convention : Reuss Voigt Hill
#
# Bulk Modulus (GPa) = 39.37794 91.12868 65.25331
# Shear Modulus (GPa) = 30.75733 12.90242 21.82988
#
# Velocity S-wave (km/s) = 4.07975 2.64238 3.43704
# Velocity P-wave (km/s) = 6.59560 7.65663 7.14584
#
# Compressibility (1/GPa) = 0.02539493
#
# Stress axis : x y z
#
# Youngs Moduli (GPa) = 94.09984 69.89399 26.63026
#
# Poissons Ratio (x) = 0.47425 0.23348
# Poissons Ratio (y) = 0.63850 0.07970
# Poissons Ratio (z) = 0.82500 0.20917
#
# Static dielectric constant tensor:
#      x y z
#    x 1.670310 0.000000 0.000000 
#    y 0.000000 1.589200 0.000000 
#    z 0.000000 0.000000 1.627410 
# 
# From -- ./inp_files/2104.got.cif
#   From: 2010.05.17/outbox.cif.g08.bks.cpg/sg49_2_cif.got.tgz:2104.got - 2010.06.03 21:02:19.
