data_PCOD9394884
_publ_section_title
;
Structure prediction by ZEFSAII (Michael W. Deem and Ramdas Pophale) SiO2 
 PCOD9394884
Probable space group: P C C M
;
_chemical_formula_sum "Si O2"
_cell_formula_units_Z 22
_cell_length_a 5.293223
_cell_length_b 5.874308
_cell_length_c 30.112753
_cell_angle_alpha 90.000000
_cell_angle_beta 90.000000
_cell_angle_gamma 90.000000
_cell_volume 936.326611
_symmetry_space_group_name_H-M "P C C M"
_symmetry_group_IT_number 49
_symmetry_cell_setting 'orthorhombic'
loop_
_space_group_symop_operation_xyz
x,y,z
-x,-y,z
x,-y,1/2-z
-x,y,1/2-z
-x,-y,-z
x,y,-z
-x,y,1/2+z
x,-y,1/2+z
loop_
_atom_site_type_symbol
_atom_site_label
_atom_site_fract_x
_atom_site_fract_y
_atom_site_fract_z
Si Si1 0.500000 0.500000 0.750000
Si Si2 0.640173 0.753857 0.500000
Si Si3 0.251196 0.138491 0.309872
Si Si4 0.755565 0.349624 0.096646
O O1 0.691991 0.632831 0.717154
O O2 0.500000 0.500000 0.500000
O O3 0.782302 0.750341 0.452902
O O4 0.500000 0.000000 0.500000
O O5 0.254453 0.176721 0.362807
O O6 0.500000 0.000000 0.298703
O O7 0.000000 0.000000 0.298680
O O8 0.500000 0.500000 0.098022
O O9 0.000000 0.500000 0.105385
#
# Coordination Sequence:
#
# PCOD9394884 Si02
#       4
#     2   4   8   8
#     4  12  30  54  76 110 164 194 274 338 412 466
#     4  10  23  44  78 114 158 207 261 317 394 478
#     4  12  28  50  79 112 148 205 261 321 399 474
#     4  11  23  47  75 112 154 199 248 321 388 467
#
# _framework density 23.496077
#
# number of rings (size 3 to 8) (size 9 to 14) (size 15 to 20)
#    0.000    0.727    1.818    4.364    0.000    7.273 
#    0.000    8.182    0.000    0.000    0.000    0.000 
#    0.000    0.000    0.000    0.000    0.000    0.000 
#
# Total GULP energy -123021.008208 kJ/mol
# GULP energy per Si atom -5591.864009 kJ/mol
# Density = 2.344260 g / cm^3
# Si number density = 23.496077 Si / 1000 Ang^3
#
#
#
# Elastic Constant Matrix: (Units=GPa)
#
#
# Indices 1 2 3 4 5 6 
#
# 1 182.9485 46.9091 25.9980 0.0000 0.0000 0.0000
# 2 46.9091 81.9878 32.5965 0.0000 0.0000 0.0000
# 3 25.9980 32.5965 204.4132 0.0000 0.0000 0.0000
# 4 0.0000 0.0000 0.0000 10.9422 0.0000 0.0000
# 5 0.0000 0.0000 0.0000 0.0000 11.1021 0.0000
# 6 0.0000 0.0000 0.0000 0.0000 0.0000 30.9698
#
#
#
# Elastic Compliance Matrix: (Units=1/GPa)
#
#
# Indices 1 2 3 4 5 6 
#
# 1 0.006417 -0.003574 -0.000246 0.000000 0.000000 0.000000
# 2 -0.003574 0.015013 -0.001939 0.000000 0.000000 0.000000
# 3 -0.000246 -0.001939 0.005233 0.000000 0.000000 0.000000
# 4 0.000000 0.000000 0.000000 0.091389 0.000000 0.000000
# 5 0.000000 0.000000 0.000000 0.000000 0.090073 0.000000
# 6 0.000000 0.000000 0.000000 0.000000 0.000000 0.032290
#
#
# Mechanical properties :
#
#
# Convention : Reuss Voigt Hill
#
# Bulk Modulus (GPa) = 66.03397 75.59517 70.81457
# Shear Modulus (GPa) = 19.45664 34.85921 27.15792
#
# Velocity S-wave (km/s) = 2.88076 3.85596 3.40347
# Velocity P-wave (km/s) = 6.26341 7.21581 6.75641
#
# Compressibility (1/GPa) = 0.01514372
#
# Stress axis : x y z
#
# Youngs Moduli (GPa) = 155.82754 66.61009 191.10770
#
# Poissons Ratio (x) = 0.23805 0.04707
# Poissons Ratio (y) = 0.55689 0.37065
# Poissons Ratio (z) = 0.03838 0.12919
#
# Static dielectric constant tensor:
#      x y z
#    x 1.813000 0.000000 0.000000 
#    y 0.000000 1.982820 0.000000 
#    z 0.000000 0.000000 1.934670 
# 
# From -- ./inp_files/25328.got.cif
#   From: 2010.05.17/outbox.cif.g08.bks.cpg/sg49_13_cif.got.tgz:25328.got - 2010.06.03 21:02:19.
