data_PCOD9394179
_publ_section_title
;
Structure prediction by ZEFSAII (Michael W. Deem and Ramdas Pophale) SiO2 
 PCOD9394179
Probable space group: P C C M
;
_chemical_formula_sum "Si O2"
_cell_formula_units_Z 48
_cell_length_a 14.663419
_cell_length_b 9.603264
_cell_length_c 17.397972
_cell_angle_alpha 90.000000
_cell_angle_beta 90.000000
_cell_angle_gamma 90.000000
_cell_volume 2449.924722
_symmetry_space_group_name_H-M "P C C M"
_symmetry_group_IT_number 49
_symmetry_cell_setting 'orthorhombic'
loop_
_space_group_symop_operation_xyz
x,y,z
-x,-y,z
x,-y,1/2-z
-x,y,1/2-z
-x,-y,-z
x,y,-z
-x,y,1/2+z
x,-y,1/2+z
loop_
_atom_site_type_symbol
_atom_site_label
_atom_site_fract_x
_atom_site_fract_y
_atom_site_fract_z
Si Si1 0.862837 0.520080 0.587470
Si Si2 0.605262 0.667350 0.258506
Si Si3 0.074889 0.756731 0.815695
Si Si4 0.213110 0.258988 0.182336
Si Si5 0.159872 0.014329 0.411560
Si Si6 0.303432 0.740114 0.083242
O O1 0.889269 0.484234 0.500000
O O2 0.934313 0.619636 0.631913
O O3 0.830376 0.388763 0.636793
O O4 0.774693 0.621563 0.582330
O O5 0.612368 0.500000 0.250000
O O6 0.500000 0.707834 0.250000
O O7 0.678859 0.727547 0.197627
O O8 0.635228 0.713555 0.343410
O O9 0.167765 0.742905 0.766582
O O10 0.083980 0.890719 0.869780
O O11 0.000000 0.769287 0.750000
O O12 0.183385 0.121395 0.137123
O O13 0.136077 0.982868 0.500000
O O14 0.248658 0.114719 0.412209
O O15 0.351232 0.734191 0.000000
#
# Coordination Sequence:
#
# PCOD9394179 Si02
#       6
#     8   8   8   8   8   8
#     4  10  20  38  63  88 124 165 204 258 317 368
#     4  11  21  37  61  96 129 165 212 267 317 378
#     4  11  23  40  64  90 117 163 214 254 312 384
#     4  12  21  38  61  94 125 161 212 266 309 373
#     4  10  22  40  63  88 125 167 206 259 322 379
#     4   9  18  37  60  83 116 166 207 247 312 373
#
# _framework density 19.59244
#
# number of rings (size 3 to 8) (size 9 to 14) (size 15 to 20)
#    0.000    1.500    5.000    3.000    0.000    2.667 
#    0.000   10.000    0.000    2.000    0.000    0.000 
#    0.000    0.000    0.000    0.000    0.000    0.000 
#
# Total GULP energy -268144.380416 kJ/mol
# GULP energy per Si atom -5586.341259 kJ/mol
# Density = 1.954785 g / cm^3
# Si number density = 19.592440 Si / 1000 Ang^3
#
#
#
# Elastic Constant Matrix: (Units=GPa)
#
#
# Indices 1 2 3 4 5 6 
#
# 1 82.7240 14.9057 35.1888 0.0000 0.0000 0.0000
# 2 14.9057 118.6251 54.7595 0.0000 0.0000 0.0000
# 3 35.1888 54.7595 168.1160 0.0000 0.0000 0.0000
# 4 0.0000 0.0000 0.0000 26.5300 0.0000 0.0000
# 5 0.0000 0.0000 0.0000 0.0000 61.5229 0.0000
# 6 0.0000 0.0000 0.0000 0.0000 0.0000 18.2635
#
#
#
# Elastic Compliance Matrix: (Units=1/GPa)
#
#
# Indices 1 2 3 4 5 6 
#
# 1 0.013291 -0.000454 -0.002634 0.000000 0.000000 0.000000
# 2 -0.000454 0.009937 -0.003142 0.000000 0.000000 0.000000
# 3 -0.002634 -0.003142 0.007523 0.000000 0.000000 0.000000
# 4 0.000000 0.000000 0.000000 0.037693 0.000000 0.000000
# 5 0.000000 0.000000 0.000000 0.000000 0.016254 0.000000
# 6 0.000000 0.000000 0.000000 0.000000 0.000000 0.054754
#
#
# Mechanical properties :
#
#
# Convention : Reuss Voigt Hill
#
# Bulk Modulus (GPa) = 54.67127 64.35255 59.51191
# Shear Modulus (GPa) = 31.64377 38.90403 35.27390
#
# Velocity S-wave (km/s) = 4.02319 4.46091 4.24770
# Velocity P-wave (km/s) = 7.03891 7.71038 7.38228
#
# Compressibility (1/GPa) = 0.01829114
#
# Stress axis : x y z
#
# Youngs Moduli (GPa) = 75.24089 100.63119 132.92662
#
# Poissons Ratio (x) = 0.04570 0.35013
# Poissons Ratio (y) = 0.03417 0.41762
# Poissons Ratio (z) = 0.19818 0.31616
#
# Static dielectric constant tensor:
#      x y z
#    x 1.725320 0.000000 0.000000 
#    y 0.000000 1.677790 0.000000 
#    z 0.000000 0.000000 1.686630 
# 
# From -- ./inp_files/17742.got.cif
#   From: 2010.05.17/outbox.cif.g08.bks.cpg/sg49_9_cif.got.tgz:17742.got - 2010.06.03 21:02:19.
