data_PCOD9394495
_publ_section_title
;
Structure prediction by ZEFSAII (Michael W. Deem and Ramdas Pophale) SiO2 
 PCOD9394495
Probable space group: P C C M
;
_chemical_formula_sum "Si O2"
_cell_formula_units_Z 58
_cell_length_a 13.913883
_cell_length_b 13.268597
_cell_length_c 14.441747
_cell_angle_alpha 90.000000
_cell_angle_beta 90.000000
_cell_angle_gamma 90.000000
_cell_volume 2666.202205
_symmetry_space_group_name_H-M "P C C M"
_symmetry_group_IT_number 49
_symmetry_cell_setting 'orthorhombic'
loop_
_space_group_symop_operation_xyz
x,y,z
-x,-y,z
x,-y,1/2-z
-x,y,1/2-z
-x,-y,-z
x,y,-z
-x,y,1/2+z
x,-y,1/2+z
loop_
_atom_site_type_symbol
_atom_site_label
_atom_site_fract_x
_atom_site_fract_y
_atom_site_fract_z
Si Si1 0.809583 0.349300 0.605675
Si Si2 0.015177 0.385557 0.359428
Si Si3 0.000000 0.000000 0.250000
Si Si4 0.268929 0.147574 0.108543
Si Si5 0.683691 0.232185 0.891609
Si Si6 0.490458 0.886712 0.640260
Si Si7 0.163977 0.060981 0.385855
Si Si8 0.773875 0.575154 0.609019
O O1 0.773602 0.353810 0.500000
O O2 0.765433 0.251857 0.653591
O O3 0.789020 0.460925 0.647452
O O4 0.923822 0.328409 0.601947
O O5 0.124810 0.364801 0.382190
O O6 0.000000 0.500000 0.393226
O O7 0.000000 0.383474 0.250000
O O8 0.068812 0.062369 0.321396
O O9 0.383298 0.145838 0.116766
O O10 0.217990 0.044472 0.138689
O O11 0.243463 0.152001 0.000000
O O12 0.577325 0.185944 0.887310
O O13 0.761026 0.149128 0.859158
O O14 0.696757 0.345367 0.852187
O O15 0.706137 0.242804 0.000000
O O16 0.500000 0.892679 0.750000
O O17 0.500000 0.000000 0.602518
O O18 0.146945 0.064059 0.500000
O O19 0.755915 0.559361 0.500000
#
# Coordination Sequence:
#
# PCOD9394495 Si02
#       8
#     8   8   2   8   8   8   8   8
#     4   9  18  34  56  81 111 150 195 239 287 347
#     4   9  17  30  49  76 108 147 191 233 278 330
#     4  12  26  40  64  88 134 168 194 248 320 366
#     4  10  21  38  61  86 116 151 194 247 299 351
#     4  10  21  38  61  86 116 151 194 247 299 351
#     4  11  23  37  62  89 112 142 195 250 296 361
#     4  10  23  42  62  89 122 163 209 247 296 370
#     4   9  18  34  56  81 111 150 195 239 287 347
#
# _framework density 21.753791
#
# number of rings (size 3 to 8) (size 9 to 14) (size 15 to 20)
#    0.000    2.207    1.379    1.034    1.931    4.414 
#    2.483    4.828    0.000    4.138    0.000    0.000 
#    0.000    0.000    0.000    0.000    0.000    0.000 
#
# Total GULP energy -323304.572691 kJ/mol
# GULP energy per Si atom -5574.216771 kJ/mol
# Density = 2.170428 g / cm^3
# Si number density = 21.753791 Si / 1000 Ang^3
#
#
#
# Elastic Constant Matrix: (Units=GPa)
#
#
# Indices 1 2 3 4 5 6 
#
# 1 107.1996 64.4264 -8.5104 0.0000 0.0000 0.0000
# 2 64.4264 145.1123 12.2761 0.0000 0.0000 0.0000
# 3 -8.5104 12.2761 78.4331 0.0000 0.0000 0.0000
# 4 0.0000 0.0000 0.0000 12.9176 0.0000 0.0000
# 5 0.0000 0.0000 0.0000 0.0000 32.0023 0.0000
# 6 0.0000 0.0000 0.0000 0.0000 0.0000 40.4950
#
#
#
# Elastic Compliance Matrix: (Units=1/GPa)
#
#
# Indices 1 2 3 4 5 6 
#
# 1 0.013144 -0.006036 0.002371 0.000000 0.000000 0.000000
# 2 -0.006036 0.009756 -0.002182 0.000000 0.000000 0.000000
# 3 0.002371 -0.002182 0.013349 0.000000 0.000000 0.000000
# 4 0.000000 0.000000 0.000000 0.077414 0.000000 0.000000
# 5 0.000000 0.000000 0.000000 0.000000 0.031248 0.000000
# 6 0.000000 0.000000 0.000000 0.000000 0.000000 0.024694
#
#
# Mechanical properties :
#
#
# Convention : Reuss Voigt Hill
#
# Bulk Modulus (GPa) = 40.72626 51.90325 46.31476
# Shear Modulus (GPa) = 26.38742 34.58649 30.48696
#
# Velocity S-wave (km/s) = 3.48660 3.99169 3.74766
# Velocity P-wave (km/s) = 5.91359 6.71982 6.32956
#
# Compressibility (1/GPa) = 0.02455418
#
# Stress axis : x y z
#
# Youngs Moduli (GPa) = 76.07763 102.50289 74.91478
#
# Poissons Ratio (x) = 0.61875 -0.17763
# Poissons Ratio (y) = 0.45924 0.16346
# Poissons Ratio (z) = -0.18038 0.22365
#
# Static dielectric constant tensor:
#      x y z
#    x 1.696330 0.000000 0.000000 
#    y 0.000000 1.873460 0.000000 
#    z 0.000000 0.000000 1.845320 
# 
# From -- ./inp_files/17885.got.cif
#   From: 2010.05.17/outbox.cif.g08.bks.cpg/sg49_9_cif.got.tgz:17885.got - 2010.06.03 21:02:19.
