data_PCOD9394037
_publ_section_title
;
Structure prediction by ZEFSAII (Michael W. Deem and Ramdas Pophale) SiO2 
 PCOD9394037
Probable space group: P C C M
;
_chemical_formula_sum "Si O2"
_cell_formula_units_Z 48
_cell_length_a 14.984224
_cell_length_b 19.232668
_cell_length_c 8.688496
_cell_angle_alpha 90.000000
_cell_angle_beta 90.000000
_cell_angle_gamma 90.000000
_cell_volume 2503.908169
_symmetry_space_group_name_H-M "P C C M"
_symmetry_group_IT_number 49
_symmetry_cell_setting 'orthorhombic'
loop_
_space_group_symop_operation_xyz
x,y,z
-x,-y,z
x,-y,1/2-z
-x,y,1/2-z
-x,-y,-z
x,y,-z
-x,y,1/2+z
x,-y,1/2+z
loop_
_atom_site_type_symbol
_atom_site_label
_atom_site_fract_x
_atom_site_fract_y
_atom_site_fract_z
Si Si1 0.905688 0.224753 0.816829
Si Si2 0.401716 0.422378 0.186657
Si Si3 0.582741 0.798403 0.175959
Si Si4 0.147277 0.925693 0.683249
Si Si5 0.742975 0.308721 0.677564
Si Si6 0.654606 0.931659 0.319658
O O1 0.890453 0.146417 0.750607
O O2 0.827537 0.278142 0.767602
O O3 0.000000 0.249335 0.750000
O O4 0.908164 0.219469 0.000000
O O5 0.386595 0.500000 0.250000
O O6 0.500000 0.401659 0.250000
O O7 0.318044 0.373379 0.233347
O O8 0.405945 0.421211 0.000000
O O9 0.500000 0.758239 0.250000
O O10 0.671556 0.753595 0.177340
O O11 0.598049 0.864414 0.282908
O O12 0.565151 0.818194 0.000000
O O13 0.136533 0.925980 0.500000
O O14 0.251756 0.923901 0.729611
O O15 0.112980 0.000000 0.750000
O O16 0.769687 0.322438 0.500000
O O17 0.672466 0.939282 0.500000
O O18 0.610444 0.000000 0.250000
#
# Coordination Sequence:
#
# PCOD9394037 Si02
#       6
#     8   8   8   8   8   8
#     4  12  25  41  63  89 118 155 200 249 305 363
#     4  10  20  36  61  95 132 169 204 243 287 341
#     4  11  22  36  55  80 112 149 192 241 290 348
#     4  11  21  37  59  84 114 149 195 249 308 365
#     4  10  22  40  61  86 121 159 196 242 296 350
#     4  11  21  35  54  77 105 145 192 239 296 351
#
# _framework density 19.170033
#
# number of rings (size 3 to 8) (size 9 to 14) (size 15 to 20)
#    0.000    1.167    1.667    7.500    0.000    2.667 
#    0.000    3.333    0.000    0.500    0.000    3.500 
#    0.000    0.000    0.000    0.000    0.000    0.000 
#
# Total GULP energy -268065.699061 kJ/mol
# GULP energy per Si atom -5584.702064 kJ/mol
# Density = 1.912640 g / cm^3
# Si number density = 19.170033 Si / 1000 Ang^3
#
#
#
# Elastic Constant Matrix: (Units=GPa)
#
#
# Indices 1 2 3 4 5 6 
#
# 1 124.0312 51.5634 55.9294 0.0000 0.0000 0.0000
# 2 51.5634 120.7145 47.3188 0.0000 0.0000 0.0000
# 3 55.9294 47.3188 145.6588 0.0000 0.0000 0.0000
# 4 0.0000 0.0000 0.0000 19.9323 0.0000 0.0000
# 5 0.0000 0.0000 0.0000 0.0000 28.3599 0.0000
# 6 0.0000 0.0000 0.0000 0.0000 0.0000 20.6849
#
#
#
# Elastic Compliance Matrix: (Units=1/GPa)
#
#
# Indices 1 2 3 4 5 6 
#
# 1 0.010873 -0.003447 -0.003055 0.000000 0.000000 0.000000
# 2 -0.003447 0.010586 -0.002115 0.000000 0.000000 0.000000
# 3 -0.003055 -0.002115 0.008726 0.000000 0.000000 0.000000
# 4 0.000000 0.000000 0.000000 0.050170 0.000000 0.000000
# 5 0.000000 0.000000 0.000000 0.000000 0.035261 0.000000
# 6 0.000000 0.000000 0.000000 0.000000 0.000000 0.048344
#
#
# Mechanical properties :
#
#
# Convention : Reuss Voigt Hill
#
# Bulk Modulus (GPa) = 77.22314 77.78085 77.50199
# Shear Modulus (GPa) = 26.95255 29.50160 28.22708
#
# Velocity S-wave (km/s) = 3.75370 3.92719 3.84143
# Velocity P-wave (km/s) = 7.69141 7.82471 7.75834
#
# Compressibility (1/GPa) = 0.01294949
#
# Stress axis : x y z
#
# Youngs Moduli (GPa) = 91.96957 94.46871 114.60409
#
# Poissons Ratio (x) = 0.32562 0.35015
# Poissons Ratio (y) = 0.31701 0.24242
# Poissons Ratio (z) = 0.28099 0.19983
#
# Static dielectric constant tensor:
#      x y z
#    x 1.691790 0.000000 0.000000 
#    y 0.000000 1.760990 0.000000 
#    z 0.000000 0.000000 1.660500 
# 
# From -- ./inp_files/3726.got.cif
#   From: 2010.05.17/outbox.cif.g08.bks.cpg/sg49_2_cif.got.tgz:3726.got - 2010.06.03 21:02:19.
