data_PCOD9394104
_publ_section_title
;
Structure prediction by ZEFSAII (Michael W. Deem and Ramdas Pophale) SiO2 
 PCOD9394104
Probable space group: P C C M
;
_chemical_formula_sum "Si O2"
_cell_formula_units_Z 64
_cell_length_a 9.047824
_cell_length_b 21.599157
_cell_length_c 17.737924
_cell_angle_alpha 90.000000
_cell_angle_beta 90.000000
_cell_angle_gamma 90.000000
_cell_volume 3466.440380
_symmetry_space_group_name_H-M "P C C M"
_symmetry_group_IT_number 49
_symmetry_cell_setting 'orthorhombic'
loop_
_space_group_symop_operation_xyz
x,y,z
-x,-y,z
x,-y,1/2-z
-x,y,1/2-z
-x,-y,-z
x,y,-z
-x,y,1/2+z
x,-y,1/2+z
loop_
_atom_site_type_symbol
_atom_site_label
_atom_site_fract_x
_atom_site_fract_y
_atom_site_fract_z
Si Si1 0.187974 0.120903 0.587701
Si Si2 0.091946 0.847136 0.671891
Si Si3 0.431034 0.326831 0.171334
Si Si4 0.577101 0.562598 0.409279
Si Si5 0.856257 0.369739 0.913897
Si Si6 0.356553 0.249936 0.584334
Si Si7 0.325923 0.072763 0.739942
Si Si8 0.906636 0.295404 0.326640
O O1 0.208493 0.102364 0.500000
O O2 0.254811 0.190339 0.596112
O O3 0.273920 0.086101 0.654315
O O4 0.015369 0.120694 0.611099
O O5 0.235534 0.885326 0.699274
O O6 0.108821 0.775855 0.645469
O O7 0.000000 0.844649 0.750000
O O8 0.500000 0.346677 0.250000
O O9 0.472968 0.379764 0.111927
O O10 0.514949 0.264481 0.143651
O O11 0.259472 0.317511 0.183327
O O12 0.500000 0.500000 0.381566
O O13 0.588400 0.559553 0.500000
O O14 0.744135 0.578330 0.381191
O O15 0.752299 0.308653 0.912984
O O16 0.004320 0.345639 0.875432
O O17 0.889921 0.386506 0.000000
O O18 0.420893 0.245927 0.500000
O O19 0.500000 0.084518 0.750000
O O20 0.296087 0.000000 0.750000
O O21 0.000000 0.292201 0.250000
#
# Coordination Sequence:
#
# PCOD9394104 Si02
#       8
#     8   8   8   8   8   8   8   8
#     4  10  20  37  61  89 119 153 198 251 302 360
#     4   9  20  34  57  82 114 156 196 238 296 374
#     4  11  23  32  54  84 115 152 193 242 288 352
#     4   9  19  39  61  79 106 151 201 240 285 350
#     4   9  17  32  55  79 111 147 179 228 290 344
#     4   9  18  34  53  80 115 147 183 229 291 350
#     4  10  23  42  62  85 119 162 209 256 306 368
#     4  11  21  33  51  82 119 151 187 236 295 353
#
# _framework density 18.462744000000001
#
# number of rings (size 3 to 8) (size 9 to 14) (size 15 to 20)
#    0.000    2.250    1.250    2.625    5.250    3.500 
#    0.000    3.750    0.000    3.000    0.000    0.000 
#    0.000    0.000    0.000    0.000    0.000    0.000 
#
# Total GULP energy -356417.402164 kJ/mol
# GULP energy per Si atom -5569.021909 kJ/mol
# Density = 1.842072 g / cm^3
# Si number density = 18.462744 Si / 1000 Ang^3
#
#
#
# Elastic Constant Matrix: (Units=GPa)
#
#
# Indices 1 2 3 4 5 6 
#
# 1 128.2406 37.6308 32.0757 0.0000 0.0000 0.0000
# 2 37.6308 67.4059 20.2487 0.0000 0.0000 0.0000
# 3 32.0757 20.2487 61.4555 0.0000 0.0000 0.0000
# 4 0.0000 0.0000 0.0000 26.4592 0.0000 0.0000
# 5 0.0000 0.0000 0.0000 0.0000 24.4755 0.0000
# 6 0.0000 0.0000 0.0000 0.0000 0.0000 21.6308
#
#
#
# Elastic Compliance Matrix: (Units=1/GPa)
#
#
# Indices 1 2 3 4 5 6 
#
# 1 0.010056 -0.004481 -0.003772 0.000000 0.000000 0.000000
# 2 -0.004481 0.018462 -0.003744 0.000000 0.000000 0.000000
# 3 -0.003772 -0.003744 0.019474 0.000000 0.000000 0.000000
# 4 0.000000 0.000000 0.000000 0.037794 0.000000 0.000000
# 5 0.000000 0.000000 0.000000 0.000000 0.040857 0.000000
# 6 0.000000 0.000000 0.000000 0.000000 0.000000 0.046230
#
#
# Mechanical properties :
#
#
# Convention : Reuss Voigt Hill
#
# Bulk Modulus (GPa) = 41.67051 48.55694 45.11373
# Shear Modulus (GPa) = 24.40593 25.65621 25.03107
#
# Velocity S-wave (km/s) = 3.63974 3.73181 3.68606
# Velocity P-wave (km/s) = 6.34686 6.70265 6.52718
#
# Compressibility (1/GPa) = 0.02399779
#
# Stress axis : x y z
#
# Youngs Moduli (GPa) = 99.44054 54.16585 51.34930
#
# Poissons Ratio (x) = 0.24271 0.19371
# Poissons Ratio (y) = 0.44559 0.19226
# Poissons Ratio (z) = 0.37512 0.20280
#
# Static dielectric constant tensor:
#      x y z
#    x 1.647070 0.000000 0.000000 
#    y 0.000000 1.664920 0.000000 
#    z 0.000000 0.000000 1.664490 
# 
# From -- ./inp_files/16593.got.cif
#   From: 2010.05.17/outbox.cif.g08.bks.cpg/sg49_9_cif.got.tgz:16593.got - 2010.06.03 21:02:19.
