data_PCOD9394003
_publ_section_title
;
Structure prediction by ZEFSAII (Michael W. Deem and Ramdas Pophale) SiO2 
 PCOD9394003
Probable space group: P C C M
;
_chemical_formula_sum "Si O2"
_cell_formula_units_Z 64
_cell_length_a 24.379814
_cell_length_b 15.760161
_cell_length_c 8.718963
_cell_angle_alpha 90.000000
_cell_angle_beta 90.000000
_cell_angle_gamma 90.000000
_cell_volume 3350.085356
_symmetry_space_group_name_H-M "P C C M"
_symmetry_group_IT_number 49
_symmetry_cell_setting 'orthorhombic'
loop_
_space_group_symop_operation_xyz
x,y,z
-x,-y,z
x,-y,1/2-z
-x,y,1/2-z
-x,-y,-z
x,y,-z
-x,y,1/2+z
x,-y,1/2+z
loop_
_atom_site_type_symbol
_atom_site_label
_atom_site_fract_x
_atom_site_fract_y
_atom_site_fract_z
Si Si1 0.060553 0.408295 0.182949
Si Si2 0.442723 0.849252 0.684116
Si Si3 0.130870 0.743996 0.184303
Si Si4 0.740515 0.249986 0.183867
Si Si5 0.323849 0.910481 0.684317
Si Si6 0.442768 0.349763 0.815935
Si Si7 0.060894 0.909352 0.815973
Si Si8 0.676130 0.410570 0.315620
O O1 0.077170 0.500000 0.250000
O O2 0.101477 0.334701 0.234780
O O3 0.000000 0.389590 0.250000
O O4 0.057203 0.413434 0.000000
O O5 0.500000 0.882485 0.750000
O O6 0.445424 0.852360 0.500000
O O7 0.387253 0.895471 0.733775
O O8 0.437792 0.749733 0.729400
O O9 0.195036 0.748797 0.221620
O O10 0.100218 0.831482 0.225832
O O11 0.125485 0.733272 0.000000
O O12 0.711570 0.167226 0.252949
O O13 0.711157 0.332681 0.252041
O O14 0.734639 0.249405 0.000000
O O15 0.322210 0.910457 0.500000
O O16 0.304512 0.000000 0.750000
O O17 0.500000 0.383034 0.750000
O O18 0.387325 0.396085 0.766512
O O19 0.445495 0.352821 0.000000
O O20 0.000000 0.893826 0.750000
O O21 0.079738 0.000000 0.750000
O O22 0.057703 0.915053 0.000000
O O23 0.695718 0.500000 0.250000
O O24 0.678032 0.410323 0.500000
#
# Coordination Sequence:
#
# PCOD9394003 Si02
#       8
#     8   8   8   8   8   8   8   8
#     4  11  22  38  63  93 127 164 200 243 296 350
#     4   9  18  34  56  83 115 150 187 237 295 357
#     4  10  23  41  61  88 121 156 202 251 295 352
#     4  11  24  43  64  87 117 157 202 252 305 353
#     4  11  23  41  62  87 119 155 199 248 300 360
#     4   9  18  34  56  83 115 149 187 235 294 355
#     4  10  20  36  59  88 123 157 191 236 284 339
#     4  11  23  41  62  87 118 154 198 246 297 358
#
# _framework density 19.103991000000001
#
# number of rings (size 3 to 8) (size 9 to 14) (size 15 to 20)
#    0.000    1.750    1.250    3.750    0.000    6.500 
#    0.000    3.750    0.000    0.000    0.000    0.000 
#    0.000    0.000    0.000    0.000    0.000    0.000 
#
# Total GULP energy -357689.208983 kJ/mol
# GULP energy per Si atom -5588.893890 kJ/mol
# Density = 1.906051 g / cm^3
# Si number density = 19.103991 Si / 1000 Ang^3
#
#
#
# Elastic Constant Matrix: (Units=GPa)
#
#
# Indices 1 2 3 4 5 6 
#
# 1 130.9630 103.8463 63.2004 0.0000 0.0000 0.0000
# 2 103.8463 169.3003 64.2808 0.0000 0.0000 0.0000
# 3 63.2004 64.2808 69.3683 0.0000 0.0000 0.0000
# 4 0.0000 0.0000 0.0000 9.6423 0.0000 0.0000
# 5 0.0000 0.0000 0.0000 0.0000 26.1966 0.0000
# 6 0.0000 0.0000 0.0000 0.0000 0.0000 -11.7966
#
#
#
# Elastic Compliance Matrix: (Units=1/GPa)
#
#
# Indices 1 2 3 4 5 6 
#
# 1 0.018283 -0.007544 -0.009666 0.000000 0.000000 0.000000
# 2 -0.007544 0.012226 -0.004456 0.000000 0.000000 0.000000
# 3 -0.009666 -0.004456 0.027352 0.000000 0.000000 0.000000
# 4 0.000000 0.000000 0.000000 0.103710 0.000000 0.000000
# 5 0.000000 0.000000 0.000000 0.000000 0.038173 0.000000
# 6 0.000000 0.000000 0.000000 0.000000 0.000000 -0.084771
#
#
# Mechanical properties :
#
#
# Convention : Reuss Voigt Hill
#
# Bulk Modulus (GPa) = 68.83394 92.47628 80.65511
# Shear Modulus (GPa) = 30.64712 14.02874 22.33793
#
# Velocity S-wave (km/s) = 4.00962 2.71280 3.42318
# Velocity P-wave (km/s) = 7.58588 7.63703 7.61150
#
# Compressibility (1/GPa) = 0.01452772
#
# Stress axis : x y z
#
# Youngs Moduli (GPa) = 54.69709 81.79287 36.56095
#
# Poissons Ratio (x) = 0.61706 0.35340
# Poissons Ratio (y) = 0.41264 0.16291
# Poissons Ratio (z) = 0.52871 0.36447
#
# Static dielectric constant tensor:
#      x y z
#    x 1.647120 0.000000 0.000000 
#    y 0.000000 1.659220 0.000000 
#    z 0.000000 0.000000 1.639580 
# 
# From -- ./inp_files/6507.got.cif
#   From: 2010.05.17/outbox.cif.g08.bks.cpg/sg49_4_cif.got.tgz:6507.got - 2010.06.03 21:02:19.
