data_PCOD9394756
_publ_section_title
;
Structure prediction by ZEFSAII (Michael W. Deem and Ramdas Pophale) SiO2 
 PCOD9394756
Probable space group: P C C M
;
_chemical_formula_sum "Si O2"
_cell_formula_units_Z 40
_cell_length_a 8.014990
_cell_length_b 9.547208
_cell_length_c 23.215317
_cell_angle_alpha 90.000000
_cell_angle_beta 90.000000
_cell_angle_gamma 90.000000
_cell_volume 1776.454087
_symmetry_space_group_name_H-M "P C C M"
_symmetry_group_IT_number 49
_symmetry_cell_setting 'orthorhombic'
loop_
_space_group_symop_operation_xyz
x,y,z
-x,-y,z
x,-y,1/2-z
-x,y,1/2-z
-x,-y,-z
x,y,-z
-x,y,1/2+z
x,-y,1/2+z
loop_
_atom_site_type_symbol
_atom_site_label
_atom_site_fract_x
_atom_site_fract_y
_atom_site_fract_z
Si Si1 0.060527 0.143149 0.068380
Si Si2 0.801203 0.169654 0.744960
Si Si3 0.156186 0.400795 0.564774
Si Si4 0.601460 0.147487 0.372637
Si Si5 0.622948 0.380200 0.835907
O O1 0.256442 0.152310 0.079349
O O2 0.930383 0.259291 0.088018
O O3 0.036189 0.141353 0.000000
O O4 0.000000 0.000000 0.096904
O O5 0.707994 0.188404 0.684233
O O6 0.710199 0.277873 0.788988
O O7 0.000000 0.196651 0.750000
O O8 0.779935 0.000000 0.750000
O O9 0.232898 0.383970 0.500000
O O10 0.259606 0.458648 0.618284
O O11 0.000000 0.500000 0.556651
O O12 0.468765 0.269953 0.378006
O O13 0.500000 0.000000 0.368495
O O14 0.500000 0.500000 0.812586
#
# Coordination Sequence:
#
# PCOD9394756 Si02
#       5
#     8   8   8   8   8
#     4  10  22  40  65  98 134 176 228 280 331 402
#     4  11  25  45  70  94 130 189 241 280 340 419
#     4  10  22  44  71  99 138 186 229 270 338 422
#     4  12  24  40  66  97 135 176 226 282 352 407
#     4  12  26  43  67 105 140 172 226 293 347 405
#
# _framework density 22.516766000000001
#
# number of rings (size 3 to 8) (size 9 to 14) (size 15 to 20)
#    0.000    1.000    2.000    4.200    2.800    3.200 
#    0.000    1.000    0.000    0.000    0.000    0.000 
#    0.000    0.000    0.000    0.000    0.000    0.000 
#
# Total GULP energy -223007.500739 kJ/mol
# GULP energy per Si atom -5575.187518 kJ/mol
# Density = 2.246552 g / cm^3
# Si number density = 22.516766 Si / 1000 Ang^3
#
#
#
# Elastic Constant Matrix: (Units=GPa)
#
#
# Indices 1 2 3 4 5 6 
#
# 1 65.0769 12.5162 15.2696 0.0000 0.0000 0.0000
# 2 12.5162 93.8878 16.3635 0.0000 0.0000 0.0000
# 3 15.2696 16.3635 61.2087 0.0000 0.0000 0.0000
# 4 0.0000 0.0000 0.0000 22.4940 0.0000 0.0000
# 5 0.0000 0.0000 0.0000 0.0000 108.3318 0.0000
# 6 0.0000 0.0000 0.0000 0.0000 0.0000 36.4565
#
#
#
# Elastic Compliance Matrix: (Units=1/GPa)
#
#
# Indices 1 2 3 4 5 6 
#
# 1 0.016536 -0.001558 -0.003709 0.000000 0.000000 0.000000
# 2 -0.001558 0.011318 -0.002637 0.000000 0.000000 0.000000
# 3 -0.003709 -0.002637 0.017968 0.000000 0.000000 0.000000
# 4 0.000000 0.000000 0.000000 0.044456 0.000000 0.000000
# 5 0.000000 0.000000 0.000000 0.000000 0.009231 0.000000
# 6 0.000000 0.000000 0.000000 0.000000 0.000000 0.027430
#
#
# Mechanical properties :
#
#
# Convention : Reuss Voigt Hill
#
# Bulk Modulus (GPa) = 33.31721 34.27465 33.79593
# Shear Modulus (GPa) = 32.73275 45.19142 38.96209
#
# Velocity S-wave (km/s) = 3.81689 4.48483 4.16427
# Velocity P-wave (km/s) = 5.85265 6.48638 6.17765
#
# Compressibility (1/GPa) = 0.03001451
#
# Stress axis : x y z
#
# Youngs Moduli (GPa) = 60.47302 88.35222 55.65521
#
# Poissons Ratio (x) = 0.13766 0.20641
# Poissons Ratio (y) = 0.09422 0.14677
# Poissons Ratio (z) = 0.22428 0.23300
#
# Static dielectric constant tensor:
#      x y z
#    x 1.916060 0.000000 0.000000 
#    y 0.000000 1.890680 0.000000 
#    z 0.000000 0.000000 1.838330 
# 
# From -- ./inp_files/22213.got.cif
#   From: 2010.05.17/outbox.cif.g08.bks.cpg/sg49_12_cif.got.tgz:22213.got - 2010.06.03 21:02:19.
