data_PCOD9394147
_publ_section_title
;
Structure prediction by ZEFSAII (Michael W. Deem and Ramdas Pophale) SiO2 
 PCOD9394147
Probable space group: P C C M
;
_chemical_formula_sum "Si O2"
_cell_formula_units_Z 58
_cell_length_a 17.240424
_cell_length_b 10.570232
_cell_length_c 15.393178
_cell_angle_alpha 90.000000
_cell_angle_beta 90.000000
_cell_angle_gamma 90.000000
_cell_volume 2805.180125
_symmetry_space_group_name_H-M "P C C M"
_symmetry_group_IT_number 49
_symmetry_cell_setting 'orthorhombic'
loop_
_space_group_symop_operation_xyz
x,y,z
-x,-y,z
x,-y,1/2-z
-x,y,1/2-z
-x,-y,-z
x,y,-z
-x,y,1/2+z
x,-y,1/2+z
loop_
_atom_site_type_symbol
_atom_site_label
_atom_site_fract_x
_atom_site_fract_y
_atom_site_fract_z
Si Si1 0.681299 0.753622 0.895890
Si Si2 0.999998 0.287519 0.847078
Si Si3 0.155850 0.852635 0.894601
Si Si4 0.588907 0.000056 0.393481
Si Si5 0.000000 0.500000 0.500000
Si Si6 0.318708 0.246286 0.604113
Si Si7 0.155854 0.852619 0.605400
Si Si8 0.588318 0.500038 0.646986
O O1 0.632271 0.873732 0.863836
O O2 0.769821 0.770193 0.865496
O O3 0.637034 0.624234 0.877043
O O4 0.684827 0.764691 0.000000
O O5 0.923554 0.201578 0.857971
O O6 0.000000 0.342396 0.750000
O O7 0.076447 0.201591 0.857975
O O8 0.999993 0.390063 0.923446
O O9 0.230179 0.770212 0.865502
O O10 0.168306 0.000008 0.871958
O O11 0.151084 0.846361 0.000000
O O12 0.590003 0.000061 0.500000
O O13 0.500000 0.000000 0.366149
O O14 0.632312 0.873880 0.363843
O O15 0.315188 0.235253 0.500000
O O16 0.363011 0.375632 0.622985
O O17 0.151090 0.846344 0.500000
O O18 0.500000 0.500000 0.610316
O O19 0.581248 0.500000 0.750000
#
# Coordination Sequence:
#
# PCOD9394147 Si02
#       8
#     8   8   8   8   2   8   8   8
#     4  10  20  37  64  95 124 166 215 271 330 395
#     4  12  26  44  72 103 135 182 230 274 333 402
#     4  10  20  40  68  99 137 174 216 272 345 407
#     4   9  16  30  57  94 125 154 210 276 324 381
#     4  12  26  52  66  94 136 184 224 282 328 394
#     4  10  20  37  64  95 124 166 215 271 330 395
#     4  10  20  40  68  99 137 174 216 272 345 407
#     4  11  25  42  57  82 127 177 220 267 336 407
#
# _framework density 20.676034000000001
#
# number of rings (size 3 to 8) (size 9 to 14) (size 15 to 20)
#    0.000    1.655    2.759    1.862    0.000    6.621 
#    0.000    0.690    0.000    2.483    0.000    0.000 
#    0.000    0.000    0.000    0.000    0.000    0.000 
#
# Total GULP energy -323548.747700 kJ/mol
# GULP energy per Si atom -5578.426684 kJ/mol
# Density = 2.062897 g / cm^3
# Si number density = 20.676034 Si / 1000 Ang^3
#
#
#
# Elastic Constant Matrix: (Units=GPa)
#
#
# Indices 1 2 3 4 5 6 
#
# 1 224.5406 103.4540 23.6504 0.0000 0.0000 0.0000
# 2 103.4540 165.8617 21.4992 0.0000 0.0000 0.0000
# 3 23.6504 21.4992 83.1514 0.0000 0.0000 0.0000
# 4 0.0000 0.0000 0.0000 -88.0040 0.0000 0.0000
# 5 0.0000 0.0000 0.0000 0.0000 -0.5329 0.0000
# 6 0.0000 0.0000 0.0000 0.0000 0.0000 -32.7659
#
#
#
# Elastic Compliance Matrix: (Units=1/GPa)
#
#
# Indices 1 2 3 4 5 6 
#
# 1 0.006301 -0.003826 -0.000803 0.000000 0.000000 0.000000
# 2 -0.003826 0.008561 -0.001125 0.000000 0.000000 0.000000
# 3 -0.000803 -0.001125 0.012546 0.000000 0.000000 0.000000
# 4 0.000000 0.000000 0.000000 -0.011363 0.000000 0.000000
# 5 0.000000 0.000000 0.000000 0.000000 -1.876544 0.000000
# 6 0.000000 0.000000 0.000000 0.000000 0.000000 -0.030520
#
#
# Mechanical properties :
#
#
# Convention : Reuss Voigt Hill
#
# Bulk Modulus (GPa) = 62.89581 85.64010 74.26795
# Shear Modulus (GPa) = -2.66779 -2.59723 -2.63251
#
# Velocity S-wave (km/s) = -1.13714 -1.12200 -1.12959
# Velocity P-wave (km/s) = 5.36298 6.31121 5.85632
#
# Compressibility (1/GPa) = 0.01589931
#
# Stress axis : x y z
#
# Youngs Moduli (GPa) = 158.70761 116.80300 79.70925
#
# Poissons Ratio (x) = 0.44689 0.06400
# Poissons Ratio (y) = 0.60722 0.08970
# Poissons Ratio (z) = 0.12743 0.13145
#
# Static dielectric constant tensor:
#      x y z
#    x 1.730920 0.000000 0.000000 
#    y 0.000000 1.718240 0.000000 
#    z 0.000000 0.000000 1.758970 
# 
# From -- ./inp_files/18179.got.cif
#   From: 2010.05.17/outbox.cif.g08.bks.cpg/sg49_10_cif.got.tgz:18179.got - 2010.06.03 21:02:19.
