data_PCOD9394008
_publ_section_title
;
Structure prediction by ZEFSAII (Michael W. Deem and Ramdas Pophale) SiO2 
 PCOD9394008
Probable space group: P C C M
;
_chemical_formula_sum "Si O2"
_cell_formula_units_Z 48
_cell_length_a 14.652143
_cell_length_b 8.914864
_cell_length_c 19.130534
_cell_angle_alpha 90.000000
_cell_angle_beta 90.000000
_cell_angle_gamma 90.000000
_cell_volume 2498.865975
_symmetry_space_group_name_H-M "P C C M"
_symmetry_group_IT_number 49
_symmetry_cell_setting 'orthorhombic'
loop_
_space_group_symop_operation_xyz
x,y,z
-x,-y,z
x,-y,1/2-z
-x,y,1/2-z
-x,-y,-z
x,y,-z
-x,y,1/2+z
x,-y,1/2+z
loop_
_atom_site_type_symbol
_atom_site_label
_atom_site_fract_x
_atom_site_fract_y
_atom_site_fract_z
Si Si1 0.288057 0.086915 0.179179
Si Si2 0.377963 0.617505 0.081378
Si Si3 0.101288 0.560272 0.917685
Si Si4 0.545403 0.835644 0.078814
Si Si5 0.206136 0.846670 0.080384
Si Si6 0.741241 0.421911 0.324330
O O1 0.375229 0.134763 0.133487
O O2 0.245804 0.248175 0.192994
O O3 0.312721 0.000000 0.250000
O O4 0.223022 0.980755 0.133357
O O5 0.469973 0.709976 0.098699
O O6 0.295453 0.738794 0.086114
O O7 0.346364 0.480274 0.130289
O O8 0.384530 0.571271 0.000000
O O9 0.120639 0.737167 0.905338
O O10 0.172813 0.474396 0.869721
O O11 0.000000 0.500000 0.905388
O O12 0.123328 0.536136 0.000000
O O13 0.500000 0.000000 0.074063
O O14 0.578949 0.799488 0.000000
O O15 0.201835 0.899656 0.000000
O O16 0.735129 0.500000 0.250000
#
# Coordination Sequence:
#
# PCOD9394008 Si02
#       6
#     8   8   8   8   8   8
#     4  12  24  37  55  84 120 161 201 248 302 356
#     4   9  18  37  60  82 111 152 199 247 292 350
#     4   9  19  39  67  92 114 149 194 240 296 366
#     4  10  20  36  60  84 110 151 204 247 294 356
#     4   9  17  34  59  85 115 149 190 236 290 354
#     4  11  24  40  56  83 122 157 197 248 304 363
#
# _framework density 19.208712999999999
#
# number of rings (size 3 to 8) (size 9 to 14) (size 15 to 20)
#    0.000    2.000    1.667    4.000    0.000    4.000 
#    0.000    3.333    0.000    4.000    0.000    0.000 
#    0.000    0.000    0.000    0.000    0.000    0.000 
#
# Total GULP energy -267830.275497 kJ/mol
# GULP energy per Si atom -5579.797406 kJ/mol
# Density = 1.916499 g / cm^3
# Si number density = 19.208713 Si / 1000 Ang^3
#
#
#
# Elastic Constant Matrix: (Units=GPa)
#
#
# Indices 1 2 3 4 5 6 
#
# 1 82.5186 42.1991 61.0244 0.0000 0.0000 0.0000
# 2 42.1991 134.4829 73.6818 0.0000 0.0000 0.0000
# 3 61.0244 73.6818 104.4942 0.0000 0.0000 0.0000
# 4 0.0000 0.0000 0.0000 50.4245 0.0000 0.0000
# 5 0.0000 0.0000 0.0000 0.0000 3.9782 0.0000
# 6 0.0000 0.0000 0.0000 0.0000 0.0000 24.5604
#
#
#
# Elastic Compliance Matrix: (Units=1/GPa)
#
#
# Indices 1 2 3 4 5 6 
#
# 1 0.021335 0.000215 -0.012611 0.000000 0.000000 0.000000
# 2 0.000215 0.012119 -0.008671 0.000000 0.000000 0.000000
# 3 -0.012611 -0.008671 0.023049 0.000000 0.000000 0.000000
# 4 0.000000 0.000000 0.000000 0.019832 0.000000 0.000000
# 5 0.000000 0.000000 0.000000 0.000000 0.251372 0.000000
# 6 0.000000 0.000000 0.000000 0.000000 0.000000 0.040716
#
#
# Mechanical properties :
#
#
# Convention : Reuss Voigt Hill
#
# Bulk Modulus (GPa) = 69.59670 75.03403 72.31537
# Shear Modulus (GPa) = 12.03815 25.43197 18.73506
#
# Velocity S-wave (km/s) = 2.50612 3.64260 3.12643
# Velocity P-wave (km/s) = 6.68466 7.53914 7.12472
#
# Compressibility (1/GPa) = 0.01436850
#
# Stress axis : x y z
#
# Youngs Moduli (GPa) = 46.87214 82.51311 43.38615
#
# Poissons Ratio (x) = -0.01772 0.54714
# Poissons Ratio (y) = -0.01007 0.37620
# Poissons Ratio (z) = 0.59110 0.71548
#
# Static dielectric constant tensor:
#      x y z
#    x 1.678200 0.000000 0.000000 
#    y 0.000000 1.719660 0.000000 
#    z 0.000000 0.000000 1.662760 
# 
# From -- ./inp_files/17686.got.cif
#   From: 2010.05.17/outbox.cif.g08.bks.cpg/sg49_9_cif.got.tgz:17686.got - 2010.06.03 21:02:19.
