data_PCOD9394960
_publ_section_title
;
Structure prediction by ZEFSAII (Michael W. Deem and Ramdas Pophale) SiO2 
 PCOD9394960
Probable space group: P C C M
;
_chemical_formula_sum "Si O2"
_cell_formula_units_Z 64
_cell_length_a 14.947922
_cell_length_b 24.668499
_cell_length_c 8.633565
_cell_angle_alpha 90.000000
_cell_angle_beta 90.000000
_cell_angle_gamma 90.000000
_cell_volume 3183.564923
_symmetry_space_group_name_H-M "P C C M"
_symmetry_group_IT_number 49
_symmetry_cell_setting 'orthorhombic'
loop_
_space_group_symop_operation_xyz
x,y,z
-x,-y,z
x,-y,1/2-z
-x,y,1/2-z
-x,-y,-z
x,y,-z
-x,y,1/2+z
x,-y,1/2+z
loop_
_atom_site_type_symbol
_atom_site_label
_atom_site_fract_x
_atom_site_fract_y
_atom_site_fract_z
Si Si1 0.862491 0.668458 0.679672
Si Si2 0.360504 0.556837 0.676901
Si Si3 0.902057 0.939698 0.814900
Si Si4 0.663182 0.326039 0.689264
Si Si5 0.767913 0.851048 0.317892
Si Si6 0.858455 0.443293 0.678906
Si Si7 0.091408 0.224957 0.820730
Si Si8 0.596752 0.794765 0.815059
O O1 0.879074 0.681721 0.500000
O O2 0.757478 0.673317 0.722092
O O3 0.889041 0.607369 0.719781
O O4 0.907496 0.710883 0.795488
O O5 0.389941 0.500000 0.750000
O O6 0.389578 0.554953 0.500000
O O7 0.384807 0.617279 0.736441
O O8 0.251153 0.556714 0.682373
O O9 0.823293 0.899690 0.761063
O O10 0.000000 0.923167 0.750000
O O11 0.885469 0.000000 0.750000
O O12 0.906938 0.940743 0.000000
O O13 0.677631 0.328354 0.500000
O O14 0.617429 0.268571 0.724710
O O15 0.763316 0.860639 0.500000
O O16 0.827961 0.798690 0.278292
O O17 0.671488 0.835148 0.251837
O O18 0.888014 0.500000 0.750000
O O19 0.884511 0.437252 0.500000
O O20 0.000000 0.203157 0.750000
O O21 0.101664 0.210645 0.000000
O O22 0.500000 0.808601 0.750000
O O23 0.598899 0.798306 0.000000
#
# Coordination Sequence:
#
# PCOD9394960 Si02
#       8
#     8   8   8   8   8   8   8   8
#     4  11  20  31  50  76 106 143 186 234 293 359
#     4   8  14  24  40  66  96 131 174 227 289 361
#     4  11  22  40  66 101 142 184 223 263 306 356
#     4   9  18  33  52  73 106 147 190 242 307 369
#     4  12  24  41  64  94 128 167 212 258 307 366
#     4   9  16  27  43  66  96 132 177 230 286 348
#     4  12  24  39  57  83 118 157 198 245 300 360
#     4  11  23  40  62  88 120 161 208 264 321 376
#
# _framework density 20.103248000000001
#
# number of rings (size 3 to 8) (size 9 to 14) (size 15 to 20)
#    0.000    1.625    1.250    6.750    0.000    3.500 
#    0.000    0.000    0.000    1.125    0.000    7.875 
#    0.000    0.000    0.000    0.000    0.000    0.000 
#
# Total GULP energy -357543.312867 kJ/mol
# GULP energy per Si atom -5586.614264 kJ/mol
# Density = 2.005749 g / cm^3
# Si number density = 20.103248 Si / 1000 Ang^3
#
#
#
# Elastic Constant Matrix: (Units=GPa)
#
#
# Indices 1 2 3 4 5 6 
#
# 1 108.4965 47.1583 36.3413 0.0000 0.0000 0.0000
# 2 47.1583 135.0854 38.8030 0.0000 0.0000 0.0000
# 3 36.3413 38.8030 110.3444 0.0000 0.0000 0.0000
# 4 0.0000 0.0000 0.0000 32.3244 0.0000 0.0000
# 5 0.0000 0.0000 0.0000 0.0000 20.0212 0.0000
# 6 0.0000 0.0000 0.0000 0.0000 0.0000 12.7541
#
#
#
# Elastic Compliance Matrix: (Units=1/GPa)
#
#
# Indices 1 2 3 4 5 6 
#
# 1 0.011521 -0.003262 -0.002648 0.000000 0.000000 0.000000
# 2 -0.003262 0.009158 -0.002146 0.000000 0.000000 0.000000
# 3 -0.002648 -0.002146 0.010689 0.000000 0.000000 0.000000
# 4 0.000000 0.000000 0.000000 0.030936 0.000000 0.000000
# 5 0.000000 0.000000 0.000000 0.000000 0.049947 0.000000
# 6 0.000000 0.000000 0.000000 0.000000 0.000000 0.078406
#
#
# Mechanical properties :
#
#
# Convention : Reuss Voigt Hill
#
# Bulk Modulus (GPa) = 65.54057 66.50349 66.02203
# Shear Modulus (GPa) = 23.60106 28.46151 26.03128
#
# Velocity S-wave (km/s) = 3.43007 3.76675 3.60235
# Velocity P-wave (km/s) = 6.95413 7.21600 7.08628
#
# Compressibility (1/GPa) = 0.01525773
#
# Stress axis : x y z
#
# Youngs Moduli (GPa) = 86.79533 109.19602 93.55233
#
# Poissons Ratio (x) = 0.35615 0.24768
# Poissons Ratio (y) = 0.28309 0.20078
# Poissons Ratio (z) = 0.22979 0.23436
#
# Static dielectric constant tensor:
#      x y z
#    x 1.729860 0.000000 0.000000 
#    y 0.000000 1.738500 0.000000 
#    z 0.000000 0.000000 1.682050 
# 
# From -- ./inp_files/4377.got.cif
#   From: 2010.05.17/outbox.cif.g08.bks.cpg/sg49_3_cif.got.tgz:4377.got - 2010.06.03 21:02:19.
