data_PCOD9394414
_publ_section_title
;
Structure prediction by ZEFSAII (Michael W. Deem and Ramdas Pophale) SiO2 
 PCOD9394414
Probable space group: P C C M
;
_chemical_formula_sum "Si O2"
_cell_formula_units_Z 34
_cell_length_a 7.831113
_cell_length_b 22.102128
_cell_length_c 9.415915
_cell_angle_alpha 90.000000
_cell_angle_beta 90.000000
_cell_angle_gamma 90.000000
_cell_volume 1629.746698
_symmetry_space_group_name_H-M "P C C M"
_symmetry_group_IT_number 49
_symmetry_cell_setting 'orthorhombic'
loop_
_space_group_symop_operation_xyz
x,y,z
-x,-y,z
x,-y,1/2-z
-x,y,1/2-z
-x,-y,-z
x,y,-z
-x,y,1/2+z
x,-y,1/2+z
loop_
_atom_site_type_symbol
_atom_site_label
_atom_site_fract_x
_atom_site_fract_y
_atom_site_fract_z
Si Si1 0.331877 0.077839 0.660411
Si Si2 0.000000 0.000000 0.250000
Si Si3 0.840066 0.798011 0.666590
Si Si4 0.819343 0.443340 0.668512
Si Si5 0.324665 0.691009 0.667718
O O1 0.500000 0.062225 0.750000
O O2 0.378970 0.064577 0.500000
O O3 0.301452 0.149902 0.677118
O O4 0.146112 0.044919 0.682460
O O5 0.872743 0.786468 0.500000
O O6 0.798554 0.736754 0.750416
O O7 0.000000 0.824519 0.750000
O O8 0.733506 0.500000 0.750000
O O9 0.839212 0.456195 0.500000
O O10 0.728072 0.379025 0.681036
O O11 0.000000 0.436583 0.750000
O O12 0.500000 0.699190 0.750000
O O13 0.335013 0.705584 0.500000
#
# Coordination Sequence:
#
# PCOD9394414 Si02
#       5
#     8   2   8   8   8
#     4  11  26  45  70 102 137 178 224 278 334 396
#     4  12  24  48  72 100 138 180 228 274 330 398
#     4  11  23  42  67  96 128 170 217 269 328 391
#     4  10  21  37  59  86 118 157 206 257 316 380
#     4  11  24  40  60  90 125 166 211 264 322 386
#
# _framework density 20.862137000000001
#
# number of rings (size 3 to 8) (size 9 to 14) (size 15 to 20)
#    0.000    1.176    1.176    4.941    0.000   12.706 
#    0.000    2.353    0.000    0.000    0.000    0.000 
#    0.000    0.000    0.000    0.000    0.000    0.000 
#
# Total GULP energy -189524.923062 kJ/mol
# GULP energy per Si atom -5574.262443 kJ/mol
# Density = 2.081465 g / cm^3
# Si number density = 20.862137 Si / 1000 Ang^3
#
#
#
# Elastic Constant Matrix: (Units=GPa)
#
#
# Indices 1 2 3 4 5 6 
#
# 1 116.9974 21.8243 80.5021 0.0000 0.0000 0.0000
# 2 21.8243 111.8273 76.7676 0.0000 0.0000 0.0000
# 3 80.5021 76.7676 197.0614 0.0000 0.0000 0.0000
# 4 0.0000 0.0000 0.0000 -454.6027 0.0000 0.0000
# 5 0.0000 0.0000 0.0000 0.0000 29.0993 0.0000
# 6 0.0000 0.0000 0.0000 0.0000 0.0000 -0.8516
#
#
#
# Elastic Compliance Matrix: (Units=1/GPa)
#
#
# Indices 1 2 3 4 5 6 
#
# 1 0.012048 0.001402 -0.005468 0.000000 0.000000 0.000000
# 2 0.001402 0.012370 -0.005392 0.000000 0.000000 0.000000
# 3 -0.005468 -0.005392 0.009409 0.000000 0.000000 0.000000
# 4 0.000000 0.000000 0.000000 -0.002200 0.000000 0.000000
# 5 0.000000 0.000000 0.000000 0.000000 0.034365 0.000000
# 6 0.000000 0.000000 0.000000 0.000000 0.000000 -1.174264
#
#
# Mechanical properties :
#
#
# Convention : Reuss Voigt Hill
#
# Bulk Modulus (GPa) = 67.06039 87.11935 77.08987
# Shear Modulus (GPa) = -4.61090 -68.81819 -36.71454
#
# Velocity S-wave (km/s) = -1.48828 -5.74967 -4.19963
# Velocity P-wave (km/s) = 5.40935 1.49268 3.67647
#
# Compressibility (1/GPa) = 0.01491193
#
# Stress axis : x y z
#
# Youngs Moduli (GPa) = 83.00121 80.84036 106.28337
#
# Poissons Ratio (x) = -0.11338 0.58117
# Poissons Ratio (y) = -0.11641 0.57306
# Poissons Ratio (z) = 0.45386 0.43588
#
# Static dielectric constant tensor:
#      x y z
#    x 1.669340 0.000000 0.000000 
#    y 0.000000 1.781390 0.000000 
#    z 0.000000 0.000000 1.663630 
# 
# From -- ./inp_files/1538.got.cif
#   From: 2010.05.17/outbox.cif.g08.bks.cpg/sg49_1_cif.got.tgz:1538.got - 2010.06.03 21:02:19.
