data_PCOD9394255
_publ_section_title
;
Structure prediction by ZEFSAII (Michael W. Deem and Ramdas Pophale) SiO2 
 PCOD9394255
Probable space group: P C C M
;
_chemical_formula_sum "Si O2"
_cell_formula_units_Z 40
_cell_length_a 7.814494
_cell_length_b 9.216613
_cell_length_c 25.786619
_cell_angle_alpha 90.000000
_cell_angle_beta 90.000000
_cell_angle_gamma 90.000000
_cell_volume 1857.233966
_symmetry_space_group_name_H-M "P C C M"
_symmetry_group_IT_number 49
_symmetry_cell_setting 'orthorhombic'
loop_
_space_group_symop_operation_xyz
x,y,z
-x,-y,z
x,-y,1/2-z
-x,y,1/2-z
-x,-y,-z
x,y,-z
-x,y,1/2+z
x,-y,1/2+z
loop_
_atom_site_type_symbol
_atom_site_label
_atom_site_fract_x
_atom_site_fract_y
_atom_site_fract_z
Si Si1 0.485521 0.829527 0.588124
Si Si2 0.081574 0.161041 0.059830
Si Si3 0.888051 0.615333 0.858111
Si Si4 0.555020 0.669807 0.193253
Si Si5 0.688091 0.427503 0.944122
O O1 0.512995 0.763674 0.645492
O O2 0.633854 0.741654 0.558432
O O3 0.500000 0.000000 0.587570
O O4 0.711156 0.185916 0.567431
O O5 0.018017 0.266119 0.105976
O O6 0.043586 0.200254 0.000000
O O7 0.000000 0.000000 0.067319
O O8 0.756295 0.681802 0.817854
O O9 0.789407 0.509795 0.899195
O O10 0.000000 0.500000 0.827910
O O11 0.500000 0.500000 0.188087
O O12 0.500000 0.718243 0.250000
O O13 0.500000 0.500000 0.942474
O O14 0.768399 0.458857 0.000000
#
# Coordination Sequence:
#
# PCOD9394255 Si02
#       5
#     8   8   8   8   8
#     4  11  22  37  59  87 120 163 209 259 307 363
#     4  10  22  37  53  85 130 172 203 243 303 367
#     4  11  22  38  61  91 123 160 201 259 317 368
#     4  10  20  41  67  86 112 148 204 265 315 373
#     4  11  20  36  59  86 122 167 214 252 289 355
#
# _framework density 21.537403000000001
#
# number of rings (size 3 to 8) (size 9 to 14) (size 15 to 20)
#    0.000    1.400    6.000    1.200    2.800    3.600 
#    0.000    2.000    0.000    0.000    0.000    1.400 
#    0.000    0.000    0.000    0.000    0.000    0.000 
#
# Total GULP energy -222929.565013 kJ/mol
# GULP energy per Si atom -5573.239125 kJ/mol
# Density = 2.148838 g / cm^3
# Si number density = 21.537403 Si / 1000 Ang^3
#
#
#
# Elastic Constant Matrix: (Units=GPa)
#
#
# Indices 1 2 3 4 5 6 
#
# 1 36.8470 16.2006 18.9649 0.0000 0.0000 0.0000
# 2 16.2006 112.6430 16.2078 0.0000 0.0000 0.0000
# 3 18.9649 16.2078 119.3402 0.0000 0.0000 0.0000
# 4 0.0000 0.0000 0.0000 32.0847 0.0000 0.0000
# 5 0.0000 0.0000 0.0000 0.0000 -21.9277 0.0000
# 6 0.0000 0.0000 0.0000 0.0000 0.0000 42.5301
#
#
#
# Elastic Compliance Matrix: (Units=1/GPa)
#
#
# Indices 1 2 3 4 5 6 
#
# 1 0.031102 -0.003837 -0.004421 0.000000 0.000000 0.000000
# 2 -0.003837 0.009528 -0.000684 0.000000 0.000000 0.000000
# 3 -0.004421 -0.000684 0.009175 0.000000 0.000000 0.000000
# 4 0.000000 0.000000 0.000000 0.031168 0.000000 0.000000
# 5 0.000000 0.000000 0.000000 0.000000 -0.045604 0.000000
# 6 0.000000 0.000000 0.000000 0.000000 0.000000 0.023513
#
#
# Mechanical properties :
#
#
# Convention : Reuss Voigt Hill
#
# Bulk Modulus (GPa) = 31.32883 41.28631 36.30757
# Shear Modulus (GPa) = 57.20434 25.03454 41.11944
#
# Velocity S-wave (km/s) = 5.15928 3.41306 4.37419
# Velocity P-wave (km/s) = 7.07592 5.89433 6.51198
#
# Compressibility (1/GPa) = 0.03191948
#
# Stress axis : x y z
#
# Youngs Moduli (GPa) = 32.15228 104.95489 108.99219
#
# Poissons Ratio (x) = 0.40271 0.48190
# Poissons Ratio (y) = 0.12337 0.07458
# Poissons Ratio (z) = 0.14216 0.07181
#
# Static dielectric constant tensor:
#      x y z
#    x 1.928020 0.000000 0.000000 
#    y 0.000000 1.842640 0.000000 
#    z 0.000000 0.000000 1.760610 
# 
# From -- ./inp_files/24334.got.cif
#   From: 2010.05.17/outbox.cif.g08.bks.cpg/sg49_13_cif.got.tgz:24334.got - 2010.06.03 21:02:19.
