data_PCOD9394098
_publ_section_title
;
Structure prediction by ZEFSAII (Michael W. Deem and Ramdas Pophale) SiO2 
 PCOD9394098
Probable space group: P C C M
;
_chemical_formula_sum "Si O2"
_cell_formula_units_Z 54
_cell_length_a 6.329813
_cell_length_b 15.958430
_cell_length_c 28.923468
_cell_angle_alpha 90.000000
_cell_angle_beta 90.000000
_cell_angle_gamma 90.000000
_cell_volume 2921.671658
_symmetry_space_group_name_H-M "P C C M"
_symmetry_group_IT_number 49
_symmetry_cell_setting 'orthorhombic'
loop_
_space_group_symop_operation_xyz
x,y,z
-x,-y,z
x,-y,1/2-z
-x,y,1/2-z
-x,-y,-z
x,y,-z
-x,y,1/2+z
x,-y,1/2+z
loop_
_atom_site_type_symbol
_atom_site_label
_atom_site_fract_x
_atom_site_fract_y
_atom_site_fract_z
Si Si1 0.870393 0.781986 0.706424
Si Si2 0.269111 0.725536 0.883787
Si Si3 0.879461 0.276684 0.449202
Si Si4 0.174727 0.926893 0.670076
Si Si5 0.500000 0.000000 0.500000
Si Si6 0.500000 0.894186 0.750000
Si Si7 0.516206 0.598779 0.947339
Si Si8 0.431978 0.131262 0.917894
O O1 0.778473 0.716510 0.670079
O O2 0.671828 0.837440 0.723148
O O3 0.000000 0.747318 0.750000
O O4 0.039570 0.843180 0.681117
O O5 0.395383 0.651494 0.908635
O O6 0.389575 0.813627 0.892372
O O7 0.050069 0.729852 0.910146
O O8 0.976770 0.268616 0.500000
O O9 0.752152 0.363667 0.446561
O O10 0.716282 0.201121 0.441703
O O11 0.346814 0.937402 0.711369
O O12 0.297980 0.917275 0.621588
O O13 0.000000 0.000000 0.669639
O O14 0.513380 0.927979 0.541368
O O15 0.500000 0.500000 0.939991
O O16 0.436657 0.616430 0.000000
#
# Coordination Sequence:
#
# PCOD9394098 Si02
#       8
#     8   8   8   8   2   4   8   8
#     4  10  22  37  60  88 113 150 198 246 309 364
#     4  11  21  38  63  86 119 161 200 248 304 362
#     4  10  20  37  61  86 119 155 201 247 290 358
#     4  11  24  40  60  84 113 154 203 258 313 361
#     4  12  28  40  58  78 118 174 208 248 310 342
#     4  10  22  43  60  82 119 144 192 264 319 364
#     4   9  20  37  59  94 131 159 194 245 303 367
#     4  11  24  41  55  83 119 160 206 251 297 359
#
# _framework density 18.482569000000002
#
# number of rings (size 3 to 8) (size 9 to 14) (size 15 to 20)
#    0.000    1.630    3.704    0.444    4.148    4.444 
#    0.000    3.333    0.000    0.000    0.000    7.778 
#    0.000    0.000    0.000    0.000    0.000    0.000 
#
# Total GULP energy -300795.403846 kJ/mol
# GULP energy per Si atom -5570.285256 kJ/mol
# Density = 1.844050 g / cm^3
# Si number density = 18.482569 Si / 1000 Ang^3
#
#
#
# Elastic Constant Matrix: (Units=GPa)
#
#
# Indices 1 2 3 4 5 6 
#
# 1 69.8213 31.2368 45.2943 0.0000 0.0000 0.0000
# 2 31.2368 67.3455 49.1455 0.0000 0.0000 0.0000
# 3 45.2943 49.1455 158.8632 0.0000 0.0000 0.0000
# 4 0.0000 0.0000 0.0000 23.1761 0.0000 0.0000
# 5 0.0000 0.0000 0.0000 0.0000 38.8471 0.0000
# 6 0.0000 0.0000 0.0000 0.0000 0.0000 8.1539
#
#
#
# Elastic Compliance Matrix: (Units=1/GPa)
#
#
# Indices 1 2 3 4 5 6 
#
# 1 0.019525 -0.006450 -0.003571 0.000000 0.000000 0.000000
# 2 -0.006450 0.021309 -0.004753 0.000000 0.000000 0.000000
# 3 -0.003571 -0.004753 0.008783 0.000000 0.000000 0.000000
# 4 0.000000 0.000000 0.000000 0.043148 0.000000 0.000000
# 5 0.000000 0.000000 0.000000 0.000000 0.025742 0.000000
# 6 0.000000 0.000000 0.000000 0.000000 0.000000 0.122640
#
#
# Mechanical properties :
#
#
# Convention : Reuss Voigt Hill
#
# Bulk Modulus (GPa) = 49.82997 60.82032 55.32515
# Shear Modulus (GPa) = 18.02546 25.39232 21.70889
#
# Velocity S-wave (km/s) = 3.12632 3.71057 3.43090
# Velocity P-wave (km/s) = 6.32857 7.16492 6.75969
#
# Compressibility (1/GPa) = 0.02006824
#
# Stress axis : x y z
#
# Youngs Moduli (GPa) = 51.21717 46.92840 113.85071
#
# Poissons Ratio (x) = 0.30268 0.40662
# Poissons Ratio (y) = 0.33034 0.54115
# Poissons Ratio (z) = 0.18292 0.22306
#
# Static dielectric constant tensor:
#      x y z
#    x 1.651690 0.000000 0.000000 
#    y 0.000000 1.632620 0.000000 
#    z 0.000000 0.000000 1.654810 
# 
# From -- ./inp_files/25857.got.cif
#   From: 2010.05.17/outbox.cif.g08.bks.cpg/sg49_13_cif.got.tgz:25857.got - 2010.06.03 21:02:19.
