data_PCOD9394526
_publ_section_title
;
Structure prediction by ZEFSAII (Michael W. Deem and Ramdas Pophale) SiO2 
 PCOD9394526
Probable space group: P C C M
;
_chemical_formula_sum "Si O2"
_cell_formula_units_Z 64
_cell_length_a 15.663900
_cell_length_b 24.095834
_cell_length_c 8.727051
_cell_angle_alpha 90.000000
_cell_angle_beta 90.000000
_cell_angle_gamma 90.000000
_cell_volume 3293.892174
_symmetry_space_group_name_H-M "P C C M"
_symmetry_group_IT_number 49
_symmetry_cell_setting 'orthorhombic'
loop_
_space_group_symop_operation_xyz
x,y,z
-x,-y,z
x,-y,1/2-z
-x,y,1/2-z
-x,-y,-z
x,y,-z
-x,y,1/2+z
x,-y,1/2+z
loop_
_atom_site_type_symbol
_atom_site_label
_atom_site_fract_x
_atom_site_fract_y
_atom_site_fract_z
Si Si1 0.750400 0.938584 0.816356
Si Si2 0.591139 0.367790 0.318500
Si Si3 0.146436 0.742934 0.181321
Si Si4 0.089947 0.139642 0.183714
Si Si5 0.351413 0.745705 0.181029
Si Si6 0.908598 0.626289 0.817311
Si Si7 0.592436 0.129512 0.816350
Si Si8 0.746892 0.438402 0.816654
O O1 0.832276 0.901018 0.774673
O O2 0.666127 0.909197 0.750980
O O3 0.758975 0.000000 0.750000
O O4 0.745032 0.940812 0.000000
O O5 0.500000 0.384614 0.250000
O O6 0.592911 0.375990 0.500000
O O7 0.606965 0.303263 0.277910
O O8 0.667235 0.401939 0.240502
O O9 0.109032 0.799910 0.246277
O O10 0.249052 0.744078 0.200937
O O11 0.109184 0.689782 0.267578
O O12 0.128161 0.738182 0.000000
O O13 0.000000 0.119426 0.250000
O O14 0.085502 0.143744 0.000000
O O15 0.385355 0.806483 0.223507
O O16 0.369226 0.736115 0.000000
O O17 0.832793 0.589947 0.746234
O O18 0.000000 0.609348 0.750000
O O19 0.908150 0.621671 0.000000
O O20 0.500000 0.115274 0.750000
O O21 0.592213 0.125156 0.000000
O O22 0.739416 0.500000 0.750000
O O23 0.748669 0.439260 0.000000
#
# Coordination Sequence:
#
# PCOD9394526 Si02
#       8
#     8   8   8   8   8   8   8   8
#     4  11  25  44  66  91 122 163 211 263 315 373
#     4  12  25  42  67  98 133 173 215 264 318 380
#     4  11  21  38  65  96 132 170 209 258 317 380
#     4  11  24  41  64  94 128 166 210 259 316 379
#     4  10  21  38  64  96 131 170 209 257 318 380
#     4  12  25  43  67  98 132 172 215 263 320 379
#     4  11  23  41  65  95 129 166 208 257 313 375
#     4  12  26  47  70  96 129 168 217 269 321 380
#
# _framework density 19.429901999999998
#
# number of rings (size 3 to 8) (size 9 to 14) (size 15 to 20)
#    0.000    0.750    2.500    5.625    0.000    5.000 
#    0.000    5.000    0.000    0.000    0.000    0.000 
#    0.000    0.000    0.000    0.000    0.000    0.000 
#
# Total GULP energy -358342.436115 kJ/mol
# GULP energy per Si atom -5599.100564 kJ/mol
# Density = 1.938568 g / cm^3
# Si number density = 19.429902 Si / 1000 Ang^3
#
#
#
# Elastic Constant Matrix: (Units=GPa)
#
#
# Indices 1 2 3 4 5 6 
#
# 1 129.0848 24.8180 56.8647 0.0000 0.0000 0.0000
# 2 24.8180 83.5033 38.0053 0.0000 0.0000 0.0000
# 3 56.8647 38.0053 128.3329 0.0000 0.0000 0.0000
# 4 0.0000 0.0000 0.0000 64.3608 0.0000 0.0000
# 5 0.0000 0.0000 0.0000 0.0000 33.4919 0.0000
# 6 0.0000 0.0000 0.0000 0.0000 0.0000 -11.2407
#
#
#
# Elastic Compliance Matrix: (Units=1/GPa)
#
#
# Indices 1 2 3 4 5 6 
#
# 1 0.009708 -0.001072 -0.003984 0.000000 0.000000 0.000000
# 2 -0.001072 0.013960 -0.003659 0.000000 0.000000 0.000000
# 3 -0.003984 -0.003659 0.010641 0.000000 0.000000 0.000000
# 4 0.000000 0.000000 0.000000 0.015537 0.000000 0.000000
# 5 0.000000 0.000000 0.000000 0.000000 0.029858 0.000000
# 6 0.000000 0.000000 0.000000 0.000000 0.000000 -0.088962
#
#
# Mechanical properties :
#
#
# Convention : Reuss Voigt Hill
#
# Bulk Modulus (GPa) = 59.24741 64.47743 61.86242
# Shear Modulus (GPa) = 362.35363 32.07126 197.21244
#
# Velocity S-wave (km/s) = 13.67105 4.06718 10.08562
# Velocity P-wave (km/s) = 16.72591 7.43725 12.94350
#
# Compressibility (1/GPa) = 0.01687838
#
# Stress axis : x y z
#
# Youngs Moduli (GPa) = 103.00698 71.63551 93.97366
#
# Poissons Ratio (x) = 0.07679 0.37441
# Poissons Ratio (y) = 0.11042 0.34386
# Poissons Ratio (z) = 0.41040 0.26212
#
# Static dielectric constant tensor:
#      x y z
#    x 1.670650 0.000000 0.000000 
#    y 0.000000 1.648210 0.000000 
#    z 0.000000 0.000000 1.647600 
# 
# From -- ./inp_files/4415.got.cif
#   From: 2010.05.17/outbox.cif.g08.bks.cpg/sg49_3_cif.got.tgz:4415.got - 2010.06.03 21:02:19.
