data_PCOD9394148
_publ_section_title
;
Structure prediction by ZEFSAII (Michael W. Deem and Ramdas Pophale) SiO2 
 PCOD9394148
Probable space group: P C C M
;
_chemical_formula_sum "Si O2"
_cell_formula_units_Z 64
_cell_length_a 10.908059
_cell_length_b 8.878404
_cell_length_c 32.842479
_cell_angle_alpha 90.000000
_cell_angle_beta 90.000000
_cell_angle_gamma 90.000000
_cell_volume 3180.667801
_symmetry_space_group_name_H-M "P C C M"
_symmetry_group_IT_number 49
_symmetry_cell_setting 'orthorhombic'
loop_
_space_group_symop_operation_xyz
x,y,z
-x,-y,z
x,-y,1/2-z
-x,y,1/2-z
-x,-y,-z
x,y,-z
-x,y,1/2+z
x,-y,1/2+z
loop_
_atom_site_type_symbol
_atom_site_label
_atom_site_fract_x
_atom_site_fract_y
_atom_site_fract_z
Si Si1 0.850126 0.641250 0.220634
Si Si2 0.315067 0.396270 0.141431
Si Si3 0.366877 0.174337 0.737082
Si Si4 0.948776 0.661285 0.547401
Si Si5 0.021721 0.833709 0.829597
Si Si6 0.154750 0.188850 0.908339
Si Si7 0.224626 0.148903 0.603233
Si Si8 0.424337 0.270835 0.647517
O O1 0.863553 0.500000 0.250000
O O2 0.778307 0.597246 0.179162
O O3 0.753635 0.752175 0.243188
O O4 0.976253 0.716017 0.204126
O O5 0.249864 0.321772 0.102293
O O6 0.430100 0.287265 0.150779
O O7 0.369242 0.563337 0.138585
O O8 0.500000 0.241950 0.750000
O O9 0.373580 0.201727 0.689187
O O10 0.366259 0.000000 0.750000
O O11 0.918259 0.647672 0.500000
O O12 0.837246 0.730410 0.573071
O O13 0.000000 0.500000 0.562737
O O14 0.063877 0.771185 0.555244
O O15 0.928390 0.818504 0.867534
O O16 0.150171 0.827109 0.853725
O O17 0.000000 0.000000 0.811921
O O18 0.204664 0.020527 0.912030
O O19 0.367275 0.172807 0.611604
#
# Coordination Sequence:
#
# PCOD9394148 Si02
#       8
#     8   8   8   8   8   8   8   8
#     4  11  20  37  61  79 106 145 200 254 307 357
#     4  10  21  36  58  84 112 150 199 252 297 354
#     4  11  24  35  53  81 112 150 200 259 310 353
#     4  10  20  37  64  96 127 159 191 230 284 351
#     4   8  18  35  57  78 110 150 189 240 297 351
#     4   9  19  35  59  90 118 151 192 243 289 340
#     4  10  21  37  60  87 120 155 198 241 290 359
#     4  11  22  36  58  82 113 157 199 249 304 353
#
# _framework density 20.121559999999999
#
# number of rings (size 3 to 8) (size 9 to 14) (size 15 to 20)
#    0.000    2.000    2.500    1.875    5.250    1.750 
#    0.000    0.625    2.750    0.750    0.000    5.250 
#    0.000    0.000    0.000    0.000    0.000    0.000 
#
# Total GULP energy -357097.143341 kJ/mol
# GULP energy per Si atom -5579.642865 kJ/mol
# Density = 2.007576 g / cm^3
# Si number density = 20.121560 Si / 1000 Ang^3
#
#
#
# Elastic Constant Matrix: (Units=GPa)
#
#
# Indices 1 2 3 4 5 6 
#
# 1 48.3200 17.4444 8.8870 0.0000 0.0000 0.0000
# 2 17.4444 73.9261 13.6828 0.0000 0.0000 0.0000
# 3 8.8870 13.6828 40.0891 0.0000 0.0000 0.0000
# 4 0.0000 0.0000 0.0000 106.7773 0.0000 0.0000
# 5 0.0000 0.0000 0.0000 0.0000 19.1128 0.0000
# 6 0.0000 0.0000 0.0000 0.0000 0.0000 29.2939
#
#
#
# Elastic Compliance Matrix: (Units=1/GPa)
#
#
# Indices 1 2 3 4 5 6 
#
# 1 0.023067 -0.004800 -0.003475 0.000000 0.000000 0.000000
# 2 -0.004800 0.015438 -0.004205 0.000000 0.000000 0.000000
# 3 -0.003475 -0.004205 0.027150 0.000000 0.000000 0.000000
# 4 0.000000 0.000000 0.000000 0.009365 0.000000 0.000000
# 5 0.000000 0.000000 0.000000 0.000000 0.052321 0.000000
# 6 0.000000 0.000000 0.000000 0.000000 0.000000 0.034137
#
#
# Mechanical properties :
#
#
# Convention : Reuss Voigt Hill
#
# Bulk Modulus (GPa) = 24.57321 26.92928 25.75124
# Shear Modulus (GPa) = 24.99949 39.19154 32.09552
#
# Velocity S-wave (km/s) = 3.52863 4.41811 3.99818
# Velocity P-wave (km/s) = 5.37033 6.28001 5.84290
#
# Compressibility (1/GPa) = 0.04069473
#
# Stress axis : x y z
#
# Youngs Moduli (GPa) = 43.35119 64.77532 36.83233
#
# Poissons Ratio (x) = 0.31092 0.12800
# Poissons Ratio (y) = 0.20809 0.15488
# Poissons Ratio (z) = 0.15066 0.27238
#
# Static dielectric constant tensor:
#      x y z
#    x 1.775960 0.000000 0.000000 
#    y 0.000000 1.730960 0.000000 
#    z 0.000000 0.000000 1.687370 
# 
# From -- ./inp_files/26670.got.cif
#   From: 2010.05.17/outbox.cif.g08.bks.cpg/sg49_14_cif.got.tgz:26670.got - 2010.06.03 21:02:19.
