data_PCOD9394940
_publ_section_title
;
Structure prediction by ZEFSAII (Michael W. Deem and Ramdas Pophale) SiO2 
 PCOD9394940
Probable space group: P C C M
;
_chemical_formula_sum "Si O2"
_cell_formula_units_Z 38
_cell_length_a 12.283543
_cell_length_b 17.041327
_cell_length_c 7.799589
_cell_angle_alpha 90.000000
_cell_angle_beta 90.000000
_cell_angle_gamma 90.000000
_cell_volume 1632.671376
_symmetry_space_group_name_H-M "P C C M"
_symmetry_group_IT_number 49
_symmetry_cell_setting 'orthorhombic'
loop_
_space_group_symop_operation_xyz
x,y,z
-x,-y,z
x,-y,1/2-z
-x,y,1/2-z
-x,-y,-z
x,y,-z
-x,y,1/2+z
x,-y,1/2+z
loop_
_atom_site_type_symbol
_atom_site_label
_atom_site_fract_x
_atom_site_fract_y
_atom_site_fract_z
Si Si1 0.120157 0.371383 0.304913
Si Si2 0.648545 0.587404 0.805162
Si Si3 0.881735 0.190142 0.296141
Si Si4 0.647469 0.860099 0.708901
Si Si5 0.500000 0.282454 0.750000
Si Si6 0.500000 0.000000 0.250000
O O1 0.138458 0.394320 0.500000
O O2 0.221787 0.403641 0.201681
O O3 0.122564 0.276826 0.287137
O O4 0.000000 0.397090 0.250000
O O5 0.620925 0.500000 0.750000
O O6 0.588625 0.652132 0.689633
O O7 0.613712 0.604509 0.000000
O O8 0.875445 0.200404 0.500000
O O9 0.776355 0.143309 0.234076
O O10 0.000000 0.155740 0.250000
O O11 0.624892 0.860658 0.500000
O O12 0.591979 0.783390 0.794548
O O13 0.590155 0.933973 0.799129
#
# Coordination Sequence:
#
# PCOD9394940 Si02
#       6
#     8   8   8   8   4   2
#     4  11  22  40  66  95 129 169 218 274 334 396
#     4  12  26  43  63  93 132 174 225 279 335 395
#     4  11  22  39  67 101 134 172 219 272 327 392
#     4  11  23  43  71 101 137 177 221 270 326 393
#     4  11  25  41  69  94 130 172 229 269 335 391
#     4  10  26  44  68 106 144 180 222 268 326 382
#
# _framework density 23.274740000000001
#
# number of rings (size 3 to 8) (size 9 to 14) (size 15 to 20)
#    0.000    0.842    2.105    6.947    0.000    8.000 
#    0.000    2.632    0.000    2.526    0.000    0.000 
#    0.000    0.000    0.000    0.000    0.000    0.000 
#
# Total GULP energy -211596.437612 kJ/mol
# GULP energy per Si atom -5568.327306 kJ/mol
# Density = 2.322177 g / cm^3
# Si number density = 23.274740 Si / 1000 Ang^3
#
#
#
# Elastic Constant Matrix: (Units=GPa)
#
#
# Indices 1 2 3 4 5 6 
#
# 1 224.5418 60.2046 20.3403 0.0000 0.0000 0.0000
# 2 60.2046 153.9156 1.2134 0.0000 0.0000 0.0000
# 3 20.3403 1.2134 136.9059 0.0000 0.0000 0.0000
# 4 0.0000 0.0000 0.0000 -39.8842 0.0000 0.0000
# 5 0.0000 0.0000 0.0000 0.0000 3.3527 0.0000
# 6 0.0000 0.0000 0.0000 0.0000 0.0000 63.6559
#
#
#
# Elastic Compliance Matrix: (Units=1/GPa)
#
#
# Indices 1 2 3 4 5 6 
#
# 1 0.005048 -0.001969 -0.000732 0.000000 0.000000 0.000000
# 2 -0.001969 0.007265 0.000228 0.000000 0.000000 0.000000
# 3 -0.000732 0.000228 0.007411 0.000000 0.000000 0.000000
# 4 0.000000 0.000000 0.000000 -0.025073 0.000000 0.000000
# 5 0.000000 0.000000 0.000000 0.000000 0.298263 0.000000
# 6 0.000000 0.000000 0.000000 0.000000 0.000000 0.015709
#
#
# Mechanical properties :
#
#
# Convention : Reuss Voigt Hill
#
# Bulk Modulus (GPa) = 67.66812 75.43108 71.54960
# Shear Modulus (GPa) = 15.69879 34.33189 25.01534
#
# Velocity S-wave (km/s) = 2.59993 3.84483 3.28195
# Velocity P-wave (km/s) = 6.17654 7.22424 6.72083
#
# Compressibility (1/GPa) = 0.01477801
#
# Stress axis : x y z
#
# Youngs Moduli (GPa) = 198.10974 137.64025 134.93286
#
# Poissons Ratio (x) = 0.27097 0.09884
# Poissons Ratio (y) = 0.39001 -0.03078
# Poissons Ratio (z) = 0.14511 -0.03140
#
# Static dielectric constant tensor:
#      x y z
#    x 1.890030 0.000000 0.000000 
#    y 0.000000 1.816990 0.000000 
#    z 0.000000 0.000000 1.992460 
# 
# From -- ./inp_files/2703.got.cif
#   From: 2010.05.17/outbox.cif.g08.bks.cpg/sg49_2_cif.got.tgz:2703.got - 2010.06.03 21:02:19.
