data_PCOD9394914
_publ_section_title
;
Structure prediction by ZEFSAII (Michael W. Deem and Ramdas Pophale) SiO2 
 PCOD9394914
Probable space group: P C C M
;
_chemical_formula_sum "Si O2"
_cell_formula_units_Z 32
_cell_length_a 5.650697
_cell_length_b 13.417015
_cell_length_c 20.779698
_cell_angle_alpha 90.000000
_cell_angle_beta 90.000000
_cell_angle_gamma 90.000000
_cell_volume 1575.422911
_symmetry_space_group_name_H-M "P C C M"
_symmetry_group_IT_number 49
_symmetry_cell_setting 'orthorhombic'
loop_
_space_group_symop_operation_xyz
x,y,z
-x,-y,z
x,-y,1/2-z
-x,y,1/2-z
-x,-y,-z
x,y,-z
-x,y,1/2+z
x,-y,1/2+z
loop_
_atom_site_type_symbol
_atom_site_label
_atom_site_fract_x
_atom_site_fract_y
_atom_site_fract_z
Si Si1 0.745547 0.441444 0.500000
Si Si2 0.872859 0.787855 0.314138
Si Si3 0.163055 0.400616 0.140502
Si Si4 0.250467 0.060715 0.426864
Si Si5 0.500000 0.356332 0.250000
O O1 0.500000 0.500000 0.500000
O O2 0.740101 0.388022 0.431412
O O3 0.000000 0.500000 0.500000
O O4 0.781254 0.862972 0.368089
O O5 0.663791 0.717987 0.289899
O O6 0.000000 0.832904 0.250000
O O7 0.045442 0.705182 0.344150
O O8 0.346672 0.414924 0.198073
O O9 0.000000 0.500000 0.141284
O O10 0.264970 0.104016 0.500000
O O11 0.500000 0.000000 0.418409
O O12 0.000000 0.000000 0.425692
#
# Coordination Sequence:
#
# PCOD9394914 Si02
#       5
#     4   8   8   8   4
#     4  10  24  44  62  96 132 175 240 279 328 392
#     4  10  24  43  65 104 136 179 226 283 342 409
#     4  10  24  43  66  98 139 185 231 278 336 407
#     4  10  24  47  74 103 135 177 229 283 348 414
#     4  10  24  43  65  98 140 176 235 274 339 404
#
# _framework density 20.312004999999999
#
# number of rings (size 3 to 8) (size 9 to 14) (size 15 to 20)
#    0.000    2.000    0.000    0.000   15.750    6.000 
#    2.250    0.000    0.000    0.000    0.000    0.000 
#    0.000    0.000    0.000    0.000    0.000    0.000 
#
# Total GULP energy -178320.578074 kJ/mol
# GULP energy per Si atom -5572.518065 kJ/mol
# Density = 2.026577 g / cm^3
# Si number density = 20.312005 Si / 1000 Ang^3
#
#
#
# Elastic Constant Matrix: (Units=GPa)
#
#
# Indices 1 2 3 4 5 6 
#
# 1 117.7361 36.6553 78.5267 0.0000 0.0000 0.0000
# 2 36.6553 61.5407 85.6328 0.0000 0.0000 0.0000
# 3 78.5267 85.6328 246.4501 0.0000 0.0000 0.0000
# 4 0.0000 0.0000 0.0000 46.5422 0.0000 0.0000
# 5 0.0000 0.0000 0.0000 0.0000 621.8240 0.0000
# 6 0.0000 0.0000 0.0000 0.0000 0.0000 54.1297
#
#
#
# Elastic Compliance Matrix: (Units=1/GPa)
#
#
# Indices 1 2 3 4 5 6 
#
# 1 0.011117 -0.003277 -0.002404 0.000000 0.000000 0.000000
# 2 -0.003277 0.032426 -0.010223 0.000000 0.000000 0.000000
# 3 -0.002404 -0.010223 0.008376 0.000000 0.000000 0.000000
# 4 0.000000 0.000000 0.000000 0.021486 0.000000 0.000000
# 5 0.000000 0.000000 0.000000 0.000000 0.001608 0.000000
# 6 0.000000 0.000000 0.000000 0.000000 0.000000 0.018474
#
#
# Mechanical properties :
#
#
# Convention : Reuss Voigt Hill
#
# Bulk Modulus (GPa) = 49.72199 91.92853 70.82526
# Shear Modulus (GPa) = 37.87952 159.49333 98.68643
#
# Velocity S-wave (km/s) = 4.32311 8.87086 6.97788
# Velocity P-wave (km/s) = 7.03217 12.25885 9.99327
#
# Compressibility (1/GPa) = 0.02011183
#
# Stress axis : x y z
#
# Youngs Moduli (GPa) = 89.95298 30.83933 119.39560
#
# Poissons Ratio (x) = 0.10106 0.28697
# Poissons Ratio (y) = 0.29478 1.22055
# Poissons Ratio (z) = 0.21621 0.31526
#
# Static dielectric constant tensor:
#      x y z
#    x 1.904510 0.000000 0.000000 
#    y 0.000000 1.709100 0.000000 
#    z 0.000000 0.000000 1.700710 
# 
# From -- ./inp_files/15168.got.cif
#   From: 2010.05.17/outbox.cif.g08.bks.cpg/sg49_8_cif.got.tgz:15168.got - 2010.06.03 21:02:19.
