data_PCOD9394704
_publ_section_title
;
Structure prediction by ZEFSAII (Michael W. Deem and Ramdas Pophale) SiO2 
 PCOD9394704
Probable space group: P C C M
;
_chemical_formula_sum "Si O2"
_cell_formula_units_Z 32
_cell_length_a 8.648885
_cell_length_b 10.303776
_cell_length_c 15.828880
_cell_angle_alpha 90.000000
_cell_angle_beta 90.000000
_cell_angle_gamma 90.000000
_cell_volume 1410.609219
_symmetry_space_group_name_H-M "P C C M"
_symmetry_group_IT_number 49
_symmetry_cell_setting 'orthorhombic'
loop_
_space_group_symop_operation_xyz
x,y,z
-x,-y,z
x,-y,1/2-z
-x,y,1/2-z
-x,-y,-z
x,y,-z
-x,y,1/2+z
x,-y,1/2+z
loop_
_atom_site_type_symbol
_atom_site_label
_atom_site_fract_x
_atom_site_fract_y
_atom_site_fract_z
Si Si1 0.173580 0.558039 0.401255
Si Si2 0.383623 0.119020 0.908463
Si Si3 0.597304 0.335226 0.835958
Si Si4 0.829567 0.195984 0.274578
O O1 0.196242 0.591293 0.500000
O O2 0.310847 0.457890 0.374310
O O3 0.168173 0.676643 0.335704
O O4 0.000000 0.500000 0.394720
O O5 0.481546 0.252014 0.894169
O O6 0.265757 0.098626 0.832320
O O7 0.500000 0.000000 0.907550
O O8 0.306114 0.122988 0.000000
O O9 0.500000 0.362112 0.750000
O O10 0.732104 0.237590 0.806518
O O11 0.000000 0.157683 0.250000
#
# Coordination Sequence:
#
# PCOD9394704 Si02
#       4
#     8   8   8   8
#     4  11  22  37  62  95 136 173 211 262 323 390
#     4  10  23  45  68  93 130 171 220 273 322 382
#     4  10  22  38  64  97 130 175 215 266 323 386
#     4  11  22  39  64  95 131 169 213 266 324 390
#
# _framework density 22.685233
#
# number of rings (size 3 to 8) (size 9 to 14) (size 15 to 20)
#    0.000    1.500    2.500    2.250    0.000   11.500 
#    0.000    8.750    0.000    3.000    0.000    0.000 
#    0.000    0.000    0.000    0.000    0.000    0.000 
#
# Total GULP energy -178993.064517 kJ/mol
# GULP energy per Si atom -5593.533266 kJ/mol
# Density = 2.263360 g / cm^3
# Si number density = 22.685233 Si / 1000 Ang^3
#
#
#
# Elastic Constant Matrix: (Units=GPa)
#
#
# Indices 1 2 3 4 5 6 
#
# 1 132.7818 17.7393 25.1249 0.0000 0.0000 0.0000
# 2 17.7393 80.9389 13.8434 0.0000 0.0000 0.0000
# 3 25.1249 13.8434 86.3899 0.0000 0.0000 0.0000
# 4 0.0000 0.0000 0.0000 23.4614 0.0000 0.0000
# 5 0.0000 0.0000 0.0000 0.0000 35.1178 0.0000
# 6 0.0000 0.0000 0.0000 0.0000 0.0000 28.0227
#
#
#
# Elastic Compliance Matrix: (Units=1/GPa)
#
#
# Indices 1 2 3 4 5 6 
#
# 1 0.008124 -0.001415 -0.002136 0.000000 0.000000 0.000000
# 2 -0.001415 0.012950 -0.001663 0.000000 0.000000 0.000000
# 3 -0.002136 -0.001663 0.012463 0.000000 0.000000 0.000000
# 4 0.000000 0.000000 0.000000 0.042623 0.000000 0.000000
# 5 0.000000 0.000000 0.000000 0.000000 0.028476 0.000000
# 6 0.000000 0.000000 0.000000 0.000000 0.000000 0.035685
#
#
# Mechanical properties :
#
#
# Convention : Reuss Voigt Hill
#
# Bulk Modulus (GPa) = 43.27565 45.94734 44.61150
# Shear Modulus (GPa) = 31.55497 33.54725 32.55111
#
# Velocity S-wave (km/s) = 3.73365 3.84971 3.79212
# Velocity P-wave (km/s) = 6.14042 6.32919 6.23552
#
# Compressibility (1/GPa) = 0.02310768
#
# Stress axis : x y z
#
# Youngs Moduli (GPa) = 123.08584 77.22190 80.23608
#
# Poissons Ratio (x) = 0.10929 0.17139
# Poissons Ratio (y) = 0.17420 0.13347
# Poissons Ratio (z) = 0.26292 0.12846
#
# Static dielectric constant tensor:
#      x y z
#    x 1.836260 0.000000 0.000000 
#    y 0.000000 1.909200 0.000000 
#    z 0.000000 0.000000 1.817230 
# 
# From -- ./inp_files/11168.got.cif
#   From: 2010.05.17/outbox.cif.g08.bks.cpg/sg49_6_cif.got.tgz:11168.got - 2010.06.03 21:02:19.
