data_PCOD9394824
_publ_section_title
;
Structure prediction by ZEFSAII (Michael W. Deem and Ramdas Pophale) SiO2 
 PCOD9394824
Probable space group: P C C M
;
_chemical_formula_sum "Si O2"
_cell_formula_units_Z 56
_cell_length_a 8.684027
_cell_length_b 13.888922
_cell_length_c 22.189145
_cell_angle_alpha 90.000000
_cell_angle_beta 90.000000
_cell_angle_gamma 90.000000
_cell_volume 2676.272134
_symmetry_space_group_name_H-M "P C C M"
_symmetry_group_IT_number 49
_symmetry_cell_setting 'orthorhombic'
loop_
_space_group_symop_operation_xyz
x,y,z
-x,-y,z
x,-y,1/2-z
-x,y,1/2-z
-x,-y,-z
x,y,-z
-x,y,1/2+z
x,-y,1/2+z
loop_
_atom_site_type_symbol
_atom_site_label
_atom_site_fract_x
_atom_site_fract_y
_atom_site_fract_z
Si Si1 0.115869 0.883429 0.929529
Si Si2 0.235323 0.921350 0.604786
Si Si3 0.338204 0.558333 0.433580
Si Si4 0.530719 0.769352 0.934005
Si Si5 0.684687 0.889047 0.239379
Si Si6 0.819971 0.526250 0.316279
Si Si7 0.253226 0.746163 0.844145
O O1 0.141074 0.783513 0.896159
O O2 0.935617 0.903966 0.919969
O O3 0.232141 0.961852 0.898405
O O4 0.147687 0.885538 0.000000
O O5 0.367198 0.865756 0.568718
O O6 0.260582 0.876803 0.670968
O O7 0.500000 0.500000 0.431733
O O8 0.268582 0.535366 0.500000
O O9 0.367481 0.672670 0.431894
O O10 0.249241 0.528064 0.373902
O O11 0.417481 0.760016 0.877275
O O12 0.450918 0.766721 0.000000
O O13 0.500000 0.881718 0.250000
O O14 0.758211 0.814815 0.286006
O O15 0.728187 0.000000 0.250000
O O16 0.755293 0.500000 0.250000
O O17 0.784090 0.638196 0.326459
O O18 0.000000 0.500000 0.315128
#
# Coordination Sequence:
#
# PCOD9394824 Si02
#       7
#     8   8   8   8   8   8   8
#     4  11  25  44  67 102 140 180 229 282 342 415
#     4  11  23  43  67  96 143 182 227 279 341 409
#     4  10  22  44  69  99 135 172 230 296 352 420
#     4  11  23  41  69 102 134 182 234 287 353 413
#     4  11  23  42  65  99 140 175 232 283 337 407
#     4  11  28  47  68  99 138 182 231 286 355 426
#     4  12  25  44  69  98 135 179 227 291 343 416
#
# _framework density 20.924628999999999
#
# number of rings (size 3 to 8) (size 9 to 14) (size 15 to 20)
#    0.000    1.000    4.286    2.143    4.000    3.429 
#    0.000    1.429    0.000    0.000    0.000    0.000 
#    0.000    0.000    0.000    0.000    0.000    0.000 
#
# Total GULP energy -312572.092176 kJ/mol
# GULP energy per Si atom -5581.644503 kJ/mol
# Density = 2.087700 g / cm^3
# Si number density = 20.924629 Si / 1000 Ang^3
#
#
#
# Elastic Constant Matrix: (Units=GPa)
#
#
# Indices 1 2 3 4 5 6 
#
# 1 49.7267 32.2721 35.4458 0.0000 0.0000 0.0000
# 2 32.2721 96.4749 42.2437 0.0000 0.0000 0.0000
# 3 35.4458 42.2437 199.0431 0.0000 0.0000 0.0000
# 4 0.0000 0.0000 0.0000 78.8816 0.0000 0.0000
# 5 0.0000 0.0000 0.0000 0.0000 33.3646 0.0000
# 6 0.0000 0.0000 0.0000 0.0000 0.0000 23.8283
#
#
#
# Elastic Compliance Matrix: (Units=1/GPa)
#
#
# Indices 1 2 3 4 5 6 
#
# 1 0.027461 -0.007767 -0.003242 0.000000 0.000000 0.000000
# 2 -0.007767 0.013624 -0.001508 0.000000 0.000000 0.000000
# 3 -0.003242 -0.001508 0.005922 0.000000 0.000000 0.000000
# 4 0.000000 0.000000 0.000000 0.012677 0.000000 0.000000
# 5 0.000000 0.000000 0.000000 0.000000 0.029972 0.000000
# 6 0.000000 0.000000 0.000000 0.000000 0.000000 0.041967
#
#
# Mechanical properties :
#
#
# Convention : Reuss Voigt Hill
#
# Bulk Modulus (GPa) = 45.51086 62.79643 54.15364
# Shear Modulus (GPa) = 30.49138 42.90045 36.69591
#
# Velocity S-wave (km/s) = 3.82147 4.53287 4.19229
# Velocity P-wave (km/s) = 6.42407 7.58101 7.02639
#
# Compressibility (1/GPa) = 0.02197278
#
# Stress axis : x y z
#
# Youngs Moduli (GPa) = 36.41493 73.40056 168.87602
#
# Poissons Ratio (x) = 0.57007 0.54750
# Poissons Ratio (y) = 0.28282 0.25473
# Poissons Ratio (z) = 0.11806 0.11072
#
# Static dielectric constant tensor:
#      x y z
#    x 1.772580 0.000000 0.000000 
#    y 0.000000 1.721600 0.000000 
#    z 0.000000 0.000000 1.783780 
# 
# From -- ./inp_files/19875.got.cif
#   From: 2010.05.17/outbox.cif.g08.bks.cpg/sg49_10_cif.got.tgz:19875.got - 2010.06.03 21:02:19.
