data_PCOD9394898
_publ_section_title
;
Structure prediction by ZEFSAII (Michael W. Deem and Ramdas Pophale) SiO2 
 PCOD9394898
Probable space group: P C C M
;
_chemical_formula_sum "Si O2"
_cell_formula_units_Z 40
_cell_length_a 8.647696
_cell_length_b 13.930963
_cell_length_c 16.239962
_cell_angle_alpha 90.000000
_cell_angle_beta 90.000000
_cell_angle_gamma 90.000000
_cell_volume 1956.440126
_symmetry_space_group_name_H-M "P C C M"
_symmetry_group_IT_number 49
_symmetry_cell_setting 'orthorhombic'
loop_
_space_group_symop_operation_xyz
x,y,z
-x,-y,z
x,-y,1/2-z
-x,y,1/2-z
-x,-y,-z
x,y,-z
-x,y,1/2+z
x,-y,1/2+z
loop_
_atom_site_type_symbol
_atom_site_label
_atom_site_fract_x
_atom_site_fract_y
_atom_site_fract_z
Si Si1 0.568106 0.608694 0.000000
Si Si2 0.437515 0.106387 0.162097
Si Si3 0.245180 0.629084 0.664371
Si Si4 0.104757 0.838072 0.329211
Si Si5 0.410715 0.196284 0.500000
Si Si6 0.500000 0.500000 0.250000
Si Si7 0.058487 0.112980 0.500000
Si Si8 0.000000 0.500000 0.250000
O O1 0.500000 0.500000 0.000000
O O2 0.684722 0.627543 0.074342
O O3 0.428294 0.687136 0.000000
O O4 0.500000 0.146288 0.250000
O O5 0.253183 0.094579 0.163222
O O6 0.500000 0.000000 0.153950
O O7 0.498809 0.164021 0.082864
O O8 0.189000 0.735712 0.684839
O O9 0.384579 0.575697 0.709410
O O10 0.100570 0.564631 0.689270
O O11 0.000000 0.859828 0.250000
O O12 0.011730 0.843084 0.415182
O O13 0.241484 0.144215 0.500000
O O14 0.000000 0.000000 0.500000
#
# Coordination Sequence:
#
# PCOD9394898 Si02
#       8
#     4   8   8   8   4   2   4   2
#     4  12  25  43  68 107 139 189 246 298 351 429
#     4  11  24  44  71 103 135 183 239 293 357 440
#     4  11  23  44  68 102 140 180 237 293 354 424
#     4  12  25  44  74 104 146 186 237 298 371 436
#     4  12  24  45  72  98 144 191 237 295 363 428
#     4  10  24  40  72  94 134 180 232 294 340 436
#     4  12  28  47  69 106 145 191 242 306 377 441
#     4  10  24  44  72 102 138 196 228 290 372 428
#
# _framework density 20.445295999999999
#
# number of rings (size 3 to 8) (size 9 to 14) (size 15 to 20)
#    0.000    0.600    4.000    3.900    1.400    5.600 
#    0.000    0.000    0.000    0.000    0.000    0.000 
#    0.000    0.000    0.000    0.000    0.000    0.000 
#
# Total GULP energy -223047.094053 kJ/mol
# GULP energy per Si atom -5576.177351 kJ/mol
# Density = 2.039876 g / cm^3
# Si number density = 20.445296 Si / 1000 Ang^3
#
#
#
# Elastic Constant Matrix: (Units=GPa)
#
#
# Indices 1 2 3 4 5 6 
#
# 1 166.7308 47.4609 75.5196 0.0000 0.0000 0.0000
# 2 47.4609 125.6672 29.9793 0.0000 0.0000 0.0000
# 3 75.5196 29.9793 142.1448 0.0000 0.0000 0.0000
# 4 0.0000 0.0000 0.0000 31.7742 0.0000 0.0000
# 5 0.0000 0.0000 0.0000 0.0000 27.8078 0.0000
# 6 0.0000 0.0000 0.0000 0.0000 0.0000 -39.2509
#
#
#
# Elastic Compliance Matrix: (Units=1/GPa)
#
#
# Indices 1 2 3 4 5 6 
#
# 1 0.008455 -0.002234 -0.004021 0.000000 0.000000 0.000000
# 2 -0.002234 0.008969 -0.000705 0.000000 0.000000 0.000000
# 3 -0.004021 -0.000705 0.009320 0.000000 0.000000 0.000000
# 4 0.000000 0.000000 0.000000 0.031472 0.000000 0.000000
# 5 0.000000 0.000000 0.000000 0.000000 0.035961 0.000000
# 6 0.000000 0.000000 0.000000 0.000000 0.000000 -0.025477
#
#
# Mechanical properties :
#
#
# Convention : Reuss Voigt Hill
#
# Bulk Modulus (GPa) = 77.97276 82.27359 80.12318
# Shear Modulus (GPa) = 57.54126 22.83842 40.18984
#
# Velocity S-wave (km/s) = 5.31085 3.34586 4.43846
# Velocity P-wave (km/s) = 8.70786 7.43334 8.09572
#
# Compressibility (1/GPa) = 0.01282499
#
# Stress axis : x y z
#
# Youngs Moduli (GPa) = 118.27647 111.49067 107.29718
#
# Poissons Ratio (x) = 0.24906 0.43142
# Poissons Ratio (y) = 0.26422 0.07563
# Poissons Ratio (z) = 0.47556 0.07858
#
# Static dielectric constant tensor:
#      x y z
#    x 1.625520 0.000000 0.000000 
#    y 0.000000 1.965060 0.000000 
#    z 0.000000 0.000000 1.728710 
# 
# From -- ./inp_files/11657.got.cif
#   From: 2010.05.17/outbox.cif.g08.bks.cpg/sg49_6_cif.got.tgz:11657.got - 2010.06.03 21:02:19.
