data_PCOD9394013
_publ_section_title
;
Structure prediction by ZEFSAII (Michael W. Deem and Ramdas Pophale) SiO2 
 PCOD9394013
Probable space group: P C C M
;
_chemical_formula_sum "Si O2"
_cell_formula_units_Z 30
_cell_length_a 14.374511
_cell_length_b 10.601034
_cell_length_c 10.034785
_cell_angle_alpha 90.000000
_cell_angle_beta 90.000000
_cell_angle_gamma 90.000000
_cell_volume 1529.147500
_symmetry_space_group_name_H-M "P C C M"
_symmetry_group_IT_number 49
_symmetry_cell_setting 'orthorhombic'
loop_
_space_group_symop_operation_xyz
x,y,z
-x,-y,z
x,-y,1/2-z
-x,y,1/2-z
-x,-y,-z
x,y,-z
-x,y,1/2+z
x,-y,1/2+z
loop_
_atom_site_type_symbol
_atom_site_label
_atom_site_fract_x
_atom_site_fract_y
_atom_site_fract_z
Si Si1 0.081689 0.754145 0.350359
Si Si2 0.279610 0.378785 0.843014
Si Si3 0.658942 0.170948 0.145374
Si Si4 0.818937 0.000000 0.750000
Si Si5 0.500000 0.000000 0.250000
O O1 0.045765 0.745823 0.500000
O O2 0.171592 0.664739 0.336837
O O3 0.118733 0.895916 0.322825
O O4 0.000000 0.722197 0.250000
O O5 0.292996 0.500000 0.750000
O O6 0.334619 0.266085 0.769445
O O7 0.303247 0.394302 0.000000
O O8 0.748683 0.079299 0.156814
O O9 0.567835 0.086494 0.162645
O O10 0.660497 0.233987 0.000000
#
# Coordination Sequence:
#
# PCOD9394013 Si02
#       5
#     8   8   8   4   2
#     4  10  21  34  51  78 110 145 186 232 279 327
#     4  10  22  40  59  80 109 146 189 233 278 329
#     4  10  20  36  60  86 114 149 184 223 273 327
#     4   9  19  33  53  80 112 148 187 227 275 333
#     4  10  22  36  60  94 124 144 174 216 266 330
#
# _framework density 19.618773999999998
#
# number of rings (size 3 to 8) (size 9 to 14) (size 15 to 20)
#    0.000    2.133    0.000    2.400    0.000   15.467 
#    0.000    3.333    0.000    3.200    0.000    0.000 
#    0.000    0.000    0.000    0.000    0.000    0.000 
#
# Total GULP energy -167430.570709 kJ/mol
# GULP energy per Si atom -5581.019024 kJ/mol
# Density = 1.957412 g / cm^3
# Si number density = 19.618774 Si / 1000 Ang^3
#
#
#
# Elastic Constant Matrix: (Units=GPa)
#
#
# Indices 1 2 3 4 5 6 
#
# 1 60.8654 9.9729 49.3731 0.0000 0.0000 0.0000
# 2 9.9729 70.0268 48.4987 0.0000 0.0000 0.0000
# 3 49.3731 48.4987 181.6095 0.0000 0.0000 0.0000
# 4 0.0000 0.0000 0.0000 21.2474 0.0000 0.0000
# 5 0.0000 0.0000 0.0000 0.0000 -16.6601 0.0000
# 6 0.0000 0.0000 0.0000 0.0000 0.0000 -4.6937
#
#
#
# Elastic Compliance Matrix: (Units=1/GPa)
#
#
# Indices 1 2 3 4 5 6 
#
# 1 0.021159 0.001191 -0.006070 0.000000 0.000000 0.000000
# 2 0.001191 0.017588 -0.005021 0.000000 0.000000 0.000000
# 3 -0.006070 -0.005021 0.008497 0.000000 0.000000 0.000000
# 4 0.000000 0.000000 0.000000 0.047065 0.000000 0.000000
# 5 0.000000 0.000000 0.000000 0.000000 -0.060024 0.000000
# 6 0.000000 0.000000 0.000000 0.000000 0.000000 -0.213050
#
#
# Mechanical properties :
#
#
# Convention : Reuss Voigt Hill
#
# Bulk Modulus (GPa) = 36.43821 58.68789 47.56305
# Shear Modulus (GPa) = -33.37391 13.62252 -9.87570
#
# Velocity S-wave (km/s) = -4.12894 2.63793 -2.24605
# Velocity P-wave (km/s) = 2.02914 6.26557 4.19165
#
# Compressibility (1/GPa) = 0.02744372
#
# Stress axis : x y z
#
# Youngs Moduli (GPa) = 47.26192 56.85777 117.68397
#
# Poissons Ratio (x) = -0.06770 0.71437
# Poissons Ratio (y) = -0.05628 0.59083
# Poissons Ratio (z) = 0.28689 0.28546
#
# Static dielectric constant tensor:
#      x y z
#    x 1.658530 0.000000 0.000000 
#    y 0.000000 1.691020 0.000000 
#    z 0.000000 0.000000 1.687540 
# 
# From -- ./inp_files/2485.got.cif
#   From: 2010.05.17/outbox.cif.g08.bks.cpg/sg49_2_cif.got.tgz:2485.got - 2010.06.03 21:02:19.
