data_PCOD9394535
_publ_section_title
;
Structure prediction by ZEFSAII (Michael W. Deem and Ramdas Pophale) SiO2 
 PCOD9394535
Probable space group: P C C M
;
_chemical_formula_sum "Si O2"
_cell_formula_units_Z 48
_cell_length_a 14.990882
_cell_length_b 9.120367
_cell_length_c 17.667988
_cell_angle_alpha 90.000000
_cell_angle_beta 90.000000
_cell_angle_gamma 90.000000
_cell_volume 2415.608760
_symmetry_space_group_name_H-M "P C C M"
_symmetry_group_IT_number 49
_symmetry_cell_setting 'orthorhombic'
loop_
_space_group_symop_operation_xyz
x,y,z
-x,-y,z
x,-y,1/2-z
-x,y,1/2-z
-x,-y,-z
x,y,-z
-x,y,1/2+z
x,-y,1/2+z
loop_
_atom_site_type_symbol
_atom_site_label
_atom_site_fract_x
_atom_site_fract_y
_atom_site_fract_z
Si Si1 0.591719 0.930467 0.409136
Si Si2 0.875109 0.121556 0.088593
Si Si3 0.021005 0.668658 0.659939
Si Si4 0.252261 0.082489 0.172097
Si Si5 0.703159 0.664379 0.411434
Si Si6 0.216574 0.597213 0.322637
O O1 0.585657 0.920311 0.500000
O O2 0.623319 0.768775 0.382240
O O3 0.500000 0.000000 0.379844
O O4 0.672960 0.036834 0.387933
O O5 0.793536 0.238350 0.095742
O O6 0.961850 0.208867 0.118230
O O7 0.840935 0.983799 0.138300
O O8 0.884765 0.082930 0.000000
O O9 0.125899 0.663761 0.642851
O O10 0.000000 0.500000 0.639098
O O11 0.000000 0.686997 0.750000
O O12 0.264367 0.251455 0.194080
O O13 0.267277 0.000000 0.250000
O O14 0.688330 0.637599 0.500000
O O15 0.724124 0.511949 0.371541
O O16 0.189870 0.500000 0.250000
#
# Coordination Sequence:
#
# PCOD9394535 Si02
#       6
#     8   8   8   8   8   8
#     4   9  19  40  66  88 115 153 194 241 303 378
#     4  10  21  39  58  84 120 159 207 251 301 364
#     4  11  19  34  59  82 117 162 213 253 297 367
#     4  11  23  38  60  86 120 158 201 256 309 367
#     4   9  18  33  56  84 113 148 191 235 290 358
#     4  12  22  36  56  83 118 157 202 252 309 360
#
# _framework density 19.870767000000001
#
# number of rings (size 3 to 8) (size 9 to 14) (size 15 to 20)
#    0.000    1.667    3.333    4.500    0.000    3.333 
#    0.000    3.333    0.000    4.000    0.000    0.000 
#    0.000    0.000    0.000    0.000    0.000    0.000 
#
# Total GULP energy -267516.276580 kJ/mol
# GULP energy per Si atom -5573.255762 kJ/mol
# Density = 1.982554 g / cm^3
# Si number density = 19.870767 Si / 1000 Ang^3
#
#
#
# Elastic Constant Matrix: (Units=GPa)
#
#
# Indices 1 2 3 4 5 6 
#
# 1 95.6663 46.1299 12.0501 0.0000 0.0000 0.0000
# 2 46.1299 144.3832 24.8875 0.0000 0.0000 0.0000
# 3 12.0501 24.8875 22.9014 0.0000 0.0000 0.0000
# 4 0.0000 0.0000 0.0000 53.8987 0.0000 0.0000
# 5 0.0000 0.0000 0.0000 0.0000 -107.8622 0.0000
# 6 0.0000 0.0000 0.0000 0.0000 0.0000 1.1735
#
#
#
# Elastic Compliance Matrix: (Units=1/GPa)
#
#
# Indices 1 2 3 4 5 6 
#
# 1 0.012496 -0.003518 -0.002752 0.000000 0.000000 0.000000
# 2 -0.003518 0.009513 -0.008487 0.000000 0.000000 0.000000
# 3 -0.002752 -0.008487 0.054336 0.000000 0.000000 0.000000
# 4 0.000000 0.000000 0.000000 0.018553 0.000000 0.000000
# 5 0.000000 0.000000 0.000000 0.000000 -0.009271 0.000000
# 6 0.000000 0.000000 0.000000 0.000000 0.000000 0.852166
#
#
# Mechanical properties :
#
#
# Convention : Reuss Voigt Hill
#
# Bulk Modulus (GPa) = 21.35307 47.67622 34.51464
# Shear Modulus (GPa) = 5.08690 1.43421 3.26055
#
# Velocity S-wave (km/s) = 1.60173 0.85049 1.28236
# Velocity P-wave (km/s) = 3.76697 5.00097 4.42717
#
# Compressibility (1/GPa) = 0.04683167
#
# Stress axis : x y z
#
# Youngs Moduli (GPa) = 80.02530 105.12038 18.40390
#
# Poissons Ratio (x) = 0.36982 0.05065
# Poissons Ratio (y) = 0.28154 0.15619
# Poissons Ratio (z) = 0.22022 0.89213
#
# Static dielectric constant tensor:
#      x y z
#    x 1.793270 0.000000 0.000000 
#    y 0.000000 1.761720 0.000000 
#    z 0.000000 0.000000 1.704700 
# 
# From -- ./inp_files/17717.got.cif
#   From: 2010.05.17/outbox.cif.g08.bks.cpg/sg49_9_cif.got.tgz:17717.got - 2010.06.03 21:02:19.
