data_PCOD9394291
_publ_section_title
;
Structure prediction by ZEFSAII (Michael W. Deem and Ramdas Pophale) SiO2 
 PCOD9394291
Probable space group: P C C M
;
_chemical_formula_sum "Si O2"
_cell_formula_units_Z 64
_cell_length_a 16.385411
_cell_length_b 12.817566
_cell_length_c 15.840075
_cell_angle_alpha 90.000000
_cell_angle_beta 90.000000
_cell_angle_gamma 90.000000
_cell_volume 3326.749769
_symmetry_space_group_name_H-M "P C C M"
_symmetry_group_IT_number 49
_symmetry_cell_setting 'orthorhombic'
loop_
_space_group_symop_operation_xyz
x,y,z
-x,-y,z
x,-y,1/2-z
-x,y,1/2-z
-x,-y,-z
x,y,-z
-x,y,1/2+z
x,-y,1/2+z
loop_
_atom_site_type_symbol
_atom_site_label
_atom_site_fract_x
_atom_site_fract_y
_atom_site_fract_z
Si Si1 0.719960 0.687935 0.595860
Si Si2 0.949621 0.604993 0.904627
Si Si3 0.997000 0.172789 0.100546
Si Si4 0.595890 0.372308 0.753952
Si Si5 0.181871 0.887849 0.151929
Si Si6 0.692269 0.700322 0.906895
Si Si7 0.791975 0.486219 0.346414
Si Si8 0.183039 0.120691 0.147660
O O1 0.690016 0.678787 0.500000
O O2 0.648325 0.664613 0.664037
O O3 0.765337 0.797723 0.608792
O O4 0.789271 0.599512 0.612377
O O5 0.875633 0.577798 0.844229
O O6 0.000000 0.500000 0.908850
O O7 0.002116 0.703915 0.879046
O O8 0.917823 0.627370 0.000000
O O9 0.915696 0.123698 0.138560
O O10 0.086614 0.135709 0.129130
O O11 0.991781 0.158069 0.000000
O O12 0.599974 0.500000 0.750000
O O13 0.500000 0.347631 0.750000
O O14 0.633837 0.310786 0.673756
O O15 0.195575 0.875814 0.251847
O O16 0.205600 0.003269 0.120907
O O17 0.734461 0.587074 0.901437
O O18 0.761240 0.789159 0.892654
O O19 0.655441 0.715062 0.000000
O O20 0.766117 0.500000 0.250000
#
# Coordination Sequence:
#
# PCOD9394291 Si02
#       8
#     8   8   8   8   8   8   8   8
#     4  12  23  40  66  94 130 169 206 257 317 374
#     4  10  21  35  50  76 116 163 214 263 311 365
#     4  11  22  36  56  85 123 167 218 274 317 360
#     4  11  24  44  69 101 136 164 200 249 308 385
#     4  11  24  41  61  87 125 171 222 269 316 367
#     4  12  22  40  68  95 128 166 207 255 309 374
#     4  12  21  37  59  86 123 166 211 254 310 372
#     4  11  23  41  63  88 122 172 222 269 315 367
#
# _framework density 19.237995999999999
#
# number of rings (size 3 to 8) (size 9 to 14) (size 15 to 20)
#    0.000    0.750    5.000    3.375    0.000    5.250 
#    2.250    1.250    0.000    1.500    0.000    1.750 
#    0.000    0.000    0.000    0.000    0.000    0.000 
#
# Total GULP energy -357218.970541 kJ/mol
# GULP energy per Si atom -5581.546415 kJ/mol
# Density = 1.919421 g / cm^3
# Si number density = 19.237996 Si / 1000 Ang^3
#
#
#
# Elastic Constant Matrix: (Units=GPa)
#
#
# Indices 1 2 3 4 5 6 
#
# 1 81.9807 25.0423 35.9334 0.0000 0.0000 0.0000
# 2 25.0423 126.8550 35.2022 0.0000 0.0000 0.0000
# 3 35.9334 35.2022 113.5398 0.0000 0.0000 0.0000
# 4 0.0000 0.0000 0.0000 6.1137 0.0000 0.0000
# 5 0.0000 0.0000 0.0000 0.0000 11.8156 0.0000
# 6 0.0000 0.0000 0.0000 0.0000 0.0000 3.7797
#
#
#
# Elastic Compliance Matrix: (Units=1/GPa)
#
#
# Indices 1 2 3 4 5 6 
#
# 1 0.014505 -0.001739 -0.004051 0.000000 0.000000 0.000000
# 2 -0.001739 0.008834 -0.002188 0.000000 0.000000 0.000000
# 3 -0.004051 -0.002188 0.010768 0.000000 0.000000 0.000000
# 4 0.000000 0.000000 0.000000 0.163567 0.000000 0.000000
# 5 0.000000 0.000000 0.000000 0.000000 0.084634 0.000000
# 6 0.000000 0.000000 0.000000 0.000000 0.000000 0.264568
#
#
# Mechanical properties :
#
#
# Convention : Reuss Voigt Hill
#
# Bulk Modulus (GPa) = 55.09957 57.19237 56.14597
# Shear Modulus (GPa) = 8.78915 19.42165 14.10540
#
# Velocity S-wave (km/s) = 2.13976 3.18078 2.71071
# Velocity P-wave (km/s) = 5.89983 6.57900 6.24865
#
# Compressibility (1/GPa) = 0.01814896
#
# Stress axis : x y z
#
# Youngs Moduli (GPa) = 68.94155 113.20391 92.86625
#
# Poissons Ratio (x) = 0.19688 0.37624
# Poissons Ratio (y) = 0.11990 0.20323
# Poissons Ratio (z) = 0.27931 0.24773
#
# Static dielectric constant tensor:
#      x y z
#    x 1.669030 0.000000 0.000000 
#    y 0.000000 1.683470 0.000000 
#    z 0.000000 0.000000 1.851770 
# 
# From -- ./inp_files/14185.got.cif
#   From: 2010.05.17/outbox.cif.g08.bks.cpg/sg49_8_cif.got.tgz:14185.got - 2010.06.03 21:02:19.
