data_PCOD9394608
_publ_section_title
;
Structure prediction by ZEFSAII (Michael W. Deem and Ramdas Pophale) SiO2 
 PCOD9394608
Probable space group: P C C M
;
_chemical_formula_sum "Si O2"
_cell_formula_units_Z 40
_cell_length_a 10.488526
_cell_length_b 8.851345
_cell_length_c 21.756484
_cell_angle_alpha 90.000000
_cell_angle_beta 90.000000
_cell_angle_gamma 90.000000
_cell_volume 2019.818936
_symmetry_space_group_name_H-M "P C C M"
_symmetry_group_IT_number 49
_symmetry_cell_setting 'orthorhombic'
loop_
_space_group_symop_operation_xyz
x,y,z
-x,-y,z
x,-y,1/2-z
-x,y,1/2-z
-x,-y,-z
x,y,-z
-x,y,1/2+z
x,-y,1/2+z
loop_
_atom_site_type_symbol
_atom_site_label
_atom_site_fract_x
_atom_site_fract_y
_atom_site_fract_z
Si Si1 0.374716 0.605119 0.500000
Si Si2 0.225396 0.204223 0.612954
Si Si3 0.289193 0.085545 0.814958
Si Si4 0.151316 0.666315 0.755378
Si Si5 0.514364 0.829095 0.906315
Si Si6 0.125489 0.609028 0.000000
O O1 0.500000 0.500000 0.500000
O O2 0.392013 0.719157 0.557234
O O3 0.247518 0.505077 0.500000
O O4 0.187675 0.276400 0.677444
O O5 0.372745 0.237520 0.595887
O O6 0.140569 0.278636 0.559148
O O7 0.230803 0.025432 0.632353
O O8 0.200608 0.224940 0.797984
O O9 0.423496 0.144930 0.839900
O O10 0.303839 0.000000 0.750000
O O11 0.206554 0.500000 0.750000
O O12 0.000000 0.662011 0.750000
O O13 0.500000 0.000000 0.932287
O O14 0.000000 0.500000 0.000000
#
# Coordination Sequence:
#
# PCOD9394608 Si02
#       6
#     4   8   8   8   8   4
#     4  12  23  40  67  95 129 173 230 272 342 396
#     4  10  22  42  64  93 131 174 221 280 330 397
#     4   9  21  39  64  97 132 172 220 275 339 404
#     4  10  23  39  64  93 134 180 220 270 333 404
#     4  10  21  39  68  95 134 168 224 280 343 397
#     4  12  28  44  68  98 140 181 227 292 338 400
#
# _framework density 19.803754999999999
#
# number of rings (size 3 to 8) (size 9 to 14) (size 15 to 20)
#    0.000    1.800    2.000    0.300    5.600   15.200 
#    0.000    3.000    0.000    7.200    0.000    0.000 
#    0.000    0.000    0.000    0.000    0.000    0.000 
#
# Total GULP energy -222921.407400 kJ/mol
# GULP energy per Si atom -5573.035185 kJ/mol
# Density = 1.975868 g / cm^3
# Si number density = 19.803755 Si / 1000 Ang^3
#
#
#
# Elastic Constant Matrix: (Units=GPa)
#
#
# Indices 1 2 3 4 5 6 
#
# 1 84.4911 36.3062 36.1345 0.0000 0.0000 0.0000
# 2 36.3062 97.5864 53.6061 0.0000 0.0000 0.0000
# 3 36.1345 53.6061 87.4714 0.0000 0.0000 0.0000
# 4 0.0000 0.0000 0.0000 23.4946 0.0000 0.0000
# 5 0.0000 0.0000 0.0000 0.0000 -89.1027 0.0000
# 6 0.0000 0.0000 0.0000 0.0000 0.0000 38.4158
#
#
#
# Elastic Compliance Matrix: (Units=1/GPa)
#
#
# Indices 1 2 3 4 5 6 
#
# 1 0.015045 -0.003291 -0.004198 0.000000 0.000000 0.000000
# 2 -0.003291 0.016168 -0.008549 0.000000 0.000000 0.000000
# 3 -0.004198 -0.008549 0.018406 0.000000 0.000000 0.000000
# 4 0.000000 0.000000 0.000000 0.042563 0.000000 0.000000
# 5 0.000000 0.000000 0.000000 0.000000 -0.011223 0.000000
# 6 0.000000 0.000000 0.000000 0.000000 0.000000 0.026031
#
#
# Mechanical properties :
#
#
# Convention : Reuss Voigt Hill
#
# Bulk Modulus (GPa) = 57.00490 57.96027 57.48259
# Shear Modulus (GPa) = 34.50342 4.12835 19.31589
#
# Velocity S-wave (km/s) = 4.17857 1.44539 3.12647
# Velocity P-wave (km/s) = 7.21997 5.66713 6.49016
#
# Compressibility (1/GPa) = 0.01754235
#
# Stress axis : x y z
#
# Youngs Moduli (GPa) = 66.46594 61.85140 54.33148
#
# Poissons Ratio (x) = 0.20357 0.22809
# Poissons Ratio (y) = 0.21876 0.46446
# Poissons Ratio (z) = 0.27903 0.52875
#
# Static dielectric constant tensor:
#      x y z
#    x 1.682920 0.000000 0.000000 
#    y 0.000000 1.759370 0.000000 
#    z 0.000000 0.000000 1.693700 
# 
# From -- ./inp_files/20360.got.cif
#   From: 2010.05.17/outbox.cif.g08.bks.cpg/sg49_11_cif.got.tgz:20360.got - 2010.06.03 21:02:19.
