data_PCOD9394031
_publ_section_title
;
Structure prediction by ZEFSAII (Michael W. Deem and Ramdas Pophale) SiO2 
 PCOD9394031
Probable space group: P C C M
;
_chemical_formula_sum "Si O2"
_cell_formula_units_Z 26
_cell_length_a 9.671119
_cell_length_b 16.169268
_cell_length_c 9.154057
_cell_angle_alpha 90.000000
_cell_angle_beta 90.000000
_cell_angle_gamma 90.000000
_cell_volume 1431.464885
_symmetry_space_group_name_H-M "P C C M"
_symmetry_group_IT_number 49
_symmetry_cell_setting 'orthorhombic'
loop_
_space_group_symop_operation_xyz
x,y,z
-x,-y,z
x,-y,1/2-z
-x,y,1/2-z
-x,-y,-z
x,y,-z
-x,y,1/2+z
x,-y,1/2+z
loop_
_atom_site_type_symbol
_atom_site_label
_atom_site_fract_x
_atom_site_fract_y
_atom_site_fract_z
Si Si1 0.500000 0.000000 0.250000
Si Si2 0.147052 0.261196 0.326637
Si Si3 0.366608 0.837968 0.334995
Si Si4 0.647496 0.414763 0.174646
O O1 0.402360 0.935791 0.335419
O O2 0.131545 0.249400 0.500000
O O3 0.231632 0.185790 0.254541
O O4 0.243330 0.341563 0.301834
O O5 0.000000 0.270871 0.250000
O O6 0.500000 0.801836 0.250000
O O7 0.358601 0.806952 0.500000
O O8 0.696018 0.500000 0.250000
O O9 0.500000 0.396314 0.250000
O O10 0.629408 0.425531 0.000000
#
# Coordination Sequence:
#
# PCOD9394031 Si02
#       4
#     2   8   8   8
#     4   8  22  36  64  92 116 144 192 232 294 336
#     4  11  24  39  57  84 119 157 196 237 291 346
#     4  10  20  36  61  88 116 148 189 236 284 341
#     4  10  21  37  59  86 114 150 194 242 286 336
#
# _framework density 18.163211
#
# number of rings (size 3 to 8) (size 9 to 14) (size 15 to 20)
#    0.923    0.923    0.000    5.077    0.000    8.000 
#    0.000    3.846    0.000    3.692    0.000    0.000 
#    0.000    0.000    0.000    0.000    0.000    0.000 
#
# Total GULP energy -144932.013314 kJ/mol
# GULP energy per Si atom -5574.308204 kJ/mol
# Density = 1.812187 g / cm^3
# Si number density = 18.163211 Si / 1000 Ang^3
#
#
#
# Elastic Constant Matrix: (Units=GPa)
#
#
# Indices 1 2 3 4 5 6 
#
# 1 127.3763 48.0273 77.0203 0.0000 0.0000 0.0000
# 2 48.0273 95.0519 50.5913 0.0000 0.0000 0.0000
# 3 77.0203 50.5913 155.3470 0.0000 0.0000 0.0000
# 4 0.0000 0.0000 0.0000 89.1183 0.0000 0.0000
# 5 0.0000 0.0000 0.0000 0.0000 34.4269 0.0000
# 6 0.0000 0.0000 0.0000 0.0000 0.0000 9.7767
#
#
#
# Elastic Compliance Matrix: (Units=1/GPa)
#
#
# Indices 1 2 3 4 5 6 
#
# 1 0.012123 -0.003540 -0.004858 0.000000 0.000000 0.000000
# 2 -0.003540 0.013760 -0.002726 0.000000 0.000000 0.000000
# 3 -0.004858 -0.002726 0.009733 0.000000 0.000000 0.000000
# 4 0.000000 0.000000 0.000000 0.011221 0.000000 0.000000
# 5 0.000000 0.000000 0.000000 0.000000 0.029047 0.000000
# 6 0.000000 0.000000 0.000000 0.000000 0.000000 0.102284
#
#
# Mechanical properties :
#
#
# Convention : Reuss Voigt Hill
#
# Bulk Modulus (GPa) = 74.79964 81.00589 77.90276
# Shear Modulus (GPa) = 24.40553 40.14015 32.27284
#
# Velocity S-wave (km/s) = 3.66960 4.70613 4.21981
# Velocity P-wave (km/s) = 7.69584 8.61545 8.16860
#
# Compressibility (1/GPa) = 0.01336905
#
# Stress axis : x y z
#
# Youngs Moduli (GPa) = 82.49012 72.67351 102.73926
#
# Poissons Ratio (x) = 0.25725 0.49906
# Poissons Ratio (y) = 0.29200 0.28009
# Poissons Ratio (z) = 0.40070 0.19812
#
# Static dielectric constant tensor:
#      x y z
#    x 1.590090 0.000000 0.000000 
#    y 0.000000 1.655000 0.000000 
#    z 0.000000 0.000000 1.624400 
# 
# From -- ./inp_files/1239.got.cif
#   From: 2010.05.17/outbox.cif.g08.bks.cpg/sg49_1_cif.got.tgz:1239.got - 2010.06.03 21:02:19.
