data_PCOD9394200
_publ_section_title
;
Structure prediction by ZEFSAII (Michael W. Deem and Ramdas Pophale) SiO2 
 PCOD9394200
Probable space group: P C C M
;
_chemical_formula_sum "Si O2"
_cell_formula_units_Z 26
_cell_length_a 8.215235
_cell_length_b 5.580811
_cell_length_c 25.080518
_cell_angle_alpha 90.000000
_cell_angle_beta 90.000000
_cell_angle_gamma 90.000000
_cell_volume 1149.883409
_symmetry_space_group_name_H-M "P C C M"
_symmetry_group_IT_number 49
_symmetry_cell_setting 'orthorhombic'
loop_
_space_group_symop_operation_xyz
x,y,z
-x,-y,z
x,-y,1/2-z
-x,y,1/2-z
-x,-y,-z
x,y,-z
-x,y,1/2+z
x,-y,1/2+z
loop_
_atom_site_type_symbol
_atom_site_label
_atom_site_fract_x
_atom_site_fract_y
_atom_site_fract_z
Si Si1 0.500000 0.500000 0.750000
Si Si2 0.000000 0.000000 0.659056
Si Si3 0.340191 0.856143 0.324456
Si Si4 0.000000 0.500000 0.907129
Si Si5 0.340726 0.332362 0.057847
O O1 0.627363 0.382712 0.708193
O O2 0.170270 0.977205 0.689194
O O3 0.989066 0.749136 0.626066
O O4 0.342397 0.823299 0.388505
O O5 0.500000 0.000000 0.309527
O O6 0.170325 0.476915 0.938403
O O7 0.500000 0.500000 0.060380
O O8 0.342744 0.206373 0.000000
#
# Coordination Sequence:
#
# PCOD9394200 Si02
#       5
#     2   4   8   4   8
#     4  12  26  48  76  94 148 190 250 302 376 408
#     4  10  24  42  78  98 144 178 237 289 356 422
#     4  11  24  46  71 104 138 189 235 301 353 435
#     4  10  21  42  66 107 140 187 222 288 345 434
#     4  10  20  38  69 103 142 183 227 286 353 430
#
# _framework density 22.610990000000001
#
# number of rings (size 3 to 8) (size 9 to 14) (size 15 to 20)
#    0.000    1.538    1.538    2.769    4.308    0.615 
#    0.000   26.923    0.000    0.000    0.000    0.000 
#    0.000    0.000    0.000    0.000    0.000    0.000 
#
# Total GULP energy -144963.478847 kJ/mol
# GULP energy per Si atom -5575.518417 kJ/mol
# Density = 2.255953 g / cm^3
# Si number density = 22.610990 Si / 1000 Ang^3
#
#
#
# Elastic Constant Matrix: (Units=GPa)
#
#
# Indices 1 2 3 4 5 6 
#
# 1 240.1638 30.0607 33.2140 0.0000 0.0000 0.0000
# 2 30.0607 69.5813 33.4790 0.0000 0.0000 0.0000
# 3 33.2140 33.4790 157.4715 0.0000 0.0000 0.0000
# 4 0.0000 0.0000 0.0000 18.2441 0.0000 0.0000
# 5 0.0000 0.0000 0.0000 0.0000 198.7992 0.0000
# 6 0.0000 0.0000 0.0000 0.0000 0.0000 37.4147
#
#
#
# Elastic Compliance Matrix: (Units=1/GPa)
#
#
# Indices 1 2 3 4 5 6 
#
# 1 0.004451 -0.001639 -0.000590 0.000000 0.000000 0.000000
# 2 -0.001639 0.016613 -0.003186 0.000000 0.000000 0.000000
# 3 -0.000590 -0.003186 0.007152 0.000000 0.000000 0.000000
# 4 0.000000 0.000000 0.000000 0.054812 0.000000 0.000000
# 5 0.000000 0.000000 0.000000 0.000000 0.005030 0.000000
# 6 0.000000 0.000000 0.000000 0.000000 0.000000 0.026727
#
#
# Mechanical properties :
#
#
# Convention : Reuss Voigt Hill
#
# Bulk Modulus (GPa) = 57.52108 73.41378 65.46743
# Shear Modulus (GPa) = 38.04851 75.58911 56.81881
#
# Velocity S-wave (km/s) = 4.10658 5.78816 5.01831
# Velocity P-wave (km/s) = 6.92676 8.78687 7.91167
#
# Compressibility (1/GPa) = 0.01738493
#
# Stress axis : x y z
#
# Youngs Moduli (GPa) = 224.68981 60.19480 139.81547
#
# Poissons Ratio (x) = 0.09864 0.08254
# Poissons Ratio (y) = 0.36820 0.44549
# Poissons Ratio (z) = 0.13264 0.19180
#
# Static dielectric constant tensor:
#      x y z
#    x 1.832700 0.000000 0.000000 
#    y 0.000000 2.022490 0.000000 
#    z 0.000000 0.000000 1.849310 
# 
# From -- ./inp_files/24219.got.cif
#   From: 2010.05.17/outbox.cif.g08.bks.cpg/sg49_13_cif.got.tgz:24219.got - 2010.06.03 21:02:19.
