data_PCOD9394283
_publ_section_title
;
Structure prediction by ZEFSAII (Michael W. Deem and Ramdas Pophale) SiO2 
 PCOD9394283
Probable space group: P C C M
;
_chemical_formula_sum "Si O2"
_cell_formula_units_Z 56
_cell_length_a 5.229084
_cell_length_b 16.830341
_cell_length_c 27.370918
_cell_angle_alpha 90.000000
_cell_angle_beta 90.000000
_cell_angle_gamma 90.000000
_cell_volume 2408.839684
_symmetry_space_group_name_H-M "P C C M"
_symmetry_group_IT_number 49
_symmetry_cell_setting 'orthorhombic'
loop_
_space_group_symop_operation_xyz
x,y,z
-x,-y,z
x,-y,1/2-z
-x,y,1/2-z
-x,-y,-z
x,y,-z
-x,y,1/2+z
x,-y,1/2+z
loop_
_atom_site_type_symbol
_atom_site_label
_atom_site_fract_x
_atom_site_fract_y
_atom_site_fract_z
Si Si1 0.497225 0.375800 0.806563
Si Si2 0.666433 0.919737 0.441100
Si Si3 0.748427 0.964347 0.304950
Si Si4 0.814021 0.830282 0.058622
Si Si5 0.828888 0.779850 0.298418
Si Si6 0.074812 0.311871 0.881519
Si Si7 0.744924 0.547819 0.609191
O O1 0.500000 0.400929 0.750000
O O2 0.609688 0.286330 0.802185
O O3 0.261171 0.365608 0.845956
O O4 0.685457 0.437226 0.833563
O O5 0.691179 0.918226 0.500000
O O6 0.462184 0.856292 0.421778
O O7 0.949818 0.888810 0.424947
O O8 0.500000 0.000000 0.432668
O O9 0.740711 0.870215 0.300254
O O10 0.500000 0.000000 0.329203
O O11 0.751031 0.000000 0.250000
O O12 0.000000 0.000000 0.329115
O O13 0.827758 0.737856 0.072993
O O14 0.807667 0.837890 0.000000
O O15 0.000000 0.767453 0.250000
O O16 0.998965 0.758458 0.344719
O O17 0.832781 0.362025 0.901728
O O18 0.500000 0.500000 0.588648
O O19 0.000000 0.500000 0.598596
#
# Coordination Sequence:
#
# PCOD9394283 Si02
#       7
#     8   8   8   8   8   8   8
#     4  11  24  40  65  94 128 169 211 258 324 385
#     4   9  18  36  65  95 129 174 220 276 343 389
#     4  10  21  34  56  79 108 165 217 263 307 352
#     4  10  22  40  67  98 132 174 224 277 330 398
#     4  11  22  38  60  87 127 171 216 266 318 383
#     4  11  25  42  68  95 130 172 213 269 329 396
#     4  11  24  46  66  95 129 168 203 260 321 394
#
# _framework density 23.247710000000001
#
# number of rings (size 3 to 8) (size 9 to 14) (size 15 to 20)
#    0.000    1.571    4.286    0.429    8.000    2.000 
#    2.571    2.143    0.000    0.857    0.000    0.000 
#    0.000    0.000    0.000    0.000    0.000    0.000 
#
# Total GULP energy -311789.235266 kJ/mol
# GULP energy per Si atom -5567.664915 kJ/mol
# Density = 2.319480 g / cm^3
# Si number density = 23.247710 Si / 1000 Ang^3
#
#
#
# Elastic Constant Matrix: (Units=GPa)
#
#
# Indices 1 2 3 4 5 6 
#
# 1 120.3924 10.2731 12.3177 0.0000 0.0000 0.0000
# 2 10.2731 86.6503 3.4677 0.0000 0.0000 0.0000
# 3 12.3177 3.4677 26.9968 0.0000 0.0000 0.0000
# 4 0.0000 0.0000 0.0000 -2.2231 0.0000 0.0000
# 5 0.0000 0.0000 0.0000 0.0000 -8.1279 0.0000
# 6 0.0000 0.0000 0.0000 0.0000 0.0000 47.1399
#
#
#
# Elastic Compliance Matrix: (Units=1/GPa)
#
#
# Indices 1 2 3 4 5 6 
#
# 1 0.008780 -0.000885 -0.003892 0.000000 0.000000 0.000000
# 2 -0.000885 0.011690 -0.001098 0.000000 0.000000 0.000000
# 3 -0.003892 -0.001098 0.038958 0.000000 0.000000 0.000000
# 4 0.000000 0.000000 0.000000 -0.449827 0.000000 0.000000
# 5 0.000000 0.000000 0.000000 0.000000 -0.123032 0.000000
# 6 0.000000 0.000000 0.000000 0.000000 0.000000 0.021213
#
#
# Mechanical properties :
#
#
# Convention : Reuss Voigt Hill
#
# Bulk Modulus (GPa) = 20.97423 31.79519 26.38471
# Shear Modulus (GPa) = -10.76250 21.22318 5.23034
#
# Velocity S-wave (km/s) = -2.15396 3.02473 1.50157
# Velocity P-wave (km/s) = 1.68985 5.08970 3.79214
#
# Compressibility (1/GPa) = 0.04767755
#
# Stress axis : x y z
#
# Youngs Moduli (GPa) = 113.89601 85.54680 25.66849
#
# Poissons Ratio (x) = 0.07572 0.09991
# Poissons Ratio (y) = 0.10082 0.02817
# Poissons Ratio (z) = 0.44332 0.09390
#
# Static dielectric constant tensor:
#      x y z
#    x 2.201230 0.000000 0.000000 
#    y 0.000000 1.863450 0.000000 
#    z 0.000000 0.000000 1.880760 
# 
# From -- ./inp_files/25834.got.cif
#   From: 2010.05.17/outbox.cif.g08.bks.cpg/sg49_13_cif.got.tgz:25834.got - 2010.06.03 21:02:19.
