data_PCOD9394012
_publ_section_title
;
Structure prediction by ZEFSAII (Michael W. Deem and Ramdas Pophale) SiO2 
 PCOD9394012
Probable space group: P C C M
;
_chemical_formula_sum "Si O2"
_cell_formula_units_Z 56
_cell_length_a 21.917417
_cell_length_b 8.625520
_cell_length_c 15.859103
_cell_angle_alpha 90.000000
_cell_angle_beta 90.000000
_cell_angle_gamma 90.000000
_cell_volume 2998.149445
_symmetry_space_group_name_H-M "P C C M"
_symmetry_group_IT_number 49
_symmetry_cell_setting 'orthorhombic'
loop_
_space_group_symop_operation_xyz
x,y,z
-x,-y,z
x,-y,1/2-z
-x,y,1/2-z
-x,-y,-z
x,y,-z
-x,y,1/2+z
x,-y,1/2+z
loop_
_atom_site_type_symbol
_atom_site_label
_atom_site_fract_x
_atom_site_fract_y
_atom_site_fract_z
Si Si1 0.133363 0.312345 0.594224
Si Si2 0.649083 0.814528 0.750000
Si Si3 0.133363 0.687655 0.594224
Si Si4 0.789666 0.185752 0.250000
Si Si5 0.429192 0.312900 0.403797
Si Si6 0.570808 0.687100 0.903797
Si Si7 1.000000 0.688463 0.847913
O O1 0.152697 0.267177 0.500000
O O2 0.134524 0.500000 0.599516
O O3 0.175354 0.246466 0.667603
O O4 0.063134 0.262303 0.609562
O O5 0.719370 0.761524 0.750000
O O6 0.614113 0.755349 0.667182
O O7 0.614113 0.755349 0.832818
O O8 0.648361 0.000000 0.750000
O O9 0.152697 0.732823 0.500000
O O10 0.175354 0.753534 0.667603
O O11 0.063134 0.737697 0.609562
O O12 0.790953 0.000000 0.250000
O O13 0.413432 0.266803 0.500000
O O14 0.426406 0.500000 0.399870
O O15 0.500000 0.268783 0.388473
O O16 0.586568 0.733197 0.000000
O O17 0.000000 0.500000 0.850059
O O18 0.000000 0.735621 0.750000
#
# Coordination Sequence:
#
# PCOD9394012 Si02
#       7
#     8   8   8   8   8   8   8
#     4  10  20  36  60  86 109 138 182 232 279 329
#     4  11  24  38  54  79 112 152 191 226 269 320
#     4  10  20  36  60  86 109 138 182 232 279 329
#     4  11  25  41  53  73 113 156 189 226 271 323
#     4   9  19  37  61  88 115 142 176 223 277 328
#     4   9  19  37  61  88 115 142 176 223 277 328
#     4   9  15  29  57  87 113 136 167 224 287 334
#
# _framework density 18.678187000000001
#
# number of rings (size 3 to 8) (size 9 to 14) (size 15 to 20)
#    0.000    2.143    1.429    2.571    0.000    8.571 
#    0.000    8.571    0.000    1.714    0.000    0.000 
#    0.000    0.000    0.000    0.000    0.000    0.000 
#
# Total GULP energy -312671.457305 kJ/mol
# GULP energy per Si atom -5583.418880 kJ/mol
# Density = 1.863567 g / cm^3
# Si number density = 18.678187 Si / 1000 Ang^3
#
#
#
# Elastic Constant Matrix: (Units=GPa)
#
#
# Indices 1 2 3 4 5 6 
#
# 1 161.4589 36.5854 123.9193 0.0000 0.0000 0.0000
# 2 36.5854 19.0640 41.0671 0.0000 0.0000 0.0000
# 3 123.9193 41.0671 199.7477 0.0000 0.0000 0.0000
# 4 0.0000 0.0000 0.0000 -20.7197 0.0000 0.0000
# 5 0.0000 0.0000 0.0000 0.0000 -7.9203 0.0000
# 6 0.0000 0.0000 0.0000 0.0000 0.0000 33.2151
#
#
#
# Elastic Compliance Matrix: (Units=1/GPa)
#
#
# Indices 1 2 3 4 5 6 
#
# 1 0.013705 -0.014334 -0.005555 0.000000 0.000000 0.000000
# 2 -0.014334 0.109146 -0.013547 0.000000 0.000000 0.000000
# 3 -0.005555 -0.013547 0.011238 0.000000 0.000000 0.000000
# 4 0.000000 0.000000 0.000000 -0.048263 0.000000 0.000000
# 5 0.000000 0.000000 0.000000 0.000000 -0.126258 0.000000
# 6 0.000000 0.000000 0.000000 0.000000 0.000000 0.030107
#
#
# Mechanical properties :
#
#
# Convention : Reuss Voigt Hill
#
# Bulk Modulus (GPa) = 14.87745 87.04600 50.96173
# Shear Modulus (GPa) = 63.32719 12.82827 38.07773
#
# Velocity S-wave (km/s) = 5.82906 2.62354 4.52001
# Velocity P-wave (km/s) = 7.29975 7.47539 7.38809
#
# Compressibility (1/GPa) = 0.06721581
#
# Stress axis : x y z
#
# Youngs Moduli (GPa) = 72.96400 9.16201 88.98332
#
# Poissons Ratio (x) = 0.13133 0.49435
# Poissons Ratio (y) = 1.04589 1.20548
# Poissons Ratio (z) = 0.40535 0.12412
#
# Static dielectric constant tensor:
#      x y z
#    x 1.630590 0.000000 0.000000 
#    y 0.000000 1.636150 0.000000 
#    z 0.000000 0.000000 1.629030 
# 
# From -- ./inp_files/14414.got.cif
#   From: 2010.05.17/outbox.cif.g08.bks.cpg/sg49_8_cif.got.tgz:14414.got - 2010.06.03 21:02:19.
