data_PCOD9394805
_publ_section_title
;
Structure prediction by ZEFSAII (Michael W. Deem and Ramdas Pophale) SiO2 
 PCOD9394805
Probable space group: P C C M
;
_chemical_formula_sum "Si O2"
_cell_formula_units_Z 20
_cell_length_a 9.199871
_cell_length_b 5.364865
_cell_length_c 16.185097
_cell_angle_alpha 90.000000
_cell_angle_beta 90.000000
_cell_angle_gamma 90.000000
_cell_volume 798.832715
_symmetry_space_group_name_H-M "P C C M"
_symmetry_group_IT_number 49
_symmetry_cell_setting 'orthorhombic'
loop_
_space_group_symop_operation_xyz
x,y,z
-x,-y,z
x,-y,1/2-z
-x,y,1/2-z
-x,-y,-z
x,y,-z
-x,y,1/2+z
x,-y,1/2+z
loop_
_atom_site_type_symbol
_atom_site_label
_atom_site_fract_x
_atom_site_fract_y
_atom_site_fract_z
Si Si1 0.400107 0.245984 0.000000
Si Si2 0.673332 0.493662 0.344384
Si Si3 0.925227 0.243282 0.098722
O O1 0.500000 0.500000 0.000000
O O2 0.305801 0.282497 0.083993
O O3 0.500000 0.000000 0.000000
O O4 0.500000 0.500000 0.336572
O O5 0.727624 0.500000 0.250000
O O6 0.755163 0.729580 0.382512
O O7 0.000000 0.500000 0.128576
O O8 0.941572 0.238460 0.000000
O O9 0.000000 0.000000 0.134965
#
# Coordination Sequence:
#
# PCOD9394805 Si02
#       3
#     4   8   8
#     4  10  22  42  68 102 146 194 237 304 384 444
#     4  10  22  44  72 109 147 191 252 314 377 453
#     4  10  22  42  68 100 140 188 241 295 364 444
#
# _framework density 25.036531
#
# number of rings (size 3 to 8) (size 9 to 14) (size 15 to 20)
#    0.000    2.000    2.000    0.000    0.000    7.200 
#    0.000   32.000    0.000    0.000    0.000    0.000 
#    0.000    0.000    0.000    0.000    0.000    0.000 
#
# Total GULP energy -111545.704763 kJ/mol
# GULP energy per Si atom -5577.285238 kJ/mol
# Density = 2.497955 g / cm^3
# Si number density = 25.036531 Si / 1000 Ang^3
#
#
#
# Elastic Constant Matrix: (Units=GPa)
#
#
# Indices 1 2 3 4 5 6 
#
# 1 121.2431 77.8527 6.6091 0.0000 0.0000 0.0000
# 2 77.8527 207.9132 57.9787 0.0000 0.0000 0.0000
# 3 6.6091 57.9787 177.6417 0.0000 0.0000 0.0000
# 4 0.0000 0.0000 0.0000 -5.8137 0.0000 0.0000
# 5 0.0000 0.0000 0.0000 0.0000 -69.6483 0.0000
# 6 0.0000 0.0000 0.0000 0.0000 0.0000 51.9082
#
#
#
# Elastic Compliance Matrix: (Units=1/GPa)
#
#
# Indices 1 2 3 4 5 6 
#
# 1 0.011028 -0.004417 0.001031 0.000000 0.000000 0.000000
# 2 -0.004417 0.007060 -0.002140 0.000000 0.000000 0.000000
# 3 0.001031 -0.002140 0.006289 0.000000 0.000000 0.000000
# 4 0.000000 0.000000 0.000000 -0.172007 0.000000 0.000000
# 5 0.000000 0.000000 0.000000 0.000000 -0.014358 0.000000
# 6 0.000000 0.000000 0.000000 0.000000 0.000000 0.019265
#
#
# Mechanical properties :
#
#
# Convention : Reuss Voigt Hill
#
# Bulk Modulus (GPa) = 75.03944 87.96432 81.50188
# Shear Modulus (GPa) = -39.29933 19.57975 -9.85979
#
# Velocity S-wave (km/s) = -3.96622 2.79954 -1.98663
# Velocity P-wave (km/s) = 3.01041 6.75726 5.23083
#
# Compressibility (1/GPa) = 0.01332633
#
# Stress axis : x y z
#
# Youngs Moduli (GPa) = 90.67911 141.63512 158.99754
#
# Poissons Ratio (x) = 0.62560 -0.16398
# Poissons Ratio (y) = 0.40053 0.34026
# Poissons Ratio (z) = -0.09352 0.30310
#
# Static dielectric constant tensor:
#      x y z
#    x 2.108290 0.000000 0.000000 
#    y 0.000000 1.862030 0.000000 
#    z 0.000000 0.000000 2.066730 
# 
# From -- ./inp_files/14768.got.cif
#   From: 2010.05.17/outbox.cif.g08.bks.cpg/sg49_8_cif.got.tgz:14768.got - 2010.06.03 21:02:19.
