data_PCOD9394333
_publ_section_title
;
Structure prediction by ZEFSAII (Michael W. Deem and Ramdas Pophale) SiO2 
 PCOD9394333
Probable space group: P C C M
;
_chemical_formula_sum "Si O2"
_cell_formula_units_Z 56
_cell_length_a 18.733401
_cell_length_b 10.061615
_cell_length_c 15.225316
_cell_angle_alpha 90.000000
_cell_angle_beta 90.000000
_cell_angle_gamma 90.000000
_cell_volume 2869.793450
_symmetry_space_group_name_H-M "P C C M"
_symmetry_group_IT_number 49
_symmetry_cell_setting 'orthorhombic'
loop_
_space_group_symop_operation_xyz
x,y,z
-x,-y,z
x,-y,1/2-z
-x,y,1/2-z
-x,-y,-z
x,y,-z
-x,y,1/2+z
x,-y,1/2+z
loop_
_atom_site_type_symbol
_atom_site_label
_atom_site_fract_x
_atom_site_fract_y
_atom_site_fract_z
Si Si1 0.415627 0.839834 0.254896
Si Si2 0.773317 0.485161 0.146354
Si Si3 0.065234 0.591478 0.893941
Si Si4 0.062392 0.101771 0.607774
Si Si5 0.789474 0.984228 0.103233
Si Si6 0.317420 0.229904 0.401590
Si Si7 0.305913 0.247539 0.897948
O O1 0.500000 0.816564 0.250000
O O2 0.377689 0.774393 0.171290
O O3 0.375971 0.777824 0.339649
O O4 0.404177 0.000000 0.250000
O O5 0.763813 0.500000 0.250000
O O6 0.857693 0.471447 0.127790
O O7 0.735742 0.352214 0.112381
O O8 0.730798 0.609022 0.105620
O O9 0.057493 0.744624 0.862882
O O10 0.000000 0.500000 0.862353
O O11 0.061440 0.595961 0.000000
O O12 0.062993 0.106105 0.500000
O O13 0.136883 0.039453 0.639429
O O14 0.000000 0.000000 0.633304
O O15 0.730310 0.098156 0.107818
O O16 0.754173 0.852416 0.141169
O O17 0.803590 0.955437 0.000000
O O18 0.347074 0.233681 0.500000
O O19 0.320606 0.213437 0.000000
#
# Coordination Sequence:
#
# PCOD9394333 Si02
#       7
#     8   8   8   8   8   8   8
#     4  11  24  42  67 102 135 163 205 260 319 384
#     4  12  24  40  64  91 124 169 218 272 325 379
#     4  10  21  36  56  86 124 166 212 264 324 383
#     4   9  17  30  51  84 121 158 206 261 311 364
#     4   9  18  33  59  87 119 163 214 260 302 368
#     4  11  21  41  66  92 125 171 216 256 316 385
#     4  11  23  40  63  96 131 166 213 264 318 380
#
# _framework density 19.5136
#
# number of rings (size 3 to 8) (size 9 to 14) (size 15 to 20)
#    0.000    1.571    4.286    1.286    2.000    0.857 
#    0.000    2.857    0.000    1.714    0.000    0.000 
#    0.000    0.000    0.000    0.000    0.000    0.000 
#
# Total GULP energy -312695.437675 kJ/mol
# GULP energy per Si atom -5583.847101 kJ/mol
# Density = 1.946919 g / cm^3
# Si number density = 19.513600 Si / 1000 Ang^3
#
#
#
# Elastic Constant Matrix: (Units=GPa)
#
#
# Indices 1 2 3 4 5 6 
#
# 1 140.0273 33.6706 42.8822 0.0000 0.0000 0.0000
# 2 33.6706 59.6282 5.4621 0.0000 0.0000 0.0000
# 3 42.8822 5.4621 84.0803 0.0000 0.0000 0.0000
# 4 0.0000 0.0000 0.0000 16.6300 0.0000 0.0000
# 5 0.0000 0.0000 0.0000 0.0000 28.3542 0.0000
# 6 0.0000 0.0000 0.0000 0.0000 0.0000 27.3046
#
#
#
# Elastic Compliance Matrix: (Units=1/GPa)
#
#
# Indices 1 2 3 4 5 6 
#
# 1 0.009798 -0.005105 -0.004665 0.000000 0.000000 0.000000
# 2 -0.005105 0.019531 0.001335 0.000000 0.000000 0.000000
# 3 -0.004665 0.001335 0.014186 0.000000 0.000000 0.000000
# 4 0.000000 0.000000 0.000000 0.060132 0.000000 0.000000
# 5 0.000000 0.000000 0.000000 0.000000 0.035268 0.000000
# 6 0.000000 0.000000 0.000000 0.000000 0.000000 0.036624
#
#
# Mechanical properties :
#
#
# Convention : Reuss Voigt Hill
#
# Bulk Modulus (GPa) = 37.53237 49.75172 43.64205
# Shear Modulus (GPa) = 24.83959 27.90584 26.37271
#
# Velocity S-wave (km/s) = 3.57170 3.78573 3.68027
# Velocity P-wave (km/s) = 6.02371 6.68283 6.36181
#
# Compressibility (1/GPa) = 0.02664367
#
# Stress axis : x y z
#
# Youngs Moduli (GPa) = 102.06406 51.20047 70.49169
#
# Poissons Ratio (x) = 0.26139 0.32887
# Poissons Ratio (y) = 0.52106 -0.09410
# Poissons Ratio (z) = 0.47617 -0.06835
#
# Static dielectric constant tensor:
#      x y z
#    x 1.659830 0.000000 0.000000 
#    y 0.000000 1.690510 0.000000 
#    z 0.000000 0.000000 1.706350 
# 
# From -- ./inp_files/14371.got.cif
#   From: 2010.05.17/outbox.cif.g08.bks.cpg/sg49_8_cif.got.tgz:14371.got - 2010.06.03 21:02:19.
