data_PCOD9394132
_publ_section_title
;
Structure prediction by ZEFSAII (Michael W. Deem and Ramdas Pophale) SiO2 
 PCOD9394132
Probable space group: P C C M
;
_chemical_formula_sum "Si O2"
_cell_formula_units_Z 58
_cell_length_a 10.107737
_cell_length_b 15.992945
_cell_length_c 17.539647
_cell_angle_alpha 90.000000
_cell_angle_beta 90.000000
_cell_angle_gamma 90.000000
_cell_volume 2835.327469
_symmetry_space_group_name_H-M "P C C M"
_symmetry_group_IT_number 49
_symmetry_cell_setting 'orthorhombic'
loop_
_space_group_symop_operation_xyz
x,y,z
-x,-y,z
x,-y,1/2-z
-x,y,1/2-z
-x,-y,-z
x,y,-z
-x,y,1/2+z
x,-y,1/2+z
loop_
_atom_site_type_symbol
_atom_site_label
_atom_site_fract_x
_atom_site_fract_y
_atom_site_fract_z
Si Si1 0.570853 0.228026 0.087509
Si Si2 0.745975 0.237555 0.411300
Si Si3 0.500000 0.500000 0.250000
Si Si4 0.202505 0.690604 0.820518
Si Si5 0.592025 0.082839 0.189221
Si Si6 0.145833 0.140682 0.763480
Si Si7 0.728113 0.591660 0.171450
Si Si8 0.134067 0.550744 0.916883
O O1 0.412927 0.227556 0.096446
O O2 0.654254 0.288988 0.142428
O O3 0.610736 0.134421 0.112663
O O4 0.603121 0.246489 0.000000
O O5 0.783113 0.221760 0.500000
O O6 0.816595 0.177380 0.348135
O O7 0.758195 0.335690 0.389683
O O8 0.582317 0.563186 0.196334
O O9 0.146483 0.777438 0.790773
O O10 0.210652 0.630530 0.747867
O O11 0.117042 0.642978 0.883425
O O12 0.500000 0.133334 0.250000
O O13 0.733738 0.084154 0.231351
O O14 0.500000 0.000000 0.175977
O O15 0.000000 0.103412 0.750000
O O16 0.783634 0.505032 0.140852
O O17 0.000000 0.500000 0.922672
O O18 0.197977 0.555134 0.000000
#
# Coordination Sequence:
#
# PCOD9394132 Si02
#       8
#     8   8   2   8   8   8   8   8
#     4  10  20  37  62  93 123 158 205 260 320 383
#     4  10  21  37  59  86 122 161 207 264 326 381
#     4  12  20  36  52  80 108 148 212 278 332 380
#     4  10  21  37  59  83 116 160 216 272 320 376
#     4  10  20  39  66  95 130 163 199 251 300 375
#     4  10  22  39  65  96 123 164 214 257 312 383
#     4  11  22  36  55  77 111 159 209 265 326 374
#     4  11  24  39  53  77 117 163 216 272 329 385
#
# _framework density 20.456191
#
# number of rings (size 3 to 8) (size 9 to 14) (size 15 to 20)
#    0.000    1.655    2.759    1.655    3.862    0.828 
#    0.000    4.828    0.000    0.414    0.000    1.931 
#    0.000    0.000    0.000    0.000    0.000    0.000 
#
# Total GULP energy -323025.290027 kJ/mol
# GULP energy per Si atom -5569.401552 kJ/mol
# Density = 2.040963 g / cm^3
# Si number density = 20.456191 Si / 1000 Ang^3
#
#
#
# Elastic Constant Matrix: (Units=GPa)
#
#
# Indices 1 2 3 4 5 6 
#
# 1 94.9798 10.8128 32.7380 0.0000 0.0000 0.0000
# 2 10.8128 85.4268 36.8428 0.0000 0.0000 0.0000
# 3 32.7380 36.8428 93.5494 0.0000 0.0000 0.0000
# 4 0.0000 0.0000 0.0000 1.0974 0.0000 0.0000
# 5 0.0000 0.0000 0.0000 0.0000 18.0278 0.0000
# 6 0.0000 0.0000 0.0000 0.0000 0.0000 16.9931
#
#
#
# Elastic Compliance Matrix: (Units=1/GPa)
#
#
# Indices 1 2 3 4 5 6 
#
# 1 0.011982 0.000352 -0.004331 0.000000 0.000000 0.000000
# 2 0.000352 0.014111 -0.005681 0.000000 0.000000 0.000000
# 3 -0.004331 -0.005681 0.014443 0.000000 0.000000 0.000000
# 4 0.000000 0.000000 0.000000 0.911244 0.000000 0.000000
# 5 0.000000 0.000000 0.000000 0.000000 0.055470 0.000000
# 6 0.000000 0.000000 0.000000 0.000000 0.000000 0.058847
#
#
# Mechanical properties :
#
#
# Convention : Reuss Voigt Hill
#
# Bulk Modulus (GPa) = 47.13756 48.30478 47.72117
# Shear Modulus (GPa) = 4.57670 20.12782 12.35226
#
# Velocity S-wave (km/s) = 1.49739 3.14020 2.45998
# Velocity P-wave (km/s) = 5.10713 6.06736 5.60783
#
# Compressibility (1/GPa) = 0.02121450
#
# Stress axis : x y z
#
# Youngs Moduli (GPa) = 83.46197 70.86511 69.24006
#
# Poissons Ratio (x) = -0.02491 0.29991
# Poissons Ratio (y) = -0.02934 0.39332
# Poissons Ratio (z) = 0.36151 0.40255
#
# Static dielectric constant tensor:
#      x y z
#    x 1.719340 0.000000 0.000000 
#    y 0.000000 1.770280 0.000000 
#    z 0.000000 0.000000 1.783220 
# 
# From -- ./inp_files/16487.got.cif
#   From: 2010.05.17/outbox.cif.g08.bks.cpg/sg49_9_cif.got.tgz:16487.got - 2010.06.03 21:02:19.
