data_PCOD9394471
_publ_section_title
;
Structure prediction by ZEFSAII (Michael W. Deem and Ramdas Pophale) SiO2 
 PCOD9394471
Probable space group: P C C M
;
_chemical_formula_sum "Si O2"
_cell_formula_units_Z 40
_cell_length_a 7.237819
_cell_length_b 27.725665
_cell_length_c 9.985379
_cell_angle_alpha 90.000000
_cell_angle_beta 90.000000
_cell_angle_gamma 90.000000
_cell_volume 2003.799404
_symmetry_space_group_name_H-M "P C C M"
_symmetry_group_IT_number 49
_symmetry_cell_setting 'orthorhombic'
loop_
_space_group_symop_operation_xyz
x,y,z
-x,-y,z
x,-y,1/2-z
-x,y,1/2-z
-x,-y,-z
x,y,-z
-x,y,1/2+z
x,-y,1/2+z
loop_
_atom_site_type_symbol
_atom_site_label
_atom_site_fract_x
_atom_site_fract_y
_atom_site_fract_z
Si Si1 0.224071 0.444961 0.750034
Si Si2 0.196248 0.380307 0.000000
Si Si3 0.464870 0.293880 0.000000
Si Si4 0.248031 0.380266 0.500000
Si Si5 0.183267 0.848598 0.158520
Si Si6 0.808252 0.957457 0.337321
Si Si7 0.500000 0.775742 0.750000
O O1 0.290010 0.500000 0.750000
O O2 0.262515 0.412283 0.876682
O O3 0.290887 0.413915 0.625845
O O4 0.000000 0.447923 0.750000
O O5 0.290553 0.328952 0.000000
O O6 0.974662 0.373561 0.000000
O O7 0.460572 0.259348 0.873062
O O8 0.641072 0.330276 0.000000
O O9 0.266186 0.902998 0.169975
O O10 0.329534 0.809768 0.209407
O O11 0.000000 0.845414 0.250000
O O12 0.140307 0.841580 0.000000
O O13 0.826777 0.968274 0.500000
O O14 0.000000 0.952894 0.250000
O O15 0.713038 0.000000 0.250000
#
# Coordination Sequence:
#
# PCOD9394471 Si02
#       7
#     8   4   4   4   8   8   4
#     4   9  17  33  59  88 120 155 189 236 298 367
#     4  10  21  38  60  86 116 157 198 243 306 366
#     4  12  26  42  63  84 117 162 210 270 318 368
#     4  10  21  38  58  86 120 151 200 249 298 370
#     4  10  23  42  67  96 128 167 214 263 318 383
#     4   9  16  30  54  90 128 163 201 246 306 375
#     4  12  26  46  63  88 125 162 218 276 332 368
#
# _framework density 19.962078999999999
#
# number of rings (size 3 to 8) (size 9 to 14) (size 15 to 20)
#    0.000    2.000    1.000    3.000    1.400    4.800 
#    0.000    3.500    0.000    2.400    0.000    0.000 
#    0.000    0.000    0.000    0.000    0.000    0.000 
#
# Total GULP energy -223007.032875 kJ/mol
# GULP energy per Si atom -5575.175822 kJ/mol
# Density = 1.991664 g / cm^3
# Si number density = 19.962079 Si / 1000 Ang^3
#
#
#
# Elastic Constant Matrix: (Units=GPa)
#
#
# Indices 1 2 3 4 5 6 
#
# 1 91.1426 58.6770 40.4588 0.0000 0.0000 0.0000
# 2 58.6770 205.4291 107.6069 0.0000 0.0000 0.0000
# 3 40.4588 107.6069 215.8495 0.0000 0.0000 0.0000
# 4 0.0000 0.0000 0.0000 35.3143 0.0000 0.0000
# 5 0.0000 0.0000 0.0000 0.0000 53.7503 0.0000
# 6 0.0000 0.0000 0.0000 0.0000 0.0000 883.6989
#
#
#
# Elastic Compliance Matrix: (Units=1/GPa)
#
#
# Indices 1 2 3 4 5 6 
#
# 1 0.013552 -0.003438 -0.000826 0.000000 0.000000 0.000000
# 2 -0.003438 0.007461 -0.003075 0.000000 0.000000 0.000000
# 3 -0.000826 -0.003075 0.006321 0.000000 0.000000 0.000000
# 4 0.000000 0.000000 0.000000 0.028317 0.000000 0.000000
# 5 0.000000 0.000000 0.000000 0.000000 0.018605 0.000000
# 6 0.000000 0.000000 0.000000 0.000000 0.000000 0.001132
#
#
# Mechanical properties :
#
#
# Convention : Reuss Voigt Hill
#
# Bulk Modulus (GPa) = 79.02100 102.87852 90.94976
# Shear Modulus (GPa) = 53.03180 214.93125 133.98153
#
# Velocity S-wave (km/s) = 5.15984 10.38766 8.20145
# Velocity P-wave (km/s) = 8.67007 13.98285 11.63379
#
# Compressibility (1/GPa) = 0.01265486
#
# Stress axis : x y z
#
# Youngs Moduli (GPa) = 73.78982 134.03851 158.21237
#
# Poissons Ratio (x) = 0.46084 0.13072
# Poissons Ratio (y) = 0.25370 0.48648
# Poissons Ratio (z) = 0.06097 0.41215
#
# Static dielectric constant tensor:
#      x y z
#    x 1.739190 0.000000 0.000000 
#    y 0.000000 1.686660 0.000000 
#    z 0.000000 0.000000 1.709250 
# 
# From -- ./inp_files/1967.got.cif
#   From: 2010.05.17/outbox.cif.g08.bks.cpg/sg49_1_cif.got.tgz:1967.got - 2010.06.03 21:02:19.
