data_PCOD9394728
_publ_section_title
;
Structure prediction by ZEFSAII (Michael W. Deem and Ramdas Pophale) SiO2 
 PCOD9394728
Probable space group: P C C M
;
_chemical_formula_sum "Si O2"
_cell_formula_units_Z 64
_cell_length_a 11.937777
_cell_length_b 15.133131
_cell_length_c 17.689477
_cell_angle_alpha 90.000000
_cell_angle_beta 90.000000
_cell_angle_gamma 90.000000
_cell_volume 3195.709152
_symmetry_space_group_name_H-M "P C C M"
_symmetry_group_IT_number 49
_symmetry_cell_setting 'orthorhombic'
loop_
_space_group_symop_operation_xyz
x,y,z
-x,-y,z
x,-y,1/2-z
-x,y,1/2-z
-x,-y,-z
x,y,-z
-x,y,1/2+z
x,-y,1/2+z
loop_
_atom_site_type_symbol
_atom_site_label
_atom_site_fract_x
_atom_site_fract_y
_atom_site_fract_z
Si Si1 0.850741 0.761264 0.315731
Si Si2 0.368088 0.480879 0.834206
Si Si3 0.507754 0.795212 0.660308
Si Si4 0.316483 0.703203 0.586841
Si Si5 0.899323 0.229067 0.647389
Si Si6 0.695580 0.066692 0.178265
Si Si7 0.125159 0.959950 0.589097
Si Si8 0.678594 0.656903 0.588388
O O1 0.875072 0.732842 0.230371
O O2 0.776037 0.849270 0.305197
O O3 0.781144 0.693001 0.363710
O O4 0.967138 0.773127 0.359837
O O5 0.500000 0.500000 0.829535
O O6 0.321657 0.500000 0.750000
O O7 0.344312 0.382854 0.863338
O O8 0.328892 0.553693 0.894083
O O9 0.500000 0.778681 0.750000
O O10 0.385179 0.785633 0.623337
O O11 0.578448 0.886561 0.653342
O O12 0.575807 0.715186 0.621074
O O13 0.351248 0.691110 0.500000
O O14 0.183832 0.720662 0.591729
O O15 0.867243 0.127001 0.639428
O O16 0.681245 0.000000 0.250000
O O17 0.768904 0.018748 0.113731
O O18 0.130965 0.939276 0.500000
O O19 0.000000 0.000000 0.602766
O O20 0.688236 0.674238 0.500000
#
# Coordination Sequence:
#
# PCOD9394728 Si02
#       8
#     8   8   8   8   8   8   8   8
#     4  10  22  39  69  93 124 167 218 269 327 394
#     4  11  22  40  68  97 129 173 224 276 316 389
#     4  11  24  42  61  89 127 169 221 266 322 387
#     4  12  25  41  65  96 136 177 212 265 338 402
#     4  11  22  42  63  94 128 171 216 267 324 399
#     4  11  22  40  65  91 120 164 221 277 320 382
#     4  11  23  38  61  93 128 162 209 272 333 387
#     4  11  23  40  66 100 132 165 214 280 334 386
#
# _framework density 20.026852999999999
#
# number of rings (size 3 to 8) (size 9 to 14) (size 15 to 20)
#    0.000    1.000    3.750    4.125    0.000    4.500 
#    0.000    0.625    0.000    5.250    0.000    0.000 
#    0.000    0.000    0.000    0.000    0.000    0.000 
#
# Total GULP energy -357145.841908 kJ/mol
# GULP energy per Si atom -5580.403780 kJ/mol
# Density = 1.998127 g / cm^3
# Si number density = 20.026853 Si / 1000 Ang^3
#
#
#
# Elastic Constant Matrix: (Units=GPa)
#
#
# Indices 1 2 3 4 5 6 
#
# 1 69.9777 45.5038 26.2068 0.0000 0.0000 0.0000
# 2 45.5038 71.3114 22.0648 0.0000 0.0000 0.0000
# 3 26.2068 22.0648 102.5071 0.0000 0.0000 0.0000
# 4 0.0000 0.0000 0.0000 28.8047 0.0000 0.0000
# 5 0.0000 0.0000 0.0000 0.0000 19.8337 0.0000
# 6 0.0000 0.0000 0.0000 0.0000 0.0000 22.1600
#
#
#
# Elastic Compliance Matrix: (Units=1/GPa)
#
#
# Indices 1 2 3 4 5 6 
#
# 1 0.025378 -0.015198 -0.003217 0.000000 0.000000 0.000000
# 2 -0.015198 0.024126 -0.001307 0.000000 0.000000 0.000000
# 3 -0.003217 -0.001307 0.010859 0.000000 0.000000 0.000000
# 4 0.000000 0.000000 0.000000 0.034717 0.000000 0.000000
# 5 0.000000 0.000000 0.000000 0.000000 0.050419 0.000000
# 6 0.000000 0.000000 0.000000 0.000000 0.000000 0.045126
#
#
# Mechanical properties :
#
#
# Convention : Reuss Voigt Hill
#
# Bulk Modulus (GPa) = 47.80614 47.92745 47.86679
# Shear Modulus (GPa) = 21.09332 24.16108 22.62720
#
# Velocity S-wave (km/s) = 3.24891 3.47714 3.36496
# Velocity P-wave (km/s) = 6.16415 6.33279 6.24904
#
# Compressibility (1/GPa) = 0.02091782
#
# Stress axis : x y z
#
# Youngs Moduli (GPa) = 39.40463 41.44978 92.08779
#
# Poissons Ratio (x) = 0.62997 0.29621
# Poissons Ratio (y) = 0.59888 0.12040
# Poissons Ratio (z) = 0.12675 0.05420
#
# Static dielectric constant tensor:
#      x y z
#    x 1.781450 0.000000 0.000000 
#    y 0.000000 1.666210 0.000000 
#    z 0.000000 0.000000 1.688750 
# 
# From -- ./inp_files/17301.got.cif
#   From: 2010.05.17/outbox.cif.g08.bks.cpg/sg49_9_cif.got.tgz:17301.got - 2010.06.03 21:02:19.
