data_PCOD9394251
_publ_section_title
;
Structure prediction by ZEFSAII (Michael W. Deem and Ramdas Pophale) SiO2 
 PCOD9394251
Probable space group: P C C M
;
_chemical_formula_sum "Si O2"
_cell_formula_units_Z 32
_cell_length_a 19.062875
_cell_length_b 5.369257
_cell_length_c 14.337839
_cell_angle_alpha 90.000000
_cell_angle_beta 90.000000
_cell_angle_gamma 90.000000
_cell_volume 1467.527646
_symmetry_space_group_name_H-M "P C C M"
_symmetry_group_IT_number 49
_symmetry_cell_setting 'orthorhombic'
loop_
_space_group_symop_operation_xyz
x,y,z
-x,-y,z
x,-y,1/2-z
-x,y,1/2-z
-x,-y,-z
x,y,-z
-x,y,1/2+z
x,-y,1/2+z
loop_
_atom_site_type_symbol
_atom_site_label
_atom_site_fract_x
_atom_site_fract_y
_atom_site_fract_z
Si Si1 0.931048 0.667660 0.595991
Si Si2 0.453684 0.751678 0.500000
Si Si3 0.109045 0.000000 0.250000
Si Si4 0.355871 0.745879 0.316110
Si Si5 0.200085 0.359225 0.848760
O O1 0.932017 0.823415 0.500000
O O2 0.856957 0.520226 0.596335
O O3 0.000000 0.500000 0.593269
O O4 0.934323 0.802258 0.694070
O O5 0.500000 0.500000 0.500000
O O6 0.409904 0.758827 0.402424
O O7 0.500000 0.000000 0.500000
O O8 0.159799 0.895059 0.329362
O O9 0.368304 0.500000 0.250000
O O10 0.280576 0.702131 0.368122
O O11 0.354604 0.000000 0.250000
O O12 0.204593 0.500000 0.750000
#
# Coordination Sequence:
#
# PCOD9394251 Si02
#       5
#     8   4   4   8   8
#     4  10  23  40  61  95 134 175 229 287 352 416
#     4  12  28  48  72 114 145 187 239 281 358 446
#     4  10  20  41  64  90 125 174 230 278 343 408
#     4  11  24  46  74 106 147 190 237 297 353 422
#     4   9  20  38  62  95 130 171 228 275 341 407
#
# _framework density 21.805382999999999
#
# number of rings (size 3 to 8) (size 9 to 14) (size 15 to 20)
#    0.000    1.750    1.250    1.500    1.750   10.500 
#    0.000    2.500    0.000    0.750    0.000    0.000 
#    0.000    0.000    0.000    0.000    0.000    0.000 
#
# Total GULP energy -178201.235403 kJ/mol
# GULP energy per Si atom -5568.788606 kJ/mol
# Density = 2.175575 g / cm^3
# Si number density = 21.805383 Si / 1000 Ang^3
#
#
#
# Elastic Constant Matrix: (Units=GPa)
#
#
# Indices 1 2 3 4 5 6 
#
# 1 169.2428 68.6236 102.0574 0.0000 0.0000 0.0000
# 2 68.6236 117.8841 53.6051 0.0000 0.0000 0.0000
# 3 102.0574 53.6051 125.3998 0.0000 0.0000 0.0000
# 4 0.0000 0.0000 0.0000 14.2943 0.0000 0.0000
# 5 0.0000 0.0000 0.0000 0.0000 56.2504 0.0000
# 6 0.0000 0.0000 0.0000 0.0000 0.0000 28.3800
#
#
#
# Elastic Compliance Matrix: (Units=1/GPa)
#
#
# Indices 1 2 3 4 5 6 
#
# 1 0.012562 -0.003307 -0.008810 0.000000 0.000000 0.000000
# 2 -0.003307 0.011400 -0.002182 0.000000 0.000000 0.000000
# 3 -0.008810 -0.002182 0.016078 0.000000 0.000000 0.000000
# 4 0.000000 0.000000 0.000000 0.069958 0.000000 0.000000
# 5 0.000000 0.000000 0.000000 0.000000 0.017778 0.000000
# 6 0.000000 0.000000 0.000000 0.000000 0.000000 0.035236
#
#
# Mechanical properties :
#
#
# Convention : Reuss Voigt Hill
#
# Bulk Modulus (GPa) = 87.39897 95.67765 91.53831
# Shear Modulus (GPa) = 25.58542 32.33432 28.95987
#
# Velocity S-wave (km/s) = 3.42914 3.85497 3.64827
# Velocity P-wave (km/s) = 7.47309 7.98672 7.73417
#
# Compressibility (1/GPa) = 0.01144178
#
# Stress axis : x y z
#
# Youngs Moduli (GPa) = 79.60333 87.71914 62.19770
#
# Poissons Ratio (x) = 0.29004 0.54799
# Poissons Ratio (y) = 0.26321 0.13573
# Poissons Ratio (z) = 0.70134 0.19142
#
# Static dielectric constant tensor:
#      x y z
#    x 1.630460 0.000000 0.000000 
#    y 0.000000 1.766650 0.000000 
#    z 0.000000 0.000000 1.824340 
# 
# From -- ./inp_files/10620.got.cif
#   From: 2010.05.17/outbox.cif.g08.bks.cpg/sg49_6_cif.got.tgz:10620.got - 2010.06.03 21:02:19.
