data_PCOD9394743
_publ_section_title
;
Structure prediction by ZEFSAII (Michael W. Deem and Ramdas Pophale) SiO2 
 PCOD9394743
Probable space group: P C C M
;
_chemical_formula_sum "Si O2"
_cell_formula_units_Z 34
_cell_length_a 11.141017
_cell_length_b 9.486883
_cell_length_c 14.403188
_cell_angle_alpha 90.000000
_cell_angle_beta 90.000000
_cell_angle_gamma 90.000000
_cell_volume 1522.323708
_symmetry_space_group_name_H-M "P C C M"
_symmetry_group_IT_number 49
_symmetry_cell_setting 'orthorhombic'
loop_
_space_group_symop_operation_xyz
x,y,z
-x,-y,z
x,-y,1/2-z
-x,y,1/2-z
-x,-y,-z
x,y,-z
-x,y,1/2+z
x,-y,1/2+z
loop_
_atom_site_type_symbol
_atom_site_label
_atom_site_fract_x
_atom_site_fract_y
_atom_site_fract_z
Si Si1 0.614916 0.901657 0.885941
Si Si2 0.000000 0.500000 0.750000
Si Si3 0.863433 0.967553 0.390717
Si Si4 0.167915 0.362757 0.607629
Si Si5 0.381831 0.578485 0.612530
O O1 0.610549 0.739098 0.854365
O O2 0.500000 0.000000 0.859049
O O3 0.747349 0.950172 0.853523
O O4 0.614075 0.905239 0.000000
O O5 0.931487 0.600869 0.680864
O O6 0.870701 0.006205 0.500000
O O7 0.819950 0.805250 0.386269
O O8 0.000000 0.000000 0.355539
O O9 0.136441 0.392666 0.500000
O O10 0.274095 0.471047 0.633504
O O11 0.500000 0.500000 0.642941
O O12 0.381886 0.588317 0.500000
#
# Coordination Sequence:
#
# PCOD9394743 Si02
#       5
#     8   2   8   8   8
#     4   9  16  27  49  83 120 156 201 250 299 363
#     4  12  26  40  60  90 120 164 216 250 304 374
#     4   9  18  32  54  84 118 159 202 246 302 362
#     4  10  22  40  62  87 124 163 205 257 308 367
#     4   9  17  31  57  91 122 158 205 253 306 367
#
# _framework density 22.334275999999999
#
# number of rings (size 3 to 8) (size 9 to 14) (size 15 to 20)
#    0.000    2.588    0.000    1.765    3.294    5.647 
#    0.000    1.176    0.000    0.000    0.000    0.000 
#    0.000    0.000    0.000    0.000    0.000    0.235 
#
# Total GULP energy -189515.749693 kJ/mol
# GULP energy per Si atom -5573.992638 kJ/mol
# Density = 2.228344 g / cm^3
# Si number density = 22.334276 Si / 1000 Ang^3
#
#
#
# Elastic Constant Matrix: (Units=GPa)
#
#
# Indices 1 2 3 4 5 6 
#
# 1 180.2609 121.2274 27.3487 0.0000 0.0000 0.0000
# 2 121.2274 162.1199 40.7302 0.0000 0.0000 0.0000
# 3 27.3487 40.7302 60.3210 0.0000 0.0000 0.0000
# 4 0.0000 0.0000 0.0000 -12.3075 0.0000 0.0000
# 5 0.0000 0.0000 0.0000 0.0000 13.2444 0.0000
# 6 0.0000 0.0000 0.0000 0.0000 0.0000 48.2074
#
#
#
# Elastic Compliance Matrix: (Units=1/GPa)
#
#
# Indices 1 2 3 4 5 6 
#
# 1 0.011183 -0.008537 0.000694 0.000000 0.000000 0.000000
# 2 -0.008537 0.013945 -0.005546 0.000000 0.000000 0.000000
# 3 0.000694 -0.005546 0.020008 0.000000 0.000000 0.000000
# 4 0.000000 0.000000 0.000000 -0.081251 0.000000 0.000000
# 5 0.000000 0.000000 0.000000 0.000000 0.075503 0.000000
# 6 0.000000 0.000000 0.000000 0.000000 0.000000 0.020744
#
#
# Mechanical properties :
#
#
# Convention : Reuss Voigt Hill
#
# Bulk Modulus (GPa) = 54.46835 86.81269 70.64052
# Shear Modulus (GPa) = 53.74670 24.05523 38.90097
#
# Velocity S-wave (km/s) = 4.91090 3.28541 4.17797
# Velocity P-wave (km/s) = 7.52307 7.30383 7.41426
#
# Compressibility (1/GPa) = 0.01835928
#
# Stress axis : x y z
#
# Youngs Moduli (GPa) = 89.41865 71.71010 49.98041
#
# Poissons Ratio (x) = 0.61218 -0.03468
# Poissons Ratio (y) = 0.76335 0.27717
# Poissons Ratio (z) = -0.06205 0.39767
#
# Static dielectric constant tensor:
#      x y z
#    x 1.823090 0.000000 0.000000 
#    y 0.000000 2.002640 0.000000 
#    z 0.000000 0.000000 1.817020 
# 
# From -- ./inp_files/12447.got.cif
#   From: 2010.05.17/outbox.cif.g08.bks.cpg/sg49_7_cif.got.tgz:12447.got - 2010.06.03 21:02:19.
