data_PCOD9394481
_publ_section_title
;
Structure prediction by ZEFSAII (Michael W. Deem and Ramdas Pophale) SiO2 
 PCOD9394481
Probable space group: P C C M
;
_chemical_formula_sum "Si O2"
_cell_formula_units_Z 64
_cell_length_a 23.557777
_cell_length_b 9.421502
_cell_length_c 14.259145
_cell_angle_alpha 90.000000
_cell_angle_beta 90.000000
_cell_angle_gamma 90.000000
_cell_volume 3164.812144
_symmetry_space_group_name_H-M "P C C M"
_symmetry_group_IT_number 49
_symmetry_cell_setting 'orthorhombic'
loop_
_space_group_symop_operation_xyz
x,y,z
-x,-y,z
x,-y,1/2-z
-x,y,1/2-z
-x,-y,-z
x,y,-z
-x,y,1/2+z
x,-y,1/2+z
loop_
_atom_site_type_symbol
_atom_site_label
_atom_site_fract_x
_atom_site_fract_y
_atom_site_fract_z
Si Si1 0.898696 0.337652 0.776652
Si Si2 0.346182 0.275053 0.112315
Si Si3 0.951823 0.889817 0.389695
Si Si4 0.664363 0.605455 0.389019
Si Si5 0.564971 0.671702 0.747883
Si Si6 0.214692 0.246663 0.386826
Si Si7 0.250885 0.062193 0.890059
Si Si8 0.874076 0.856511 0.894010
O O1 0.907053 0.500000 0.750000
O O2 0.945891 0.259435 0.839500
O O3 0.838602 0.312576 0.831401
O O4 0.898612 0.247880 0.681449
O O5 0.331086 0.438420 0.136918
O O6 0.406431 0.259663 0.160996
O O7 0.301856 0.157403 0.147779
O O8 0.348179 0.266503 0.000000
O O9 0.959464 0.867171 0.500000
O O10 0.894294 0.981997 0.375243
O O11 0.000000 0.000000 0.357926
O O12 0.651262 0.613284 0.500000
O O13 0.613533 0.685508 0.333447
O O14 0.727031 0.667168 0.374766
O O15 0.560666 0.500000 0.750000
O O16 0.500000 0.723130 0.750000
O O17 0.201186 0.240477 0.500000
O O18 0.232390 0.089819 0.350570
O O19 0.193508 0.153168 0.889410
O O20 0.264786 0.032398 0.000000
O O21 0.893116 0.825049 0.000000
#
# Coordination Sequence:
#
# PCOD9394481 Si02
#       8
#     8   8   8   8   8   8   8   8
#     4  12  26  38  62 101 135 168 206 266 325 375
#     4   9  18  32  53  80 107 144 195 251 302 358
#     4  10  22  46  75  96 125 172 221 264 307 365
#     4   9  19  33  51  78 113 152 192 245 312 378
#     4   9  18  32  51  76 109 147 192 250 308 375
#     4  10  21  38  59  86 126 166 204 253 315 381
#     4   9  18  34  56  81 115 154 199 248 296 357
#     4  10  22  40  60  90 126 168 214 253 302 371
#
# _framework density 20.222370000000002
#
# number of rings (size 3 to 8) (size 9 to 14) (size 15 to 20)
#    0.000    2.250    1.250    0.750    3.500    3.000 
#    0.000    3.750    0.000    3.750    0.000    3.500 
#    0.000    0.000    0.000    0.000    0.000    0.000 
#
# Total GULP energy -356953.883706 kJ/mol
# GULP energy per Si atom -5577.404433 kJ/mol
# Density = 2.017634 g / cm^3
# Si number density = 20.222370 Si / 1000 Ang^3
#
#
#
# Elastic Constant Matrix: (Units=GPa)
#
#
# Indices 1 2 3 4 5 6 
#
# 1 112.5558 46.3345 25.8079 0.0000 0.0000 0.0000
# 2 46.3345 107.3974 51.8784 0.0000 0.0000 0.0000
# 3 25.8079 51.8784 74.2217 0.0000 0.0000 0.0000
# 4 0.0000 0.0000 0.0000 12.4550 0.0000 0.0000
# 5 0.0000 0.0000 0.0000 0.0000 23.7954 0.0000
# 6 0.0000 0.0000 0.0000 0.0000 0.0000 19.0283
#
#
#
# Elastic Compliance Matrix: (Units=1/GPa)
#
#
# Indices 1 2 3 4 5 6 
#
# 1 0.010831 -0.004308 -0.000755 0.000000 0.000000 0.000000
# 2 -0.004308 0.015771 -0.009526 0.000000 0.000000 0.000000
# 3 -0.000755 -0.009526 0.020394 0.000000 0.000000 0.000000
# 4 0.000000 0.000000 0.000000 0.080289 0.000000 0.000000
# 5 0.000000 0.000000 0.000000 0.000000 0.042025 0.000000
# 6 0.000000 0.000000 0.000000 0.000000 0.000000 0.052553
#
#
# Mechanical properties :
#
#
# Convention : Reuss Voigt Hill
#
# Bulk Modulus (GPa) = 56.12050 60.24628 58.18339
# Shear Modulus (GPa) = 19.45678 22.39934 20.92806
#
# Velocity S-wave (km/s) = 3.10521 3.33175 3.22047
# Velocity P-wave (km/s) = 6.37717 6.68261 6.53168
#
# Compressibility (1/GPa) = 0.01781880
#
# Stress axis : x y z
#
# Youngs Moduli (GPa) = 92.32694 63.40658 49.03496
#
# Poissons Ratio (x) = 0.27317 0.03701
# Poissons Ratio (y) = 0.39777 0.46708
# Poissons Ratio (z) = 0.06969 0.60398
#
# Static dielectric constant tensor:
#      x y z
#    x 1.757310 0.000000 0.000000 
#    y 0.000000 1.716260 0.000000 
#    z 0.000000 0.000000 1.770120 
# 
# From -- ./inp_files/14524.got.cif
#   From: 2010.05.17/outbox.cif.g08.bks.cpg/sg49_8_cif.got.tgz:14524.got - 2010.06.03 21:02:19.
