data_PCOD9394226
_publ_section_title
;
Structure prediction by ZEFSAII (Michael W. Deem and Ramdas Pophale) SiO2 
 PCOD9394226
Probable space group: P C C M
;
_chemical_formula_sum "Si O2"
_cell_formula_units_Z 64
_cell_length_a 15.948213
_cell_length_b 9.645222
_cell_length_c 21.949722
_cell_angle_alpha 90.000000
_cell_angle_beta 90.000000
_cell_angle_gamma 90.000000
_cell_volume 3376.395242
_symmetry_space_group_name_H-M "P C C M"
_symmetry_group_IT_number 49
_symmetry_cell_setting 'orthorhombic'
loop_
_space_group_symop_operation_xyz
x,y,z
-x,-y,z
x,-y,1/2-z
-x,y,1/2-z
-x,-y,-z
x,y,-z
-x,y,1/2+z
x,-y,1/2+z
loop_
_atom_site_type_symbol
_atom_site_label
_atom_site_fract_x
_atom_site_fract_y
_atom_site_fract_z
Si Si1 0.083156 0.591624 0.141778
Si Si2 0.171782 0.093062 0.928694
Si Si3 0.743451 0.848203 0.634691
Si Si4 0.750632 0.445261 0.072825
Si Si5 0.028866 0.847325 0.663262
Si Si6 0.594451 0.963083 0.821741
Si Si7 0.702867 0.290279 0.643255
Si Si8 0.831770 0.717990 0.747886
O O1 0.149729 0.544354 0.090953
O O2 0.136318 0.595944 0.203904
O O3 0.000000 0.500000 0.143159
O O4 0.046414 0.747466 0.142847
O O5 0.087217 0.135063 0.895348
O O6 0.242933 0.192933 0.901514
O O7 0.196836 0.939337 0.907973
O O8 0.165971 0.105908 0.000000
O O9 0.726764 0.702150 0.602470
O O10 0.788705 0.824595 0.699974
O O11 0.659950 0.935702 0.645429
O O12 0.697887 0.565271 0.107023
O O13 0.740849 0.450133 0.000000
O O14 0.088308 0.779580 0.715430
O O15 0.000000 0.000000 0.681585
O O16 0.623981 0.804917 0.836257
O O17 0.500000 0.000000 0.840584
O O18 0.601108 0.000000 0.750000
O O19 0.760702 0.314685 0.702726
#
# Coordination Sequence:
#
# PCOD9394226 Si02
#       8
#     8   8   8   8   8   8   8   8
#     4  11  24  37  53  80 114 160 203 260 315 348
#     4  10  21  36  54  76 108 158 210 251 298 351
#     4  10  21  37  62  88 119 158 196 247 296 362
#     4  11  24  41  60  84 117 165 215 251 291 347
#     4  11  23  33  50  76 109 150 199 264 315 350
#     4  10  20  39  67 100 130 148 175 233 304 371
#     4  10  21  37  63  87 116 155 193 240 288 363
#     4  10  21  36  54  80 113 146 197 239 299 361
#
# _framework density 18.955127000000001
#
# number of rings (size 3 to 8) (size 9 to 14) (size 15 to 20)
#    0.000    1.625    1.250    4.125    0.000   12.000 
#    0.000    0.625    0.000   15.750    0.000    0.000 
#    0.000    0.000    0.000    0.000    0.000    0.000 
#
# Total GULP energy -357300.625144 kJ/mol
# GULP energy per Si atom -5582.822268 kJ/mol
# Density = 1.891198 g / cm^3
# Si number density = 18.955127 Si / 1000 Ang^3
#
#
#
# Elastic Constant Matrix: (Units=GPa)
#
#
# Indices 1 2 3 4 5 6 
#
# 1 93.7865 24.1341 27.0446 0.0000 0.0000 0.0000
# 2 24.1341 100.0585 20.6842 0.0000 0.0000 0.0000
# 3 27.0446 20.6842 125.2762 0.0000 0.0000 0.0000
# 4 0.0000 0.0000 0.0000 19.0187 0.0000 0.0000
# 5 0.0000 0.0000 0.0000 0.0000 4.0531 0.0000
# 6 0.0000 0.0000 0.0000 0.0000 0.0000 25.6783
#
#
#
# Elastic Compliance Matrix: (Units=1/GPa)
#
#
# Indices 1 2 3 4 5 6 
#
# 1 0.011913 -0.002424 -0.002171 0.000000 0.000000 0.000000
# 2 -0.002424 0.010841 -0.001267 0.000000 0.000000 0.000000
# 3 -0.002171 -0.001267 0.008660 0.000000 0.000000 0.000000
# 4 0.000000 0.000000 0.000000 0.052580 0.000000 0.000000
# 5 0.000000 0.000000 0.000000 0.000000 0.246722 0.000000
# 6 0.000000 0.000000 0.000000 0.000000 0.000000 0.038943
#
#
# Mechanical properties :
#
#
# Convention : Reuss Voigt Hill
#
# Bulk Modulus (GPa) = 50.79016 51.42744 51.10880
# Shear Modulus (GPa) = 12.88837 26.23390 19.56114
#
# Velocity S-wave (km/s) = 2.61040 3.72425 3.21592
# Velocity P-wave (km/s) = 5.99489 6.75895 6.38835
#
# Compressibility (1/GPa) = 0.01968885
#
# Stress axis : x y z
#
# Youngs Moduli (GPa) = 83.94510 92.24458 115.47031
#
# Poissons Ratio (x) = 0.22364 0.25073
# Poissons Ratio (y) = 0.20352 0.14624
# Poissons Ratio (z) = 0.18228 0.11683
#
# Static dielectric constant tensor:
#      x y z
#    x 1.657600 0.000000 0.000000 
#    y 0.000000 1.748290 0.000000 
#    z 0.000000 0.000000 1.655630 
# 
# From -- ./inp_files/21068.got.cif
#   From: 2010.05.17/outbox.cif.g08.bks.cpg/sg49_11_cif.got.tgz:21068.got - 2010.06.03 21:02:19.
