data_PCOD9394877
_publ_section_title
;
Structure prediction by ZEFSAII (Michael W. Deem and Ramdas Pophale) SiO2 
 PCOD9394877
Probable space group: P C C M
;
_chemical_formula_sum "Si O2"
_cell_formula_units_Z 34
_cell_length_a 19.910903
_cell_length_b 5.181466
_cell_length_c 14.311405
_cell_angle_alpha 90.000000
_cell_angle_beta 90.000000
_cell_angle_gamma 90.000000
_cell_volume 1476.474264
_symmetry_space_group_name_H-M "P C C M"
_symmetry_group_IT_number 49
_symmetry_cell_setting 'orthorhombic'
loop_
_space_group_symop_operation_xyz
x,y,z
-x,-y,z
x,-y,1/2-z
-x,y,1/2-z
-x,-y,-z
x,y,-z
-x,y,1/2+z
x,-y,1/2+z
loop_
_atom_site_type_symbol
_atom_site_label
_atom_site_fract_x
_atom_site_fract_y
_atom_site_fract_z
Si Si1 0.425094 0.246774 0.292598
Si Si2 0.392835 0.154317 0.500000
Si Si3 0.806123 0.387076 0.648611
Si Si4 0.306388 0.348728 0.000000
Si Si5 0.107193 0.119237 0.606615
Si Si6 0.000000 0.000000 0.250000
O O1 0.391904 0.500000 0.250000
O O2 0.500000 0.247983 0.250000
O O3 0.430387 0.218932 0.403548
O O4 0.388659 0.000000 0.250000
O O5 0.332290 0.358600 0.500000
O O6 0.365984 0.861560 0.500000
O O7 0.789404 0.500000 0.750000
O O8 0.740599 0.316073 0.589631
O O9 0.846597 0.627409 0.604646
O O10 0.852259 0.131441 0.644253
O O11 0.085483 0.064592 0.500000
O O12 0.046794 0.161302 0.679410
#
# Coordination Sequence:
#
# PCOD9394877 Si02
#       6
#     8   4   8   4   8   2
#     4  10  23  43  71 104 146 190 231 287 358 426
#     4  12  26  44  71 110 144 185 246 300 339 425
#     4  12  24  46  71  95 135 187 236 288 362 423
#     4  12  26  44  73  99 142 186 246 296 347 407
#     4  12  24  44  69 100 139 178 232 295 357 424
#     4  12  26  42  72 108 140 182 238 306 338 420
#
# _framework density 23.027829000000001
#
# number of rings (size 3 to 8) (size 9 to 14) (size 15 to 20)
#    0.000    0.471    4.706    3.176    0.000    8.471 
#    0.000    2.353    0.000    0.000    0.000    0.000 
#    0.000    0.000    0.000    0.000    0.000    0.000 
#
# Total GULP energy -190154.677933 kJ/mol
# GULP energy per Si atom -5592.784645 kJ/mol
# Density = 2.297542 g / cm^3
# Si number density = 23.027829 Si / 1000 Ang^3
#
#
#
# Elastic Constant Matrix: (Units=GPa)
#
#
# Indices 1 2 3 4 5 6 
#
# 1 54.1424 -0.3289 39.1987 0.0000 0.0000 0.0000
# 2 -0.3289 150.4639 15.6444 0.0000 0.0000 0.0000
# 3 39.1987 15.6444 222.6590 0.0000 0.0000 0.0000
# 4 0.0000 0.0000 0.0000 48.4798 0.0000 0.0000
# 5 0.0000 0.0000 0.0000 0.0000 25.7512 0.0000
# 6 0.0000 0.0000 0.0000 0.0000 0.0000 6.1087
#
#
#
# Elastic Compliance Matrix: (Units=1/GPa)
#
#
# Indices 1 2 3 4 5 6 
#
# 1 0.021196 0.000438 -0.003762 0.000000 0.000000 0.000000
# 2 0.000438 0.006704 -0.000548 0.000000 0.000000 0.000000
# 3 -0.003762 -0.000548 0.005192 0.000000 0.000000 0.000000
# 4 0.000000 0.000000 0.000000 0.020627 0.000000 0.000000
# 5 0.000000 0.000000 0.000000 0.000000 0.038833 0.000000
# 6 0.000000 0.000000 0.000000 0.000000 0.000000 0.163700
#
#
# Mechanical properties :
#
#
# Convention : Reuss Voigt Hill
#
# Bulk Modulus (GPa) = 39.45287 59.58821 49.52054
# Shear Modulus (GPa) = 18.35213 40.91801 29.63507
#
# Velocity S-wave (km/s) = 2.82610 4.21989 3.59126
# Velocity P-wave (km/s) = 5.27437 7.04813 6.22475
#
# Compressibility (1/GPa) = 0.02534670
#
# Stress axis : x y z
#
# Youngs Moduli (GPa) = 47.17793 149.16346 192.60289
#
# Poissons Ratio (x) = -0.06526 0.72463
# Poissons Ratio (y) = -0.02064 0.10556
# Poissons Ratio (z) = 0.17750 0.08175
#
# Static dielectric constant tensor:
#      x y z
#    x 4.229960 0.000000 0.000000 
#    y 0.000000 1.343770 0.000000 
#    z 0.000000 0.000000 1.886540 
# 
# From -- ./inp_files/14305.got.cif
#   From: 2010.05.17/outbox.cif.g08.bks.cpg/sg49_8_cif.got.tgz:14305.got - 2010.06.03 21:02:19.
