data_PCOD9394613
_publ_section_title
;
Structure prediction by ZEFSAII (Michael W. Deem and Ramdas Pophale) SiO2 
 PCOD9394613
Probable space group: P C C M
;
_chemical_formula_sum "Si O2"
_cell_formula_units_Z 54
_cell_length_a 29.463384
_cell_length_b 5.561013
_cell_length_c 14.605661
_cell_angle_alpha 90.000000
_cell_angle_beta 90.000000
_cell_angle_gamma 90.000000
_cell_volume 2393.082951
_symmetry_space_group_name_H-M "P C C M"
_symmetry_group_IT_number 49
_symmetry_cell_setting 'orthorhombic'
loop_
_space_group_symop_operation_xyz
x,y,z
-x,-y,z
x,-y,1/2-z
-x,y,1/2-z
-x,-y,-z
x,y,-z
-x,y,1/2+z
x,-y,1/2+z
loop_
_atom_site_type_symbol
_atom_site_label
_atom_site_fract_x
_atom_site_fract_y
_atom_site_fract_z
Si Si1 0.170824 0.370475 0.892021
Si Si2 0.975775 0.751462 0.388569
Si Si3 0.541408 0.314526 0.096963
Si Si4 0.277938 0.307612 0.899668
Si Si5 0.323418 0.000000 0.250000
Si Si6 0.361630 0.390441 0.648532
Si Si7 0.872095 0.862153 0.387526
Si Si8 0.500000 0.000000 0.750000
O O1 0.225288 0.368410 0.889644
O O2 0.155874 0.629532 0.854481
O O3 0.147512 0.122613 0.856586
O O4 0.157682 0.374999 0.000000
O O5 0.976744 0.742614 0.500000
O O6 0.923584 0.794462 0.361546
O O7 0.000000 0.500000 0.358807
O O8 0.000000 0.000000 0.360988
O O9 0.500000 0.500000 0.096782
O O10 0.590361 0.439261 0.103454
O O11 0.532188 0.153545 0.184501
O O12 0.540965 0.178699 0.000000
O O13 0.315943 0.517228 0.898840
O O14 0.291042 0.169441 0.807956
O O15 0.282384 0.184132 0.000000
O O16 0.354777 0.888619 0.170964
O O17 0.363503 0.500000 0.750000
O O18 0.870124 0.870965 0.500000
#
# Coordination Sequence:
#
# PCOD9394613 Si02
#       8
#     8   8   8   8   4   8   8   2
#     4   9  18  30  48  73 104 148 201 255 313 375
#     4   9  15  22  35  57  91 140 194 245 304 370
#     4  11  24  41  64  92 124 163 207 256 313 380
#     4  10  22  38  60  87 118 161 208 256 316 384
#     4  10  23  40  62  91 122 156 207 258 319 376
#     4  10  21  40  61  87 121 158 202 254 317 379
#     4   9  16  27  42  66 102 144 200 257 307 376
#     4  12  22  40  64  92 128 164 204 256 318 380
#
# _framework density 22.565033
#
# number of rings (size 3 to 8) (size 9 to 14) (size 15 to 20)
#    0.000    2.222    0.000    3.111    2.074    5.926 
#    0.000    0.000    0.000    0.000    0.000    0.000 
#    0.000    0.000    0.000   10.000    0.593   24.444 
#
# Total GULP energy -301062.755859 kJ/mol
# GULP energy per Si atom -5575.236220 kJ/mol
# Density = 2.251367 g / cm^3
# Si number density = 22.565033 Si / 1000 Ang^3
#
#
#
# Elastic Constant Matrix: (Units=GPa)
#
#
# Indices 1 2 3 4 5 6 
#
# 1 151.4487 75.5771 28.2156 0.0000 0.0000 0.0000
# 2 75.5771 123.7411 22.5306 0.0000 0.0000 0.0000
# 3 28.2156 22.5306 90.6801 0.0000 0.0000 0.0000
# 4 0.0000 0.0000 0.0000 19.0552 0.0000 0.0000
# 5 0.0000 0.0000 0.0000 0.0000 17.1470 0.0000
# 6 0.0000 0.0000 0.0000 0.0000 0.0000 23.5716
#
#
#
# Elastic Compliance Matrix: (Units=1/GPa)
#
#
# Indices 1 2 3 4 5 6 
#
# 1 0.009721 -0.005641 -0.001623 0.000000 0.000000 0.000000
# 2 -0.005641 0.011738 -0.001161 0.000000 0.000000 0.000000
# 3 -0.001623 -0.001161 0.011821 0.000000 0.000000 0.000000
# 4 0.000000 0.000000 0.000000 0.052479 0.000000 0.000000
# 5 0.000000 0.000000 0.000000 0.000000 0.058319 0.000000
# 6 0.000000 0.000000 0.000000 0.000000 0.000000 0.042424
#
#
# Mechanical properties :
#
#
# Convention : Reuss Voigt Hill
#
# Bulk Modulus (GPa) = 60.86761 68.72406 64.79584
# Shear Modulus (GPa) = 23.94293 27.92454 25.93374
#
# Velocity S-wave (km/s) = 3.26093 3.52165 3.39379
# Velocity P-wave (km/s) = 6.41959 6.85989 6.64339
#
# Compressibility (1/GPa) = 0.01642910
#
# Stress axis : x y z
#
# Youngs Moduli (GPa) = 102.87532 85.19011 84.59334
#
# Poissons Ratio (x) = 0.48060 0.13729
# Poissons Ratio (y) = 0.58037 0.09823
# Poissons Ratio (z) = 0.16696 0.09892
#
# Static dielectric constant tensor:
#      x y z
#    x 1.831410 0.000000 0.000000 
#    y 0.000000 2.007060 0.000000 
#    z 0.000000 0.000000 1.881240 
# 
# From -- ./inp_files/14651.got.cif
#   From: 2010.05.17/outbox.cif.g08.bks.cpg/sg49_8_cif.got.tgz:14651.got - 2010.06.03 21:02:19.
