data_PCOD9394819
_publ_section_title
;
Structure prediction by ZEFSAII (Michael W. Deem and Ramdas Pophale) SiO2 
 PCOD9394819
Probable space group: P C C M
;
_chemical_formula_sum "Si O2"
_cell_formula_units_Z 64
_cell_length_a 15.160113
_cell_length_b 11.665256
_cell_length_c 17.936193
_cell_angle_alpha 90.000000
_cell_angle_beta 90.000000
_cell_angle_gamma 90.000000
_cell_volume 3171.954733
_symmetry_space_group_name_H-M "P C C M"
_symmetry_group_IT_number 49
_symmetry_cell_setting 'orthorhombic'
loop_
_space_group_symop_operation_xyz
x,y,z
-x,-y,z
x,-y,1/2-z
-x,y,1/2-z
-x,-y,-z
x,y,-z
-x,y,1/2+z
x,-y,1/2+z
loop_
_atom_site_type_symbol
_atom_site_label
_atom_site_fract_x
_atom_site_fract_y
_atom_site_fract_z
Si Si1 0.398757 0.027973 0.661482
Si Si2 0.878746 0.527590 0.834107
Si Si3 0.316932 0.271433 0.649822
Si Si4 0.751373 0.868271 0.910657
Si Si5 0.697825 0.646792 0.818831
Si Si6 0.875122 0.715978 0.588651
Si Si7 0.065700 0.766198 0.589573
Si Si8 0.603074 0.496543 0.920088
O O1 0.317057 0.960722 0.622703
O O2 0.500000 0.000000 0.637358
O O3 0.394133 0.000000 0.750000
O O4 0.378382 0.160669 0.646951
O O5 0.908330 0.500000 0.750000
O O6 0.775578 0.554832 0.827656
O O7 0.891858 0.414674 0.883555
O O8 0.915321 0.645541 0.868660
O O9 0.311130 0.311237 0.735385
O O10 0.216557 0.244733 0.624834
O O11 0.356713 0.373395 0.600276
O O12 0.718280 0.750650 0.874014
O O13 0.857554 0.859393 0.892405
O O14 0.744627 0.871180 0.000000
O O15 0.615912 0.581227 0.851341
O O16 0.864510 0.715998 0.500000
O O17 0.962798 0.790026 0.607023
O O18 0.071474 0.746601 0.500000
O O19 0.500000 0.500000 0.929670
O O20 0.644522 0.534160 0.000000
#
# Coordination Sequence:
#
# PCOD9394819 Si02
#       8
#     8   8   8   8   8   8   8   8
#     4  11  26  47  71  98 128 167 218 279 334 392
#     4  11  19  33  54  92 131 170 212 260 310 384
#     4  12  24  42  67  93 131 172 219 270 334 393
#     4  10  22  43  69  93 127 173 221 273 324 385
#     4  11  21  40  62  92 130 172 214 260 324 394
#     4  11  22  38  59  91 132 174 216 264 325 388
#     4   9  21  38  60  89 128 175 220 265 320 386
#     4  11  25  40  60  95 135 172 215 266 329 403
#
# _framework density 20.176833999999999
#
# number of rings (size 3 to 8) (size 9 to 14) (size 15 to 20)
#    0.000    1.250    3.750    1.875    1.750    5.250 
#    0.000    0.625    0.000    3.000    0.000    0.000 
#    0.000    0.000    0.000    0.000    0.000    0.000 
#
# Total GULP energy -356919.407311 kJ/mol
# GULP energy per Si atom -5576.865739 kJ/mol
# Density = 2.013091 g / cm^3
# Si number density = 20.176834 Si / 1000 Ang^3
#
#
#
# Elastic Constant Matrix: (Units=GPa)
#
#
# Indices 1 2 3 4 5 6 
#
# 1 151.2155 40.6687 55.6181 0.0000 0.0000 0.0000
# 2 40.6687 47.4332 24.6812 0.0000 0.0000 0.0000
# 3 55.6181 24.6812 88.1223 0.0000 0.0000 0.0000
# 4 0.0000 0.0000 0.0000 -35.6881 0.0000 0.0000
# 5 0.0000 0.0000 0.0000 0.0000 16.2154 0.0000
# 6 0.0000 0.0000 0.0000 0.0000 0.0000 5.6916
#
#
#
# Elastic Compliance Matrix: (Units=1/GPa)
#
#
# Indices 1 2 3 4 5 6 
#
# 1 0.009943 -0.006157 -0.004551 0.000000 0.000000 0.000000
# 2 -0.006157 0.028491 -0.004094 0.000000 0.000000 0.000000
# 3 -0.004551 -0.004094 0.015367 0.000000 0.000000 0.000000
# 4 0.000000 0.000000 0.000000 -0.028021 0.000000 0.000000
# 5 0.000000 0.000000 0.000000 0.000000 0.061670 0.000000
# 6 0.000000 0.000000 0.000000 0.000000 0.000000 0.175699
#
#
# Mechanical properties :
#
#
# Convention : Reuss Voigt Hill
#
# Bulk Modulus (GPa) = 41.32668 58.74520 50.03594
# Shear Modulus (GPa) = 16.62135 8.29730 12.45932
#
# Velocity S-wave (km/s) = 2.87328 2.03008 2.48766
# Velocity P-wave (km/s) = 5.61554 5.88841 5.75359
#
# Compressibility (1/GPa) = 0.02419745
#
# Stress axis : x y z
#
# Youngs Moduli (GPa) = 100.57522 35.09844 65.07524
#
# Poissons Ratio (x) = 0.21609 0.29616
# Poissons Ratio (y) = 0.61922 0.26641
# Poissons Ratio (z) = 0.45772 0.14369
#
# Static dielectric constant tensor:
#      x y z
#    x 1.809770 0.000000 0.000000 
#    y 0.000000 0.908460 0.000000 
#    z 0.000000 0.000000 1.700780 
# 
# From -- ./inp_files/17972.got.cif
#   From: 2010.05.17/outbox.cif.g08.bks.cpg/sg49_9_cif.got.tgz:17972.got - 2010.06.03 21:02:19.
