data_PCOD9394426
_publ_section_title
;
Structure prediction by ZEFSAII (Michael W. Deem and Ramdas Pophale) SiO2 
 PCOD9394426
Probable space group: P C C M
;
_chemical_formula_sum "Si O2"
_cell_formula_units_Z 48
_cell_length_a 31.084132
_cell_length_b 9.534307
_cell_length_c 8.715726
_cell_angle_alpha 90.000000
_cell_angle_beta 90.000000
_cell_angle_gamma 90.000000
_cell_volume 2583.041865
_symmetry_space_group_name_H-M "P C C M"
_symmetry_group_IT_number 49
_symmetry_cell_setting 'orthorhombic'
loop_
_space_group_symop_operation_xyz
x,y,z
-x,-y,z
x,-y,1/2-z
-x,y,1/2-z
-x,-y,-z
x,y,-z
-x,y,1/2+z
x,-y,1/2+z
loop_
_atom_site_type_symbol
_atom_site_label
_atom_site_fract_x
_atom_site_fract_y
_atom_site_fract_z
Si Si1 0.127974 0.343480 0.815746
Si Si2 0.455248 0.156538 0.316944
Si Si3 0.380324 0.345005 0.183201
Si Si4 0.794698 0.843414 0.316606
Si Si5 0.953124 0.152891 0.316424
Si Si6 0.280420 0.343973 0.816531
O O1 0.129574 0.500000 0.750000
O O2 0.165966 0.249635 0.746193
O O3 0.082953 0.266938 0.777640
O O4 0.132406 0.347559 0.000000
O O5 0.500000 0.216716 0.250000
O O6 0.457737 0.151587 0.500000
O O7 0.414304 0.243326 0.261683
O O8 0.451569 0.000000 0.250000
O O9 0.386831 0.500000 0.250000
O O10 0.330402 0.307472 0.213818
O O11 0.386538 0.344977 0.000000
O O12 0.795992 0.848467 0.500000
O O13 0.751498 0.766252 0.259985
O O14 0.797227 0.000000 0.250000
O O15 0.956058 0.141567 0.500000
O O16 0.000000 0.188811 0.250000
O O17 0.941077 0.000000 0.250000
O O18 0.272490 0.500000 0.750000
O O19 0.273792 0.346763 0.000000
#
# Coordination Sequence:
#
# PCOD9394426 Si02
#       6
#     8   8   8   8   8   8
#     4  11  24  41  61  87 118 155 196 239 290 344
#     4  11  22  38  59  83 114 151 192 238 288 342
#     4  10  21  38  60  87 117 151 191 235 285 340
#     4  12  25  41  62  87 117 152 193 240 288 342
#     4  10  21  37  60  87 117 153 193 238 288 343
#     4  10  21  39  62  87 118 153 190 234 285 342
#
# _framework density 18.582743000000001
#
# number of rings (size 3 to 8) (size 9 to 14) (size 15 to 20)
#    0.000    1.333    0.000    7.000    0.000    7.333 
#    0.000    3.333    0.000    0.000    0.000    0.000 
#    0.000    0.000    0.000    0.000    0.000    0.000 
#
# Total GULP energy -268428.517235 kJ/mol
# GULP energy per Si atom -5592.260776 kJ/mol
# Density = 1.854045 g / cm^3
# Si number density = 18.582743 Si / 1000 Ang^3
#
#
#
# Elastic Constant Matrix: (Units=GPa)
#
#
# Indices 1 2 3 4 5 6 
#
# 1 137.3166 117.8501 90.5332 0.0000 0.0000 0.0000
# 2 117.8501 151.4233 83.4190 0.0000 0.0000 0.0000
# 3 90.5332 83.4190 142.6848 0.0000 0.0000 0.0000
# 4 0.0000 0.0000 0.0000 35.3110 0.0000 0.0000
# 5 0.0000 0.0000 0.0000 0.0000 24.9889 0.0000
# 6 0.0000 0.0000 0.0000 0.0000 0.0000 48.2212
#
#
#
# Elastic Compliance Matrix: (Units=1/GPa)
#
#
# Indices 1 2 3 4 5 6 
#
# 1 0.025763 -0.016293 -0.006821 0.000000 0.000000 0.000000
# 2 -0.016293 0.020046 -0.001382 0.000000 0.000000 0.000000
# 3 -0.006821 -0.001382 0.012144 0.000000 0.000000 0.000000
# 4 0.000000 0.000000 0.000000 0.028320 0.000000 0.000000
# 5 0.000000 0.000000 0.000000 0.000000 0.040018 0.000000
# 6 0.000000 0.000000 0.000000 0.000000 0.000000 0.020738
#
#
# Mechanical properties :
#
#
# Convention : Reuss Voigt Hill
#
# Bulk Modulus (GPa) = 111.58903 112.78103 112.18503
# Shear Modulus (GPa) = 25.12487 31.01239 28.06863
#
# Velocity S-wave (km/s) = 3.68102 4.08963 3.89069
# Velocity P-wave (km/s) = 8.84572 9.11719 8.98248
#
# Compressibility (1/GPa) = 0.00896145
#
# Stress axis : x y z
#
# Youngs Moduli (GPa) = 38.81567 49.88588 82.34519
#
# Poissons Ratio (x) = 0.81280 0.56167
# Poissons Ratio (y) = 0.63243 0.11377
# Poissons Ratio (z) = 0.26476 0.06892
#
# Static dielectric constant tensor:
#      x y z
#    x 1.638160 0.000000 0.000000 
#    y 0.000000 1.594270 0.000000 
#    z 0.000000 0.000000 1.619030 
# 
# From -- ./inp_files/2074.got.cif
#   From: 2010.05.17/outbox.cif.g08.bks.cpg/sg49_2_cif.got.tgz:2074.got - 2010.06.03 21:02:19.
