data_PCOD9394152
_publ_section_title
;
Structure prediction by ZEFSAII (Michael W. Deem and Ramdas Pophale) SiO2 
 PCOD9394152
Probable space group: P C C M
;
_chemical_formula_sum "Si O2"
_cell_formula_units_Z 64
_cell_length_a 12.591000
_cell_length_b 16.251588
_cell_length_c 17.205489
_cell_angle_alpha 90.000000
_cell_angle_beta 90.000000
_cell_angle_gamma 90.000000
_cell_volume 3520.651585
_symmetry_space_group_name_H-M "P C C M"
_symmetry_group_IT_number 49
_symmetry_cell_setting 'orthorhombic'
loop_
_space_group_symop_operation_xyz
x,y,z
-x,-y,z
x,-y,1/2-z
-x,y,1/2-z
-x,-y,-z
x,y,-z
-x,y,1/2+z
x,-y,1/2+z
loop_
_atom_site_type_symbol
_atom_site_label
_atom_site_fract_x
_atom_site_fract_y
_atom_site_fract_z
Si Si1 0.336599 0.981258 0.091887
Si Si2 0.486513 0.124257 0.841592
Si Si3 0.388778 0.462422 0.906221
Si Si4 0.167313 0.491140 0.343207
Si Si5 0.007651 0.362185 0.843985
Si Si6 0.637290 0.725816 0.907399
Si Si7 0.115159 0.027207 0.159745
Si Si8 0.124611 0.207716 0.907582
O O1 0.402715 0.901746 0.118827
O O2 0.398966 0.057892 0.130355
O O3 0.215145 0.985185 0.117949
O O4 0.344482 0.990462 0.000000
O O5 0.500000 0.117266 0.750000
O O6 0.442589 0.212307 0.865865
O O7 0.500000 0.500000 0.879412
O O8 0.284844 0.508542 0.876153
O O9 0.378705 0.367575 0.881661
O O10 0.387019 0.464492 0.000000
O O11 0.170594 0.500000 0.250000
O O12 0.100016 0.572299 0.367131
O O13 0.100447 0.410107 0.365795
O O14 0.037722 0.275390 0.881855
O O15 0.000000 0.353231 0.750000
O O16 0.758810 0.753197 0.894413
O O17 0.618384 0.731119 0.000000
O O18 0.120529 0.124638 0.142854
O O19 0.121350 0.000000 0.250000
O O20 0.000000 0.000000 0.129693
O O21 0.114958 0.189204 0.000000
#
# Coordination Sequence:
#
# PCOD9394152 Si02
#       8
#     8   8   8   8   8   8   8   8
#     4  11  21  37  62  87 115 157 199 251 310 359
#     4  11  21  36  59  89 120 149 202 254 302 355
#     4  10  21  38  59  84 120 163 200 243 302 361
#     4   9  18  36  57  90 121 160 197 249 303 359
#     4   9  19  35  61  89 125 154 198 251 306 352
#     4  10  20  38  60  86 119 156 200 246 294 355
#     4  11  25  42  61  87 122 160 200 246 314 371
#     4  11  22  38  64  91 117 157 208 252 295 367
#
# _framework density 18.178453000000001
#
# number of rings (size 3 to 8) (size 9 to 14) (size 15 to 20)
#    0.000    1.750    2.500    4.125    1.750    1.750 
#    2.250    2.500    0.000    1.500    0.000    0.000 
#    0.000    0.000    0.000    0.000    0.000    0.000 
#
# Total GULP energy -357226.337361 kJ/mol
# GULP energy per Si atom -5581.661521 kJ/mol
# Density = 1.813708 g / cm^3
# Si number density = 18.178453 Si / 1000 Ang^3
#
#
#
# Elastic Constant Matrix: (Units=GPa)
#
#
# Indices 1 2 3 4 5 6 
#
# 1 159.2834 66.8350 48.8665 0.0000 0.0000 0.0000
# 2 66.8350 113.4754 49.9438 0.0000 0.0000 0.0000
# 3 48.8665 49.9438 70.0369 0.0000 0.0000 0.0000
# 4 0.0000 0.0000 0.0000 25.3559 0.0000 0.0000
# 5 0.0000 0.0000 0.0000 0.0000 -6.5359 0.0000
# 6 0.0000 0.0000 0.0000 0.0000 0.0000 38.1708
#
#
#
# Elastic Compliance Matrix: (Units=1/GPa)
#
#
# Indices 1 2 3 4 5 6 
#
# 1 0.008925 -0.003667 -0.003612 0.000000 0.000000 0.000000
# 2 -0.003667 0.014350 -0.007675 0.000000 0.000000 0.000000
# 3 -0.003612 -0.007675 0.022272 0.000000 0.000000 0.000000
# 4 0.000000 0.000000 0.000000 0.039439 0.000000 0.000000
# 5 0.000000 0.000000 0.000000 0.000000 -0.153002 0.000000
# 6 0.000000 0.000000 0.000000 0.000000 0.000000 0.026198
#
#
# Mechanical properties :
#
#
# Convention : Reuss Voigt Hill
#
# Bulk Modulus (GPa) = 63.94349 74.89849 69.42099
# Shear Modulus (GPa) = -746.46306 23.20820 -361.62743
#
# Velocity S-wave (km/s) = -20.28601 3.57695 -14.11962
# Velocity P-wave (km/s) = 22.65931 7.63876 15.08466
#
# Compressibility (1/GPa) = 0.01563881
#
# Stress axis : x y z
#
# Youngs Moduli (GPa) = 112.04608 69.68657 44.90037
#
# Poissons Ratio (x) = 0.25552 0.16220
# Poissons Ratio (y) = 0.41084 0.34460
# Poissons Ratio (z) = 0.40475 0.53482
#
# Static dielectric constant tensor:
#      x y z
#    x 1.620010 0.000000 0.000000 
#    y 0.000000 1.622640 0.000000 
#    z 0.000000 0.000000 1.614670 
# 
# From -- ./inp_files/17285.got.cif
#   From: 2010.05.17/outbox.cif.g08.bks.cpg/sg49_9_cif.got.tgz:17285.got - 2010.06.03 21:02:19.
