data_PCOD9394059
_publ_section_title
;
Structure prediction by ZEFSAII (Michael W. Deem and Ramdas Pophale) SiO2 
 PCOD9394059
Probable space group: P C C M
;
_chemical_formula_sum "Si O2"
_cell_formula_units_Z 32
_cell_length_a 8.217777
_cell_length_b 7.512047
_cell_length_c 26.309841
_cell_angle_alpha 90.000000
_cell_angle_beta 90.000000
_cell_angle_gamma 90.000000
_cell_volume 1624.167709
_symmetry_space_group_name_H-M "P C C M"
_symmetry_group_IT_number 49
_symmetry_cell_setting 'orthorhombic'
loop_
_space_group_symop_operation_xyz
x,y,z
-x,-y,z
x,-y,1/2-z
-x,y,1/2-z
-x,-y,-z
x,y,-z
-x,y,1/2+z
x,-y,1/2+z
loop_
_atom_site_type_symbol
_atom_site_label
_atom_site_fract_x
_atom_site_fract_y
_atom_site_fract_z
Si Si1 0.915122 0.306619 0.443159
Si Si2 0.212949 0.891470 0.697895
Si Si3 0.878218 0.785114 0.352415
Si Si4 0.322277 0.426936 0.142287
O O1 0.884887 0.239107 0.500000
O O2 0.043382 0.202886 0.408103
O O3 0.000000 0.500000 0.447508
O O4 0.757762 0.335503 0.407513
O O5 0.323151 0.720995 0.686776
O O6 0.030656 0.814056 0.686296
O O7 0.229287 0.000000 0.750000
O O8 0.238536 0.048640 0.656955
O O9 0.793787 0.595323 0.344806
O O10 0.500000 0.500000 0.132097
#
# Coordination Sequence:
#
# PCOD9394059 Si02
#       4
#     8   8   8   8
#     4   8  15  31  56  82 108 143 187 230 271 321
#     4  10  20  37  58  79 102 139 191 236 270 319
#     4   9  18  35  57  81 106 139 184 231 271 313
#     4  10  21  36  54  80 117 149 174 221 284 340
#
# _framework density 19.702397999999999
#
# number of rings (size 3 to 8) (size 9 to 14) (size 15 to 20)
#    0.000    2.750    0.000    3.750    0.000    2.500 
#    0.000   25.000    0.000    0.000    0.000   22.750 
#    0.000    0.000    0.000    0.000    0.000    0.000 
#
# Total GULP energy -178210.842601 kJ/mol
# GULP energy per Si atom -5569.088831 kJ/mol
# Density = 1.965755 g / cm^3
# Si number density = 19.702398 Si / 1000 Ang^3
#
#
#
# Elastic Constant Matrix: (Units=GPa)
#
#
# Indices 1 2 3 4 5 6 
#
# 1 48.1137 22.0808 39.6096 0.0000 0.0000 0.0000
# 2 22.0808 121.1911 66.9418 0.0000 0.0000 0.0000
# 3 39.6096 66.9418 128.6472 0.0000 0.0000 0.0000
# 4 0.0000 0.0000 0.0000 22.7695 0.0000 0.0000
# 5 0.0000 0.0000 0.0000 0.0000 6.3836 0.0000
# 6 0.0000 0.0000 0.0000 0.0000 0.0000 16.5421
#
#
#
# Elastic Compliance Matrix: (Units=1/GPa)
#
#
# Indices 1 2 3 4 5 6 
#
# 1 0.027860 -0.000474 -0.008331 0.000000 0.000000 0.000000
# 2 -0.000474 0.011588 -0.005884 0.000000 0.000000 0.000000
# 3 -0.008331 -0.005884 0.013400 0.000000 0.000000 0.000000
# 4 0.000000 0.000000 0.000000 0.043918 0.000000 0.000000
# 5 0.000000 0.000000 0.000000 0.000000 0.156652 0.000000
# 6 0.000000 0.000000 0.000000 0.000000 0.000000 0.060452
#
#
# Mechanical properties :
#
#
# Convention : Reuss Voigt Hill
#
# Bulk Modulus (GPa) = 42.60801 61.69071 52.14936
# Shear Modulus (GPa) = 14.24207 20.42702 17.33454
#
# Velocity S-wave (km/s) = 2.69152 3.22340 2.96939
# Velocity P-wave (km/s) = 5.59748 6.72555 6.18728
#
# Compressibility (1/GPa) = 0.02346976
#
# Stress axis : x y z
#
# Youngs Moduli (GPa) = 35.89317 86.29768 74.62713
#
# Poissons Ratio (x) = 0.04092 0.62174
# Poissons Ratio (y) = 0.01702 0.43909
# Poissons Ratio (z) = 0.29904 0.50775
#
# Static dielectric constant tensor:
#      x y z
#    x 1.723130 0.000000 0.000000 
#    y 0.000000 1.739100 0.000000 
#    z 0.000000 0.000000 1.749730 
# 
# From -- ./inp_files/24239.got.cif
#   From: 2010.05.17/outbox.cif.g08.bks.cpg/sg49_13_cif.got.tgz:24239.got - 2010.06.03 21:02:19.
