data_PCOD9394004
_publ_section_title
;
Structure prediction by ZEFSAII (Michael W. Deem and Ramdas Pophale) SiO2 
 PCOD9394004
Probable space group: P C C M
;
_chemical_formula_sum "Si O2"
_cell_formula_units_Z 48
_cell_length_a 9.112733
_cell_length_b 16.172164
_cell_length_c 14.632906
_cell_angle_alpha 90.000000
_cell_angle_beta 90.000000
_cell_angle_gamma 90.000000
_cell_volume 2156.489587
_symmetry_space_group_name_H-M "P C C M"
_symmetry_group_IT_number 49
_symmetry_cell_setting 'orthorhombic'
loop_
_space_group_symop_operation_xyz
x,y,z
-x,-y,z
x,-y,1/2-z
-x,y,1/2-z
-x,-y,-z
x,y,-z
-x,y,1/2+z
x,-y,1/2+z
loop_
_atom_site_type_symbol
_atom_site_label
_atom_site_fract_x
_atom_site_fract_y
_atom_site_fract_z
Si Si1 0.332952 0.844375 0.280680
Si Si2 0.663063 0.506876 0.892288
Si Si3 0.100791 0.622519 0.894250
Si Si4 0.212496 0.312344 0.108077
Si Si5 0.066547 0.082936 0.147754
Si Si6 0.823186 0.806118 0.402721
O O1 0.500000 0.855366 0.250000
O O2 0.291394 0.758347 0.332168
O O3 0.241635 0.910599 0.341924
O O4 0.254407 0.844091 0.183043
O O5 0.500000 0.500000 0.853383
O O6 0.796624 0.449823 0.854463
O O7 0.697581 0.603076 0.888729
O O8 0.655812 0.481208 0.000000
O O9 0.191336 0.707646 0.896850
O O10 0.946017 0.655022 0.855009
O O11 0.063475 0.598433 0.000000
O O12 0.201081 0.288553 0.000000
O O13 0.000000 0.084184 0.250000
O O14 0.992617 0.163452 0.102556
O O15 0.000000 0.000000 0.105022
O O16 0.762908 0.833881 0.500000
#
# Coordination Sequence:
#
# PCOD9394004 Si02
#       6
#     8   8   8   8   8   8
#     4  11  24  39  62  98 134 165 205 261 328 390
#     4   9  18  31  52  86 124 167 216 270 324 373
#     4   9  17  32  57  85 119 163 215 264 309 367
#     4  10  20  36  59  88 128 173 218 263 318 383
#     4   9  19  40  66  92 123 160 205 254 311 387
#     4  10  21  39  63  91 123 167 215 259 311 383
#
# _framework density 22.258398
#
# number of rings (size 3 to 8) (size 9 to 14) (size 15 to 20)
#    0.000    2.333    1.667    0.500    2.333    3.000 
#    0.000    7.500    0.000    3.000    0.000    0.000 
#    0.000    0.000    0.000    0.000    0.000    0.000 
#
# Total GULP energy -267399.615600 kJ/mol
# GULP energy per Si atom -5570.825325 kJ/mol
# Density = 2.220774 g / cm^3
# Si number density = 22.258398 Si / 1000 Ang^3
#
#
#
# Elastic Constant Matrix: (Units=GPa)
#
#
# Indices 1 2 3 4 5 6 
#
# 1 155.9926 45.8250 26.6753 0.0000 0.0000 0.0000
# 2 45.8250 104.5110 20.2432 0.0000 0.0000 0.0000
# 3 26.6753 20.2432 84.4726 0.0000 0.0000 0.0000
# 4 0.0000 0.0000 0.0000 88.4351 0.0000 0.0000
# 5 0.0000 0.0000 0.0000 0.0000 9.0551 0.0000
# 6 0.0000 0.0000 0.0000 0.0000 0.0000 16.7413
#
#
#
# Elastic Compliance Matrix: (Units=1/GPa)
#
#
# Indices 1 2 3 4 5 6 
#
# 1 0.007578 -0.002998 -0.001674 0.000000 0.000000 0.000000
# 2 -0.002998 0.011220 -0.001742 0.000000 0.000000 0.000000
# 3 -0.001674 -0.001742 0.012784 0.000000 0.000000 0.000000
# 4 0.000000 0.000000 0.000000 0.011308 0.000000 0.000000
# 5 0.000000 0.000000 0.000000 0.000000 0.110436 0.000000
# 6 0.000000 0.000000 0.000000 0.000000 0.000000 0.059732
#
#
# Mechanical properties :
#
#
# Convention : Reuss Voigt Hill
#
# Bulk Modulus (GPa) = 53.32482 58.94037 56.13259
# Shear Modulus (GPa) = 21.53885 39.66181 30.60033
#
# Velocity S-wave (km/s) = 3.11412 4.22581 3.71182
# Velocity P-wave (km/s) = 6.07779 7.09560 6.60632
#
# Compressibility (1/GPa) = 0.01875300
#
# Stress axis : x y z
#
# Youngs Moduli (GPa) = 131.96664 89.12301 78.22034
#
# Poissons Ratio (x) = 0.26721 0.13097
# Poissons Ratio (y) = 0.39567 0.13627
# Poissons Ratio (z) = 0.22097 0.15526
#
# Static dielectric constant tensor:
#      x y z
#    x 1.906130 0.000000 0.000000 
#    y 0.000000 1.866930 0.000000 
#    z 0.000000 0.000000 1.869470 
# 
# From -- ./inp_files/11856.got.cif
#   From: 2010.05.17/outbox.cif.g08.bks.cpg/sg49_6_cif.got.tgz:11856.got - 2010.06.03 21:02:19.
