data_PCOD9394457
_publ_section_title
;
Structure prediction by ZEFSAII (Michael W. Deem and Ramdas Pophale) SiO2 
 PCOD9394457
Probable space group: P C C M
;
_chemical_formula_sum "Si O2"
_cell_formula_units_Z 56
_cell_length_a 19.427211
_cell_length_b 9.010852
_cell_length_c 14.906928
_cell_angle_alpha 90.000000
_cell_angle_beta 90.000000
_cell_angle_gamma 90.000000
_cell_volume 2609.543060
_symmetry_space_group_name_H-M "P C C M"
_symmetry_group_IT_number 49
_symmetry_cell_setting 'orthorhombic'
loop_
_space_group_symop_operation_xyz
x,y,z
-x,-y,z
x,-y,1/2-z
-x,y,1/2-z
-x,-y,-z
x,y,-z
-x,y,1/2+z
x,-y,1/2+z
loop_
_atom_site_type_symbol
_atom_site_label
_atom_site_fract_x
_atom_site_fract_y
_atom_site_fract_z
Si Si1 0.930042 0.066260 0.604097
Si Si2 0.992804 0.335321 0.857083
Si Si3 0.621852 0.669933 0.601391
Si Si4 0.343210 0.673770 0.395708
Si Si5 0.276403 0.822645 0.765488
Si Si6 0.513069 0.169706 0.643275
Si Si7 0.155113 0.187112 0.395014
O O1 0.931413 0.022484 0.500000
O O2 0.942756 0.238266 0.610390
O O3 0.862960 0.982692 0.635552
O O4 0.000000 0.000000 0.647043
O O5 0.918779 0.268707 0.885039
O O6 0.000000 0.500000 0.891334
O O7 0.000000 0.334300 0.750000
O O8 0.647797 0.695235 0.500000
O O9 0.636418 0.497619 0.624080
O O10 0.658967 0.776358 0.672356
O O11 0.541978 0.714799 0.603624
O O12 0.322690 0.682699 0.500000
O O13 0.286156 0.736172 0.327851
O O14 0.410806 0.774897 0.380137
O O15 0.211885 0.764757 0.824190
O O16 0.276120 0.000000 0.750000
O O17 0.500000 0.172037 0.750000
O O18 0.500000 0.000000 0.612689
O O19 0.176781 0.195649 0.500000
#
# Coordination Sequence:
#
# PCOD9394457 Si02
#       7
#     8   8   8   8   8   8   8
#     4   8  16  33  59  87 116 152 199 256 316 380
#     4  10  21  37  63  99 133 168 210 270 330 395
#     4  11  24  44  69  99 136 179 224 278 347 410
#     4  11  25  45  68  99 137 181 229 281 340 405
#     4  12  26  43  68  96 132 183 228 283 330 400
#     4  11  22  38  68 106 136 173 225 287 345 398
#     4  10  23  43  67  97 132 172 222 272 330 399
#
# _framework density 21.459696000000001
#
# number of rings (size 3 to 8) (size 9 to 14) (size 15 to 20)
#    0.000    1.571    1.429    3.857    2.000    8.286 
#    5.143    0.000    0.000    0.000    0.000    0.000 
#    0.000    0.000    0.000    0.000    0.000    0.000 
#
# Total GULP energy -312649.497786 kJ/mol
# GULP energy per Si atom -5583.026746 kJ/mol
# Density = 2.141085 g / cm^3
# Si number density = 21.459696 Si / 1000 Ang^3
#
#
#
# Elastic Constant Matrix: (Units=GPa)
#
#
# Indices 1 2 3 4 5 6 
#
# 1 85.7960 28.2078 41.9252 0.0000 0.0000 0.0000
# 2 28.2078 125.1452 43.7665 0.0000 0.0000 0.0000
# 3 41.9252 43.7665 137.3223 0.0000 0.0000 0.0000
# 4 0.0000 0.0000 0.0000 17.1916 0.0000 0.0000
# 5 0.0000 0.0000 0.0000 0.0000 30.6851 0.0000
# 6 0.0000 0.0000 0.0000 0.0000 0.0000 17.7298
#
#
#
# Elastic Compliance Matrix: (Units=1/GPa)
#
#
# Indices 1 2 3 4 5 6 
#
# 1 0.014082 -0.001880 -0.003700 0.000000 0.000000 0.000000
# 2 -0.001880 0.009244 -0.002372 0.000000 0.000000 0.000000
# 3 -0.003700 -0.002372 0.009168 0.000000 0.000000 0.000000
# 4 0.000000 0.000000 0.000000 0.058168 0.000000 0.000000
# 5 0.000000 0.000000 0.000000 0.000000 0.032589 0.000000
# 6 0.000000 0.000000 0.000000 0.000000 0.000000 0.056402
#
#
# Mechanical properties :
#
#
# Convention : Reuss Voigt Hill
#
# Bulk Modulus (GPa) = 60.28066 64.00696 62.14381
# Shear Modulus (GPa) = 24.86482 28.74556 26.80519
#
# Velocity S-wave (km/s) = 3.40762 3.66391 3.53809
# Velocity P-wave (km/s) = 6.60558 6.91305 6.76107
#
# Compressibility (1/GPa) = 0.01658907
#
# Stress axis : x y z
#
# Youngs Moduli (GPa) = 71.01404 108.17695 109.07693
#
# Poissons Ratio (x) = 0.20338 0.40359
# Poissons Ratio (y) = 0.13351 0.25876
# Poissons Ratio (z) = 0.26275 0.25662
#
# Static dielectric constant tensor:
#      x y z
#    x 1.794310 0.000000 0.000000 
#    y 0.000000 1.809300 0.000000 
#    z 0.000000 0.000000 1.812270 
# 
# From -- ./inp_files/14387.got.cif
#   From: 2010.05.17/outbox.cif.g08.bks.cpg/sg49_8_cif.got.tgz:14387.got - 2010.06.03 21:02:19.
