data_PCOD9394040
_publ_section_title
;
Structure prediction by ZEFSAII (Michael W. Deem and Ramdas Pophale) SiO2 
 PCOD9394040
Probable space group: P C C M
;
_chemical_formula_sum "Si O2"
_cell_formula_units_Z 64
_cell_length_a 12.065361
_cell_length_b 16.071413
_cell_length_c 17.452713
_cell_angle_alpha 90.000000
_cell_angle_beta 90.000000
_cell_angle_gamma 90.000000
_cell_volume 3384.210194
_symmetry_space_group_name_H-M "P C C M"
_symmetry_group_IT_number 49
_symmetry_cell_setting 'orthorhombic'
loop_
_space_group_symop_operation_xyz
x,y,z
-x,-y,z
x,-y,1/2-z
-x,y,1/2-z
-x,-y,-z
x,y,-z
-x,y,1/2+z
x,-y,1/2+z
loop_
_atom_site_type_symbol
_atom_site_label
_atom_site_fract_x
_atom_site_fract_y
_atom_site_fract_z
Si Si1 0.294561 0.355723 0.313846
Si Si2 0.524686 0.783652 0.339343
Si Si3 0.632404 0.502669 0.085023
Si Si4 0.298132 0.102129 0.587592
Si Si5 0.885826 0.802600 0.089293
Si Si6 0.690447 0.315703 0.633546
Si Si7 0.124550 0.022382 0.160591
Si Si8 0.867204 0.260002 0.087285
O O1 0.391912 0.295062 0.345257
O O2 0.318175 0.446759 0.347070
O O3 0.298924 0.341736 0.223069
O O4 0.181000 0.323318 0.350964
O O5 0.500000 0.799235 0.250000
O O6 0.590086 0.862641 0.373323
O O7 0.410361 0.750373 0.375318
O O8 0.500000 0.500000 0.092478
O O9 0.667340 0.598323 0.090978
O O10 0.661978 0.469389 0.000000
O O11 0.323041 0.080989 0.500000
O O12 0.212686 0.179779 0.589429
O O13 0.226855 0.028356 0.624822
O O14 0.799927 0.729464 0.104979
O O15 0.860076 0.880612 0.143364
O O16 0.009492 0.770284 0.104137
O O17 0.879990 0.829038 0.000000
O O18 0.123427 0.000000 0.250000
O O19 0.000000 0.000000 0.129770
O O20 0.863620 0.293349 0.000000
#
# Coordination Sequence:
#
# PCOD9394040 Si02
#       8
#     8   8   8   8   8   8   8   8
#     4  10  20  36  62  88 121 157 203 250 299 353
#     4   9  20  36  59  88 121 161 199 247 306 361
#     4  11  22  37  59  90 123 158 206 252 297 357
#     4  10  20  37  63  90 118 156 207 254 301 363
#     4  11  24  41  62  89 125 163 197 250 314 366
#     4  11  23  38  61  89 127 160 201 251 305 365
#     4  11  24  38  63  94 123 155 206 257 309 361
#     4   9  19  36  60  89 120 156 198 245 304 363
#
# _framework density 18.911353999999999
#
# number of rings (size 3 to 8) (size 9 to 14) (size 15 to 20)
#    0.000    1.750    2.500    1.500    5.250    3.000 
#    0.000    1.250    0.000    5.250    0.000    0.000 
#    0.000    0.000    0.000    0.000    0.000    0.000 
#
# Total GULP energy -357211.162281 kJ/mol
# GULP energy per Si atom -5581.424411 kJ/mol
# Density = 1.886831 g / cm^3
# Si number density = 18.911354 Si / 1000 Ang^3
#
#
#
# Elastic Constant Matrix: (Units=GPa)
#
#
# Indices 1 2 3 4 5 6 
#
# 1 88.3902 43.8533 50.6938 0.0000 0.0000 0.0000
# 2 43.8533 79.7515 38.5573 0.0000 0.0000 0.0000
# 3 50.6938 38.5573 70.3929 0.0000 0.0000 0.0000
# 4 0.0000 0.0000 0.0000 34.3033 0.0000 0.0000
# 5 0.0000 0.0000 0.0000 0.0000 26.7209 0.0000
# 6 0.0000 0.0000 0.0000 0.0000 0.0000 22.7258
#
#
#
# Elastic Compliance Matrix: (Units=1/GPa)
#
#
# Indices 1 2 3 4 5 6 
#
# 1 0.021066 -0.005780 -0.012005 0.000000 0.000000 0.000000
# 2 -0.005780 0.018641 -0.006048 0.000000 0.000000 0.000000
# 3 -0.012005 -0.006048 0.026164 0.000000 0.000000 0.000000
# 4 0.000000 0.000000 0.000000 0.029152 0.000000 0.000000
# 5 0.000000 0.000000 0.000000 0.000000 0.037424 0.000000
# 6 0.000000 0.000000 0.000000 0.000000 0.000000 0.044003
#
#
# Mechanical properties :
#
#
# Convention : Reuss Voigt Hill
#
# Bulk Modulus (GPa) = 54.92826 56.08260 55.50543
# Shear Modulus (GPa) = 21.72164 23.77869 22.75017
#
# Velocity S-wave (km/s) = 3.39278 3.54980 3.47218
# Velocity P-wave (km/s) = 6.66754 6.82065 6.74453
#
# Compressibility (1/GPa) = 0.01820557
#
# Stress axis : x y z
#
# Youngs Moduli (GPa) = 47.46949 53.64451 38.21973
#
# Poissons Ratio (x) = 0.31005 0.45883
# Poissons Ratio (y) = 0.27436 0.23117
# Poissons Ratio (z) = 0.56988 0.32446
#
# Static dielectric constant tensor:
#      x y z
#    x 1.645180 0.000000 0.000000 
#    y 0.000000 1.638230 0.000000 
#    z 0.000000 0.000000 1.668720 
# 
# From -- ./inp_files/17312.got.cif
#   From: 2010.05.17/outbox.cif.g08.bks.cpg/sg49_9_cif.got.tgz:17312.got - 2010.06.03 21:02:19.
