data_PCOD9394201
_publ_section_title
;
Structure prediction by ZEFSAII (Michael W. Deem and Ramdas Pophale) SiO2 
 PCOD9394201
Probable space group: P C C M
;
_chemical_formula_sum "Si O2"
_cell_formula_units_Z 64
_cell_length_a 14.710015
_cell_length_b 5.249308
_cell_length_c 31.479740
_cell_angle_alpha 90.000000
_cell_angle_beta 90.000000
_cell_angle_gamma 90.000000
_cell_volume 2430.783657
_symmetry_space_group_name_H-M "P C C M"
_symmetry_group_IT_number 49
_symmetry_cell_setting 'orthorhombic'
loop_
_space_group_symop_operation_xyz
x,y,z
-x,-y,z
x,-y,1/2-z
-x,y,1/2-z
-x,-y,-z
x,y,-z
-x,y,1/2+z
x,-y,1/2+z
loop_
_atom_site_type_symbol
_atom_site_label
_atom_site_fract_x
_atom_site_fract_y
_atom_site_fract_z
Si Si1 0.603530 0.755751 0.731076
Si Si2 0.894871 0.791336 0.546070
Si Si3 0.397178 0.410526 0.360829
Si Si4 0.436656 0.750710 0.047876
Si Si5 0.746759 0.800870 0.867708
Si Si6 0.868691 0.300221 0.863893
Si Si7 0.225689 0.710117 0.544164
Si Si8 0.899289 0.748755 0.268498
O O1 0.644144 0.500000 0.750000
O O2 0.500000 0.754521 0.750000
O O3 0.606758 0.770816 0.680201
O O4 0.650399 0.000000 0.750000
O O5 0.943361 0.756671 0.500000
O O6 0.930139 0.751024 0.594136
O O7 0.817750 0.570469 0.545935
O O8 0.853660 0.075266 0.545297
O O9 0.500000 0.500000 0.362779
O O10 0.379559 0.291276 0.407934
O O11 0.335951 0.652566 0.346493
O O12 0.500000 0.500000 0.045937
O O13 0.500000 0.000000 0.053177
O O14 0.392790 0.768442 0.000000
O O15 0.827377 0.586086 0.865163
O O16 0.714266 0.781583 0.916575
O O17 0.789336 0.080369 0.862222
O O18 0.912938 0.263437 0.818594
O O19 0.275706 0.735886 0.500000
O O20 0.852062 0.500000 0.250000
O O21 0.000000 0.749200 0.250000
O O22 0.854150 0.000000 0.250000
#
# Coordination Sequence:
#
# PCOD9394201 Si02
#       8
#     8   8   8   8   8   8   8   8
#     4  10  21  38  58  78  95 127 186 256 309 363
#     4   8  14  26  49  78 110 156 197 231 288 345
#     4  11  23  40  63  82 112 156 208 265 312 384
#     4   9  20  36  55  81 111 148 197 259 332 388
#     4  10  22  35  55  86 116 161 199 247 331 361
#     4  10  20  39  58  86 131 155 193 259 299 368
#     4   8  14  27  46  71 107 147 196 243 285 361
#     4  10  21  39  68  99 124 160 204 240 291 370
#
# _framework density 26.328959000000001
#
# number of rings (size 3 to 8) (size 9 to 14) (size 15 to 20)
#    0.000    2.500    1.250    0.750    1.750    3.500 
#    0.000    2.500    0.000   10.500    0.000    3.500 
#    0.000    0.000    0.000    0.000    0.000    0.000 
#
# Total GULP energy -357195.969362 kJ/mol
# GULP energy per Si atom -5581.187021 kJ/mol
# Density = 2.626903 g / cm^3
# Si number density = 26.328959 Si / 1000 Ang^3
#
#
#
# Elastic Constant Matrix: (Units=GPa)
#
#
# Indices 1 2 3 4 5 6 
#
# 1 68.6339 25.5326 20.2033 0.0000 0.0000 0.0000
# 2 25.5326 202.6499 23.8741 0.0000 0.0000 0.0000
# 3 20.2033 23.8741 254.7602 0.0000 0.0000 0.0000
# 4 0.0000 0.0000 0.0000 25.3099 0.0000 0.0000
# 5 0.0000 0.0000 0.0000 0.0000 31.5616 0.0000
# 6 0.0000 0.0000 0.0000 0.0000 0.0000 20.1750
#
#
#
# Elastic Compliance Matrix: (Units=1/GPa)
#
#
# Indices 1 2 3 4 5 6 
#
# 1 0.015566 -0.001836 -0.001062 0.000000 0.000000 0.000000
# 2 -0.001836 0.005206 -0.000342 0.000000 0.000000 0.000000
# 3 -0.001062 -0.000342 0.004042 0.000000 0.000000 0.000000
# 4 0.000000 0.000000 0.000000 0.039510 0.000000 0.000000
# 5 0.000000 0.000000 0.000000 0.000000 0.031684 0.000000
# 6 0.000000 0.000000 0.000000 0.000000 0.000000 0.049566
#
#
# Mechanical properties :
#
#
# Convention : Reuss Voigt Hill
#
# Bulk Modulus (GPa) = 54.54852 73.91822 64.23337
# Shear Modulus (GPa) = 31.61228 45.83823 38.72525
#
# Velocity S-wave (km/s) = 3.46882 4.17703 3.83929
# Velocity P-wave (km/s) = 6.06685 7.16933 6.64101
#
# Compressibility (1/GPa) = 0.01833230
#
# Stress axis : x y z
#
# Youngs Moduli (GPa) = 64.24333 192.07601 247.42766
#
# Poissons Ratio (x) = 0.35266 0.26286
# Poissons Ratio (y) = 0.11795 0.08469
# Poissons Ratio (z) = 0.06825 0.06574
#
# Static dielectric constant tensor:
#      x y z
#    x 1.998320 0.000000 0.000000 
#    y 0.000000 1.367460 0.000000 
#    z 0.000000 0.000000 2.100450 
# 
# From -- ./inp_files/26901.got.cif
#   From: 2010.05.17/outbox.cif.g08.bks.cpg/sg49_14_cif.got.tgz:26901.got - 2010.06.03 21:02:19.
