data_PCOD9394370
_publ_section_title
;
Structure prediction by ZEFSAII (Michael W. Deem and Ramdas Pophale) SiO2 
 PCOD9394370
Probable space group: P C C M
;
_chemical_formula_sum "Si O2"
_cell_formula_units_Z 58
_cell_length_a 13.185831
_cell_length_b 26.071805
_cell_length_c 8.939000
_cell_angle_alpha 90.000000
_cell_angle_beta 90.000000
_cell_angle_gamma 90.000000
_cell_volume 3073.035248
_symmetry_space_group_name_H-M "P C C M"
_symmetry_group_IT_number 49
_symmetry_cell_setting 'orthorhombic'
loop_
_space_group_symop_operation_xyz
x,y,z
-x,-y,z
x,-y,1/2-z
-x,y,1/2-z
-x,-y,-z
x,y,-z
-x,y,1/2+z
x,-y,1/2+z
loop_
_atom_site_type_symbol
_atom_site_label
_atom_site_fract_x
_atom_site_fract_y
_atom_site_fract_z
Si Si1 0.899312 0.656560 0.677875
Si Si2 0.396497 0.602535 0.322508
Si Si3 0.293348 0.707757 0.679112
Si Si4 0.500000 0.000000 0.750000
Si Si5 0.315723 0.921117 0.169222
Si Si6 0.609032 0.804434 0.674883
Si Si7 0.103149 0.056546 0.179201
Si Si8 0.818889 0.554529 0.180013
O O1 0.904374 0.653604 0.500000
O O2 0.806037 0.690062 0.734229
O O3 0.883163 0.600252 0.748604
O O4 0.000000 0.678955 0.750000
O O5 0.500000 0.584736 0.250000
O O6 0.406176 0.599450 0.500000
O O7 0.373815 0.662291 0.284959
O O8 0.297573 0.569653 0.280729
O O9 0.277962 0.706709 0.500000
O O10 0.325246 0.763092 0.736266
O O11 0.413980 0.959081 0.811752
O O12 0.352938 0.862768 0.183622
O O13 0.217319 0.925715 0.276026
O O14 0.278231 0.930599 0.000000
O O15 0.500000 0.802485 0.750000
O O16 0.604445 0.789964 0.500000
O O17 0.000000 0.081948 0.250000
O O18 0.102608 0.000000 0.250000
O O19 0.093119 0.056127 0.000000
O O20 0.844894 0.500000 0.250000
O O21 0.829097 0.554561 0.000000
#
# Coordination Sequence:
#
# PCOD9394370 Si02
#       8
#     8   8   8   2   8   8   8   8
#     4  11  22  39  63  89 116 151 193 243 300 361
#     4   9  19  33  52  77 108 145 189 235 283 340
#     4  10  21  39  60  85 115 150 193 243 294 353
#     4  12  22  40  66  90 130 172 210 258 308 368
#     4  11  24  40  61  92 128 165 210 256 307 368
#     4  11  23  39  59  89 125 161 200 247 299 359
#     4  11  22  38  62  87 116 153 198 246 296 351
#     4  10  21  37  54  80 116 154 197 246 295 351
#
# _framework density 18.873847999999999
#
# number of rings (size 3 to 8) (size 9 to 14) (size 15 to 20)
#    0.000    1.517    1.379    5.586    0.000    6.621 
#    0.000    3.448    0.000    3.310    0.000    0.000 
#    0.000    0.000    0.000    0.000    0.000    0.000 
#
# Total GULP energy -323401.706807 kJ/mol
# GULP energy per Si atom -5575.891497 kJ/mol
# Density = 1.883089 g / cm^3
# Si number density = 18.873848 Si / 1000 Ang^3
#
#
#
# Elastic Constant Matrix: (Units=GPa)
#
#
# Indices 1 2 3 4 5 6 
#
# 1 113.1422 8.4289 51.9704 0.0000 0.0000 0.0000
# 2 8.4289 61.4880 30.0404 0.0000 0.0000 0.0000
# 3 51.9704 30.0404 124.2608 0.0000 0.0000 0.0000
# 4 0.0000 0.0000 0.0000 25.7372 0.0000 0.0000
# 5 0.0000 0.0000 0.0000 0.0000 50.4308 0.0000
# 6 0.0000 0.0000 0.0000 0.0000 0.0000 -22.4787
#
#
#
# Elastic Compliance Matrix: (Units=1/GPa)
#
#
# Indices 1 2 3 4 5 6 
#
# 1 0.010978 0.000837 -0.004794 0.000000 0.000000 0.000000
# 2 0.000837 0.018505 -0.004824 0.000000 0.000000 0.000000
# 3 -0.004794 -0.004824 0.011219 0.000000 0.000000 0.000000
# 4 0.000000 0.000000 0.000000 0.038854 0.000000 0.000000
# 5 0.000000 0.000000 0.000000 0.000000 0.019829 0.000000
# 6 0.000000 0.000000 0.000000 0.000000 0.000000 -0.044486
#
#
# Mechanical properties :
#
#
# Convention : Reuss Voigt Hill
#
# Bulk Modulus (GPa) = 43.21320 53.30781 48.26051
# Shear Modulus (GPa) = 62.36466 24.63461 43.49964
#
# Velocity S-wave (km/s) = 5.75453 3.61671 4.80600
# Velocity P-wave (km/s) = 8.19136 6.76361 7.51148
#
# Compressibility (1/GPa) = 0.02314108
#
# Stress axis : x y z
#
# Youngs Moduli (GPa) = 91.09098 54.03859 89.13692
#
# Poissons Ratio (x) = -0.04524 0.42730
# Poissons Ratio (y) = -0.07626 0.42998
# Poissons Ratio (z) = 0.43667 0.26067
#
# Static dielectric constant tensor:
#      x y z
#    x 1.690220 0.000000 0.000000 
#    y 0.000000 1.651470 0.000000 
#    z 0.000000 0.000000 1.639680 
# 
# From -- ./inp_files/3021.got.cif
#   From: 2010.05.17/outbox.cif.g08.bks.cpg/sg49_2_cif.got.tgz:3021.got - 2010.06.03 21:02:19.
