data_PCOD9394135
_publ_section_title
;
Structure prediction by ZEFSAII (Michael W. Deem and Ramdas Pophale) SiO2 
 PCOD9394135
Probable space group: P C C M
;
_chemical_formula_sum "Si O2"
_cell_formula_units_Z 52
_cell_length_a 7.140550
_cell_length_b 14.846614
_cell_length_c 20.382944
_cell_angle_alpha 90.000000
_cell_angle_beta 90.000000
_cell_angle_gamma 90.000000
_cell_volume 2160.856830
_symmetry_space_group_name_H-M "P C C M"
_symmetry_group_IT_number 49
_symmetry_cell_setting 'orthorhombic'
loop_
_space_group_symop_operation_xyz
x,y,z
-x,-y,z
x,-y,1/2-z
-x,y,1/2-z
-x,-y,-z
x,y,-z
-x,y,1/2+z
x,-y,1/2+z
loop_
_atom_site_type_symbol
_atom_site_label
_atom_site_fract_x
_atom_site_fract_y
_atom_site_fract_z
Si Si1 0.274934 0.983540 0.175845
Si Si2 0.261732 0.374837 0.314403
Si Si3 0.939050 0.775807 0.500000
Si Si4 0.653196 0.203313 0.115079
Si Si5 0.185056 0.659984 0.674679
Si Si6 0.232658 0.835515 0.388987
Si Si7 0.225461 0.516665 0.575197
O O1 0.192745 0.061920 0.130471
O O2 0.500000 0.000000 0.175999
O O3 0.211963 0.000000 0.250000
O O4 0.250000 0.883589 0.148331
O O5 0.365443 0.283121 0.332810
O O6 0.280381 0.389605 0.236498
O O7 0.304754 0.448143 0.370300
O O8 0.037158 0.358373 0.321190
O O9 0.093265 0.800301 0.443315
O O10 0.780557 0.759607 0.442832
O O11 0.449851 0.172358 0.090684
O O12 0.212907 0.766825 0.672403
O O13 0.252132 0.615197 0.606602
O O14 0.289673 0.507751 0.500000
O O15 0.000000 0.500000 0.572997
#
# Coordination Sequence:
#
# PCOD9394135 Si02
#       7
#     8   8   4   8   8   8   8
#     4   9  20  41  66  96 132 172 219 273 329 387
#     4  10  20  37  62  96 133 174 222 276 329 388
#     4  12  26  45  62  95 136 172 220 279 322 405
#     4  11  24  42  68  95 130 176 220 270 330 391
#     4  10  20  37  62  96 133 174 222 276 329 388
#     4  11  24  42  68  95 130 176 220 270 330 391
#     4   9  19  33  60  91 132 180 221 265 331 396
#
# _framework density 24.064529
#
# number of rings (size 3 to 8) (size 9 to 14) (size 15 to 20)
#    0.000    1.846    1.538    1.846    2.154    5.538 
#    0.000    3.846    0.000    2.769    0.000    0.000 
#    0.000    0.000    0.000    0.000    0.000    0.000 
#
# Total GULP energy -289844.188808 kJ/mol
# GULP energy per Si atom -5573.926708 kJ/mol
# Density = 2.400976 g / cm^3
# Si number density = 24.064529 Si / 1000 Ang^3
#
#
#
# Elastic Constant Matrix: (Units=GPa)
#
#
# Indices 1 2 3 4 5 6 
#
# 1 91.3327 -17.8243 4.4182 0.0000 0.0000 0.0000
# 2 -17.8243 108.6266 26.2416 0.0000 0.0000 0.0000
# 3 4.4182 26.2416 141.1587 0.0000 0.0000 0.0000
# 4 0.0000 0.0000 0.0000 -38.2951 0.0000 0.0000
# 5 0.0000 0.0000 0.0000 0.0000 37.7445 0.0000
# 6 0.0000 0.0000 0.0000 0.0000 0.0000 17.2605
#
#
#
# Elastic Compliance Matrix: (Units=1/GPa)
#
#
# Indices 1 2 3 4 5 6 
#
# 1 0.011384 0.002046 -0.000737 0.000000 0.000000 0.000000
# 2 0.002046 0.010006 -0.001924 0.000000 0.000000 0.000000
# 3 -0.000737 -0.001924 0.007465 0.000000 0.000000 0.000000
# 4 0.000000 0.000000 0.000000 -0.026113 0.000000 0.000000
# 5 0.000000 0.000000 0.000000 0.000000 0.026494 0.000000
# 6 0.000000 0.000000 0.000000 0.000000 0.000000 0.057936
#
#
# Mechanical properties :
#
#
# Convention : Reuss Voigt Hill
#
# Bulk Modulus (GPa) = 36.19863 40.75432 38.47648
# Shear Modulus (GPa) = 51.22404 25.22749 38.22576
#
# Velocity S-wave (km/s) = 4.61869 3.24130 3.98988
# Velocity P-wave (km/s) = 6.59682 5.56599 6.10321
#
# Compressibility (1/GPa) = 0.02762535
#
# Stress axis : x y z
#
# Youngs Moduli (GPa) = 87.84345 99.93596 133.95843
#
# Poissons Ratio (x) = -0.20446 0.09868
# Poissons Ratio (y) = -0.17972 0.25777
# Poissons Ratio (z) = 0.06471 0.19230
#
# Static dielectric constant tensor:
#      x y z
#    x 1.979950 0.000000 0.000000 
#    y 0.000000 1.902110 0.000000 
#    z 0.000000 0.000000 1.908260 
# 
# From -- ./inp_files/19806.got.cif
#   From: 2010.05.17/outbox.cif.g08.bks.cpg/sg49_10_cif.got.tgz:19806.got - 2010.06.03 21:02:19.
