data_PCOD9394068
_publ_section_title
;
Structure prediction by ZEFSAII (Michael W. Deem and Ramdas Pophale) SiO2 
 PCOD9394068
Probable space group: P C C M
;
_chemical_formula_sum "Si O2"
_cell_formula_units_Z 32
_cell_length_a 5.418454
_cell_length_b 13.742685
_cell_length_c 19.800283
_cell_angle_alpha 90.000000
_cell_angle_beta 90.000000
_cell_angle_gamma 90.000000
_cell_volume 1474.410382
_symmetry_space_group_name_H-M "P C C M"
_symmetry_group_IT_number 49
_symmetry_cell_setting 'orthorhombic'
loop_
_space_group_symop_operation_xyz
x,y,z
-x,-y,z
x,-y,1/2-z
-x,y,1/2-z
-x,-y,-z
x,y,-z
-x,y,1/2+z
x,-y,1/2+z
loop_
_atom_site_type_symbol
_atom_site_label
_atom_site_fract_x
_atom_site_fract_y
_atom_site_fract_z
Si Si1 0.890479 0.893666 0.917954
Si Si2 0.382410 0.195886 0.421181
Si Si3 0.643279 0.398453 0.427228
Si Si4 0.758021 0.388643 0.277593
O O1 0.109697 0.822818 0.893706
O O2 0.618311 0.863630 0.892266
O O3 0.868257 0.886884 0.000000
O O4 0.000000 0.000000 0.902604
O O5 0.365216 0.164791 0.500000
O O6 0.455665 0.308483 0.421400
O O7 0.500000 0.500000 0.427699
O O8 0.776041 0.387626 0.500000
O O9 0.788214 0.394645 0.357874
O O10 0.754333 0.500000 0.250000
O O11 0.500000 0.346005 0.250000
O O12 0.000000 0.337654 0.250000
#
# Coordination Sequence:
#
# PCOD9394068 Si02
#       4
#     8   8   8   8
#     4   9  16  29  48  70 103 145 182 227 285 334
#     4   9  18  30  46  75 108 141 188 230 270 339
#     4  10  20  37  58  85 120 161 195 234 291 345
#     4  10  20  38  56  76 106 152 194 244 274 326
#
# _framework density 21.703592
#
# number of rings (size 3 to 8) (size 9 to 14) (size 15 to 20)
#    0.000    2.500    2.500    0.750    0.000    5.000 
#    0.000    6.250    0.000    0.000    0.000    0.000 
#    0.000   15.000    0.000    0.000    0.000    0.000 
#
# Total GULP energy -178350.325089 kJ/mol
# GULP energy per Si atom -5573.447659 kJ/mol
# Density = 2.165419 g / cm^3
# Si number density = 21.703592 Si / 1000 Ang^3
#
#
#
# Elastic Constant Matrix: (Units=GPa)
#
#
# Indices 1 2 3 4 5 6 
#
# 1 83.9587 -2.2263 29.2759 0.0000 0.0000 0.0000
# 2 -2.2263 51.7045 0.9059 0.0000 0.0000 0.0000
# 3 29.2759 0.9059 131.4123 0.0000 0.0000 0.0000
# 4 0.0000 0.0000 0.0000 -1.2165 0.0000 0.0000
# 5 0.0000 0.0000 0.0000 0.0000 58.8366 0.0000
# 6 0.0000 0.0000 0.0000 0.0000 0.0000 -2.4858
#
#
#
# Elastic Compliance Matrix: (Units=1/GPa)
#
#
# Indices 1 2 3 4 5 6 
#
# 1 0.012933 0.000607 -0.002885 0.000000 0.000000 0.000000
# 2 0.000607 0.019372 -0.000269 0.000000 0.000000 0.000000
# 3 -0.002885 -0.000269 0.008254 0.000000 0.000000 0.000000
# 4 0.000000 0.000000 0.000000 -0.822025 0.000000 0.000000
# 5 0.000000 0.000000 0.000000 0.000000 0.016996 0.000000
# 6 0.000000 0.000000 0.000000 0.000000 0.000000 -0.402278
#
#
# Mechanical properties :
#
#
# Convention : Reuss Voigt Hill
#
# Bulk Modulus (GPa) = 28.19676 35.88739 32.04207
# Shear Modulus (GPa) = -4.34846 26.96819 11.30986
#
# Velocity S-wave (km/s) = -1.41701 3.52883 2.28525
# Velocity P-wave (km/s) = 3.21601 5.75975 4.66462
#
# Compressibility (1/GPa) = 0.03546507
#
# Stress axis : x y z
#
# Youngs Moduli (GPa) = 77.32260 51.62211 121.14911
#
# Poissons Ratio (x) = -0.03136 0.34956
# Poissons Ratio (y) = -0.04697 0.03257
# Poissons Ratio (z) = 0.22310 0.01388
#
# Static dielectric constant tensor:
#      x y z
#    x 1.986600 0.000000 0.000000 
#    y 0.000000 1.806380 0.000000 
#    z 0.000000 0.000000 1.821060 
# 
# From -- ./inp_files/15073.got.cif
#   From: 2010.05.17/outbox.cif.g08.bks.cpg/sg49_8_cif.got.tgz:15073.got - 2010.06.03 21:02:19.
