data_PCOD9394136
_publ_section_title
;
Structure prediction by ZEFSAII (Michael W. Deem and Ramdas Pophale) SiO2 
 PCOD9394136
Probable space group: P C C M
;
_chemical_formula_sum "Si O2"
_cell_formula_units_Z 56
_cell_length_a 15.470450
_cell_length_b 9.973426
_cell_length_c 15.120925
_cell_angle_alpha 90.000000
_cell_angle_beta 90.000000
_cell_angle_gamma 90.000000
_cell_volume 2333.058752
_symmetry_space_group_name_H-M "P C C M"
_symmetry_group_IT_number 49
_symmetry_cell_setting 'orthorhombic'
loop_
_space_group_symop_operation_xyz
x,y,z
-x,-y,z
x,-y,1/2-z
-x,y,1/2-z
-x,-y,-z
x,y,-z
-x,y,1/2+z
x,-y,1/2+z
loop_
_atom_site_type_symbol
_atom_site_label
_atom_site_fract_x
_atom_site_fract_y
_atom_site_fract_z
Si Si1 0.342568 0.657827 0.142784
Si Si2 0.084399 0.590786 0.607002
Si Si3 0.982766 0.154493 0.892664
Si Si4 0.732923 0.603849 0.840696
Si Si5 0.302722 0.873346 0.400673
Si Si6 0.494090 0.152289 0.145449
Si Si7 0.205595 0.873478 0.899021
O O1 0.332504 0.503119 0.114952
O O2 0.309219 0.644358 0.245730
O O3 0.433303 0.735367 0.125253
O O4 0.272286 0.753000 0.099239
O O5 0.099608 0.586133 0.500000
O O6 0.171099 0.541065 0.655429
O O7 0.000000 0.500000 0.623129
O O8 0.052673 0.738212 0.638157
O O9 0.884688 0.175636 0.859920
O O10 0.985234 0.169911 0.000000
O O11 0.000000 0.000000 0.871426
O O12 0.752584 0.740578 0.892748
O O13 0.317492 0.918666 0.500000
O O14 0.395117 0.816518 0.371810
O O15 0.256261 0.000191 0.355937
O O16 0.500000 0.138876 0.250000
O O17 0.500000 0.000000 0.107359
O O18 0.183294 0.915832 0.000000
#
# Coordination Sequence:
#
# PCOD9394136 Si02
#       7
#     8   8   8   8   8   8   8
#     4  11  24  42  63  89 124 170 213 259 325 396
#     4  10  20  37  63  91 126 173 221 264 315 382
#     4   9  17  32  55  85 119 158 202 254 316 371
#     4  11  24  41  60  94 132 170 214 266 323 391
#     4  11  23  40  66  97 128 162 210 275 329 380
#     4  11  22  42  68  91 118 164 215 260 315 395
#     4  10  21  38  63  93 124 163 215 269 321 384
#
# _framework density 24.002827
#
# number of rings (size 3 to 8) (size 9 to 14) (size 15 to 20)
#    0.000    1.571    2.857    2.143    0.000    6.571 
#    0.000    5.714    0.000    0.857    0.000    0.000 
#    0.000    0.000    0.000    0.000    0.000    0.000 
#
# Total GULP energy -312147.060126 kJ/mol
# GULP energy per Si atom -5574.054645 kJ/mol
# Density = 2.394820 g / cm^3
# Si number density = 24.002827 Si / 1000 Ang^3
#
#
#
# Elastic Constant Matrix: (Units=GPa)
#
#
# Indices 1 2 3 4 5 6 
#
# 1 136.2688 35.0733 14.1792 0.0000 0.0000 0.0000
# 2 35.0733 126.0148 7.0818 0.0000 0.0000 0.0000
# 3 14.1792 7.0818 48.2287 0.0000 0.0000 0.0000
# 4 0.0000 0.0000 0.0000 2.9902 0.0000 0.0000
# 5 0.0000 0.0000 0.0000 0.0000 17.4510 0.0000
# 6 0.0000 0.0000 0.0000 0.0000 0.0000 45.7526
#
#
#
# Elastic Compliance Matrix: (Units=1/GPa)
#
#
# Indices 1 2 3 4 5 6 
#
# 1 0.008104 -0.002139 -0.002069 0.000000 0.000000 0.000000
# 2 -0.002139 0.008566 -0.000629 0.000000 0.000000 0.000000
# 3 -0.002069 -0.000629 0.021435 0.000000 0.000000 0.000000
# 4 0.000000 0.000000 0.000000 0.334423 0.000000 0.000000
# 5 0.000000 0.000000 0.000000 0.000000 0.057303 0.000000
# 6 0.000000 0.000000 0.000000 0.000000 0.000000 0.021857
#
#
# Mechanical properties :
#
#
# Convention : Reuss Voigt Hill
#
# Bulk Modulus (GPa) = 35.17152 47.02009 41.09581
# Shear Modulus (GPa) = 10.61932 30.18396 20.40164
#
# Velocity S-wave (km/s) = 2.10566 3.55000 2.91858
# Velocity P-wave (km/s) = 4.53835 6.03616 5.34003
#
# Compressibility (1/GPa) = 0.02843210
#
# Stress axis : x y z
#
# Youngs Moduli (GPa) = 123.39100 116.73551 46.65264
#
# Poissons Ratio (x) = 0.24974 0.09650
# Poissons Ratio (y) = 0.26398 0.02934
# Poissons Ratio (z) = 0.25524 0.07341
#
# Static dielectric constant tensor:
#      x y z
#    x 2.193760 0.000000 0.000000 
#    y 0.000000 2.097800 0.000000 
#    z 0.000000 0.000000 1.996520 
# 
# From -- ./inp_files/20893.got.cif
#   From: 2010.05.17/outbox.cif.g08.bks.cpg/sg49_11_cif.got.tgz:20893.got - 2010.06.03 21:02:19.
