data_PCOD9394822
_publ_section_title
;
Structure prediction by ZEFSAII (Michael W. Deem and Ramdas Pophale) SiO2 
 PCOD9394822
Probable space group: P C C M
;
_chemical_formula_sum "Si O2"
_cell_formula_units_Z 34
_cell_length_a 9.302994
_cell_length_b 12.446791
_cell_length_c 14.846159
_cell_angle_alpha 90.000000
_cell_angle_beta 90.000000
_cell_angle_gamma 90.000000
_cell_volume 1719.072708
_symmetry_space_group_name_H-M "P C C M"
_symmetry_group_IT_number 49
_symmetry_cell_setting 'orthorhombic'
loop_
_space_group_symop_operation_xyz
x,y,z
-x,-y,z
x,-y,1/2-z
-x,y,1/2-z
-x,-y,-z
x,y,-z
-x,y,1/2+z
x,-y,1/2+z
loop_
_atom_site_type_symbol
_atom_site_label
_atom_site_fract_x
_atom_site_fract_y
_atom_site_fract_z
Si Si1 0.253573 0.348658 0.310378
Si Si2 0.000000 0.500000 0.750000
Si Si3 0.084924 0.113669 0.000000
Si Si4 0.500000 0.000000 0.750000
Si Si5 0.479612 0.130418 0.500000
Si Si6 0.201982 0.763086 0.000000
Si Si7 0.500000 0.500000 0.750000
Si Si8 0.314246 0.825071 0.651522
O O1 0.110600 0.421116 0.300425
O O2 0.239338 0.294902 0.407114
O O3 0.393135 0.424562 0.306180
O O4 0.270765 0.265240 0.225242
O O5 0.184053 0.135002 0.912149
O O6 0.962143 0.203243 0.000000
O O7 0.000000 0.000000 0.000000
O O8 0.387874 0.923907 0.700742
O O9 0.309099 0.136392 0.500000
O O10 0.553595 0.195247 0.582377
O O11 0.500000 0.000000 0.500000
#
# Coordination Sequence:
#
# PCOD9394822 Si02
#       8
#     8   2   4   2   4   4   2   8
#     4  11  24  43  68  97 128 179 220 288 335 407
#     4  10  24  48  68  84 132 172 228 276 356 392
#     4  11  27  42  61  98 141 180 224 268 317 412
#     4  12  22  38  70  98 132 182 220 266 328 402
#     4  11  21  39  65  97 138 179 221 271 324 401
#     4  12  24  42  65  98 138 171 229 270 340 400
#     4  10  22  44  68 100 128 160 242 284 348 388
#     4  11  24  42  67  96 136 177 224 267 340 390
#
# _framework density 19.778106000000001
#
# number of rings (size 3 to 8) (size 9 to 14) (size 15 to 20)
#    0.000    0.941    1.176    6.353    3.294    0.941 
#    0.000    9.412    0.000    0.000    0.000    0.000 
#    0.000    0.000    0.000    0.000    0.000    0.000 
#
# Total GULP energy -189426.363208 kJ/mol
# GULP energy per Si atom -5571.363624 kJ/mol
# Density = 1.973309 g / cm^3
# Si number density = 19.778106 Si / 1000 Ang^3
#
#
#
# Elastic Constant Matrix: (Units=GPa)
#
#
# Indices 1 2 3 4 5 6 
#
# 1 183.8328 70.9524 67.7038 0.0000 0.0000 0.0000
# 2 70.9524 115.5438 81.3215 0.0000 0.0000 0.0000
# 3 67.7038 81.3215 150.3290 0.0000 0.0000 0.0000
# 4 0.0000 0.0000 0.0000 74.9937 0.0000 0.0000
# 5 0.0000 0.0000 0.0000 0.0000 7.7566 0.0000
# 6 0.0000 0.0000 0.0000 0.0000 0.0000 40.9190
#
#
#
# Elastic Compliance Matrix: (Units=1/GPa)
#
#
# Indices 1 2 3 4 5 6 
#
# 1 0.007306 -0.003505 -0.001394 0.000000 0.000000 0.000000
# 2 -0.003505 0.015657 -0.006891 0.000000 0.000000 0.000000
# 3 -0.001394 -0.006891 0.011008 0.000000 0.000000 0.000000
# 4 0.000000 0.000000 0.000000 0.013334 0.000000 0.000000
# 5 0.000000 0.000000 0.000000 0.000000 0.128922 0.000000
# 6 0.000000 0.000000 0.000000 0.000000 0.000000 0.024439
#
#
# Mechanical properties :
#
#
# Convention : Reuss Voigt Hill
#
# Bulk Modulus (GPa) = 96.24817 98.85124 97.54970
# Shear Modulus (GPa) = 21.95765 40.04906 31.00336
#
# Velocity S-wave (km/s) = 3.33558 4.50479 3.96354
# Velocity P-wave (km/s) = 7.97524 8.78329 8.38900
#
# Compressibility (1/GPa) = 0.01038981
#
# Stress axis : x y z
#
# Youngs Moduli (GPa) = 136.87221 63.86774 90.84338
#
# Poissons Ratio (x) = 0.22386 0.12667
# Poissons Ratio (y) = 0.47975 0.62603
# Poissons Ratio (z) = 0.19085 0.44013
#
# Static dielectric constant tensor:
#      x y z
#    x 1.691040 0.000000 0.000000 
#    y 0.000000 1.788730 0.000000 
#    z 0.000000 0.000000 1.774920 
# 
# From -- ./inp_files/11361.got.cif
#   From: 2010.05.17/outbox.cif.g08.bks.cpg/sg49_6_cif.got.tgz:11361.got - 2010.06.03 21:02:19.
