data_PCOD9394488
_publ_section_title
;
Structure prediction by ZEFSAII (Michael W. Deem and Ramdas Pophale) SiO2 
 PCOD9394488
Probable space group: P C C M
;
_chemical_formula_sum "Si O2"
_cell_formula_units_Z 48
_cell_length_a 30.982468
_cell_length_b 9.535163
_cell_length_c 8.625445
_cell_angle_alpha 90.000000
_cell_angle_beta 90.000000
_cell_angle_gamma 90.000000
_cell_volume 2548.153825
_symmetry_space_group_name_H-M "P C C M"
_symmetry_group_IT_number 49
_symmetry_cell_setting 'orthorhombic'
loop_
_space_group_symop_operation_xyz
x,y,z
-x,-y,z
x,-y,1/2-z
-x,y,1/2-z
-x,-y,-z
x,y,-z
-x,y,1/2+z
x,-y,1/2+z
loop_
_atom_site_type_symbol
_atom_site_label
_atom_site_fract_x
_atom_site_fract_y
_atom_site_fract_z
Si Si1 0.202311 0.842440 0.685336
Si Si2 0.123652 0.657144 0.814244
Si Si3 0.454885 0.157158 0.184440
Si Si4 0.721114 0.342807 0.185956
Si Si5 0.048290 0.847253 0.313866
Si Si6 0.621375 0.344148 0.185217
O O1 0.198594 0.844654 0.500000
O O2 0.163395 0.751538 0.756201
O O3 0.246208 0.765304 0.736609
O O4 0.200957 0.000000 0.750000
O O5 0.128122 0.500000 0.750000
O O6 0.080551 0.729746 0.748353
O O7 0.122604 0.654826 0.000000
O O8 0.500000 0.217188 0.250000
O O9 0.413685 0.243662 0.239404
O O10 0.451263 0.000000 0.250000
O O11 0.457268 0.152642 0.000000
O O12 0.728916 0.500000 0.250000
O O13 0.671182 0.305604 0.220126
O O14 0.727045 0.343351 0.000000
O O15 0.047893 0.850319 0.500000
O O16 0.000000 0.824087 0.250000
O O17 0.062421 0.000000 0.250000
O O18 0.614807 0.500000 0.250000
O O19 0.616292 0.343617 0.000000
#
# Coordination Sequence:
#
# PCOD9394488 Si02
#       6
#     8   8   8   8   8   8
#     4  12  25  42  63  89 120 156 198 245 294 349
#     4  12  25  43  64  90 122 159 201 247 298 353
#     4  11  22  38  59  83 114 151 193 239 291 346
#     4  10  21  39  62  88 119 155 193 238 290 348
#     4  11  22  40  64  93 125 162 203 247 298 352
#     4  10  21  38  60  87 118 152 193 238 289 345
#
# _framework density 18.837168999999999
#
# number of rings (size 3 to 8) (size 9 to 14) (size 15 to 20)
#    0.000    1.000    0.000    9.000    0.000    3.333 
#    0.000    3.333    0.000    0.000    0.000    0.000 
#    0.000    0.000    0.000    0.000    0.000    0.000 
#
# Total GULP energy -268572.547432 kJ/mol
# GULP energy per Si atom -5595.261405 kJ/mol
# Density = 1.879429 g / cm^3
# Si number density = 18.837169 Si / 1000 Ang^3
#
#
#
# Elastic Constant Matrix: (Units=GPa)
#
#
# Indices 1 2 3 4 5 6 
#
# 1 117.2221 99.6594 78.5461 0.0000 0.0000 0.0000
# 2 99.6594 143.7099 79.1578 0.0000 0.0000 0.0000
# 3 78.5461 79.1578 196.3058 0.0000 0.0000 0.0000
# 4 0.0000 0.0000 0.0000 37.9552 0.0000 0.0000
# 5 0.0000 0.0000 0.0000 0.0000 37.4886 0.0000
# 6 0.0000 0.0000 0.0000 0.0000 0.0000 55.3101
#
#
#
# Elastic Compliance Matrix: (Units=1/GPa)
#
#
# Indices 1 2 3 4 5 6 
#
# 1 0.022499 -0.013683 -0.003485 0.000000 0.000000 0.000000
# 2 -0.013683 0.017267 -0.001488 0.000000 0.000000 0.000000
# 3 -0.003485 -0.001488 0.007088 0.000000 0.000000 0.000000
# 4 0.000000 0.000000 0.000000 0.026347 0.000000 0.000000
# 5 0.000000 0.000000 0.000000 0.000000 0.026675 0.000000
# 6 0.000000 0.000000 0.000000 0.000000 0.000000 0.018080
#
#
# Mechanical properties :
#
#
# Convention : Reuss Voigt Hill
#
# Bulk Modulus (GPa) = 104.78949 107.99605 106.39277
# Shear Modulus (GPa) = 31.55639 39.47577 35.51608
#
# Velocity S-wave (km/s) = 4.09738 4.58277 4.34686
# Velocity P-wave (km/s) = 8.83938 9.24436 9.04414
#
# Compressibility (1/GPa) = 0.00954294
#
# Stress axis : x y z
#
# Youngs Moduli (GPa) = 44.44731 57.91521 141.07661
#
# Poissons Ratio (x) = 0.79244 0.49162
# Poissons Ratio (y) = 0.60816 0.20989
# Poissons Ratio (z) = 0.15489 0.08617
#
# Static dielectric constant tensor:
#      x y z
#    x 1.648590 0.000000 0.000000 
#    y 0.000000 1.612060 0.000000 
#    z 0.000000 0.000000 1.625430 
# 
# From -- ./inp_files/2087.got.cif
#   From: 2010.05.17/outbox.cif.g08.bks.cpg/sg49_2_cif.got.tgz:2087.got - 2010.06.03 21:02:19.
