data_PCOD9394483
_publ_section_title
;
Structure prediction by ZEFSAII (Michael W. Deem and Ramdas Pophale) SiO2 
 PCOD9394483
Probable space group: P C C M
;
_chemical_formula_sum "Si O2"
_cell_formula_units_Z 56
_cell_length_a 16.843857
_cell_length_b 9.429713
_cell_length_c 17.667620
_cell_angle_alpha 90.000000
_cell_angle_beta 90.000000
_cell_angle_gamma 90.000000
_cell_volume 2806.196447
_symmetry_space_group_name_H-M "P C C M"
_symmetry_group_IT_number 49
_symmetry_cell_setting 'orthorhombic'
loop_
_space_group_symop_operation_xyz
x,y,z
-x,-y,z
x,-y,1/2-z
-x,y,1/2-z
-x,-y,-z
x,y,-z
-x,y,1/2+z
x,-y,1/2+z
loop_
_atom_site_type_symbol
_atom_site_label
_atom_site_fract_x
_atom_site_fract_y
_atom_site_fract_z
Si Si1 0.262028 0.918802 0.086097
Si Si2 0.426681 0.083475 0.670629
Si Si3 0.575365 0.421328 0.168339
Si Si4 0.013372 0.834084 0.340132
Si Si5 0.253442 0.479957 0.840111
Si Si6 0.137101 0.689359 0.909330
Si Si7 0.817155 0.224600 0.412139
O O1 0.344013 0.930804 0.128662
O O2 0.201013 0.805347 0.119486
O O3 0.216722 0.066563 0.085413
O O4 0.279050 0.874626 0.000000
O O5 0.440494 0.253311 0.677473
O O6 0.500000 0.000000 0.632034
O O7 0.418370 0.000000 0.750000
O O8 0.500000 0.500000 0.130030
O O9 0.581196 0.500000 0.250000
O O10 0.663024 0.449487 0.133976
O O11 0.947608 0.735094 0.378522
O O12 0.000000 0.826216 0.250000
O O13 0.099627 0.783873 0.367737
O O14 0.000000 0.000000 0.362661
O O15 0.247173 0.500000 0.750000
O O16 0.175462 0.546436 0.878643
O O17 0.246875 0.318663 0.867012
O O18 0.134706 0.690164 0.000000
O O19 0.827238 0.271831 0.500000
#
# Coordination Sequence:
#
# PCOD9394483 Si02
#       7
#     8   8   8   8   8   8   8
#     4  10  23  40  62  89 127 165 206 256 306 372
#     4  11  23  37  65  97 123 161 213 262 309 374
#     4  10  21  38  59  90 130 164 201 255 318 366
#     4  11  23  39  64  97 128 159 205 264 317 368
#     4  11  24  40  64  93 125 165 209 261 312 369
#     4  11  22  42  65  89 125 169 207 251 314 378
#     4  11  24  42  64  92 126 167 211 254 310 382
#
# _framework density 19.955836000000001
#
# number of rings (size 3 to 8) (size 9 to 14) (size 15 to 20)
#    0.000    1.286    2.857    3.429    6.000    2.571 
#    0.000    2.857    0.000    2.143    0.000    0.000 
#    0.000    0.000    0.000    0.000    0.000    0.000 
#
# Total GULP energy -312557.872715 kJ/mol
# GULP energy per Si atom -5581.390584 kJ/mol
# Density = 1.991042 g / cm^3
# Si number density = 19.955836 Si / 1000 Ang^3
#
#
#
# Elastic Constant Matrix: (Units=GPa)
#
#
# Indices 1 2 3 4 5 6 
#
# 1 125.0974 22.2522 26.3233 0.0000 0.0000 0.0000
# 2 22.2522 68.7532 0.9673 0.0000 0.0000 0.0000
# 3 26.3233 0.9673 50.4523 0.0000 0.0000 0.0000
# 4 0.0000 0.0000 0.0000 24.8692 0.0000 0.0000
# 5 0.0000 0.0000 0.0000 0.0000 28.9907 0.0000
# 6 0.0000 0.0000 0.0000 0.0000 0.0000 28.0481
#
#
#
# Elastic Compliance Matrix: (Units=1/GPa)
#
#
# Indices 1 2 3 4 5 6 
#
# 1 0.009571 -0.003028 -0.004936 0.000000 0.000000 0.000000
# 2 -0.003028 0.015507 0.001283 0.000000 0.000000 0.000000
# 3 -0.004936 0.001283 0.022371 0.000000 0.000000 0.000000
# 4 0.000000 0.000000 0.000000 0.040210 0.000000 0.000000
# 5 0.000000 0.000000 0.000000 0.000000 0.034494 0.000000
# 6 0.000000 0.000000 0.000000 0.000000 0.000000 0.035653
#
#
# Mechanical properties :
#
#
# Convention : Reuss Voigt Hill
#
# Bulk Modulus (GPa) = 29.33689 38.15426 33.74557
# Shear Modulus (GPa) = 27.39266 29.36563 28.37915
#
# Velocity S-wave (km/s) = 3.70897 3.84022 3.77516
# Velocity P-wave (km/s) = 5.75106 6.23088 5.99577
#
# Compressibility (1/GPa) = 0.03408677
#
# Stress axis : x y z
#
# Youngs Moduli (GPa) = 104.48243 64.48768 44.70030
#
# Poissons Ratio (x) = 0.19528 0.22062
# Poissons Ratio (y) = 0.31640 -0.05734
# Poissons Ratio (z) = 0.51568 -0.08272
#
# Static dielectric constant tensor:
#      x y z
#    x 1.730680 0.000000 0.000000 
#    y 0.000000 1.744670 0.000000 
#    z 0.000000 0.000000 1.701050 
# 
# From -- ./inp_files/20891.got.cif
#   From: 2010.05.17/outbox.cif.g08.bks.cpg/sg49_11_cif.got.tgz:20891.got - 2010.06.03 21:02:19.
