data_PCOD9394267
_publ_section_title
;
Structure prediction by ZEFSAII (Michael W. Deem and Ramdas Pophale) SiO2 
 PCOD9394267
Probable space group: P C C M
;
_chemical_formula_sum "Si O2"
_cell_formula_units_Z 40
_cell_length_a 12.768950
_cell_length_b 5.143338
_cell_length_c 30.140842
_cell_angle_alpha 90.000000
_cell_angle_beta 90.000000
_cell_angle_gamma 90.000000
_cell_volume 1979.500575
_symmetry_space_group_name_H-M "P C C M"
_symmetry_group_IT_number 49
_symmetry_cell_setting 'orthorhombic'
loop_
_space_group_symop_operation_xyz
x,y,z
-x,-y,z
x,-y,1/2-z
-x,y,1/2-z
-x,-y,-z
x,y,-z
-x,y,1/2+z
x,-y,1/2+z
loop_
_atom_site_type_symbol
_atom_site_label
_atom_site_fract_x
_atom_site_fract_y
_atom_site_fract_z
Si Si1 0.614757 0.985722 0.580427
Si Si2 0.382108 0.258896 0.229500
Si Si3 0.339966 0.484589 0.134937
Si Si4 0.842836 0.065842 0.049926
Si Si5 0.888643 0.444076 0.393865
O O1 0.616115 0.768314 0.620639
O O2 0.716276 0.914214 0.552191
O O3 0.500000 0.000000 0.559709
O O4 0.635255 0.278484 0.596660
O O5 0.321850 0.500000 0.250000
O O6 0.500000 0.254910 0.250000
O O7 0.384777 0.337456 0.178204
O O8 0.334107 0.000000 0.250000
O O9 0.213611 0.498259 0.136170
O O10 0.883501 0.342744 0.066768
O O11 0.877557 0.841188 0.084345
O O12 0.875125 0.004389 0.000000
O O13 0.000000 0.500000 0.371375
#
# Coordination Sequence:
#
# PCOD9394267 Si02
#       5
#     8   8   8   8   8
#     4  10  21  33  54  76 108 155 182 215 268 333
#     4  10  21  32  50  80 110 139 165 215 267 322
#     4  10  21  36  52  79 113 140 182 224 265 328
#     4  10  21  36  53  82 113 139 187 239 276 323
#     4  10  21  37  57  80 105 146 188 228 282 325
#
# _framework density 20.207118000000001
#
# number of rings (size 3 to 8) (size 9 to 14) (size 15 to 20)
#    0.000    2.000    0.000    3.000    8.400    2.800 
#    0.000    0.000    0.000    7.800    0.000    1.400 
#    0.000    0.000    0.000    0.000    0.000    0.000 
#
# Total GULP energy -222762.195924 kJ/mol
# GULP energy per Si atom -5569.054898 kJ/mol
# Density = 2.016113 g / cm^3
# Si number density = 20.207118 Si / 1000 Ang^3
#
#
#
# Elastic Constant Matrix: (Units=GPa)
#
#
# Indices 1 2 3 4 5 6 
#
# 1 135.4018 2.7339 7.1305 0.0000 0.0000 0.0000
# 2 2.7339 134.6082 -4.5080 0.0000 0.0000 0.0000
# 3 7.1305 -4.5080 42.7569 0.0000 0.0000 0.0000
# 4 0.0000 0.0000 0.0000 30.6016 0.0000 0.0000
# 5 0.0000 0.0000 0.0000 0.0000 -3.9653 0.0000
# 6 0.0000 0.0000 0.0000 0.0000 0.0000 9.0569
#
#
#
# Elastic Compliance Matrix: (Units=1/GPa)
#
#
# Indices 1 2 3 4 5 6 
#
# 1 0.007456 -0.000194 -0.001264 0.000000 0.000000 0.000000
# 2 -0.000194 0.007460 0.000819 0.000000 0.000000 0.000000
# 3 -0.001264 0.000819 0.023685 0.000000 0.000000 0.000000
# 4 0.000000 0.000000 0.000000 0.032678 0.000000 0.000000
# 5 0.000000 0.000000 0.000000 0.000000 -0.252190 0.000000
# 6 0.000000 0.000000 0.000000 0.000000 0.000000 0.110414
#
#
# Mechanical properties :
#
#
# Convention : Reuss Voigt Hill
#
# Bulk Modulus (GPa) = 26.79245 35.94219 31.36732
# Shear Modulus (GPa) = -88.06167 27.63267 -30.21450
#
# Velocity S-wave (km/s) = -6.60864 3.70195 -3.87103
# Velocity P-wave (km/s) = 6.70406 6.00817 2.10314
#
# Compressibility (1/GPa) = 0.03732395
#
# Stress axis : x y z
#
# Youngs Moduli (GPa) = 134.12211 134.04240 42.22055
#
# Poissons Ratio (x) = 0.02597 0.05336
# Poissons Ratio (y) = 0.02599 -0.03457
# Poissons Ratio (z) = 0.16951 -0.10977
#
# Static dielectric constant tensor:
#      x y z
#    x 1.776060 0.000000 0.000000 
#    y 0.000000 1.732220 0.000000 
#    z 0.000000 0.000000 1.810890 
# 
# From -- ./inp_files/23758.got.cif
#   From: 2010.05.17/outbox.cif.g08.bks.cpg/sg49_12_cif.got.tgz:23758.got - 2010.06.03 21:02:19.
