data_PCOD9394646
_publ_section_title
;
Structure prediction by ZEFSAII (Michael W. Deem and Ramdas Pophale) SiO2 
 PCOD9394646
Probable space group: P C C M
;
_chemical_formula_sum "Si O2"
_cell_formula_units_Z 40
_cell_length_a 8.866840
_cell_length_b 15.047904
_cell_length_c 14.825172
_cell_angle_alpha 90.000000
_cell_angle_beta 90.000000
_cell_angle_gamma 90.000000
_cell_volume 1978.083519
_symmetry_space_group_name_H-M "P C C M"
_symmetry_group_IT_number 49
_symmetry_cell_setting 'orthorhombic'
loop_
_space_group_symop_operation_xyz
x,y,z
-x,-y,z
x,-y,1/2-z
-x,y,1/2-z
-x,-y,-z
x,y,-z
-x,y,1/2+z
x,-y,1/2+z
loop_
_atom_site_type_symbol
_atom_site_label
_atom_site_fract_x
_atom_site_fract_y
_atom_site_fract_z
Si Si1 0.205564 0.641920 0.000000
Si Si2 0.539819 0.234113 0.000000
Si Si3 0.713519 0.356839 0.500000
Si Si4 0.932538 0.094449 0.150201
Si Si5 0.958665 0.771200 0.000000
Si Si6 0.567655 0.093832 0.849474
Si Si7 0.182779 0.502237 0.645190
O O1 0.286583 0.736107 0.000000
O O2 0.235713 0.583300 0.911817
O O3 0.032604 0.673068 0.000000
O O4 0.515572 0.173515 0.913102
O O5 0.460390 0.329707 0.000000
O O6 0.785528 0.257920 0.500000
O O7 0.757588 0.413625 0.588242
O O8 0.750358 0.090193 0.152263
O O9 0.000000 0.107896 0.250000
O O10 0.992083 0.172278 0.086181
O O11 0.000000 0.000000 0.117926
O O12 0.500000 0.106316 0.750000
O O13 0.500000 0.000000 0.882787
O O14 0.228233 0.500000 0.750000
O O15 0.000000 0.500000 0.641925
#
# Coordination Sequence:
#
# PCOD9394646 Si02
#       7
#     4   4   4   8   4   8   8
#     4  11  21  44  60  92 126 156 204 260 303 379
#     4  12  27  41  63  92 133 167 209 257 319 373
#     4  11  25  40  62 100 120 163 212 256 311 381
#     4  11  24  41  64  95 124 169 217 261 309 365
#     4  12  23  39  67  92 131 160 211 269 304 358
#     4  11  24  43  62  89 132 174 207 258 316 376
#     4  10  21  41  68  92 123 161 200 257 323 372
#
# _framework density 20.221592999999999
#
# number of rings (size 3 to 8) (size 9 to 14) (size 15 to 20)
#    0.000    1.000    4.000    3.600    5.600    4.800 
#    0.000    1.000    0.000    0.000    0.000    0.000 
#    0.000    0.000    0.000    0.000    0.000    0.000 
#
# Total GULP energy -223383.045581 kJ/mol
# GULP energy per Si atom -5584.576140 kJ/mol
# Density = 2.017557 g / cm^3
# Si number density = 20.221593 Si / 1000 Ang^3
#
#
#
# Elastic Constant Matrix: (Units=GPa)
#
#
# Indices 1 2 3 4 5 6 
#
# 1 47.3605 12.7772 18.2684 0.0000 0.0000 0.0000
# 2 12.7772 110.5367 71.7604 0.0000 0.0000 0.0000
# 3 18.2684 71.7604 148.2101 0.0000 0.0000 0.0000
# 4 0.0000 0.0000 0.0000 33.8223 0.0000 0.0000
# 5 0.0000 0.0000 0.0000 0.0000 22.8710 0.0000
# 6 0.0000 0.0000 0.0000 0.0000 0.0000 43.4090
#
#
#
# Elastic Compliance Matrix: (Units=1/GPa)
#
#
# Indices 1 2 3 4 5 6 
#
# 1 0.022269 -0.001155 -0.002186 0.000000 0.000000 0.000000
# 2 -0.001155 0.013254 -0.006275 0.000000 0.000000 0.000000
# 3 -0.002186 -0.006275 0.010055 0.000000 0.000000 0.000000
# 4 0.000000 0.000000 0.000000 0.029566 0.000000 0.000000
# 5 0.000000 0.000000 0.000000 0.000000 0.043724 0.000000
# 6 0.000000 0.000000 0.000000 0.000000 0.000000 0.023037
#
#
# Mechanical properties :
#
#
# Convention : Reuss Voigt Hill
#
# Bulk Modulus (GPa) = 37.95559 56.85770 47.40664
# Shear Modulus (GPa) = 29.42589 33.57387 31.49988
#
# Velocity S-wave (km/s) = 3.81881 4.07910 3.95110
# Velocity P-wave (km/s) = 6.18506 7.09674 6.65653
#
# Compressibility (1/GPa) = 0.02634658
#
# Stress axis : x y z
#
# Youngs Moduli (GPa) = 44.90470 75.44893 99.45531
#
# Poissons Ratio (x) = 0.08717 0.21736
# Poissons Ratio (y) = 0.05188 0.62407
# Poissons Ratio (z) = 0.09814 0.47344
#
# Static dielectric constant tensor:
#      x y z
#    x 1.697250 0.000000 0.000000 
#    y 0.000000 1.683120 0.000000 
#    z 0.000000 0.000000 1.680530 
# 
# From -- ./inp_files/11645.got.cif
#   From: 2010.05.17/outbox.cif.g08.bks.cpg/sg49_6_cif.got.tgz:11645.got - 2010.06.03 21:02:19.
