data_PCOD9394739
_publ_section_title
;
Structure prediction by ZEFSAII (Michael W. Deem and Ramdas Pophale) SiO2 
 PCOD9394739
Probable space group: P C C M
;
_chemical_formula_sum "Si O2"
_cell_formula_units_Z 64
_cell_length_a 9.406902
_cell_length_b 17.082703
_cell_length_c 21.204444
_cell_angle_alpha 90.000000
_cell_angle_beta 90.000000
_cell_angle_gamma 90.000000
_cell_volume 3407.454766
_symmetry_space_group_name_H-M "P C C M"
_symmetry_group_IT_number 49
_symmetry_cell_setting 'orthorhombic'
loop_
_space_group_symop_operation_xyz
x,y,z
-x,-y,z
x,-y,1/2-z
-x,y,1/2-z
-x,-y,-z
x,y,-z
-x,y,1/2+z
x,-y,1/2+z
loop_
_atom_site_type_symbol
_atom_site_label
_atom_site_fract_x
_atom_site_fract_y
_atom_site_fract_z
Si Si1 0.004886 0.264163 0.428482
Si Si2 0.465954 0.715424 0.683316
Si Si3 0.269931 0.201058 0.648682
Si Si4 0.646591 0.458419 0.683567
Si Si5 0.169540 0.910390 0.739129
Si Si6 0.875865 0.435661 0.426636
Si Si7 0.532032 0.916063 0.428664
Si Si8 0.739464 0.169212 0.611599
O O1 0.060777 0.267135 0.500000
O O2 0.944415 0.350489 0.412827
O O3 0.872295 0.205180 0.424305
O O4 0.126155 0.232791 0.382280
O O5 0.500000 0.755512 0.750000
O O6 0.620566 0.725411 0.651969
O O7 0.401670 0.630605 0.696009
O O8 0.348902 0.760908 0.644046
O O9 0.233519 0.154310 0.712976
O O10 0.354695 0.136950 0.607374
O O11 0.500000 0.500000 0.663381
O O12 0.692028 0.500000 0.750000
O O13 0.760352 0.456745 0.626977
O O14 0.205996 0.885431 0.668178
O O15 0.000000 0.909148 0.750000
O O16 0.219116 0.000000 0.750000
O O17 0.821411 0.433209 0.500000
O O18 0.000000 0.500000 0.424605
O O19 0.583329 0.928456 0.500000
O O20 0.379511 0.874021 0.428727
O O21 0.500000 0.000000 0.398014
#
# Coordination Sequence:
#
# PCOD9394739 Si02
#       8
#     8   8   8   8   8   8   8   8
#     4  11  23  41  64  89 122 162 208 255 302 364
#     4  11  21  38  58  92 122 155 194 248 303 362
#     4  11  23  38  62  90 121 158 204 253 307 363
#     4  11  23  39  64  93 129 159 200 255 310 369
#     4  11  22  36  57  89 123 156 199 256 312 365
#     4  10  24  45  64  90 126 165 207 254 306 372
#     4  10  22  40  60  86 122 162 206 253 303 365
#     4  11  21  39  63  85 120 160 203 250 308 358
#
# _framework density 18.782349
#
# number of rings (size 3 to 8) (size 9 to 14) (size 15 to 20)
#    0.000    1.250    5.000    1.500    1.750    0.500 
#    0.000    3.750    0.000    3.000    0.000    0.000 
#    0.000    0.000    0.000    0.000    0.000    0.000 
#
# Total GULP energy -356838.848480 kJ/mol
# GULP energy per Si atom -5575.607008 kJ/mol
# Density = 1.873960 g / cm^3
# Si number density = 18.782349 Si / 1000 Ang^3
#
#
#
# Elastic Constant Matrix: (Units=GPa)
#
#
# Indices 1 2 3 4 5 6 
#
# 1 89.1520 26.5101 39.5098 0.0000 0.0000 0.0000
# 2 26.5101 98.6842 33.6858 0.0000 0.0000 0.0000
# 3 39.5098 33.6858 95.5871 0.0000 0.0000 0.0000
# 4 0.0000 0.0000 0.0000 12.4447 0.0000 0.0000
# 5 0.0000 0.0000 0.0000 0.0000 11.2051 0.0000
# 6 0.0000 0.0000 0.0000 0.0000 0.0000 18.0882
#
#
#
# Elastic Compliance Matrix: (Units=1/GPa)
#
#
# Indices 1 2 3 4 5 6 
#
# 1 0.014085 -0.002042 -0.005102 0.000000 0.000000 0.000000
# 2 -0.002042 0.011815 -0.003320 0.000000 0.000000 0.000000
# 3 -0.005102 -0.003320 0.013741 0.000000 0.000000 0.000000
# 4 0.000000 0.000000 0.000000 0.080356 0.000000 0.000000
# 5 0.000000 0.000000 0.000000 0.000000 0.089245 0.000000
# 6 0.000000 0.000000 0.000000 0.000000 0.000000 0.055285
#
#
# Mechanical properties :
#
#
# Convention : Reuss Voigt Hill
#
# Bulk Modulus (GPa) = 53.43976 53.64832 53.54404
# Shear Modulus (GPa) = 17.14139 20.59545 18.86842
#
# Velocity S-wave (km/s) = 3.02426 3.31499 3.17295
# Velocity P-wave (km/s) = 6.38034 6.57855 6.48020
#
# Compressibility (1/GPa) = 0.01871266
#
# Stress axis : x y z
#
# Youngs Moduli (GPa) = 70.99625 84.63760 72.77747
#
# Poissons Ratio (x) = 0.17284 0.37133
# Poissons Ratio (y) = 0.14498 0.24160
# Poissons Ratio (z) = 0.36224 0.28097
#
# Static dielectric constant tensor:
#      x y z
#    x 1.633610 0.000000 0.000000 
#    y 0.000000 1.678570 0.000000 
#    z 0.000000 0.000000 1.673670 
# 
# From -- ./inp_files/20012.got.cif
#   From: 2010.05.17/outbox.cif.g08.bks.cpg/sg49_11_cif.got.tgz:20012.got - 2010.06.03 21:02:19.
