data_PCOD9394394
_publ_section_title
;
Structure prediction by ZEFSAII (Michael W. Deem and Ramdas Pophale) SiO2 
 PCOD9394394
Probable space group: P C C M
;
_chemical_formula_sum "Si O2"
_cell_formula_units_Z 64
_cell_length_a 24.009193
_cell_length_b 9.120960
_cell_length_c 14.421086
_cell_angle_alpha 90.000000
_cell_angle_beta 90.000000
_cell_angle_gamma 90.000000
_cell_volume 3158.028759
_symmetry_space_group_name_H-M "P C C M"
_symmetry_group_IT_number 49
_symmetry_cell_setting 'orthorhombic'
loop_
_space_group_symop_operation_xyz
x,y,z
-x,-y,z
x,-y,1/2-z
-x,y,1/2-z
-x,-y,-z
x,y,-z
-x,y,1/2+z
x,-y,1/2+z
loop_
_atom_site_type_symbol
_atom_site_label
_atom_site_fract_x
_atom_site_fract_y
_atom_site_fract_z
Si Si1 0.895137 0.340369 0.784000
Si Si2 0.351111 0.261144 0.110958
Si Si3 0.943318 0.935540 0.354116
Si Si4 0.661211 0.605844 0.389906
Si Si5 0.564043 0.677501 0.746382
Si Si6 0.217455 0.260890 0.387901
Si Si7 0.252969 0.056616 0.891620
Si Si8 0.864777 0.823700 0.900966
O O1 0.912763 0.500000 0.750000
O O2 0.936387 0.238768 0.845429
O O3 0.835271 0.333470 0.836439
O O4 0.888166 0.257154 0.686841
O O5 0.336372 0.431535 0.131302
O O6 0.408381 0.246661 0.164715
O O7 0.306144 0.142817 0.145679
O O8 0.355455 0.247891 0.000000
O O9 0.942835 0.000000 0.250000
O O10 0.890034 0.011877 0.399936
O O11 0.000000 0.000000 0.395929
O O12 0.650675 0.621774 0.500000
O O13 0.611404 0.689014 0.334943
O O14 0.723242 0.662641 0.370428
O O15 0.560295 0.500000 0.750000
O O16 0.500000 0.728339 0.750000
O O17 0.207246 0.261449 0.500000
O O18 0.229453 0.095138 0.351833
O O19 0.201301 0.167261 0.892050
O O20 0.265776 0.021304 0.000000
O O21 0.879442 0.755327 0.000000
#
# Coordination Sequence:
#
# PCOD9394394 Si02
#       8
#     8   8   8   8   8   8   8   8
#     4  11  24  37  60  94 124 158 195 249 307 353
#     4   9  18  32  52  78 105 141 187 237 287 341
#     4   9  19  40  63  84 115 158 205 243 286 346
#     4   9  19  33  50  76 110 146 183 232 294 353
#     4   9  18  32  51  76 106 141 186 241 293 350
#     4  10  21  37  57  84 122 160 194 238 297 359
#     4   9  18  33  54  79 112 148 188 234 280 339
#     4  10  21  38  58  87 120 157 202 241 287 353
#
# _framework density 20.265806999999999
#
# number of rings (size 3 to 8) (size 9 to 14) (size 15 to 20)
#    0.000    2.500    1.250    0.000    3.500    1.750 
#    0.000    7.500    0.000    2.250    0.000    3.500 
#    0.000    0.000    0.000    0.000    0.000    0.000 
#
# Total GULP energy -356396.859369 kJ/mol
# GULP energy per Si atom -5568.700928 kJ/mol
# Density = 2.021968 g / cm^3
# Si number density = 20.265807 Si / 1000 Ang^3
#
#
#
# Elastic Constant Matrix: (Units=GPa)
#
#
# Indices 1 2 3 4 5 6 
#
# 1 119.2110 34.1417 20.0096 0.0000 0.0000 0.0000
# 2 34.1417 62.0332 10.3681 0.0000 0.0000 0.0000
# 3 20.0096 10.3681 56.3580 0.0000 0.0000 0.0000
# 4 0.0000 0.0000 0.0000 13.9538 0.0000 0.0000
# 5 0.0000 0.0000 0.0000 0.0000 -91.1924 0.0000
# 6 0.0000 0.0000 0.0000 0.0000 0.0000 18.3149
#
#
#
# Elastic Compliance Matrix: (Units=1/GPa)
#
#
# Indices 1 2 3 4 5 6 
#
# 1 0.010344 -0.005240 -0.002708 0.000000 0.000000 0.000000
# 2 -0.005240 0.019287 -0.001688 0.000000 0.000000 0.000000
# 3 -0.002708 -0.001688 0.019016 0.000000 0.000000 0.000000
# 4 0.000000 0.000000 0.000000 0.071665 0.000000 0.000000
# 5 0.000000 0.000000 0.000000 0.000000 -0.010966 0.000000
# 6 0.000000 0.000000 0.000000 0.000000 0.000000 0.054600
#
#
# Mechanical properties :
#
#
# Convention : Reuss Voigt Hill
#
# Bulk Modulus (GPa) = 34.04425 40.73787 37.39106
# Shear Modulus (GPa) = 25.90537 -0.24589 12.82974
#
# Velocity S-wave (km/s) = 3.57918 -0.34871 2.51882
# Velocity P-wave (km/s) = 5.82375 4.47027 5.19131
#
# Compressibility (1/GPa) = 0.02937353
#
# Stress axis : x y z
#
# Youngs Moduli (GPa) = 96.67495 51.84931 52.58781
#
# Poissons Ratio (x) = 0.27171 0.14243
# Poissons Ratio (y) = 0.50661 0.08874
# Poissons Ratio (z) = 0.26184 0.08750
#
# Static dielectric constant tensor:
#      x y z
#    x 1.748400 0.000000 0.000000 
#    y 0.000000 1.765430 0.000000 
#    z 0.000000 0.000000 1.771440 
# 
# From -- ./inp_files/14525.got.cif
#   From: 2010.05.17/outbox.cif.g08.bks.cpg/sg49_8_cif.got.tgz:14525.got - 2010.06.03 21:02:19.
