data_PCOD9394149
_publ_section_title
;
Structure prediction by ZEFSAII (Michael W. Deem and Ramdas Pophale) SiO2 
 PCOD9394149
Probable space group: P C C M
;
_chemical_formula_sum "Si O2"
_cell_formula_units_Z 54
_cell_length_a 5.446538
_cell_length_b 22.604827
_cell_length_c 23.259637
_cell_angle_alpha 90.000000
_cell_angle_beta 90.000000
_cell_angle_gamma 90.000000
_cell_volume 2863.681133
_symmetry_space_group_name_H-M "P C C M"
_symmetry_group_IT_number 49
_symmetry_cell_setting 'orthorhombic'
loop_
_space_group_symop_operation_xyz
x,y,z
-x,-y,z
x,-y,1/2-z
-x,y,1/2-z
-x,-y,-z
x,y,-z
-x,y,1/2+z
x,-y,1/2+z
loop_
_atom_site_type_symbol
_atom_site_label
_atom_site_fract_x
_atom_site_fract_y
_atom_site_fract_z
Si Si1 0.315589 0.727953 0.432438
Si Si2 0.096757 0.932758 0.935154
Si Si3 0.816644 0.346148 0.067688
Si Si4 0.000000 0.128264 0.750000
Si Si5 0.788300 0.842229 0.140179
Si Si6 0.257345 0.465257 0.638476
Si Si7 0.402585 0.065159 0.323938
Si Si8 0.500000 0.500000 0.250000
O O1 0.824766 0.636717 0.500000
O O2 0.574732 0.694576 0.424790
O O3 0.306839 0.785192 0.392160
O O4 0.073748 0.687784 0.420245
O O5 0.313891 0.934588 0.889851
O O6 0.910452 0.885968 0.906706
O O7 0.161653 0.915363 0.000000
O O8 0.000000 0.000000 0.936270
O O9 0.779574 0.403126 0.107411
O O10 0.298165 0.255034 0.000000
O O11 0.036155 0.170618 0.805681
O O12 0.192781 0.082621 0.720647
O O13 0.594681 0.881942 0.174707
O O14 0.500000 0.500000 0.614036
O O15 0.331928 0.462293 0.706161
O O16 0.000000 0.500000 0.632781
O O17 0.500000 0.000000 0.312661
#
# Coordination Sequence:
#
# PCOD9394149 Si02
#       8
#     8   8   8   4   8   8   8   2
#     4  10  23  42  65  91 128 170 213 259 314 381
#     4  10  21  37  57  88 121 144 189 252 315 387
#     4  10  22  41  64  97 132 167 211 259 308 370
#     4  10  26  41  60  84 118 148 211 266 312 390
#     4  11  23  41  61  84 115 161 209 252 318 376
#     4  10  20  37  65  95 134 170 211 256 308 362
#     4  11  23  41  60  87 114 154 196 256 332 387
#     4   8  22  36  60  96 134 172 214 246 304 356
#
# _framework density 18.856846999999998
#
# number of rings (size 3 to 8) (size 9 to 14) (size 15 to 20)
#    0.444    1.333    1.481    2.000    4.148    3.852 
#    0.000    1.481    0.000    0.000    0.000    0.000 
#    0.000    0.000    0.000    0.000    0.000    0.000 
#
# Total GULP energy -300777.857138 kJ/mol
# GULP energy per Si atom -5569.960317 kJ/mol
# Density = 1.881393 g / cm^3
# Si number density = 18.856847 Si / 1000 Ang^3
#
#
#
# Elastic Constant Matrix: (Units=GPa)
#
#
# Indices 1 2 3 4 5 6 
#
# 1 55.2779 6.0433 12.5891 0.0000 0.0000 0.0000
# 2 6.0433 71.3354 39.1336 0.0000 0.0000 0.0000
# 3 12.5891 39.1336 122.3905 0.0000 0.0000 0.0000
# 4 0.0000 0.0000 0.0000 17.0892 0.0000 0.0000
# 5 0.0000 0.0000 0.0000 0.0000 35.5015 0.0000
# 6 0.0000 0.0000 0.0000 0.0000 0.0000 20.2844
#
#
#
# Elastic Compliance Matrix: (Units=1/GPa)
#
#
# Indices 1 2 3 4 5 6 
#
# 1 0.018548 -0.000636 -0.001704 0.000000 0.000000 0.000000
# 2 -0.000636 0.017022 -0.005377 0.000000 0.000000 0.000000
# 3 -0.001704 -0.005377 0.010065 0.000000 0.000000 0.000000
# 4 0.000000 0.000000 0.000000 0.058517 0.000000 0.000000
# 5 0.000000 0.000000 0.000000 0.000000 0.028168 0.000000
# 6 0.000000 0.000000 0.000000 0.000000 0.000000 0.049299
#
#
# Mechanical properties :
#
#
# Convention : Reuss Voigt Hill
#
# Bulk Modulus (GPa) = 33.11313 40.50399 36.80856
# Shear Modulus (GPa) = 24.14045 27.32420 25.73232
#
# Velocity S-wave (km/s) = 3.58186 3.81075 3.69808
# Velocity P-wave (km/s) = 5.89107 6.39443 6.14790
#
# Compressibility (1/GPa) = 0.03019950
#
# Stress axis : x y z
#
# Youngs Moduli (GPa) = 53.91371 58.74719 99.35192
#
# Poissons Ratio (x) = 0.03738 0.16934
# Poissons Ratio (y) = 0.03431 0.53424
# Poissons Ratio (z) = 0.09189 0.31590
#
# Static dielectric constant tensor:
#      x y z
#    x 1.706340 0.000000 0.000000 
#    y 0.000000 1.565890 0.000000 
#    z 0.000000 0.000000 1.678950 
# 
# From -- ./inp_files/21903.got.cif
#   From: 2010.05.17/outbox.cif.g08.bks.cpg/sg49_11_cif.got.tgz:21903.got - 2010.06.03 21:02:19.
