data_PCOD9394839
_publ_section_title
;
Structure prediction by ZEFSAII (Michael W. Deem and Ramdas Pophale) SiO2 
 PCOD9394839
Probable space group: P C C M
;
_chemical_formula_sum "Si O2"
_cell_formula_units_Z 26
_cell_length_a 14.669205
_cell_length_b 5.275755
_cell_length_c 15.805729
_cell_angle_alpha 90.000000
_cell_angle_beta 90.000000
_cell_angle_gamma 90.000000
_cell_volume 1223.223253
_symmetry_space_group_name_H-M "P C C M"
_symmetry_group_IT_number 49
_symmetry_cell_setting 'orthorhombic'
loop_
_space_group_symop_operation_xyz
x,y,z
-x,-y,z
x,-y,1/2-z
-x,y,1/2-z
-x,-y,-z
x,y,-z
-x,y,1/2+z
x,-y,1/2+z
loop_
_atom_site_type_symbol
_atom_site_label
_atom_site_fract_x
_atom_site_fract_y
_atom_site_fract_z
Si Si1 0.500000 0.000000 0.750000
Si Si2 0.039957 0.251595 0.653559
Si Si3 0.675138 0.127227 0.664571
Si Si4 0.240246 0.350320 0.597720
O O1 0.430904 0.842812 0.690730
O O2 0.147799 0.273002 0.646145
O O3 0.000000 0.500000 0.611268
O O4 0.000000 0.250931 0.750000
O O5 0.000000 0.000000 0.613098
O O6 0.717704 0.394081 0.638260
O O7 0.715763 0.000000 0.750000
O O8 0.693073 0.894203 0.601299
O O9 0.218702 0.404483 0.500000
#
# Coordination Sequence:
#
# PCOD9394839 Si02
#       4
#     2   8   8   8
#     4   8  24  42  74  98 130 170 250 266 324 418
#     4  10  23  37  61  91 127 176 225 268 319 398
#     4  10  24  43  72  93 130 180 226 278 329 418
#     4  12  25  42  65 102 137 171 221 289 348 394
#
# _framework density 21.255319
#
# number of rings (size 3 to 8) (size 9 to 14) (size 15 to 20)
#    0.923    0.615    0.000    3.692   12.923    3.692 
#    0.000    4.615    0.000    0.000    0.000    0.000 
#    0.000    0.000    0.000    0.000    0.000    0.000 
#
# Total GULP energy -144851.757359 kJ/mol
# GULP energy per Si atom -5571.221437 kJ/mol
# Density = 2.120694 g / cm^3
# Si number density = 21.255319 Si / 1000 Ang^3
#
#
#
# Elastic Constant Matrix: (Units=GPa)
#
#
# Indices 1 2 3 4 5 6 
#
# 1 172.8679 86.6786 51.5765 0.0000 0.0000 0.0000
# 2 86.6786 211.7886 22.1330 0.0000 0.0000 0.0000
# 3 51.5765 22.1330 95.5933 0.0000 0.0000 0.0000
# 4 0.0000 0.0000 0.0000 14.8162 0.0000 0.0000
# 5 0.0000 0.0000 0.0000 0.0000 -5.9366 0.0000
# 6 0.0000 0.0000 0.0000 0.0000 0.0000 33.7258
#
#
#
# Elastic Compliance Matrix: (Units=1/GPa)
#
#
# Indices 1 2 3 4 5 6 
#
# 1 0.008474 -0.003064 -0.003862 0.000000 0.000000 0.000000
# 2 -0.003064 0.005947 0.000276 0.000000 0.000000 0.000000
# 3 -0.003862 0.000276 0.012481 0.000000 0.000000 0.000000
# 4 0.000000 0.000000 0.000000 0.067494 0.000000 0.000000
# 5 0.000000 0.000000 0.000000 0.000000 -0.168448 0.000000
# 6 0.000000 0.000000 0.000000 0.000000 0.000000 0.029651
#
#
# Mechanical properties :
#
#
# Convention : Reuss Voigt Hill
#
# Bulk Modulus (GPa) = 73.52469 89.00289 81.26379
# Shear Modulus (GPa) = -188.20157 29.84520 -79.17819
#
# Velocity S-wave (km/s) = -9.41995 3.75124 -6.10998
# Velocity P-wave (km/s) = 9.14591 7.79272 3.38535
#
# Compressibility (1/GPa) = 0.01360087
#
# Stress axis : x y z
#
# Youngs Moduli (GPa) = 118.01288 168.15341 80.12247
#
# Poissons Ratio (x) = 0.51528 0.30946
# Poissons Ratio (y) = 0.36163 -0.02215
# Poissons Ratio (z) = 0.45581 -0.04648
#
# Static dielectric constant tensor:
#      x y z
#    x 1.793980 0.000000 0.000000 
#    y 0.000000 1.807720 0.000000 
#    z 0.000000 0.000000 1.805580 
# 
# From -- ./inp_files/15033.got.cif
#   From: 2010.05.17/outbox.cif.g08.bks.cpg/sg49_8_cif.got.tgz:15033.got - 2010.06.03 21:02:19.
