data_PCOD9394983
_publ_section_title
;
Structure prediction by ZEFSAII (Michael W. Deem and Ramdas Pophale) SiO2 
 PCOD9394983
Probable space group: P C C M
;
_chemical_formula_sum "Si O2"
_cell_formula_units_Z 56
_cell_length_a 14.104697
_cell_length_b 10.252215
_cell_length_c 18.066858
_cell_angle_alpha 90.000000
_cell_angle_beta 90.000000
_cell_angle_gamma 90.000000
_cell_volume 2612.546911
_symmetry_space_group_name_H-M "P C C M"
_symmetry_group_IT_number 49
_symmetry_cell_setting 'orthorhombic'
loop_
_space_group_symop_operation_xyz
x,y,z
-x,-y,z
x,-y,1/2-z
-x,y,1/2-z
-x,-y,-z
x,y,-z
-x,y,1/2+z
x,-y,1/2+z
loop_
_atom_site_type_symbol
_atom_site_label
_atom_site_fract_x
_atom_site_fract_y
_atom_site_fract_z
Si Si1 0.738935 0.532384 0.335811
Si Si2 0.940563 0.871401 0.090159
Si Si3 0.392837 0.019998 0.163062
Si Si4 0.777144 0.953365 0.415100
Si Si5 0.365546 0.287490 0.913164
Si Si6 0.461895 0.352922 0.672648
Si Si7 0.901900 0.689990 0.414444
O O1 0.755221 0.500000 0.250000
O O2 0.696519 0.406218 0.379367
O O3 0.650258 0.634279 0.335256
O O4 0.834834 0.589370 0.371480
O O5 0.994539 0.739529 0.114663
O O6 0.836571 0.919914 0.112768
O O7 0.940939 0.865696 0.000000
O O8 0.000000 0.000000 0.111719
O O9 0.353255 0.157281 0.134405
O O10 0.500000 0.000000 0.136586
O O11 0.391632 0.000000 0.250000
O O12 0.317308 0.922398 0.128663
O O13 0.751874 0.980080 0.500000
O O14 0.844126 0.826754 0.414686
O O15 0.500000 0.500000 0.820908
O O16 0.478412 0.307726 0.897959
O O17 0.346153 0.274152 0.000000
O O18 0.500000 0.287385 0.750000
O O19 0.912175 0.646641 0.500000
#
# Coordination Sequence:
#
# PCOD9394983 Si02
#       7
#     8   8   8   8   8   8   8
#     4  11  21  33  57  86 127 171 216 264 334 401
#     4   7  12  28  54  87 120 148 185 250 319 369
#     4  11  27  41  58  82 124 172 216 264 334 406
#     4   9  18  35  61  89 120 161 210 263 320 382
#     4  11  24  39  58  83 121 166 221 283 329 389
#     4   9  17  34  53  75 111 161 216 263 318 387
#     4   9  18  31  57  94 124 154 209 269 323 395
#
# _framework density 21.435020999999999
#
# number of rings (size 3 to 8) (size 9 to 14) (size 15 to 20)
#    0.000    2.429    2.857    2.571    6.000    4.286 
#    0.000    0.000    0.000    4.714    0.000    5.000 
#    0.000    0.000    0.000    0.143    0.000    0.000 
#
# Total GULP energy -311879.309060 kJ/mol
# GULP energy per Si atom -5569.273376 kJ/mol
# Density = 2.138623 g / cm^3
# Si number density = 21.435021 Si / 1000 Ang^3
#
#
#
# Elastic Constant Matrix: (Units=GPa)
#
#
# Indices 1 2 3 4 5 6 
#
# 1 106.2863 37.0511 35.2720 0.0000 0.0000 0.0000
# 2 37.0511 98.7739 50.4029 0.0000 0.0000 0.0000
# 3 35.2720 50.4029 88.0268 0.0000 0.0000 0.0000
# 4 0.0000 0.0000 0.0000 23.5178 0.0000 0.0000
# 5 0.0000 0.0000 0.0000 0.0000 -7.5187 0.0000
# 6 0.0000 0.0000 0.0000 0.0000 0.0000 24.5981
#
#
#
# Elastic Compliance Matrix: (Units=1/GPa)
#
#
# Indices 1 2 3 4 5 6 
#
# 1 0.011352 -0.002737 -0.002982 0.000000 0.000000 0.000000
# 2 -0.002737 0.014963 -0.007471 0.000000 0.000000 0.000000
# 3 -0.002982 -0.007471 0.016833 0.000000 0.000000 0.000000
# 4 0.000000 0.000000 0.000000 0.042521 0.000000 0.000000
# 5 0.000000 0.000000 0.000000 0.000000 -0.133002 0.000000
# 6 0.000000 0.000000 0.000000 0.000000 0.000000 0.040654
#
#
# Mechanical properties :
#
#
# Convention : Reuss Voigt Hill
#
# Bulk Modulus (GPa) = 59.63421 59.83767 59.73594
# Shear Modulus (GPa) = 197.71255 19.47684 108.59469
#
# Velocity S-wave (km/s) = 9.61449 3.01765 7.12547
# Velocity P-wave (km/s) = 12.29359 6.33388 9.77882
#
# Compressibility (1/GPa) = 0.01676890
#
# Stress axis : x y z
#
# Youngs Moduli (GPa) = 88.08961 66.83110 59.40800
#
# Poissons Ratio (x) = 0.18290 0.17714
# Poissons Ratio (y) = 0.24108 0.44384
# Poissons Ratio (z) = 0.26266 0.49930
#
# Static dielectric constant tensor:
#      x y z
#    x 2.012340 0.000000 0.000000 
#    y 0.000000 1.880120 0.000000 
#    z 0.000000 0.000000 1.645110 
# 
# From -- ./inp_files/20539.got.cif
#   From: 2010.05.17/outbox.cif.g08.bks.cpg/sg49_11_cif.got.tgz:20539.got - 2010.06.03 21:02:19.
