data_PCOD9394610
_publ_section_title
;
Structure prediction by ZEFSAII (Michael W. Deem and Ramdas Pophale) SiO2 
 PCOD9394610
Probable space group: P C C M
;
_chemical_formula_sum "Si O2"
_cell_formula_units_Z 34
_cell_length_a 8.939047
_cell_length_b 19.453687
_cell_length_c 9.632986
_cell_angle_alpha 90.000000
_cell_angle_beta 90.000000
_cell_angle_gamma 90.000000
_cell_volume 1675.151436
_symmetry_space_group_name_H-M "P C C M"
_symmetry_group_IT_number 49
_symmetry_cell_setting 'orthorhombic'
loop_
_space_group_symop_operation_xyz
x,y,z
-x,-y,z
x,-y,1/2-z
-x,y,1/2-z
-x,-y,-z
x,y,-z
-x,y,1/2+z
x,-y,1/2+z
loop_
_atom_site_type_symbol
_atom_site_label
_atom_site_fract_x
_atom_site_fract_y
_atom_site_fract_z
Si Si1 0.852030 0.601124 0.000000
Si Si2 0.856226 0.783675 0.660969
Si Si3 0.360562 0.133965 0.839871
Si Si4 0.677118 0.650775 0.268173
Si Si5 0.193871 0.437707 0.500000
Si Si6 0.500000 0.000000 0.750000
O O1 0.772748 0.636349 0.130309
O O2 0.823429 0.519208 0.000000
O O3 0.033064 0.602076 0.000000
O O4 0.888640 0.800549 0.500000
O O5 0.782073 0.845423 0.749285
O O6 0.740776 0.720512 0.665897
O O7 0.000000 0.762307 0.750000
O O8 0.500000 0.163597 0.750000
O O9 0.397111 0.052543 0.836340
O O10 0.354380 0.157715 0.000000
O O11 0.500000 0.655466 0.250000
O O12 0.716031 0.587545 0.367524
#
# Coordination Sequence:
#
# PCOD9394610 Si02
#       6
#     4   8   8   8   4   2
#     4  11  25  41  73  91 133 179 224 287 348 427
#     4  12  26  44  67  96 137 182 233 291 352 421
#     4  10  21  39  69 102 139 180 226 272 336 399
#     4  12  26  42  66  97 134 174 230 290 350 413
#     4  11  23  47  63  99 129 179 230 277 354 421
#     4   8  22  40  72 104 146 180 226 276 338 400
#
# _framework density 20.296672999999998
#
# number of rings (size 3 to 8) (size 9 to 14) (size 15 to 20)
#    0.706    0.235    1.176    6.000    3.294    4.706 
#    0.000    0.588    0.000    2.824    0.000    0.000 
#    0.000    0.000    0.000    0.000    0.000    0.000 
#
# Total GULP energy -189784.114754 kJ/mol
# GULP energy per Si atom -5581.885728 kJ/mol
# Density = 2.025048 g / cm^3
# Si number density = 20.296673 Si / 1000 Ang^3
#
#
#
# Elastic Constant Matrix: (Units=GPa)
#
#
# Indices 1 2 3 4 5 6 
#
# 1 131.3200 24.4643 40.2612 0.0000 0.0000 0.0000
# 2 24.4643 66.1299 18.7429 0.0000 0.0000 0.0000
# 3 40.2612 18.7429 179.0734 0.0000 0.0000 0.0000
# 4 0.0000 0.0000 0.0000 27.0422 0.0000 0.0000
# 5 0.0000 0.0000 0.0000 0.0000 23.9502 0.0000
# 6 0.0000 0.0000 0.0000 0.0000 0.0000 39.5088
#
#
#
# Elastic Compliance Matrix: (Units=1/GPa)
#
#
# Indices 1 2 3 4 5 6 
#
# 1 0.008630 -0.002723 -0.001655 0.000000 0.000000 0.000000
# 2 -0.002723 0.016444 -0.001109 0.000000 0.000000 0.000000
# 3 -0.001655 -0.001109 0.006072 0.000000 0.000000 0.000000
# 4 0.000000 0.000000 0.000000 0.036979 0.000000 0.000000
# 5 0.000000 0.000000 0.000000 0.000000 0.041753 0.000000
# 6 0.000000 0.000000 0.000000 0.000000 0.000000 0.025311
#
#
# Mechanical properties :
#
#
# Convention : Reuss Voigt Hill
#
# Bulk Modulus (GPa) = 49.57601 60.38445 54.98023
# Shear Modulus (GPa) = 32.70377 37.63724 35.17051
#
# Velocity S-wave (km/s) = 4.01844 4.31089 4.16723
# Velocity P-wave (km/s) = 6.78301 7.38877 7.09236
#
# Compressibility (1/GPa) = 0.02017105
#
# Stress axis : x y z
#
# Youngs Moduli (GPa) = 115.87738 60.81429 164.67707
#
# Poissons Ratio (x) = 0.16562 0.27257
# Poissons Ratio (y) = 0.31558 0.18259
# Poissons Ratio (z) = 0.19180 0.06743
#
# Static dielectric constant tensor:
#      x y z
#    x 1.738190 0.000000 0.000000 
#    y 0.000000 1.717400 0.000000 
#    z 0.000000 0.000000 1.699790 
# 
# From -- ./inp_files/1556.got.cif
#   From: 2010.05.17/outbox.cif.g08.bks.cpg/sg49_1_cif.got.tgz:1556.got - 2010.06.03 21:02:19.
