data_PCOD9394072
_publ_section_title
;
Structure prediction by ZEFSAII (Michael W. Deem and Ramdas Pophale) SiO2 
 PCOD9394072
Probable space group: P C C M
;
_chemical_formula_sum "Si O2"
_cell_formula_units_Z 48
_cell_length_a 18.647737
_cell_length_b 15.532880
_cell_length_c 8.590970
_cell_angle_alpha 90.000000
_cell_angle_beta 90.000000
_cell_angle_gamma 90.000000
_cell_volume 2488.400758
_symmetry_space_group_name_H-M "P C C M"
_symmetry_group_IT_number 49
_symmetry_cell_setting 'orthorhombic'
loop_
_space_group_symop_operation_xyz
x,y,z
-x,-y,z
x,-y,1/2-z
-x,y,1/2-z
-x,-y,-z
x,y,-z
-x,y,1/2+z
x,-y,1/2+z
loop_
_atom_site_type_symbol
_atom_site_label
_atom_site_fract_x
_atom_site_fract_y
_atom_site_fract_z
Si Si1 0.076885 0.771170 0.812356
Si Si2 0.692769 0.406761 0.812363
Si Si3 0.640943 0.093943 0.314372
Si Si4 0.423418 0.733963 0.813048
Si Si5 0.801043 0.906346 0.312446
Si Si6 0.141174 0.592707 0.812249
O O1 0.141162 0.834802 0.766098
O O2 0.095185 0.674219 0.758851
O O3 0.000000 0.799047 0.750000
O O4 0.075050 0.770942 0.000000
O O5 0.669928 0.500000 0.750000
O O6 0.639792 0.330932 0.761951
O O7 0.775611 0.393249 0.763772
O O8 0.692043 0.408730 0.000000
O O9 0.639830 0.091774 0.500000
O O10 0.592796 0.171139 0.251177
O O11 0.722159 0.110979 0.255364
O O12 0.619978 0.000000 0.250000
O O13 0.500000 0.703923 0.750000
O O14 0.424197 0.736541 0.000000
O O15 0.795640 0.908140 0.500000
O O16 0.823237 0.000000 0.250000
O O17 0.117543 0.500000 0.750000
O O18 0.139722 0.590424 0.000000
#
# Coordination Sequence:
#
# PCOD9394072 Si02
#       6
#     8   8   8   8   8   8
#     4  10  22  37  54  77 111 148 183 223 274 328
#     4   9  19  36  59  82 109 143 184 231 278 327
#     4  11  22  38  61  87 112 144 185 230 277 331
#     4  11  23  39  57  82 116 152 187 229 277 329
#     4  10  20  37  59  83 110 143 182 228 275 325
#     4   9  18  35  56  79 104 138 180 225 273 322
#
# _framework density 19.289497999999998
#
# number of rings (size 3 to 8) (size 9 to 14) (size 15 to 20)
#    0.000    2.000    0.000    4.500    0.000    7.333 
#    0.000   10.000    0.000    0.000    0.000    0.000 
#    0.000    0.000    0.000    0.000    0.000    0.000 
#
# Total GULP energy -268154.290919 kJ/mol
# GULP energy per Si atom -5586.547727 kJ/mol
# Density = 1.924559 g / cm^3
# Si number density = 19.289498 Si / 1000 Ang^3
#
#
#
# Elastic Constant Matrix: (Units=GPa)
#
#
# Indices 1 2 3 4 5 6 
#
# 1 16.6266 8.8522 5.4299 0.0000 0.0000 0.0000
# 2 8.8522 50.8166 9.9472 0.0000 0.0000 0.0000
# 3 5.4299 9.9472 48.4879 0.0000 0.0000 0.0000
# 4 0.0000 0.0000 0.0000 16.8957 0.0000 0.0000
# 5 0.0000 0.0000 0.0000 0.0000 29.5983 0.0000
# 6 0.0000 0.0000 0.0000 0.0000 0.0000 -13.9882
#
#
#
# Elastic Compliance Matrix: (Units=1/GPa)
#
#
# Indices 1 2 3 4 5 6 
#
# 1 0.067609 -0.010726 -0.005371 0.000000 0.000000 0.000000
# 2 -0.010726 0.022204 -0.003354 0.000000 0.000000 0.000000
# 3 -0.005371 -0.003354 0.021913 0.000000 0.000000 0.000000
# 4 0.000000 0.000000 0.000000 0.059187 0.000000 0.000000
# 5 0.000000 0.000000 0.000000 0.000000 0.033786 0.000000
# 6 0.000000 0.000000 0.000000 0.000000 0.000000 -0.071489
#
#
# Mechanical properties :
#
#
# Convention : Reuss Voigt Hill
#
# Bulk Modulus (GPa) = 13.73165 18.26553 15.99859
# Shear Modulus (GPa) = 25.46009 12.61462 19.03736
#
# Velocity S-wave (km/s) = 3.63698 2.56004 3.14495
# Velocity P-wave (km/s) = 4.97704 4.26944 4.63676
#
# Compressibility (1/GPa) = 0.07282448
#
# Stress axis : x y z
#
# Youngs Moduli (GPa) = 14.79087 45.03776 45.63463
#
# Poissons Ratio (x) = 0.48308 0.24509
# Poissons Ratio (y) = 0.15865 0.15305
# Poissons Ratio (z) = 0.07944 0.15105
#
# Static dielectric constant tensor:
#      x y z
#    x 1.661740 0.000000 0.000000 
#    y 0.000000 1.664490 0.000000 
#    z 0.000000 0.000000 1.653660 
# 
# From -- ./inp_files/3687.got.cif
#   From: 2010.05.17/outbox.cif.g08.bks.cpg/sg49_2_cif.got.tgz:3687.got - 2010.06.03 21:02:19.
