data_PCOD9394045
_publ_section_title
;
Structure prediction by ZEFSAII (Michael W. Deem and Ramdas Pophale) SiO2 
 PCOD9394045
Probable space group: P C C M
;
_chemical_formula_sum "Si O2"
_cell_formula_units_Z 56
_cell_length_a 8.754841
_cell_length_b 14.329961
_cell_length_c 21.809507
_cell_angle_alpha 90.000000
_cell_angle_beta 90.000000
_cell_angle_gamma 90.000000
_cell_volume 2736.145071
_symmetry_space_group_name_H-M "P C C M"
_symmetry_group_IT_number 49
_symmetry_cell_setting 'orthorhombic'
loop_
_space_group_symop_operation_xyz
x,y,z
-x,-y,z
x,-y,1/2-z
-x,y,1/2-z
-x,-y,-z
x,y,-z
-x,y,1/2+z
x,-y,1/2+z
loop_
_atom_site_type_symbol
_atom_site_label
_atom_site_fract_x
_atom_site_fract_y
_atom_site_fract_z
Si Si1 0.632507 0.576183 0.930339
Si Si2 0.445545 0.893364 0.427212
Si Si3 0.389388 0.719785 0.888314
Si Si4 0.896643 0.411672 0.336074
Si Si5 0.097820 0.086091 0.927834
Si Si6 0.063345 0.716248 0.933171
Si Si7 0.673637 0.387616 0.764706
O O1 0.500000 0.500000 0.926818
O O2 0.543212 0.669307 0.911452
O O3 0.761609 0.553815 0.881304
O O4 0.688626 0.580249 0.000000
O O5 0.453656 0.863747 0.500000
O O6 0.554337 0.826789 0.386612
O O7 0.269036 0.892373 0.405197
O O8 0.500000 0.000000 0.424919
O O9 0.245734 0.714950 0.933074
O O10 0.321157 0.661923 0.830516
O O11 0.812113 0.359183 0.280106
O O12 0.000000 0.500000 0.317665
O O13 0.994729 0.344704 0.378891
O O14 0.997051 0.178939 0.924626
O O15 0.123574 0.063214 0.000000
O O16 0.000000 0.000000 0.901232
O O17 0.008644 0.682770 0.000000
O O18 0.677091 0.500000 0.750000
O O19 0.500000 0.360470 0.750000
#
# Coordination Sequence:
#
# PCOD9394045 Si02
#       7
#     8   8   8   8   8   8   8
#     4  11  22  37  59  90 127 170 213 267 344 413
#     4  10  20  36  63 100 137 176 220 266 332 412
#     4  12  23  39  65  93 131 174 224 280 329 400
#     4  12  25  41  63  90 125 166 217 276 329 396
#     4   9  18  34  56  87 130 170 206 256 317 387
#     4  11  23  37  58  94 133 167 208 267 343 410
#     4  11  24  44  67  88 121 171 232 282 324 385
#
# _framework density 20.466752
#
# number of rings (size 3 to 8) (size 9 to 14) (size 15 to 20)
#    0.000    1.143    1.429    6.000    0.000    7.714 
#    0.000    0.000    0.000    0.429    0.000    1.000 
#    0.000    0.000    0.000    0.000    0.000    0.000 
#
# Total GULP energy -312411.028418 kJ/mol
# GULP energy per Si atom -5578.768365 kJ/mol
# Density = 2.042017 g / cm^3
# Si number density = 20.466752 Si / 1000 Ang^3
#
#
#
# Elastic Constant Matrix: (Units=GPa)
#
#
# Indices 1 2 3 4 5 6 
#
# 1 124.3101 30.2830 48.1757 0.0000 0.0000 0.0000
# 2 30.2830 76.7421 44.3855 0.0000 0.0000 0.0000
# 3 48.1757 44.3855 83.9869 0.0000 0.0000 0.0000
# 4 0.0000 0.0000 0.0000 11.0338 0.0000 0.0000
# 5 0.0000 0.0000 0.0000 0.0000 33.7187 0.0000
# 6 0.0000 0.0000 0.0000 0.0000 0.0000 32.5072
#
#
#
# Elastic Compliance Matrix: (Units=1/GPa)
#
#
# Indices 1 2 3 4 5 6 
#
# 1 0.010391 -0.000941 -0.005463 0.000000 0.000000 0.000000
# 2 -0.000941 0.018852 -0.009423 0.000000 0.000000 0.000000
# 3 -0.005463 -0.009423 0.020020 0.000000 0.000000 0.000000
# 4 0.000000 0.000000 0.000000 0.090631 0.000000 0.000000
# 5 0.000000 0.000000 0.000000 0.000000 0.029657 0.000000
# 6 0.000000 0.000000 0.000000 0.000000 0.000000 0.030762
#
#
# Mechanical properties :
#
#
# Convention : Reuss Voigt Hill
#
# Bulk Modulus (GPa) = 56.78932 58.96973 57.87952
# Shear Modulus (GPa) = 21.02275 26.26493 23.64384
#
# Velocity S-wave (km/s) = 3.20842 3.58620 3.40256
# Velocity P-wave (km/s) = 6.44458 6.78401 6.61647
#
# Compressibility (1/GPa) = 0.01760894
#
# Stress axis : x y z
#
# Youngs Moduli (GPa) = 96.23952 53.04461 49.94881
#
# Poissons Ratio (x) = 0.04989 0.27288
# Poissons Ratio (y) = 0.09051 0.47069
# Poissons Ratio (z) = 0.52578 0.49986
#
# Static dielectric constant tensor:
#      x y z
#    x 1.753210 0.000000 0.000000 
#    y 0.000000 1.746530 0.000000 
#    z 0.000000 0.000000 1.778170 
# 
# From -- ./inp_files/19866.got.cif
#   From: 2010.05.17/outbox.cif.g08.bks.cpg/sg49_10_cif.got.tgz:19866.got - 2010.06.03 21:02:19.
