data_PCOD9394602
_publ_section_title
;
Structure prediction by ZEFSAII (Michael W. Deem and Ramdas Pophale) SiO2 
 PCOD9394602
Probable space group: P C C M
;
_chemical_formula_sum "Si O2"
_cell_formula_units_Z 56
_cell_length_a 20.822468
_cell_length_b 15.835874
_cell_length_c 8.659617
_cell_angle_alpha 90.000000
_cell_angle_beta 90.000000
_cell_angle_gamma 90.000000
_cell_volume 2855.439252
_symmetry_space_group_name_H-M "P C C M"
_symmetry_group_IT_number 49
_symmetry_cell_setting 'orthorhombic'
loop_
_space_group_symop_operation_xyz
x,y,z
-x,-y,z
x,-y,1/2-z
-x,y,1/2-z
-x,-y,-z
x,y,-z
-x,y,1/2+z
x,-y,1/2+z
loop_
_atom_site_type_symbol
_atom_site_label
_atom_site_fract_x
_atom_site_fract_y
_atom_site_fract_z
Si Si1 0.705780 0.324569 0.685131
Si Si2 0.252868 0.131675 0.183201
Si Si3 0.830925 0.589739 0.186885
Si Si4 0.117849 0.089022 0.681555
Si Si5 0.566971 0.725131 0.812760
Si Si6 0.930897 0.265049 0.315075
Si Si7 0.397729 0.912970 0.684446
O O1 0.701320 0.335794 0.500000
O O2 0.736548 0.231694 0.707775
O O3 0.758403 0.390243 0.744042
O O4 0.632318 0.321152 0.741652
O O5 0.193730 0.097551 0.280001
O O6 0.321761 0.092207 0.221574
O O7 0.239658 0.118864 0.000000
O O8 0.852954 0.500000 0.250000
O O9 0.877310 0.666704 0.233568
O O10 0.830308 0.587837 0.000000
O O11 0.107134 0.090176 0.500000
O O12 0.086242 0.171550 0.756485
O O13 0.094875 0.000000 0.750000
O O14 0.500000 0.690746 0.750000
O O15 0.573521 0.823594 0.761778
O O16 0.566612 0.724435 0.000000
O O17 0.932115 0.263444 0.500000
O O18 0.000000 0.289849 0.250000
O O19 0.403586 0.914499 0.500000
O O20 0.424363 0.000000 0.750000
#
# Coordination Sequence:
#
# PCOD9394602 Si02
#       7
#     8   8   8   8   8   8   8
#     4   8  15  33  58  80 109 151 188 228 289 348
#     4   9  16  32  54  76 106 145 192 240 294 346
#     4  10  21  39  66  94 122 154 190 236 291 352
#     4  12  24  37  57  86 119 158 203 248 293 345
#     4   9  18  32  50  72 101 142 189 232 284 344
#     4  11  24  44  66  89 122 161 197 240 293 344
#     4   9  18  29  44  66  98 140 184 236 288 343
#
# _framework density 19.611694
#
# number of rings (size 3 to 8) (size 9 to 14) (size 15 to 20)
#    0.000    2.286    1.429    3.857    0.000    4.286 
#    0.000    7.143    0.000    0.429    0.000    3.000 
#    0.000    0.000    0.000    0.000    0.000    0.000 
#
# Total GULP energy -312531.731775 kJ/mol
# GULP energy per Si atom -5580.923782 kJ/mol
# Density = 1.956706 g / cm^3
# Si number density = 19.611694 Si / 1000 Ang^3
#
#
#
# Elastic Constant Matrix: (Units=GPa)
#
#
# Indices 1 2 3 4 5 6 
#
# 1 113.4340 50.6494 31.2313 0.0000 0.0000 0.0000
# 2 50.6494 88.1813 20.4641 0.0000 0.0000 0.0000
# 3 31.2313 20.4641 26.6072 0.0000 0.0000 0.0000
# 4 0.0000 0.0000 0.0000 -19.4217 0.0000 0.0000
# 5 0.0000 0.0000 0.0000 0.0000 34.0877 0.0000
# 6 0.0000 0.0000 0.0000 0.0000 0.0000 -48.2694
#
#
#
# Elastic Compliance Matrix: (Units=1/GPa)
#
#
# Indices 1 2 3 4 5 6 
#
# 1 0.014928 -0.005488 -0.013302 0.000000 0.000000 0.000000
# 2 -0.005488 0.015821 -0.005727 0.000000 0.000000 0.000000
# 3 -0.013302 -0.005727 0.057603 0.000000 0.000000 0.000000
# 4 0.000000 0.000000 0.000000 -0.051489 0.000000 0.000000
# 5 0.000000 0.000000 0.000000 0.000000 0.029336 0.000000
# 6 0.000000 0.000000 0.000000 0.000000 0.000000 -0.020717
#
#
# Mechanical properties :
#
#
# Convention : Reuss Voigt Hill
#
# Bulk Modulus (GPa) = 25.43333 48.10136 36.76734
# Shear Modulus (GPa) = 46.45842 1.67116 24.06479
#
# Velocity S-wave (km/s) = 4.87243 0.92411 3.50675
# Velocity P-wave (km/s) = 6.68212 5.07137 5.93167
#
# Compressibility (1/GPa) = 0.03931849
#
# Stress axis : x y z
#
# Youngs Moduli (GPa) = 66.98641 63.20597 17.36022
#
# Poissons Ratio (x) = 0.34684 0.23093
# Poissons Ratio (y) = 0.36759 0.09943
# Poissons Ratio (z) = 0.89107 0.36200
#
# Static dielectric constant tensor:
#      x y z
#    x 1.717430 0.000000 0.000000 
#    y 0.000000 1.701800 0.000000 
#    z 0.000000 0.000000 1.667230 
# 
# From -- ./inp_files/5784.got.cif
#   From: 2010.05.17/outbox.cif.g08.bks.cpg/sg49_3_cif.got.tgz:5784.got - 2010.06.03 21:02:19.
