data_PCOD9394690
_publ_section_title
;
Structure prediction by ZEFSAII (Michael W. Deem and Ramdas Pophale) SiO2 
 PCOD9394690
Probable space group: P C C M
;
_chemical_formula_sum "Si O2"
_cell_formula_units_Z 48
_cell_length_a 16.962357
_cell_length_b 8.589204
_cell_length_c 15.086147
_cell_angle_alpha 90.000000
_cell_angle_beta 90.000000
_cell_angle_gamma 90.000000
_cell_volume 2197.948196
_symmetry_space_group_name_H-M "P C C M"
_symmetry_group_IT_number 49
_symmetry_cell_setting 'orthorhombic'
loop_
_space_group_symop_operation_xyz
x,y,z
-x,-y,z
x,-y,1/2-z
-x,y,1/2-z
-x,-y,-z
x,y,-z
-x,y,1/2+z
x,-y,1/2+z
loop_
_atom_site_type_symbol
_atom_site_label
_atom_site_fract_x
_atom_site_fract_y
_atom_site_fract_z
Si Si1 0.247207 0.062176 0.650083
Si Si2 0.418529 0.062587 0.351510
Si Si3 0.076308 0.092800 0.396638
Si Si4 0.081200 0.441823 0.350778
Si Si5 0.580521 0.436532 0.851420
Si Si6 0.750197 0.439229 0.851417
O O1 0.332579 0.015217 0.610319
O O2 0.162431 0.013848 0.611200
O O3 0.248739 0.250778 0.648369
O O4 0.246447 0.000000 0.750000
O O5 0.423132 0.249607 0.350081
O O6 0.500000 0.000000 0.392025
O O7 0.417289 0.000000 0.250000
O O8 0.064016 0.128851 0.500000
O O9 0.079054 0.256081 0.347240
O O10 0.000000 0.000000 0.365099
O O11 0.082071 0.500000 0.250000
O O12 0.165784 0.489482 0.391548
O O13 0.000000 0.500000 0.393207
O O14 0.500000 0.500000 0.892622
O O15 0.581636 0.500000 0.750000
O O16 0.665395 0.485371 0.890728
O O17 0.750045 0.500000 0.750000
#
# Coordination Sequence:
#
# PCOD9394690 Si02
#       6
#     8   8   8   8   8   8
#     4   9  18  30  48  71  97 132 170 212 256 305
#     4   9  15  24  38  62  95 126 159 202 254 301
#     4  10  22  38  54  75 106 142 177 217 268 322
#     4   9  18  33  52  76 101 129 168 214 261 309
#     4   9  14  20  32  52  83 121 150 179 230 290
#     4   8  15  26  39  61  93 120 152 195 242 292
#
# _framework density 21.838550000000001
#
# number of rings (size 3 to 8) (size 9 to 14) (size 15 to 20)
#    0.000    3.000    0.000    2.000    0.000    8.667 
#    0.000    0.000    0.000    0.500    0.000    0.000 
#    0.000   54.000    0.000    0.000    0.000   36.167 
#
# Total GULP energy -267234.621144 kJ/mol
# GULP energy per Si atom -5567.387941 kJ/mol
# Density = 2.178884 g / cm^3
# Si number density = 21.838550 Si / 1000 Ang^3
#
#
#
# Elastic Constant Matrix: (Units=GPa)
#
#
# Indices 1 2 3 4 5 6 
#
# 1 313.5919 53.8295 14.7920 0.0000 0.0000 0.0000
# 2 53.8295 34.2803 8.2182 0.0000 0.0000 0.0000
# 3 14.7920 8.2182 54.5369 0.0000 0.0000 0.0000
# 4 0.0000 0.0000 0.0000 -97.7319 0.0000 0.0000
# 5 0.0000 0.0000 0.0000 0.0000 11.6189 0.0000
# 6 0.0000 0.0000 0.0000 0.0000 0.0000 94.8056
#
#
#
# Elastic Compliance Matrix: (Units=1/GPa)
#
#
# Indices 1 2 3 4 5 6 
#
# 1 0.004367 -0.006820 -0.000157 0.000000 0.000000 0.000000
# 2 -0.006820 0.040915 -0.004316 0.000000 0.000000 0.000000
# 3 -0.000157 -0.004316 0.019029 0.000000 0.000000 0.000000
# 4 0.000000 0.000000 0.000000 -0.010232 0.000000 0.000000
# 5 0.000000 0.000000 0.000000 0.000000 0.086066 0.000000
# 6 0.000000 0.000000 0.000000 0.000000 0.000000 0.010548
#
#
# Mechanical properties :
#
#
# Convention : Reuss Voigt Hill
#
# Bulk Modulus (GPa) = 23.96573 61.78761 42.87667
# Shear Modulus (GPa) = 26.71146 23.44316 25.07731
#
# Velocity S-wave (km/s) = 3.50113 3.27995 3.39234
# Velocity P-wave (km/s) = 5.22893 6.53440 5.91778
#
# Compressibility (1/GPa) = 0.04172624
#
# Stress axis : x y z
#
# Youngs Moduli (GPa) = 228.99699 24.44120 52.55121
#
# Poissons Ratio (x) = 0.16668 0.00824
# Poissons Ratio (y) = 1.56167 0.22680
# Poissons Ratio (z) = 0.03590 0.10548
#
# Static dielectric constant tensor:
#      x y z
#    x 1.951090 0.000000 0.000000 
#    y 0.000000 1.750250 0.000000 
#    z 0.000000 0.000000 1.745820 
# 
# From -- ./inp_files/14012.got.cif
#   From: 2010.05.17/outbox.cif.g08.bks.cpg/sg49_8_cif.got.tgz:14012.got - 2010.06.03 21:02:19.
