data_PCOD9394827
_publ_section_title
;
Structure prediction by ZEFSAII (Michael W. Deem and Ramdas Pophale) SiO2 
 PCOD9394827
Probable space group: P C C M
;
_chemical_formula_sum "Si O2"
_cell_formula_units_Z 56
_cell_length_a 14.265305
_cell_length_b 9.735046
_cell_length_c 19.181528
_cell_angle_alpha 90.000000
_cell_angle_beta 90.000000
_cell_angle_gamma 90.000000
_cell_volume 2663.804018
_symmetry_space_group_name_H-M "P C C M"
_symmetry_group_IT_number 49
_symmetry_cell_setting 'orthorhombic'
loop_
_space_group_symop_operation_xyz
x,y,z
-x,-y,z
x,-y,1/2-z
-x,y,1/2-z
-x,-y,-z
x,y,-z
-x,y,1/2+z
x,-y,1/2+z
loop_
_atom_site_type_symbol
_atom_site_label
_atom_site_fract_x
_atom_site_fract_y
_atom_site_fract_z
Si Si1 0.887728 0.159726 0.249100
Si Si2 0.558097 0.639719 0.921572
Si Si3 0.158487 0.040373 0.500000
Si Si4 0.970684 0.225242 0.500000
Si Si5 0.077260 0.609221 0.360684
Si Si6 0.747307 0.182510 0.871270
Si Si7 0.262731 0.513727 0.917713
Si Si8 0.542118 0.140551 0.827160
O O1 0.879541 0.272514 0.310379
O O2 0.834423 0.210960 0.180400
O O3 0.000000 0.149391 0.250000
O O4 0.854188 0.000000 0.250000
O O5 0.500000 0.500000 0.927732
O O6 0.657589 0.590331 0.891188
O O7 0.500046 0.739621 0.873602
O O8 0.570457 0.696669 0.000000
O O9 0.218215 0.077345 0.568933
O O10 0.068721 0.143073 0.500000
O O11 0.113353 0.888212 0.500000
O O12 0.963462 0.315443 0.429850
O O13 0.164492 0.519696 0.384299
O O14 0.000000 0.500000 0.332438
O O15 0.717090 0.326583 0.905542
O O16 0.654739 0.134368 0.830053
O O17 0.257328 0.490531 0.000000
O O18 0.500000 0.156568 0.750000
O O19 0.500000 0.000000 0.856228
#
# Coordination Sequence:
#
# PCOD9394827 Si02
#       8
#     8   8   4   4   8   8   8   8
#     4  11  26  46  68 101 145 194 242 294 360 436
#     4  10  22  44  71  98 136 176 230 297 357 436
#     4  11  24  42  75 105 145 194 253 293 376 448
#     4  11  23  44  68 110 149 198 239 305 367 439
#     4  12  25  42  71 104 151 191 243 307 363 432
#     4  12  25  45  75 101 143 192 242 306 364 443
#     4  11  23  42  69 103 139 180 233 294 368 429
#     4  11  28  49  71 103 142 187 240 304 370 433
#
# _framework density 21.022568
#
# number of rings (size 3 to 8) (size 9 to 14) (size 15 to 20)
#    0.000    0.857    2.857    3.643    5.000    6.000 
#    0.000    0.000    0.000    0.000    0.000    0.000 
#    0.000    0.000    0.000    0.000    0.000    0.000 
#
# Total GULP energy -312675.302577 kJ/mol
# GULP energy per Si atom -5583.487546 kJ/mol
# Density = 2.097472 g / cm^3
# Si number density = 21.022568 Si / 1000 Ang^3
#
#
#
# Elastic Constant Matrix: (Units=GPa)
#
#
# Indices 1 2 3 4 5 6 
#
# 1 132.6135 22.0923 37.1052 0.0000 0.0000 0.0000
# 2 22.0923 104.1671 38.3128 0.0000 0.0000 0.0000
# 3 37.1052 38.3128 95.7777 0.0000 0.0000 0.0000
# 4 0.0000 0.0000 0.0000 36.3495 0.0000 0.0000
# 5 0.0000 0.0000 0.0000 0.0000 31.8057 0.0000
# 6 0.0000 0.0000 0.0000 0.0000 0.0000 31.2617
#
#
#
# Elastic Compliance Matrix: (Units=1/GPa)
#
#
# Indices 1 2 3 4 5 6 
#
# 1 0.008500 -0.000694 -0.003016 0.000000 0.000000 0.000000
# 2 -0.000694 0.011313 -0.004257 0.000000 0.000000 0.000000
# 3 -0.003016 -0.004257 0.013312 0.000000 0.000000 0.000000
# 4 0.000000 0.000000 0.000000 0.027511 0.000000 0.000000
# 5 0.000000 0.000000 0.000000 0.000000 0.031441 0.000000
# 6 0.000000 0.000000 0.000000 0.000000 0.000000 0.031988
#
#
# Mechanical properties :
#
#
# Convention : Reuss Voigt Hill
#
# Bulk Modulus (GPa) = 58.16304 58.61990 58.39147
# Shear Modulus (GPa) = 34.31087 35.55324 34.93205
#
# Velocity S-wave (km/s) = 4.04430 4.11687 4.08075
# Velocity P-wave (km/s) = 7.03815 7.10936 7.07384
#
# Compressibility (1/GPa) = 0.01719305
#
# Stress axis : x y z
#
# Youngs Moduli (GPa) = 117.64706 88.39683 75.12147
#
# Poissons Ratio (x) = 0.06131 0.22653
# Poissons Ratio (y) = 0.08160 0.31976
# Poissons Ratio (z) = 0.35477 0.37626
#
# Static dielectric constant tensor:
#      x y z
#    x 1.780290 0.000000 0.000000 
#    y 0.000000 1.828600 0.000000 
#    z 0.000000 0.000000 1.633430 
# 
# From -- ./inp_files/20908.got.cif
#   From: 2010.05.17/outbox.cif.g08.bks.cpg/sg49_11_cif.got.tgz:20908.got - 2010.06.03 21:02:19.
