data_PCOD9394182
_publ_section_title
;
Structure prediction by ZEFSAII (Michael W. Deem and Ramdas Pophale) SiO2 
 PCOD9394182
Probable space group: P C C M
;
_chemical_formula_sum "Si O2"
_cell_formula_units_Z 64
_cell_length_a 24.248830
_cell_length_b 15.792771
_cell_length_c 8.654662
_cell_angle_alpha 90.000000
_cell_angle_beta 90.000000
_cell_angle_gamma 90.000000
_cell_volume 3314.356638
_symmetry_space_group_name_H-M "P C C M"
_symmetry_group_IT_number 49
_symmetry_cell_setting 'orthorhombic'
loop_
_space_group_symop_operation_xyz
x,y,z
-x,-y,z
x,-y,1/2-z
-x,y,1/2-z
-x,-y,-z
x,y,-z
-x,y,1/2+z
x,-y,1/2+z
loop_
_atom_site_type_symbol
_atom_site_label
_atom_site_fract_x
_atom_site_fract_y
_atom_site_fract_z
Si Si1 0.633960 0.908282 0.685981
Si Si2 0.128616 0.092109 0.684554
Si Si3 0.362862 0.589405 0.185679
Si Si4 0.938340 0.250945 0.315364
Si Si5 0.561442 0.748619 0.313528
Si Si6 0.870785 0.410113 0.815789
Si Si7 0.754569 0.355182 0.316292
Si Si8 0.752055 0.833574 0.314292
O O1 0.632381 0.911167 0.500000
O O2 0.593039 0.833716 0.738012
O O3 0.696349 0.882309 0.730540
O O4 0.619551 0.000000 0.750000
O O5 0.121325 0.093487 0.500000
O O6 0.092359 0.166220 0.758671
O O7 0.192743 0.113799 0.718035
O O8 0.114755 0.000000 0.750000
O O9 0.383500 0.500000 0.250000
O O10 0.402320 0.667086 0.231820
O O11 0.302188 0.606269 0.253389
O O12 0.359560 0.587144 0.000000
O O13 0.938916 0.253484 0.500000
O O14 0.905259 0.331903 0.251601
O O15 0.000000 0.252060 0.250000
O O16 0.500000 0.744446 0.250000
O O17 0.559677 0.749783 0.500000
O O18 0.890550 0.500000 0.750000
O O19 0.807654 0.396747 0.762971
O O20 0.874031 0.409522 0.000000
O O21 0.758229 0.365848 0.500000
O O22 0.754825 0.256107 0.271006
O O23 0.749771 0.817292 0.500000
#
# Coordination Sequence:
#
# PCOD9394182 Si02
#       8
#     8   8   8   8   8   8   8   8
#     4  10  21  39  61  90 123 163 204 251 309 367
#     4  11  23  40  66  97 131 172 211 262 319 378
#     4  11  23  42  64  90 125 162 203 255 312 373
#     4  12  26  46  69  96 128 168 218 267 319 378
#     4  10  23  42  63  85 120 162 206 258 311 366
#     4  12  25  44  68  97 132 170 211 260 316 375
#     4  12  23  37  63  97 129 166 208 253 310 376
#     4  10  20  38  63  90 129 168 204 252 315 375
#
# _framework density 19.309933000000001
#
# number of rings (size 3 to 8) (size 9 to 14) (size 15 to 20)
#    0.000    1.000    2.500    4.875    0.000    3.500 
#    0.000    5.000    0.000    0.000    0.000    0.000 
#    0.000    0.000    0.000    0.000    0.000    0.000 
#
# Total GULP energy -358109.541343 kJ/mol
# GULP energy per Si atom -5595.461583 kJ/mol
# Density = 1.926598 g / cm^3
# Si number density = 19.309933 Si / 1000 Ang^3
#
#
#
# Elastic Constant Matrix: (Units=GPa)
#
#
# Indices 1 2 3 4 5 6 
#
# 1 149.7927 82.4654 58.1066 0.0000 0.0000 0.0000
# 2 82.4654 197.9895 71.5179 0.0000 0.0000 0.0000
# 3 58.1066 71.5179 101.9272 0.0000 0.0000 0.0000
# 4 0.0000 0.0000 0.0000 35.7238 0.0000 0.0000
# 5 0.0000 0.0000 0.0000 0.0000 29.7728 0.0000
# 6 0.0000 0.0000 0.0000 0.0000 0.0000 -16.4005
#
#
#
# Elastic Compliance Matrix: (Units=1/GPa)
#
#
# Indices 1 2 3 4 5 6 
#
# 1 0.009532 -0.002689 -0.003547 0.000000 0.000000 0.000000
# 2 -0.002689 0.007524 -0.003746 0.000000 0.000000 0.000000
# 3 -0.003547 -0.003746 0.014462 0.000000 0.000000 0.000000
# 4 0.000000 0.000000 0.000000 0.027993 0.000000 0.000000
# 5 0.000000 0.000000 0.000000 0.000000 0.033588 0.000000
# 6 0.000000 0.000000 0.000000 0.000000 0.000000 -0.060974
#
#
# Mechanical properties :
#
#
# Convention : Reuss Voigt Hill
#
# Bulk Modulus (GPa) = 86.55970 97.09881 91.82926
# Shear Modulus (GPa) = 89.37943 25.66051 57.51997
#
# Velocity S-wave (km/s) = 6.81082 3.64933 5.46374
# Velocity P-wave (km/s) = 10.33313 8.25532 9.35211
#
# Compressibility (1/GPa) = 0.01155272
#
# Stress axis : x y z
#
# Youngs Moduli (GPa) = 104.90592 132.90769 69.14702
#
# Poissons Ratio (x) = 0.35738 0.24530
# Poissons Ratio (y) = 0.28208 0.25905
# Poissons Ratio (z) = 0.37215 0.49792
#
# Static dielectric constant tensor:
#      x y z
#    x 1.649150 0.000000 0.000000 
#    y 0.000000 1.659410 0.000000 
#    z 0.000000 0.000000 1.649710 
# 
# From -- ./inp_files/4416.got.cif
#   From: 2010.05.17/outbox.cif.g08.bks.cpg/sg49_3_cif.got.tgz:4416.got - 2010.06.03 21:02:19.
