data_PCOD9394879
_publ_section_title
;
Structure prediction by ZEFSAII (Michael W. Deem and Ramdas Pophale) SiO2 
 PCOD9394879
Probable space group: P C C M
;
_chemical_formula_sum "Si O2"
_cell_formula_units_Z 32
_cell_length_a 11.955117
_cell_length_b 9.414414
_cell_length_c 13.143367
_cell_angle_alpha 90.000000
_cell_angle_beta 90.000000
_cell_angle_gamma 90.000000
_cell_volume 1479.291487
_symmetry_space_group_name_H-M "P C C M"
_symmetry_group_IT_number 49
_symmetry_cell_setting 'orthorhombic'
loop_
_space_group_symop_operation_xyz
x,y,z
-x,-y,z
x,-y,1/2-z
-x,y,1/2-z
-x,-y,-z
x,y,-z
-x,y,1/2+z
x,-y,1/2+z
loop_
_atom_site_type_symbol
_atom_site_label
_atom_site_fract_x
_atom_site_fract_y
_atom_site_fract_z
Si Si1 0.384453 0.912100 0.389028
Si Si2 0.617023 0.591414 0.500000
Si Si3 0.675307 0.201656 0.177917
Si Si4 0.117023 0.665477 0.721183
Si Si5 0.866931 0.429689 0.500000
O O1 0.368903 0.845421 0.500000
O O2 0.381347 0.816778 0.289150
O O3 0.500000 0.000000 0.389164
O O4 0.303474 0.045919 0.369462
O O5 0.500000 0.500000 0.500000
O O6 0.614855 0.694935 0.401485
O O7 0.745458 0.519381 0.500000
O O8 0.791262 0.268999 0.207751
O O9 0.114117 0.500000 0.750000
O O10 0.138379 0.664169 0.601441
O O11 0.000000 0.732549 0.750000
O O12 0.000000 0.500000 0.500000
#
# Coordination Sequence:
#
# PCOD9394879 Si02
#       5
#     8   4   8   8   4
#     4  10  23  44  68  89 123 181 230 277 336 414
#     4  12  26  40  66 107 149 175 220 303 351 403
#     4  11  22  43  64  95 133 170 224 279 344 406
#     4  11  22  40  66  96 128 179 225 275 342 419
#     4  12  22  42  65  93 135 185 228 258 338 433
#
# _framework density 21.631979000000001
#
# number of rings (size 3 to 8) (size 9 to 14) (size 15 to 20)
#    0.000    1.000    6.250    1.500    1.750    4.000 
#    0.000    3.750    0.000    2.250    0.000    0.000 
#    0.000    0.000    0.000    0.000    0.000    0.000 
#
# Total GULP energy -178331.539585 kJ/mol
# GULP energy per Si atom -5572.860612 kJ/mol
# Density = 2.158274 g / cm^3
# Si number density = 21.631979 Si / 1000 Ang^3
#
#
#
# Elastic Constant Matrix: (Units=GPa)
#
#
# Indices 1 2 3 4 5 6 
#
# 1 123.8945 53.6822 52.7291 0.0000 0.0000 0.0000
# 2 53.6822 53.7270 47.0408 0.0000 0.0000 0.0000
# 3 52.7291 47.0408 211.9243 0.0000 0.0000 0.0000
# 4 0.0000 0.0000 0.0000 8.1538 0.0000 0.0000
# 5 0.0000 0.0000 0.0000 0.0000 37.1258 0.0000
# 6 0.0000 0.0000 0.0000 0.0000 0.0000 4.0214
#
#
#
# Elastic Compliance Matrix: (Units=1/GPa)
#
#
# Indices 1 2 3 4 5 6 
#
# 1 0.014272 -0.013841 -0.000479 0.000000 0.000000 0.000000
# 2 -0.013841 0.036526 -0.004664 0.000000 0.000000 0.000000
# 3 -0.000479 -0.004664 0.005873 0.000000 0.000000 0.000000
# 4 0.000000 0.000000 0.000000 0.122642 0.000000 0.000000
# 5 0.000000 0.000000 0.000000 0.000000 0.026935 0.000000
# 6 0.000000 0.000000 0.000000 0.000000 0.000000 0.248670
#
#
# Mechanical properties :
#
#
# Convention : Reuss Voigt Hill
#
# Bulk Modulus (GPa) = 53.46597 77.38336 65.42466
# Shear Modulus (GPa) = 10.01761 25.59977 17.80869
#
# Velocity S-wave (km/s) = 2.15429 3.44382 2.87236
# Velocity P-wave (km/s) = 5.56397 7.18774 6.42734
#
# Compressibility (1/GPa) = 0.01870349
#
# Stress axis : x y z
#
# Youngs Moduli (GPa) = 70.06487 27.37785 170.27066
#
# Poissons Ratio (x) = 0.37895 0.08152
# Poissons Ratio (y) = 0.96980 0.79410
# Poissons Ratio (z) = 0.03355 0.12768
#
# Static dielectric constant tensor:
#      x y z
#    x 2.038960 0.000000 0.000000 
#    y 0.000000 1.806140 0.000000 
#    z 0.000000 0.000000 1.866290 
# 
# From -- ./inp_files/12465.got.cif
#   From: 2010.05.17/outbox.cif.g08.bks.cpg/sg49_7_cif.got.tgz:12465.got - 2010.06.03 21:02:19.
