data_PCOD9394917
_publ_section_title
;
Structure prediction by ZEFSAII (Michael W. Deem and Ramdas Pophale) SiO2 
 PCOD9394917
Probable space group: P C C M
;
_chemical_formula_sum "Si O2"
_cell_formula_units_Z 48
_cell_length_a 8.425920
_cell_length_b 10.103735
_cell_length_c 25.371275
_cell_angle_alpha 90.000000
_cell_angle_beta 90.000000
_cell_angle_gamma 90.000000
_cell_volume 2159.939422
_symmetry_space_group_name_H-M "P C C M"
_symmetry_group_IT_number 49
_symmetry_cell_setting 'orthorhombic'
loop_
_space_group_symop_operation_xyz
x,y,z
-x,-y,z
x,-y,1/2-z
-x,y,1/2-z
-x,-y,-z
x,y,-z
-x,y,1/2+z
x,-y,1/2+z
loop_
_atom_site_type_symbol
_atom_site_label
_atom_site_fract_x
_atom_site_fract_y
_atom_site_fract_z
Si Si1 0.126567 0.612464 0.850358
Si Si2 0.150265 0.185563 0.165144
Si Si3 0.250679 0.751256 0.940017
Si Si4 0.669048 0.072028 0.841984
Si Si5 0.909093 0.138161 0.556973
Si Si6 0.323757 0.318243 0.261344
O O1 0.250183 0.629900 0.898586
O O2 0.220614 0.583612 0.797008
O O3 0.000000 0.500000 0.862201
O O4 0.025440 0.748862 0.837943
O O5 0.201139 0.189570 0.103471
O O6 0.241238 0.269731 0.208111
O O7 0.192631 0.031590 0.175185
O O8 0.308715 0.870774 0.901729
O O9 0.060401 0.766589 0.946995
O O10 0.315967 0.745224 0.000000
O O11 0.662511 0.190808 0.800361
O O12 0.500000 0.000000 0.839424
O O13 0.831695 0.122264 0.500000
O O14 0.000000 0.000000 0.569635
O O15 0.500000 0.361882 0.250000
#
# Coordination Sequence:
#
# PCOD9394917 Si02
#       6
#     8   8   8   8   8   8
#     4  10  24  44  62  88 123 162 225 277 300 363
#     4  11  21  35  59  87 118 167 206 246 315 369
#     4   9  19  35  61  92 122 160 205 258 329 387
#     4  11  21  35  57  88 135 163 198 252 320 403
#     4   9  16  30  51  80 116 148 192 245 301 368
#     4  11  23  39  61  86 126 165 201 254 324 384
#
# _framework density 22.222846000000001
#
# number of rings (size 3 to 8) (size 9 to 14) (size 15 to 20)
#    0.000    1.833    3.333    1.000    0.000    2.000 
#    3.000    1.667    0.000    0.000    0.000    1.167 
#    0.000    0.000    0.000    0.000    0.000    0.000 
#
# Total GULP energy -267310.120906 kJ/mol
# GULP energy per Si atom -5568.960852 kJ/mol
# Density = 2.217227 g / cm^3
# Si number density = 22.222846 Si / 1000 Ang^3
#
#
#
# Elastic Constant Matrix: (Units=GPa)
#
#
# Indices 1 2 3 4 5 6 
#
# 1 52.7067 12.0374 36.5495 0.0000 0.0000 0.0000
# 2 12.0374 77.7435 32.6117 0.0000 0.0000 0.0000
# 3 36.5495 32.6117 199.2665 0.0000 0.0000 0.0000
# 4 0.0000 0.0000 0.0000 14.6107 0.0000 0.0000
# 5 0.0000 0.0000 0.0000 0.0000 15.5795 0.0000
# 6 0.0000 0.0000 0.0000 0.0000 0.0000 16.2995
#
#
#
# Elastic Compliance Matrix: (Units=1/GPa)
#
#
# Indices 1 2 3 4 5 6 
#
# 1 0.021980 -0.001838 -0.003731 0.000000 0.000000 0.000000
# 2 -0.001838 0.013965 -0.001948 0.000000 0.000000 0.000000
# 3 -0.003731 -0.001948 0.006022 0.000000 0.000000 0.000000
# 4 0.000000 0.000000 0.000000 0.068443 0.000000 0.000000
# 5 0.000000 0.000000 0.000000 0.000000 0.064187 0.000000
# 6 0.000000 0.000000 0.000000 0.000000 0.000000 0.061351
#
#
# Mechanical properties :
#
#
# Convention : Reuss Voigt Hill
#
# Bulk Modulus (GPa) = 37.13115 54.67931 45.90523
# Shear Modulus (GPa) = 19.23381 25.86583 22.54982
#
# Velocity S-wave (km/s) = 2.94512 3.41534 3.18891
# Velocity P-wave (km/s) = 5.32070 6.34123 5.85325
#
# Compressibility (1/GPa) = 0.02693157
#
# Stress axis : x y z
#
# Youngs Moduli (GPa) = 45.49627 71.60918 166.07044
#
# Poissons Ratio (x) = 0.13164 0.61956
# Poissons Ratio (y) = 0.08364 0.32355
# Poissons Ratio (z) = 0.16973 0.13951
#
# Static dielectric constant tensor:
#      x y z
#    x 1.815730 0.000000 0.000000 
#    y 0.000000 1.941570 0.000000 
#    z 0.000000 0.000000 1.927540 
# 
# From -- ./inp_files/22370.got.cif
#   From: 2010.05.17/outbox.cif.g08.bks.cpg/sg49_12_cif.got.tgz:22370.got - 2010.06.03 21:02:19.
