data_PCOD9394162
_publ_section_title
;
Structure prediction by ZEFSAII (Michael W. Deem and Ramdas Pophale) SiO2 
 PCOD9394162
Probable space group: P C C M
;
_chemical_formula_sum "Si O2"
_cell_formula_units_Z 48
_cell_length_a 16.176743
_cell_length_b 16.685106
_cell_length_c 9.095892
_cell_angle_alpha 90.000000
_cell_angle_beta 90.000000
_cell_angle_gamma 90.000000
_cell_volume 2455.078319
_symmetry_space_group_name_H-M "P C C M"
_symmetry_group_IT_number 49
_symmetry_cell_setting 'orthorhombic'
loop_
_space_group_symop_operation_xyz
x,y,z
-x,-y,z
x,-y,1/2-z
-x,y,1/2-z
-x,-y,-z
x,y,-z
-x,y,1/2+z
x,-y,1/2+z
loop_
_atom_site_type_symbol
_atom_site_label
_atom_site_fract_x
_atom_site_fract_y
_atom_site_fract_z
Si Si1 0.915529 0.750107 0.678489
Si Si2 0.584798 0.911358 0.319836
Si Si3 0.256319 0.188073 0.667973
Si Si4 0.867404 0.584615 0.832415
Si Si5 0.562078 0.373834 0.500000
Si Si6 0.689293 0.639575 0.241361
Si Si7 0.390357 0.440676 0.500000
O O1 0.917725 0.748477 0.500000
O O2 0.836696 0.803800 0.729466
O O3 0.903090 0.659550 0.740067
O O4 0.000000 0.780446 0.750000
O O5 0.500000 0.876131 0.250000
O O6 0.578905 0.912917 0.500000
O O7 0.668026 0.864511 0.272345
O O8 0.590722 0.000000 0.250000
O O9 0.246819 0.161505 0.500000
O O10 0.286219 0.279781 0.675380
O O11 0.879892 0.500000 0.750000
O O12 0.769649 0.605870 0.839528
O O13 0.899714 0.582222 0.000000
O O14 0.610923 0.341549 0.360491
O O15 0.463636 0.374094 0.500000
O O16 0.579321 0.469150 0.500000
O O17 0.662739 0.574109 0.357733
#
# Coordination Sequence:
#
# PCOD9394162 Si02
#       7
#     8   8   8   8   4   8   4
#     4  10  21  39  61  85 115 149 189 241 294 350
#     4  10  20  38  61  92 125 158 193 229 280 336
#     4   9  20  39  60  82 114 154 189 228 287 347
#     4  11  22  35  55  78 104 143 190 243 299 356
#     4  11  22  34  46  74  94 142 190 251 284 344
#     4  11  21  36  51  73 103 142 192 242 293 343
#     4  11  22  34  50  62 104 142 192 235 304 338
#
# _framework density 19.551311999999999
#
# number of rings (size 3 to 8) (size 9 to 14) (size 15 to 20)
#    0.000    1.667    1.667    4.000    2.333    3.000 
#    3.000    1.667    0.000    0.500    0.000    3.500 
#    0.000    0.000    0.000    0.000    0.000    0.000 
#
# Total GULP energy -267636.775180 kJ/mol
# GULP energy per Si atom -5575.766150 kJ/mol
# Density = 1.950681 g / cm^3
# Si number density = 19.551312 Si / 1000 Ang^3
#
#
#
# Elastic Constant Matrix: (Units=GPa)
#
#
# Indices 1 2 3 4 5 6 
#
# 1 153.8232 39.2190 32.1375 0.0000 0.0000 0.0000
# 2 39.2190 40.8953 7.5327 0.0000 0.0000 0.0000
# 3 32.1375 7.5327 95.4201 0.0000 0.0000 0.0000
# 4 0.0000 0.0000 0.0000 14.3289 0.0000 0.0000
# 5 0.0000 0.0000 0.0000 0.0000 39.9116 0.0000
# 6 0.0000 0.0000 0.0000 0.0000 0.0000 23.1495
#
#
#
# Elastic Compliance Matrix: (Units=1/GPa)
#
#
# Indices 1 2 3 4 5 6 
#
# 1 0.009123 -0.008304 -0.002417 0.000000 0.000000 0.000000
# 2 -0.008304 0.032372 0.000241 0.000000 0.000000 0.000000
# 3 -0.002417 0.000241 0.011275 0.000000 0.000000 0.000000
# 4 0.000000 0.000000 0.000000 0.069789 0.000000 0.000000
# 5 0.000000 0.000000 0.000000 0.000000 0.025055 0.000000
# 6 0.000000 0.000000 0.000000 0.000000 0.000000 0.043197
#
#
# Mechanical properties :
#
#
# Convention : Reuss Voigt Hill
#
# Bulk Modulus (GPa) = 31.43636 49.76854 40.60245
# Shear Modulus (GPa) = 22.48455 29.56131 26.02293
#
# Velocity S-wave (km/s) = 3.39488 3.89265 3.65225
# Velocity P-wave (km/s) = 5.61078 6.76123 6.21269
#
# Compressibility (1/GPa) = 0.03181030
#
# Stress axis : x y z
#
# Youngs Moduli (GPa) = 109.61113 30.89106 88.69168
#
# Poissons Ratio (x) = 0.25652 0.21438
# Poissons Ratio (y) = 0.91021 -0.02140
# Poissons Ratio (z) = 0.26495 -0.00745
#
# Static dielectric constant tensor:
#      x y z
#    x 1.768660 0.000000 0.000000 
#    y 0.000000 1.657030 0.000000 
#    z 0.000000 0.000000 1.710620 
# 
# From -- ./inp_files/4917.got.cif
#   From: 2010.05.17/outbox.cif.g08.bks.cpg/sg49_3_cif.got.tgz:4917.got - 2010.06.03 21:02:19.
