data_PCOD9394965
_publ_section_title
;
Structure prediction by ZEFSAII (Michael W. Deem and Ramdas Pophale) SiO2 
 PCOD9394965
Probable space group: P C C M
;
_chemical_formula_sum "Si O2"
_cell_formula_units_Z 64
_cell_length_a 13.927334
_cell_length_b 10.309342
_cell_length_c 28.845208
_cell_angle_alpha 90.000000
_cell_angle_beta 90.000000
_cell_angle_gamma 90.000000
_cell_volume 4141.642541
_symmetry_space_group_name_H-M "P C C M"
_symmetry_group_IT_number 49
_symmetry_cell_setting 'orthorhombic'
loop_
_space_group_symop_operation_xyz
x,y,z
-x,-y,z
x,-y,1/2-z
-x,y,1/2-z
-x,-y,-z
x,y,-z
-x,y,1/2+z
x,-y,1/2+z
loop_
_atom_site_type_symbol
_atom_site_label
_atom_site_fract_x
_atom_site_fract_y
_atom_site_fract_z
Si Si1 0.365544 0.741380 0.896115
Si Si2 0.082172 0.899964 0.556441
Si Si3 0.404214 0.760682 0.597552
Si Si4 0.386471 0.850550 0.303491
Si Si5 0.922137 0.396155 0.556137
Si Si6 0.294735 0.999036 0.555555
Si Si7 0.704850 0.481447 0.444727
Si Si8 0.619305 0.152114 0.799567
O O1 0.480870 0.749990 0.901774
O O2 0.327740 0.608712 0.917526
O O3 0.345199 0.759566 0.841423
O O4 0.318666 0.862855 0.922435
O O5 0.079972 0.898009 0.500000
O O6 0.065148 0.752165 0.572396
O O7 0.188539 0.948757 0.569163
O O8 0.000000 0.000000 0.571836
O O9 0.364505 0.770027 0.650410
O O10 0.370963 0.893150 0.573135
O O11 0.359507 0.639938 0.570702
O O12 0.351309 0.808829 0.252521
O O13 0.502851 0.848058 0.300885
O O14 0.355524 0.001035 0.308911
O O15 0.930871 0.391615 0.500000
O O16 0.814898 0.444815 0.565919
O O17 0.000000 0.500000 0.573260
O O18 0.298203 0.007450 0.500000
O O19 0.696212 0.502044 0.500000
#
# Coordination Sequence:
#
# PCOD9394965 Si02
#       8
#     8   8   8   8   8   8   8   8
#     4  11  22  32  47  71 100 136 174 202 233 285
#     4   9  18  32  50  70  91 117 157 214 261 283
#     4  11  20  34  49  68  98 138 174 200 236 286
#     4   8  14  27  50  69  90 122 158 209 261 286
#     4   9  18  33  51  67  88 123 163 204 253 296
#     4  11  21  32  47  70 100 131 169 209 237 279
#     4  11  23  36  47  66 102 141 171 201 238 287
#     4   8  14  28  47  71  93 117 160 211 256 288
#
# _framework density 15.452805
#
# number of rings (size 3 to 8) (size 9 to 14) (size 15 to 20)
#    0.000    2.250    2.500    2.250    1.750    3.000 
#    0.000    0.625    0.000    3.000    0.000    0.000 
#    0.000    6.000    0.000    0.000    0.000    0.000 
#
# Total GULP energy -356646.776162 kJ/mol
# GULP energy per Si atom -5572.605878 kJ/mol
# Density = 1.541763 g / cm^3
# Si number density = 15.452805 Si / 1000 Ang^3
#
#
#
# Elastic Constant Matrix: (Units=GPa)
#
#
# Indices 1 2 3 4 5 6 
#
# 1 53.9764 14.9294 10.1718 0.0000 0.0000 0.0000
# 2 14.9294 46.8649 9.6630 0.0000 0.0000 0.0000
# 3 10.1718 9.6630 69.0560 0.0000 0.0000 0.0000
# 4 0.0000 0.0000 0.0000 21.0574 0.0000 0.0000
# 5 0.0000 0.0000 0.0000 0.0000 -1.7334 0.0000
# 6 0.0000 0.0000 0.0000 0.0000 0.0000 22.9875
#
#
#
# Elastic Compliance Matrix: (Units=1/GPa)
#
#
# Indices 1 2 3 4 5 6 
#
# 1 0.020631 -0.006122 -0.002182 0.000000 0.000000 0.000000
# 2 -0.006122 0.023789 -0.002427 0.000000 0.000000 0.000000
# 3 -0.002182 -0.002427 0.015142 0.000000 0.000000 0.000000
# 4 0.000000 0.000000 0.000000 0.047489 0.000000 0.000000
# 5 0.000000 0.000000 0.000000 0.000000 -0.576904 0.000000
# 6 0.000000 0.000000 0.000000 0.000000 0.000000 0.043502
#
#
# Mechanical properties :
#
#
# Convention : Reuss Voigt Hill
#
# Bulk Modulus (GPa) = 26.24749 26.60286 26.42518
# Shear Modulus (GPa) = -12.74898 17.47118 2.36110
#
# Velocity S-wave (km/s) = -2.87544 3.36611 1.23744
# Velocity P-wave (km/s) = 2.44913 5.68863 4.37943
#
# Compressibility (1/GPa) = 0.03809888
#
# Stress axis : x y z
#
# Youngs Moduli (GPa) = 48.47016 42.03676 66.04126
#
# Poissons Ratio (x) = 0.25736 0.14412
# Poissons Ratio (y) = 0.29675 0.16028
# Poissons Ratio (z) = 0.10577 0.10202
#
# Static dielectric constant tensor:
#      x y z
#    x 1.374730 0.000000 0.000000 
#    y 0.000000 1.506690 0.000000 
#    z 0.000000 0.000000 1.533670 
# 
# From -- ./inp_files/26827.got.cif
#   From: 2010.05.17/outbox.cif.g08.bks.cpg/sg49_14_cif.got.tgz:26827.got - 2010.06.03 21:02:19.
