data_PCOD9394664
_publ_section_title
;
Structure prediction by ZEFSAII (Michael W. Deem and Ramdas Pophale) SiO2 
 PCOD9394664
Probable space group: P C C M
;
_chemical_formula_sum "Si O2"
_cell_formula_units_Z 48
_cell_length_a 8.672117
_cell_length_b 8.895293
_cell_length_c 30.116156
_cell_angle_alpha 90.000000
_cell_angle_beta 90.000000
_cell_angle_gamma 90.000000
_cell_volume 2323.191042
_symmetry_space_group_name_H-M "P C C M"
_symmetry_group_IT_number 49
_symmetry_cell_setting 'orthorhombic'
loop_
_space_group_symop_operation_xyz
x,y,z
-x,-y,z
x,-y,1/2-z
-x,y,1/2-z
-x,-y,-z
x,y,-z
-x,y,1/2+z
x,-y,1/2+z
loop_
_atom_site_type_symbol
_atom_site_label
_atom_site_fract_x
_atom_site_fract_y
_atom_site_fract_z
Si Si1 0.588979 0.161109 0.500000
Si Si2 0.965122 0.176806 0.500000
Si Si3 0.876504 0.378607 0.923587
Si Si4 0.309884 0.326322 0.335794
Si Si5 0.665187 0.682560 0.164137
Si Si6 0.816435 0.169070 0.251400
Si Si7 0.633112 0.611583 0.072550
O O1 0.551914 0.265816 0.457945
O O2 0.777503 0.171784 0.500000
O O3 0.500000 0.000000 0.500000
O O4 0.041216 0.263650 0.542443
O O5 0.000000 0.000000 0.500000
O O6 0.786472 0.305368 0.881655
O O7 0.754101 0.492383 0.947614
O O8 0.000000 0.500000 0.905780
O O9 0.486095 0.270074 0.337192
O O10 0.318311 0.504881 0.327454
O O11 0.235807 0.254050 0.292633
O O12 0.756737 0.761877 0.202771
O O13 0.715819 0.698004 0.112901
O O14 0.000000 0.168369 0.250000
O O15 0.756272 0.000000 0.250000
O O16 0.500000 0.500000 0.090518
#
# Coordination Sequence:
#
# PCOD9394664 Si02
#       7
#     4   4   8   8   8   8   8
#     4  12  28  44  66 102 145 184 227 279 352 420
#     4  12  28  45  64 102 145 185 224 284 349 415
#     4  11  22  44  73  98 135 179 236 286 344 407
#     4  10  22  41  69  99 126 169 221 284 333 396
#     4  10  21  43  67  99 129 164 228 279 334 396
#     4  11  26  43  61  95 137 180 221 271 340 408
#     4  11  22  45  72 102 131 178 232 291 340 408
#
# _framework density 20.661237
#
# number of rings (size 3 to 8) (size 9 to 14) (size 15 to 20)
#    0.000    1.167    5.000    2.000    7.000    3.333 
#    9.000    0.000    0.000    0.000    0.000    0.000 
#    0.000    0.000    0.000    0.000    0.000    0.000 
#
# Total GULP energy -267599.296939 kJ/mol
# GULP energy per Si atom -5574.985353 kJ/mol
# Density = 2.061421 g / cm^3
# Si number density = 20.661237 Si / 1000 Ang^3
#
#
#
# Elastic Constant Matrix: (Units=GPa)
#
#
# Indices 1 2 3 4 5 6 
#
# 1 90.0494 37.5969 45.9460 0.0000 0.0000 0.0000
# 2 37.5969 106.7213 77.6867 0.0000 0.0000 0.0000
# 3 45.9460 77.6867 172.0859 0.0000 0.0000 0.0000
# 4 0.0000 0.0000 0.0000 403.9089 0.0000 0.0000
# 5 0.0000 0.0000 0.0000 0.0000 32.3019 0.0000
# 6 0.0000 0.0000 0.0000 0.0000 0.0000 30.9091
#
#
#
# Elastic Compliance Matrix: (Units=1/GPa)
#
#
# Indices 1 2 3 4 5 6 
#
# 1 0.013547 -0.003187 -0.002178 0.000000 0.000000 0.000000
# 2 -0.003187 0.014706 -0.005788 0.000000 0.000000 0.000000
# 3 -0.002178 -0.005788 0.009006 0.000000 0.000000 0.000000
# 4 0.000000 0.000000 0.000000 0.002476 0.000000 0.000000
# 5 0.000000 0.000000 0.000000 0.000000 0.030958 0.000000
# 6 0.000000 0.000000 0.000000 0.000000 0.000000 0.032353
#
#
# Mechanical properties :
#
#
# Convention : Reuss Voigt Hill
#
# Bulk Modulus (GPa) = 66.87893 76.81289 71.84591
# Shear Modulus (GPa) = 38.36228 107.26579 72.81404
#
# Velocity S-wave (km/s) = 4.31365 7.21312 5.94293
# Velocity P-wave (km/s) = 7.56635 10.32619 9.05207
#
# Compressibility (1/GPa) = 0.01495239
#
# Stress axis : x y z
#
# Youngs Moduli (GPa) = 73.81708 67.99796 111.04108
#
# Poissons Ratio (x) = 0.21670 0.24188
# Poissons Ratio (y) = 0.23524 0.64273
# Poissons Ratio (z) = 0.16080 0.39358
#
# Static dielectric constant tensor:
#      x y z
#    x 1.848620 0.000000 0.000000 
#    y 0.000000 1.725710 0.000000 
#    z 0.000000 0.000000 1.776050 
# 
# From -- ./inp_files/26318.got.cif
#   From: 2010.05.17/outbox.cif.g08.bks.cpg/sg49_14_cif.got.tgz:26318.got - 2010.06.03 21:02:19.
