data_PCOD9394580
_publ_section_title
;
Structure prediction by ZEFSAII (Michael W. Deem and Ramdas Pophale) SiO2 
 PCOD9394580
Probable space group: P C C M
;
_chemical_formula_sum "Si O2"
_cell_formula_units_Z 64
_cell_length_a 11.938452
_cell_length_b 9.487935
_cell_length_c 30.592393
_cell_angle_alpha 90.000000
_cell_angle_beta 90.000000
_cell_angle_gamma 90.000000
_cell_volume 3465.238797
_symmetry_space_group_name_H-M "P C C M"
_symmetry_group_IT_number 49
_symmetry_cell_setting 'orthorhombic'
loop_
_space_group_symop_operation_xyz
x,y,z
-x,-y,z
x,-y,1/2-z
-x,y,1/2-z
-x,-y,-z
x,y,-z
-x,y,1/2+z
x,-y,1/2+z
loop_
_atom_site_type_symbol
_atom_site_label
_atom_site_fract_x
_atom_site_fract_y
_atom_site_fract_z
Si Si1 0.754427 0.590178 0.709622
Si Si2 0.023932 0.340162 0.927566
Si Si3 0.205846 0.177950 0.447175
Si Si4 0.152285 0.657676 0.663105
Si Si5 0.366993 0.347625 0.382634
Si Si6 0.767917 0.851199 0.951073
Si Si7 0.869032 0.154291 0.740507
Si Si8 0.625319 0.333208 0.611149
O O1 0.699079 0.500000 0.750000
O O2 0.850950 0.483803 0.692028
O O3 0.685156 0.634079 0.666168
O O4 0.805707 0.729220 0.730973
O O5 0.069947 0.351694 0.877851
O O6 0.124723 0.252452 0.949458
O O7 0.000000 0.500000 0.943091
O O8 0.910395 0.253421 0.934267
O O9 0.224626 0.197535 0.500000
O O10 0.299078 0.246266 0.415251
O O11 0.199445 0.010230 0.438232
O O12 0.134411 0.797122 0.690612
O O13 0.282637 0.668184 0.649280
O O14 0.364924 0.504082 0.404394
O O15 0.496869 0.306940 0.377414
O O16 0.672580 0.781017 0.922027
O O17 0.725167 0.859585 0.000000
O O18 0.000000 0.155178 0.750000
O O19 0.822700 0.000000 0.750000
#
# Coordination Sequence:
#
# PCOD9394580 Si02
#       8
#     8   8   8   8   8   8   8   8
#     4   9  19  37  60  85 114 153 191 241 296 357
#     4  11  22  36  60  88 116 151 198 250 300 355
#     4  11  24  39  57  87 123 160 199 239 299 364
#     4   9  20  37  57  83 114 149 191 239 297 351
#     4  10  21  39  64  88 119 150 201 252 298 348
#     4  10  22  40  58  82 120 161 199 243 296 357
#     4  10  22  36  52  82 118 152 192 233 285 357
#     4   9  20  40  60  87 114 150 199 249 290 347
#
# _framework density 18.469145999999999
#
# number of rings (size 3 to 8) (size 9 to 14) (size 15 to 20)
#    0.000    2.125    0.000    3.000    3.500    8.250 
#    4.500   13.125    0.000    0.750    0.000    0.000 
#    0.000    0.000    0.000    0.000    0.000    0.000 
#
# Total GULP energy -356534.598074 kJ/mol
# GULP energy per Si atom -5570.853095 kJ/mol
# Density = 1.842711 g / cm^3
# Si number density = 18.469146 Si / 1000 Ang^3
#
#
#
# Elastic Constant Matrix: (Units=GPa)
#
#
# Indices 1 2 3 4 5 6 
#
# 1 93.0114 51.9118 41.6906 0.0000 0.0000 0.0000
# 2 51.9118 136.3789 54.0411 0.0000 0.0000 0.0000
# 3 41.6906 54.0411 85.5887 0.0000 0.0000 0.0000
# 4 0.0000 0.0000 0.0000 32.1716 0.0000 0.0000
# 5 0.0000 0.0000 0.0000 0.0000 -781.9418 0.0000
# 6 0.0000 0.0000 0.0000 0.0000 0.0000 -155.5785
#
#
#
# Elastic Compliance Matrix: (Units=1/GPa)
#
#
# Indices 1 2 3 4 5 6 
#
# 1 0.015083 -0.003774 -0.004964 0.000000 0.000000 0.000000
# 2 -0.003774 0.010724 -0.004933 0.000000 0.000000 0.000000
# 3 -0.004964 -0.004933 0.017216 0.000000 0.000000 0.000000
# 4 0.000000 0.000000 0.000000 0.031083 0.000000 0.000000
# 5 0.000000 0.000000 0.000000 0.000000 -0.001279 0.000000
# 6 0.000000 0.000000 0.000000 0.000000 0.000000 -0.006428
#
#
# Mechanical properties :
#
#
# Convention : Reuss Voigt Hill
#
# Bulk Modulus (GPa) = 63.76979 67.80733 65.78856
# Shear Modulus (GPa) = 50.52148 -169.91404 -59.69628
#
# Velocity S-wave (km/s) = 5.23583 -9.60201 -5.69143
# Velocity P-wave (km/s) = 8.43532 9.28105 2.73709
#
# Compressibility (1/GPa) = 0.01568141
#
# Stress axis : x y z
#
# Youngs Moduli (GPa) = 66.30078 93.25136 58.08510
#
# Poissons Ratio (x) = 0.35195 0.28832
# Poissons Ratio (y) = 0.25023 0.28651
# Poissons Ratio (z) = 0.32911 0.45997
#
# Static dielectric constant tensor:
#      x y z
#    x 1.624280 0.000000 0.000000 
#    y 0.000000 1.667550 0.000000 
#    z 0.000000 0.000000 1.667170 
# 
# From -- ./inp_files/26700.got.cif
#   From: 2010.05.17/outbox.cif.g08.bks.cpg/sg49_14_cif.got.tgz:26700.got - 2010.06.03 21:02:19.
