data_PCOD9394215
_publ_section_title
;
Structure prediction by ZEFSAII (Michael W. Deem and Ramdas Pophale) SiO2 
 PCOD9394215
Probable space group: P C C M
;
_chemical_formula_sum "Si O2"
_cell_formula_units_Z 34
_cell_length_a 23.543799
_cell_length_b 7.737148
_cell_length_c 8.502487
_cell_angle_alpha 90.000000
_cell_angle_beta 90.000000
_cell_angle_gamma 90.000000
_cell_volume 1548.828824
_symmetry_space_group_name_H-M "P C C M"
_symmetry_group_IT_number 49
_symmetry_cell_setting 'orthorhombic'
loop_
_space_group_symop_operation_xyz
x,y,z
-x,-y,z
x,-y,1/2-z
-x,y,1/2-z
-x,-y,-z
x,y,-z
-x,y,1/2+z
x,-y,1/2+z
loop_
_atom_site_type_symbol
_atom_site_label
_atom_site_fract_x
_atom_site_fract_y
_atom_site_fract_z
Si Si1 0.921272 0.190329 0.689537
Si Si2 0.442243 0.194159 0.186281
Si Si3 0.794462 0.305130 0.314137
Si Si4 0.000000 0.500000 0.750000
Si Si5 0.679234 0.308034 0.813879
O O1 0.933182 0.211798 0.500000
O O2 0.853723 0.209301 0.712751
O O3 0.952406 0.347079 0.782368
O O4 0.937733 0.000000 0.750000
O O5 0.500000 0.282369 0.250000
O O6 0.380933 0.256743 0.241552
O O7 0.443942 0.000000 0.250000
O O8 0.444896 0.197641 0.000000
O O9 0.802972 0.500000 0.250000
O O10 0.783921 0.316015 0.500000
O O11 0.738383 0.220296 0.237319
O O12 0.687879 0.500000 0.750000
O O13 0.674188 0.300817 0.000000
#
# Coordination Sequence:
#
# PCOD9394215 Si02
#       5
#     8   8   8   2   8
#     4  11  26  44  69 101 135 175 224 274 331 400
#     4  11  22  39  60  86 120 163 210 263 321 386
#     4  10  20  39  63  91 124 167 212 265 327 389
#     4  12  24  48  72 100 134 180 220 278 330 394
#     4  11  22  38  61  92 125 165 210 263 320 383
#
# _framework density 21.952071
#
# number of rings (size 3 to 8) (size 9 to 14) (size 15 to 20)
#    0.000    1.176    1.176    7.765    0.000    6.118 
#    0.000    4.706    0.000    0.000    0.000    0.000 
#    0.000    0.000    0.000    0.000    0.000    0.000 
#
# Total GULP energy -189437.107029 kJ/mol
# GULP energy per Si atom -5571.679618 kJ/mol
# Density = 2.190211 g / cm^3
# Si number density = 21.952071 Si / 1000 Ang^3
#
#
#
# Elastic Constant Matrix: (Units=GPa)
#
#
# Indices 1 2 3 4 5 6 
#
# 1 195.4518 30.3237 70.7801 0.0000 0.0000 0.0000
# 2 30.3237 99.6724 6.7081 0.0000 0.0000 0.0000
# 3 70.7801 6.7081 139.6747 0.0000 0.0000 0.0000
# 4 0.0000 0.0000 0.0000 3.2723 0.0000 0.0000
# 5 0.0000 0.0000 0.0000 0.0000 -52.9809 0.0000
# 6 0.0000 0.0000 0.0000 0.0000 0.0000 48.7154
#
#
#
# Elastic Compliance Matrix: (Units=1/GPa)
#
#
# Indices 1 2 3 4 5 6 
#
# 1 0.006567 -0.001780 -0.003242 0.000000 0.000000 0.000000
# 2 -0.001780 0.010548 0.000395 0.000000 0.000000 0.000000
# 3 -0.003242 0.000395 0.008783 0.000000 0.000000 0.000000
# 4 0.000000 0.000000 0.000000 0.305598 0.000000 0.000000
# 5 0.000000 0.000000 0.000000 0.000000 -0.018875 0.000000
# 6 0.000000 0.000000 0.000000 0.000000 0.000000 0.020527
#
#
# Mechanical properties :
#
#
# Convention : Reuss Voigt Hill
#
# Bulk Modulus (GPa) = 60.07903 72.26918 66.17410
# Shear Modulus (GPa) = 14.36988 21.60048 17.98518
#
# Velocity S-wave (km/s) = 2.56130 3.14025 2.86543
# Velocity P-wave (km/s) = 6.01454 6.79272 6.41544
#
# Compressibility (1/GPa) = 0.01664474
#
# Stress axis : x y z
#
# Youngs Moduli (GPa) = 152.28733 94.80766 113.85043
#
# Poissons Ratio (x) = 0.16872 0.36912
# Poissons Ratio (y) = 0.27100 -0.04500
# Poissons Ratio (z) = 0.49373 -0.03747
#
# Static dielectric constant tensor:
#      x y z
#    x 1.960220 0.000000 0.000000 
#    y 0.000000 1.804620 0.000000 
#    z 0.000000 0.000000 1.780910 
# 
# From -- ./inp_files/5537.got.cif
#   From: 2010.05.17/outbox.cif.g08.bks.cpg/sg49_3_cif.got.tgz:5537.got - 2010.06.03 21:02:19.
