data_PCOD9394789
_publ_section_title
;
Structure prediction by ZEFSAII (Michael W. Deem and Ramdas Pophale) SiO2 
 PCOD9394789
Probable space group: P C C M
;
_chemical_formula_sum "Si O2"
_cell_formula_units_Z 24
_cell_length_a 12.740589
_cell_length_b 5.772105
_cell_length_c 15.057331
_cell_angle_alpha 90.000000
_cell_angle_beta 90.000000
_cell_angle_gamma 90.000000
_cell_volume 1107.316385
_symmetry_space_group_name_H-M "P C C M"
_symmetry_group_IT_number 49
_symmetry_cell_setting 'orthorhombic'
loop_
_space_group_symop_operation_xyz
x,y,z
-x,-y,z
x,-y,1/2-z
-x,y,1/2-z
-x,-y,-z
x,y,-z
-x,y,1/2+z
x,-y,1/2+z
loop_
_atom_site_type_symbol
_atom_site_label
_atom_site_fract_x
_atom_site_fract_y
_atom_site_fract_z
Si Si1 0.403555 0.821807 0.596493
Si Si2 0.060409 0.751285 0.000000
Si Si3 0.788737 0.125044 0.840079
Si Si4 0.641509 0.500000 0.250000
O O1 0.401659 0.704354 0.500000
O O2 0.417426 0.656625 0.679337
O O3 0.500000 0.000000 0.597019
O O4 0.291943 0.948579 0.611818
O O5 0.129542 0.773584 0.089640
O O6 0.000000 0.500000 0.000000
O O7 0.000000 0.000000 0.000000
O O8 0.715545 0.331036 0.806145
O O9 0.831708 0.000000 0.750000
#
# Coordination Sequence:
#
# PCOD9394789 Si02
#       4
#     8   4   8   4
#     4  10  22  41  71 106 146 189 238 290 362 446
#     4  12  30  50  79 107 145 193 252 318 382 447
#     4  10  24  45  71 107 146 185 239 304 368 444
#     4  10  24  41  73  98 148 186 239 294 363 440
#
# _framework density 21.674021
#
# number of rings (size 3 to 8) (size 9 to 14) (size 15 to 20)
#    0.000    1.667    1.667    0.000   11.667    9.333 
#    0.000    3.333    0.000    1.000    0.000    0.000 
#    0.000    0.000    0.000    0.000    0.000    0.000 
#
# Total GULP energy -134116.019870 kJ/mol
# GULP energy per Si atom -5588.167495 kJ/mol
# Density = 2.162469 g / cm^3
# Si number density = 21.674021 Si / 1000 Ang^3
#
#
#
# Elastic Constant Matrix: (Units=GPa)
#
#
# Indices 1 2 3 4 5 6 
#
# 1 86.2243 47.2650 77.8617 0.0000 0.0000 0.0000
# 2 47.2650 101.2891 74.0025 0.0000 0.0000 0.0000
# 3 77.8617 74.0025 226.8377 0.0000 0.0000 0.0000
# 4 0.0000 0.0000 0.0000 -29.7578 0.0000 0.0000
# 5 0.0000 0.0000 0.0000 0.0000 40.9992 0.0000
# 6 0.0000 0.0000 0.0000 0.0000 0.0000 40.9988
#
#
#
# Elastic Compliance Matrix: (Units=1/GPa)
#
#
# Indices 1 2 3 4 5 6 
#
# 1 0.018761 -0.005317 -0.004705 0.000000 0.000000 0.000000
# 2 -0.005317 0.014469 -0.002895 0.000000 0.000000 0.000000
# 3 -0.004705 -0.002895 0.006968 0.000000 0.000000 0.000000
# 4 0.000000 0.000000 0.000000 -0.033605 0.000000 0.000000
# 5 0.000000 0.000000 0.000000 0.000000 0.024391 0.000000
# 6 0.000000 0.000000 0.000000 0.000000 0.000000 0.024391
#
#
# Mechanical properties :
#
#
# Convention : Reuss Voigt Hill
#
# Bulk Modulus (GPa) = 69.62133 90.28994 79.95563
# Shear Modulus (GPa) = 58.14108 24.79616 41.46862
#
# Velocity S-wave (km/s) = 5.18493 3.38605 4.37886
# Velocity P-wave (km/s) = 8.24842 7.55220 7.90797
#
# Compressibility (1/GPa) = 0.01436341
#
# Stress axis : x y z
#
# Youngs Moduli (GPa) = 53.30208 69.11264 143.51293
#
# Poissons Ratio (x) = 0.36747 0.67524
# Poissons Ratio (y) = 0.28340 0.41551
# Poissons Ratio (z) = 0.25079 0.20010
#
# Static dielectric constant tensor:
#      x y z
#    x 1.816940 0.000000 0.000000 
#    y 0.000000 1.808460 0.000000 
#    z 0.000000 0.000000 1.802770 
# 
# From -- ./inp_files/10450.got.cif
#   From: 2010.05.17/outbox.cif.g08.bks.cpg/sg49_6_cif.got.tgz:10450.got - 2010.06.03 21:02:19.
