data_PCOD9394952
_publ_section_title
;
Structure prediction by ZEFSAII (Michael W. Deem and Ramdas Pophale) SiO2 
 PCOD9394952
Probable space group: P C C M
;
_chemical_formula_sum "Si O2"
_cell_formula_units_Z 64
_cell_length_a 18.962834
_cell_length_b 14.421323
_cell_length_c 14.708818
_cell_angle_alpha 90.000000
_cell_angle_beta 90.000000
_cell_angle_gamma 90.000000
_cell_volume 4022.408016
_symmetry_space_group_name_H-M "P C C M"
_symmetry_group_IT_number 49
_symmetry_cell_setting 'orthorhombic'
loop_
_space_group_symop_operation_xyz
x,y,z
-x,-y,z
x,-y,1/2-z
-x,y,1/2-z
-x,-y,-z
x,y,-z
-x,y,1/2+z
x,-y,1/2+z
loop_
_atom_site_type_symbol
_atom_site_label
_atom_site_fract_x
_atom_site_fract_y
_atom_site_fract_z
Si Si1 0.415757 0.001728 0.393697
Si Si2 0.008725 0.659858 0.857823
Si Si3 0.888811 0.902404 0.728528
Si Si4 0.848863 0.621316 0.895365
Si Si5 0.666188 0.102108 0.748385
Si Si6 0.783480 0.256570 0.237032
Si Si7 0.987797 0.131229 0.397669
Si Si8 0.833780 0.588987 0.606895
O O1 0.397500 0.003818 0.500000
O O2 0.383076 0.088634 0.337530
O O3 0.500000 0.000000 0.384281
O O4 0.382199 0.913220 0.340978
O O5 0.934406 0.617035 0.889271
O O6 0.000000 0.669983 0.750000
O O7 0.011306 0.761721 0.899943
O O8 0.082695 0.609726 0.876162
O O9 0.838530 0.819968 0.700810
O O10 0.946772 0.919862 0.650360
O O11 0.926773 0.872496 0.822333
O O12 0.854308 0.000000 0.750000
O O13 0.815735 0.697686 0.828613
O O14 0.822052 0.518818 0.869864
O O15 0.831126 0.641634 0.000000
O O16 0.713646 0.193770 0.748488
O O17 0.704976 0.000000 0.750000
O O18 0.786544 0.340818 0.165597
O O19 0.970170 0.101813 0.500000
O O20 0.820941 0.601544 0.500000
#
# Coordination Sequence:
#
# PCOD9394952 Si02
#       8
#     8   8   8   8   8   8   8   8
#     4   8  15  33  60  87 115 142 169 202 232 264
#     4  12  19  34  54  70  86 113 159 234 298 333
#     4  11  23  35  47  63  87 120 162 205 251 302
#     4  11  23  36  52  71  91 123 170 226 285 332
#     4   8  19  32  51  80 112 146 174 192 230 282
#     4  12  21  36  50  69 101 137 164 206 246 308
#     4  11  19  34  50  62  80 112 161 215 269 311
#     4  11  23  36  52  71  91 123 170 226 285 332
#
# _framework density 15.910867
#
# number of rings (size 3 to 8) (size 9 to 14) (size 15 to 20)
#    0.750    0.625    5.000    3.750    0.000    3.500 
#    0.000    0.000    0.000    0.000    0.000    0.000 
#    0.000    8.000    0.000   22.000    0.000    0.000 
#
# Total GULP energy -356277.208805 kJ/mol
# GULP energy per Si atom -5566.831388 kJ/mol
# Density = 1.587465 g / cm^3
# Si number density = 15.910867 Si / 1000 Ang^3
#
#
#
# Elastic Constant Matrix: (Units=GPa)
#
#
# Indices 1 2 3 4 5 6 
#
# 1 64.5688 24.8580 29.7665 0.0000 0.0000 0.0000
# 2 24.8580 85.6670 15.4466 0.0000 0.0000 0.0000
# 3 29.7665 15.4466 97.2588 0.0000 0.0000 0.0000
# 4 0.0000 0.0000 0.0000 7.7370 0.0000 0.0000
# 5 0.0000 0.0000 0.0000 0.0000 8.8009 0.0000
# 6 0.0000 0.0000 0.0000 0.0000 0.0000 0.0884
#
#
#
# Elastic Compliance Matrix: (Units=1/GPa)
#
#
# Indices 1 2 3 4 5 6 
#
# 1 0.019767 -0.004782 -0.005290 0.000000 0.000000 0.000000
# 2 -0.004782 0.013174 -0.000629 0.000000 0.000000 0.000000
# 3 -0.005290 -0.000629 0.012001 0.000000 0.000000 0.000000
# 4 0.000000 0.000000 0.000000 0.129249 0.000000 0.000000
# 5 0.000000 0.000000 0.000000 0.000000 0.113624 0.000000
# 6 0.000000 0.000000 0.000000 0.000000 0.000000 11.318091
#
#
# Mechanical properties :
#
#
# Convention : Reuss Voigt Hill
#
# Bulk Modulus (GPa) = 42.48099 43.07077 42.77588
# Shear Modulus (GPa) = 0.42973 15.15349 7.79161
#
# Velocity S-wave (km/s) = 0.52026 3.08944 2.21533
# Velocity P-wave (km/s) = 5.20752 6.31308 5.78676
#
# Compressibility (1/GPa) = 0.02353994
#
# Stress axis : x y z
#
# Youngs Moduli (GPa) = 50.58883 75.90679 83.32749
#
# Poissons Ratio (x) = 0.36298 0.44083
# Poissons Ratio (y) = 0.24191 0.05239
# Poissons Ratio (z) = 0.26763 0.04773
#
# Static dielectric constant tensor:
#      x y z
#    x 1.531870 0.000000 0.000000 
#    y 0.000000 1.566380 0.000000 
#    z 0.000000 0.000000 1.560470 
# 
# From -- ./inp_files/14255.got.cif
#   From: 2010.05.17/outbox.cif.g08.bks.cpg/sg49_8_cif.got.tgz:14255.got - 2010.06.03 21:02:19.
