data_PCOD9394909
_publ_section_title
;
Structure prediction by ZEFSAII (Michael W. Deem and Ramdas Pophale) SiO2 
 PCOD9394909
Probable space group: P C C M
;
_chemical_formula_sum "Si O2"
_cell_formula_units_Z 38
_cell_length_a 24.777168
_cell_length_b 7.790026
_cell_length_c 9.323391
_cell_angle_alpha 90.000000
_cell_angle_beta 90.000000
_cell_angle_gamma 90.000000
_cell_volume 1799.552290
_symmetry_space_group_name_H-M "P C C M"
_symmetry_group_IT_number 49
_symmetry_cell_setting 'orthorhombic'
loop_
_space_group_symop_operation_xyz
x,y,z
-x,-y,z
x,-y,1/2-z
-x,y,1/2-z
-x,-y,-z
x,y,-z
-x,y,1/2+z
x,-y,1/2+z
loop_
_atom_site_type_symbol
_atom_site_label
_atom_site_fract_x
_atom_site_fract_y
_atom_site_fract_z
Si Si1 0.157975 0.677232 0.168474
Si Si2 0.276517 0.707478 0.769250
Si Si3 0.425912 0.440112 0.000000
Si Si4 0.667121 0.835262 0.000000
Si Si5 0.634216 0.787297 0.500000
Si Si6 0.947698 0.185938 0.675541
Si Si7 0.500000 0.500000 0.750000
O O1 0.167508 0.500000 0.250000
O O2 0.217367 0.762080 0.175374
O O3 0.109066 0.748497 0.263592
O O4 0.142690 0.662605 0.000000
O O5 0.276765 0.500000 0.750000
O O6 0.292242 0.815968 0.631317
O O7 0.327189 0.743250 0.868800
O O8 0.371601 0.331236 0.000000
O O9 0.413461 0.646219 0.000000
O O10 0.460723 0.399664 0.141484
O O11 0.629845 0.005632 0.000000
O O12 0.950801 0.184156 0.500000
O O13 0.000000 0.276393 0.750000
O O14 0.948638 0.000000 0.750000
#
# Coordination Sequence:
#
# PCOD9394909 Si02
#       7
#     8   8   4   4   4   8   2
#     4  11  24  41  64  93 130 171 219 280 345 411
#     4  11  22  41  64  93 137 179 219 277 346 412
#     4  11  22  46  66 100 138 176 229 280 330 400
#     4  12  25  39  71 100 135 181 225 280 340 412
#     4  12  23  43  67 102 133 179 227 278 338 406
#     4  11  23  42  66  91 127 174 226 283 345 409
#     4  10  24  42  74  94 132 192 220 270 352 386
#
# _framework density 21.116363
#
# number of rings (size 3 to 8) (size 9 to 14) (size 15 to 20)
#    0.000    0.842    3.158    5.053    5.895    2.105 
#    0.000    5.263    0.000    0.000    0.000    0.000 
#    0.000    0.000    0.000    0.000    0.000    0.000 
#
# Total GULP energy -211665.023614 kJ/mol
# GULP energy per Si atom -5570.132200 kJ/mol
# Density = 2.106830 g / cm^3
# Si number density = 21.116363 Si / 1000 Ang^3
#
#
#
# Elastic Constant Matrix: (Units=GPa)
#
#
# Indices 1 2 3 4 5 6 
#
# 1 101.4715 13.9224 44.1742 0.0000 0.0000 0.0000
# 2 13.9224 72.1808 11.2563 0.0000 0.0000 0.0000
# 3 44.1742 11.2563 189.0949 0.0000 0.0000 0.0000
# 4 0.0000 0.0000 0.0000 26.1834 0.0000 0.0000
# 5 0.0000 0.0000 0.0000 0.0000 51.7198 0.0000
# 6 0.0000 0.0000 0.0000 0.0000 0.0000 26.2048
#
#
#
# Elastic Compliance Matrix: (Units=1/GPa)
#
#
# Indices 1 2 3 4 5 6 
#
# 1 0.011190 -0.001767 -0.002509 0.000000 0.000000 0.000000
# 2 -0.001767 0.014263 -0.000436 0.000000 0.000000 0.000000
# 3 -0.002509 -0.000436 0.005900 0.000000 0.000000 0.000000
# 4 0.000000 0.000000 0.000000 0.038192 0.000000 0.000000
# 5 0.000000 0.000000 0.000000 0.000000 0.019335 0.000000
# 6 0.000000 0.000000 0.000000 0.000000 0.000000 0.038161
#
#
# Mechanical properties :
#
#
# Convention : Reuss Voigt Hill
#
# Bulk Modulus (GPa) = 45.60212 55.71699 50.65955
# Shear Modulus (GPa) = 34.77662 40.38122 37.57892
#
# Velocity S-wave (km/s) = 4.06261 4.37775 4.22312
# Velocity P-wave (km/s) = 6.60673 7.21082 6.91537
#
# Compressibility (1/GPa) = 0.02192880
#
# Stress axis : x y z
#
# Youngs Moduli (GPa) = 89.36865 70.11166 169.48019
#
# Poissons Ratio (x) = 0.12389 0.42519
# Poissons Ratio (y) = 0.15792 0.07393
# Poissons Ratio (z) = 0.22421 0.03059
#
# Static dielectric constant tensor:
#      x y z
#    x 1.852860 0.000000 0.000000 
#    y 0.000000 1.816550 0.000000 
#    z 0.000000 0.000000 1.866480 
# 
# From -- ./inp_files/6250.got.cif
#   From: 2010.05.17/outbox.cif.g08.bks.cpg/sg49_4_cif.got.tgz:6250.got - 2010.06.03 21:02:19.
