data_PCOD9394849
_publ_section_title
;
Structure prediction by ZEFSAII (Michael W. Deem and Ramdas Pophale) SiO2 
 PCOD9394849
Probable space group: P C C M
;
_chemical_formula_sum "Si O2"
_cell_formula_units_Z 64
_cell_length_a 15.791587
_cell_length_b 24.175360
_cell_length_c 8.722326
_cell_angle_alpha 90.000000
_cell_angle_beta 90.000000
_cell_angle_gamma 90.000000
_cell_volume 3329.898853
_symmetry_space_group_name_H-M "P C C M"
_symmetry_group_IT_number 49
_symmetry_cell_setting 'orthorhombic'
loop_
_space_group_symop_operation_xyz
x,y,z
-x,-y,z
x,-y,1/2-z
-x,y,1/2-z
-x,-y,-z
x,y,-z
-x,y,1/2+z
x,-y,1/2+z
loop_
_atom_site_type_symbol
_atom_site_label
_atom_site_fract_x
_atom_site_fract_y
_atom_site_fract_z
Si Si1 0.745914 0.938428 0.815564
Si Si2 0.589660 0.369651 0.317250
Si Si3 0.156730 0.746728 0.315424
Si Si4 0.090627 0.132463 0.184268
Si Si5 0.346623 0.744088 0.183587
Si Si6 0.911672 0.633654 0.683448
Si Si7 0.591440 0.132557 0.816698
Si Si8 0.746377 0.438529 0.816078
O O1 0.831809 0.906646 0.767294
O O2 0.665644 0.904315 0.754612
O O3 0.744941 0.000000 0.750000
O O4 0.743363 0.939628 0.000000
O O5 0.500000 0.388789 0.250000
O O6 0.588316 0.371808 0.500000
O O7 0.605941 0.306911 0.261740
O O8 0.666712 0.405956 0.253048
O O9 0.162570 0.744689 0.500000
O O10 0.113046 0.804507 0.270237
O O11 0.250588 0.744942 0.244636
O O12 0.106388 0.693893 0.254318
O O13 0.000000 0.115945 0.250000
O O14 0.086544 0.131039 0.000000
O O15 0.388627 0.803129 0.219144
O O16 0.346442 0.736082 0.000000
O O17 0.916778 0.638180 0.500000
O O18 0.832119 0.594804 0.722655
O O19 0.000000 0.612111 0.750000
O O20 0.500000 0.117624 0.750000
O O21 0.591668 0.126282 0.000000
O O22 0.749827 0.500000 0.750000
O O23 0.738650 0.439871 0.000000
#
# Coordination Sequence:
#
# PCOD9394849 Si02
#       8
#     8   8   8   8   8   8   8   8
#     4  11  24  44  65  90 123 162 211 262 313 370
#     4  12  25  42  67  96 130 169 210 259 314 375
#     4  11  21  37  63  94 128 168 208 253 316 376
#     4  10  23  40  62  92 126 164 206 256 309 370
#     4  11  22  38  63  96 131 167 207 253 313 377
#     4  11  24  41  64  94 130 167 210 261 314 375
#     4  11  24  41  65  95 127 166 206 255 311 371
#     4  11  25  45  67  93 126 166 215 266 317 373
#
# _framework density 19.219804
#
# number of rings (size 3 to 8) (size 9 to 14) (size 15 to 20)
#    0.000    1.000    2.500    4.125    0.000    8.000 
#    0.000    5.000    0.000    0.000    0.000    0.000 
#    0.000    0.000    0.000    0.000    0.000    0.000 
#
# Total GULP energy -358127.674217 kJ/mol
# GULP energy per Si atom -5595.744910 kJ/mol
# Density = 1.917606 g / cm^3
# Si number density = 19.219804 Si / 1000 Ang^3
#
#
#
# Elastic Constant Matrix: (Units=GPa)
#
#
# Indices 1 2 3 4 5 6 
#
# 1 197.7170 83.1500 68.8109 0.0000 0.0000 0.0000
# 2 83.1500 148.7641 66.2874 0.0000 0.0000 0.0000
# 3 68.8109 66.2874 80.8109 0.0000 0.0000 0.0000
# 4 0.0000 0.0000 0.0000 15.3195 0.0000 0.0000
# 5 0.0000 0.0000 0.0000 0.0000 34.8166 0.0000
# 6 0.0000 0.0000 0.0000 0.0000 0.0000 -6.0281
#
#
#
# Elastic Compliance Matrix: (Units=1/GPa)
#
#
# Indices 1 2 3 4 5 6 
#
# 1 0.007601 -0.002150 -0.004708 0.000000 0.000000 0.000000
# 2 -0.002150 0.011203 -0.007358 0.000000 0.000000 0.000000
# 3 -0.004708 -0.007358 0.022419 0.000000 0.000000 0.000000
# 4 0.000000 0.000000 0.000000 0.065276 0.000000 0.000000
# 5 0.000000 0.000000 0.000000 0.000000 0.028722 0.000000
# 6 0.000000 0.000000 0.000000 0.000000 0.000000 -0.165889
#
#
# Mechanical properties :
#
#
# Convention : Reuss Voigt Hill
#
# Bulk Modulus (GPa) = 78.19073 95.97648 87.08361
# Shear Modulus (GPa) = 2464.79893 22.75785 1243.77839
#
# Velocity S-wave (km/s) = 35.84984 3.44478 25.46642
# Velocity P-wave (km/s) = 41.88538 8.11583 30.16829
#
# Compressibility (1/GPa) = 0.01278924
#
# Stress axis : x y z
#
# Youngs Moduli (GPa) = 131.56826 89.26367 44.60449
#
# Poissons Ratio (x) = 0.19196 0.21000
# Poissons Ratio (y) = 0.28293 0.32821
# Poissons Ratio (z) = 0.61942 0.65682
#
# Static dielectric constant tensor:
#      x y z
#    x 1.672640 0.000000 0.000000 
#    y 0.000000 1.645220 0.000000 
#    z 0.000000 0.000000 1.643080 
# 
# From -- ./inp_files/4414.got.cif
#   From: 2010.05.17/outbox.cif.g08.bks.cpg/sg49_3_cif.got.tgz:4414.got - 2010.06.03 21:02:19.
