data_PCOD9394928
_publ_section_title
;
Structure prediction by ZEFSAII (Michael W. Deem and Ramdas Pophale) SiO2 
 PCOD9394928
Probable space group: P C C M
;
_chemical_formula_sum "Si O2"
_cell_formula_units_Z 30
_cell_length_a 19.212413
_cell_length_b 7.722970
_cell_length_c 9.933855
_cell_angle_alpha 90.000000
_cell_angle_beta 90.000000
_cell_angle_gamma 90.000000
_cell_volume 1473.954503
_symmetry_space_group_name_H-M "P C C M"
_symmetry_group_IT_number 49
_symmetry_cell_setting 'orthorhombic'
loop_
_space_group_symop_operation_xyz
x,y,z
-x,-y,z
x,-y,1/2-z
-x,y,1/2-z
-x,-y,-z
x,y,-z
-x,y,1/2+z
x,-y,1/2+z
loop_
_atom_site_type_symbol
_atom_site_label
_atom_site_fract_x
_atom_site_fract_y
_atom_site_fract_z
Si Si1 0.402860 0.331753 0.500000
Si Si2 0.810188 0.662901 0.156205
Si Si3 0.000000 0.000000 0.500000
Si Si4 0.664246 0.804236 0.229500
Si Si5 0.105426 0.000000 0.250000
Si Si6 0.439874 0.260724 0.000000
O O1 0.359899 0.280723 0.368457
O O2 0.422008 0.534183 0.500000
O O3 0.477667 0.236338 0.500000
O O4 0.827659 0.500000 0.250000
O O5 0.727425 0.697432 0.165800
O O6 0.848618 0.832552 0.212499
O O7 0.829408 0.634577 0.000000
O O8 0.058316 0.036407 0.380600
O O9 0.689043 0.000000 0.250000
O O10 0.598269 0.812374 0.130778
#
# Coordination Sequence:
#
# PCOD9394928 Si02
#       6
#     4   8   2   8   4   4
#     4  11  25  40  65  87 129 180 227 298 355 430
#     4  12  27  46  73 107 146 189 241 297 352 419
#     4  10  24  46  82 110 152 192 226 282 334 410
#     4  12  25  41  65  95 131 174 234 294 352 421
#     4  11  24  50  78 110 149 192 232 278 345 414
#     4  11  23  44  59  91 129 176 235 284 365 426
#
# _framework density 20.35341
#
# number of rings (size 3 to 8) (size 9 to 14) (size 15 to 20)
#    0.000    0.533    4.000    4.000    3.733    5.333 
#    0.000    4.000    0.000    0.000    0.000    0.000 
#    0.000    0.000    0.000    0.000    0.000    0.000 
#
# Total GULP energy -167340.673144 kJ/mol
# GULP energy per Si atom -5578.022438 kJ/mol
# Density = 2.030708 g / cm^3
# Si number density = 20.353410 Si / 1000 Ang^3
#
#
#
# Elastic Constant Matrix: (Units=GPa)
#
#
# Indices 1 2 3 4 5 6 
#
# 1 89.2067 18.9847 48.9206 0.0000 0.0000 0.0000
# 2 18.9847 108.6828 45.2013 0.0000 0.0000 0.0000
# 3 48.9206 45.2013 198.3911 0.0000 0.0000 0.0000
# 4 0.0000 0.0000 0.0000 19.1278 0.0000 0.0000
# 5 0.0000 0.0000 0.0000 0.0000 39.5695 0.0000
# 6 0.0000 0.0000 0.0000 0.0000 0.0000 -11.0740
#
#
#
# Elastic Compliance Matrix: (Units=1/GPa)
#
#
# Indices 1 2 3 4 5 6 
#
# 1 0.013069 -0.001041 -0.002985 0.000000 0.000000 0.000000
# 2 -0.001041 0.010247 -0.002078 0.000000 0.000000 0.000000
# 3 -0.002985 -0.002078 0.006250 0.000000 0.000000 0.000000
# 4 0.000000 0.000000 0.000000 0.052280 0.000000 0.000000
# 5 0.000000 0.000000 0.000000 0.000000 0.025272 0.000000
# 6 0.000000 0.000000 0.000000 0.000000 0.000000 -0.090301
#
#
# Mechanical properties :
#
#
# Convention : Reuss Voigt Hill
#
# Bulk Modulus (GPa) = 57.61384 69.16600 63.38992
# Shear Modulus (GPa) = 143.63176 28.40290 86.01733
#
# Velocity S-wave (km/s) = 8.40964 3.73967 6.50797
# Velocity P-wave (km/s) = 11.07539 7.25969 9.36396
#
# Compressibility (1/GPa) = 0.01735694
#
# Stress axis : x y z
#
# Youngs Moduli (GPa) = 76.51902 97.58764 159.99663
#
# Poissons Ratio (x) = 0.10161 0.47764
# Poissons Ratio (y) = 0.07967 0.33247
# Poissons Ratio (z) = 0.22843 0.20278
#
# Static dielectric constant tensor:
#      x y z
#    x 1.706680 0.000000 0.000000 
#    y 0.000000 1.731560 0.000000 
#    z 0.000000 0.000000 1.688180 
# 
# From -- ./inp_files/1488.got.cif
#   From: 2010.05.17/outbox.cif.g08.bks.cpg/sg49_1_cif.got.tgz:1488.got - 2010.06.03 21:02:19.
