data_PCOD9394807
_publ_section_title
;
Structure prediction by ZEFSAII (Michael W. Deem and Ramdas Pophale) SiO2 
 PCOD9394807
Probable space group: P C C M
;
_chemical_formula_sum "Si O2"
_cell_formula_units_Z 48
_cell_length_a 8.393721
_cell_length_b 9.057848
_cell_length_c 31.150730
_cell_angle_alpha 90.000000
_cell_angle_beta 90.000000
_cell_angle_gamma 90.000000
_cell_volume 2368.360377
_symmetry_space_group_name_H-M "P C C M"
_symmetry_group_IT_number 49
_symmetry_cell_setting 'orthorhombic'
loop_
_space_group_symop_operation_xyz
x,y,z
-x,-y,z
x,-y,1/2-z
-x,y,1/2-z
-x,-y,-z
x,y,-z
-x,y,1/2+z
x,-y,1/2+z
loop_
_atom_site_type_symbol
_atom_site_label
_atom_site_fract_x
_atom_site_fract_y
_atom_site_fract_z
Si Si1 0.864254 0.881753 0.883771
Si Si2 0.584414 0.840564 0.949882
Si Si3 0.092923 0.648619 0.160093
Si Si4 0.183623 0.821857 0.241946
Si Si5 0.417376 0.344493 0.618208
Si Si6 0.394063 0.135507 0.815892
O O1 0.750105 0.842693 0.923379
O O2 0.744856 0.934199 0.845906
O O3 0.956609 0.747639 0.861502
O O4 0.000000 0.000000 0.894582
O O5 0.466288 0.725081 0.927296
O O6 0.500000 0.000000 0.944965
O O7 0.609465 0.811754 0.000000
O O8 0.191734 0.739066 0.196619
O O9 0.230810 0.627790 0.124922
O O10 0.000000 0.500000 0.174609
O O11 0.311425 0.772835 0.277601
O O12 0.000000 0.785430 0.250000
O O13 0.192016 0.000000 0.250000
O O14 0.500000 0.500000 0.623857
O O15 0.500323 0.234798 0.652663
O O16 0.500000 0.000000 0.799451
#
# Coordination Sequence:
#
# PCOD9394807 Si02
#       6
#     8   8   8   8   8   8
#     4  11  20  38  65  96 130 163 205 255 316 375
#     4  10  22  42  68  97 127 162 205 257 316 376
#     4  12  25  42  65  92 128 172 213 262 318 372
#     4  11  23  40  62  90 124 166 212 264 314 362
#     4  11  24  43  63  93 128 168 213 254 313 381
#     4  11  22  40  65  91 123 167 216 265 304 366
#
# _framework density 20.267187
#
# number of rings (size 3 to 8) (size 9 to 14) (size 15 to 20)
#    0.000    1.000    1.667    8.000    0.000    3.333 
#    0.000    1.667    0.000    2.000    0.000    0.000 
#    0.000    0.000    0.000    0.000    0.000    0.000 
#
# Total GULP energy -267870.693410 kJ/mol
# GULP energy per Si atom -5580.639446 kJ/mol
# Density = 2.022106 g / cm^3
# Si number density = 20.267187 Si / 1000 Ang^3
#
#
#
# Elastic Constant Matrix: (Units=GPa)
#
#
# Indices 1 2 3 4 5 6 
#
# 1 120.9793 17.6330 58.9236 0.0000 0.0000 0.0000
# 2 17.6330 77.3937 34.7151 0.0000 0.0000 0.0000
# 3 58.9236 34.7151 134.1174 0.0000 0.0000 0.0000
# 4 0.0000 0.0000 0.0000 17.4457 0.0000 0.0000
# 5 0.0000 0.0000 0.0000 0.0000 17.8312 0.0000
# 6 0.0000 0.0000 0.0000 0.0000 0.0000 19.8993
#
#
#
# Elastic Compliance Matrix: (Units=1/GPa)
#
#
# Indices 1 2 3 4 5 6 
#
# 1 0.010525 -0.000366 -0.004529 0.000000 0.000000 0.000000
# 2 -0.000366 0.014631 -0.003626 0.000000 0.000000 0.000000
# 3 -0.004529 -0.003626 0.010385 0.000000 0.000000 0.000000
# 4 0.000000 0.000000 0.000000 0.057321 0.000000 0.000000
# 5 0.000000 0.000000 0.000000 0.000000 0.056082 0.000000
# 6 0.000000 0.000000 0.000000 0.000000 0.000000 0.050253
#
#
# Mechanical properties :
#
#
# Convention : Reuss Voigt Hill
#
# Bulk Modulus (GPa) = 54.06230 61.67042 57.86636
# Shear Modulus (GPa) = 22.48142 25.78315 24.13229
#
# Velocity S-wave (km/s) = 3.33416 3.57061 3.45441
# Velocity P-wave (km/s) = 6.44630 6.89157 6.67265
#
# Compressibility (1/GPa) = 0.01849718
#
# Stress axis : x y z
#
# Youngs Moduli (GPa) = 95.00873 68.34841 96.29536
#
# Poissons Ratio (x) = 0.02504 0.43616
# Poissons Ratio (y) = 0.03481 0.34918
# Poissons Ratio (z) = 0.43033 0.24784
#
# Static dielectric constant tensor:
#      x y z
#    x 1.534370 0.000000 0.000000 
#    y 0.000000 1.846800 0.000000 
#    z 0.000000 0.000000 1.787870 
# 
# From -- ./inp_files/26294.got.cif
#   From: 2010.05.17/outbox.cif.g08.bks.cpg/sg49_14_cif.got.tgz:26294.got - 2010.06.03 21:02:19.
