data_PCOD9394993
_publ_section_title
;
Structure prediction by ZEFSAII (Michael W. Deem and Ramdas Pophale) SiO2 
 PCOD9394993
Probable space group: P C C M
;
_chemical_formula_sum "Si O2"
_cell_formula_units_Z 48
_cell_length_a 19.085766
_cell_length_b 14.959006
_cell_length_c 8.665172
_cell_angle_alpha 90.000000
_cell_angle_beta 90.000000
_cell_angle_gamma 90.000000
_cell_volume 2473.942030
_symmetry_space_group_name_H-M "P C C M"
_symmetry_group_IT_number 49
_symmetry_cell_setting 'orthorhombic'
loop_
_space_group_symop_operation_xyz
x,y,z
-x,-y,z
x,-y,1/2-z
-x,y,1/2-z
-x,-y,-z
x,y,-z
-x,y,1/2+z
x,-y,1/2+z
loop_
_atom_site_type_symbol
_atom_site_label
_atom_site_fract_x
_atom_site_fract_y
_atom_site_fract_z
Si Si1 0.431365 0.155565 0.680445
Si Si2 0.272338 0.595425 0.184501
Si Si3 0.812840 0.760328 0.177801
Si Si4 0.297729 0.082766 0.824431
Si Si5 0.575162 0.646291 0.816462
Si Si6 0.921760 0.098568 0.814767
O O1 0.500000 0.110665 0.750000
O O2 0.439213 0.174781 0.500000
O O3 0.363555 0.098697 0.715425
O O4 0.423534 0.248614 0.772956
O O5 0.248900 0.500000 0.250000
O O6 0.219012 0.672389 0.241902
O O7 0.352320 0.609772 0.245830
O O8 0.274732 0.595800 0.000000
O O9 0.748000 0.828917 0.175575
O O10 0.873209 0.818956 0.259458
O O11 0.832667 0.740757 0.000000
O O12 0.257236 0.000000 0.750000
O O13 0.318770 0.064803 0.000000
O O14 0.500000 0.612448 0.750000
O O15 0.575826 0.633672 0.000000
O O16 0.000000 0.113761 0.750000
O O17 0.901018 0.000000 0.750000
O O18 0.921798 0.094052 0.000000
#
# Coordination Sequence:
#
# PCOD9394993 Si02
#       6
#     8   8   8   8   8   8
#     4  11  21  35  55  77 107 147 195 245 302 361
#     4  12  25  42  64  91 122 160 207 258 314 373
#     4  11  23  41  64  91 126 163 202 250 305 363
#     4  11  23  37  56  82 115 152 198 245 297 358
#     4  11  21  37  59  85 115 152 200 256 318 377
#     4  11  22  39  65  99 137 174 213 253 299 356
#
# _framework density 19.402232999999999
#
# number of rings (size 3 to 8) (size 9 to 14) (size 15 to 20)
#    0.000    0.833    1.667    9.000    0.000    4.000 
#    0.000    3.333    0.000    0.500    0.000    3.500 
#    0.000    0.000    0.000    0.000    0.000    0.000 
#
# Total GULP energy -268225.546412 kJ/mol
# GULP energy per Si atom -5588.032217 kJ/mol
# Density = 1.935807 g / cm^3
# Si number density = 19.402233 Si / 1000 Ang^3
#
#
#
# Elastic Constant Matrix: (Units=GPa)
#
#
# Indices 1 2 3 4 5 6 
#
# 1 122.9573 55.6508 64.3857 0.0000 0.0000 0.0000
# 2 55.6508 134.6778 65.1634 0.0000 0.0000 0.0000
# 3 64.3857 65.1634 204.6262 0.0000 0.0000 0.0000
# 4 0.0000 0.0000 0.0000 29.0330 0.0000 0.0000
# 5 0.0000 0.0000 0.0000 0.0000 45.0523 0.0000
# 6 0.0000 0.0000 0.0000 0.0000 0.0000 47.9695
#
#
#
# Elastic Compliance Matrix: (Units=1/GPa)
#
#
# Indices 1 2 3 4 5 6 
#
# 1 0.010887 -0.003359 -0.002356 0.000000 0.000000 0.000000
# 2 -0.003359 0.009814 -0.002068 0.000000 0.000000 0.000000
# 3 -0.002356 -0.002068 0.006287 0.000000 0.000000 0.000000
# 4 0.000000 0.000000 0.000000 0.034444 0.000000 0.000000
# 5 0.000000 0.000000 0.000000 0.000000 0.022196 0.000000
# 6 0.000000 0.000000 0.000000 0.000000 0.000000 0.020847
#
#
# Mechanical properties :
#
#
# Convention : Reuss Voigt Hill
#
# Bulk Modulus (GPa) = 87.55459 92.51789 90.03624
# Shear Modulus (GPa) = 40.37238 42.88173 41.62705
#
# Velocity S-wave (km/s) = 4.56654 4.70632 4.63695
# Velocity P-wave (km/s) = 8.54566 8.79319 8.67031
#
# Compressibility (1/GPa) = 0.01142145
#
# Stress axis : x y z
#
# Youngs Moduli (GPa) = 91.85520 101.89780 159.05983
#
# Poissons Ratio (x) = 0.34224 0.37474
# Poissons Ratio (y) = 0.30851 0.32900
# Poissons Ratio (z) = 0.21641 0.21077
#
# Static dielectric constant tensor:
#      x y z
#    x 1.721250 0.000000 0.000000 
#    y 0.000000 1.696070 0.000000 
#    z 0.000000 0.000000 1.671410 
# 
# From -- ./inp_files/4880.got.cif
#   From: 2010.05.17/outbox.cif.g08.bks.cpg/sg49_3_cif.got.tgz:4880.got - 2010.06.03 21:02:19.
