data_PCOD9394302
_publ_section_title
;
Structure prediction by ZEFSAII (Michael W. Deem and Ramdas Pophale) SiO2 
 PCOD9394302
Probable space group: P C C M
;
_chemical_formula_sum "Si O2"
_cell_formula_units_Z 64
_cell_length_a 8.848322
_cell_length_b 13.213652
_cell_length_c 27.857708
_cell_angle_alpha 90.000000
_cell_angle_beta 90.000000
_cell_angle_gamma 90.000000
_cell_volume 3257.085547
_symmetry_space_group_name_H-M "P C C M"
_symmetry_group_IT_number 49
_symmetry_cell_setting 'orthorhombic'
loop_
_space_group_symop_operation_xyz
x,y,z
-x,-y,z
x,-y,1/2-z
-x,y,1/2-z
-x,-y,-z
x,y,-z
-x,y,1/2+z
x,-y,1/2+z
loop_
_atom_site_type_symbol
_atom_site_label
_atom_site_fract_x
_atom_site_fract_y
_atom_site_fract_z
Si Si1 0.578536 0.888947 0.445109
Si Si2 0.175765 0.464826 0.302270
Si Si3 0.157399 0.879750 0.690535
Si Si4 0.389852 0.582986 0.625997
Si Si5 0.318324 0.212814 0.105689
Si Si6 0.401606 0.711284 0.199974
Si Si7 0.166640 0.978096 0.557915
Si Si8 0.187771 0.884127 0.194187
O O1 0.581000 0.850494 0.500000
O O2 0.485500 0.817947 0.410791
O O3 0.500000 0.000000 0.446730
O O4 0.740501 0.922592 0.426814
O O5 0.228111 0.500000 0.250000
O O6 0.267377 0.522875 0.343110
O O7 0.239531 0.350007 0.300312
O O8 0.000000 0.500000 0.306286
O O9 0.269200 0.809536 0.660320
O O10 0.176579 0.872702 0.747642
O O11 0.982762 0.854403 0.677688
O O12 0.196721 0.997374 0.680291
O O13 0.500000 0.500000 0.602221
O O14 0.306286 0.668619 0.595099
O O15 0.495157 0.648347 0.662655
O O16 0.220757 0.129853 0.076966
O O17 0.500000 0.714416 0.250000
O O18 0.339290 0.820933 0.183656
O O19 0.178384 0.975145 0.500000
O O20 0.000000 0.000000 0.573439
#
# Coordination Sequence:
#
# PCOD9394302 Si02
#       8
#     8   8   8   8   8   8   8   8
#     4   8  16  33  56  84 117 147 175 214 271 344
#     4  10  21  35  56  75  95 135 194 253 302 343
#     4   9  20  35  50  75 109 145 185 232 266 340
#     4  10  23  38  49  76 110 138 186 251 291 325
#     4  11  20  33  57  81 110 147 184 228 286 341
#     4  11  20  34  55  74  98 140 190 245 295 344
#     4   9  19  36  59  91 124 150 181 225 278 348
#     4   9  20  36  50  69 108 150 186 224 282 334
#
# _framework density 19.649467999999999
#
# number of rings (size 3 to 8) (size 9 to 14) (size 15 to 20)
#    0.000    2.375    1.250    2.625    3.500    4.000 
#    0.000    3.750    0.000    1.500    0.000    0.000 
#    0.000    5.000    0.000    0.000    0.000    0.000 
#
# Total GULP energy -356356.095614 kJ/mol
# GULP energy per Si atom -5568.063994 kJ/mol
# Density = 1.960475 g / cm^3
# Si number density = 19.649468 Si / 1000 Ang^3
#
#
#
# Elastic Constant Matrix: (Units=GPa)
#
#
# Indices 1 2 3 4 5 6 
#
# 1 93.5550 40.9610 17.0867 0.0000 0.0000 0.0000
# 2 40.9610 94.0570 17.4477 0.0000 0.0000 0.0000
# 3 17.0867 17.4477 41.2779 0.0000 0.0000 0.0000
# 4 0.0000 0.0000 0.0000 13.3418 0.0000 0.0000
# 5 0.0000 0.0000 0.0000 0.0000 23.3847 0.0000
# 6 0.0000 0.0000 0.0000 0.0000 0.0000 29.9507
#
#
#
# Elastic Compliance Matrix: (Units=1/GPa)
#
#
# Indices 1 2 3 4 5 6 
#
# 1 0.013633 -0.005306 -0.003400 0.000000 0.000000 0.000000
# 2 -0.005306 0.013602 -0.003553 0.000000 0.000000 0.000000
# 3 -0.003400 -0.003553 0.027135 0.000000 0.000000 0.000000
# 4 0.000000 0.000000 0.000000 0.074952 0.000000 0.000000
# 5 0.000000 0.000000 0.000000 0.000000 0.042763 0.000000
# 6 0.000000 0.000000 0.000000 0.000000 0.000000 0.033388
#
#
# Mechanical properties :
#
#
# Convention : Reuss Voigt Hill
#
# Bulk Modulus (GPa) = 33.49952 42.20898 37.85425
# Shear Modulus (GPa) = 20.83824 23.56174 22.19999
#
# Velocity S-wave (km/s) = 3.26006 3.46656 3.36490
# Velocity P-wave (km/s) = 5.59073 6.12783 5.86543
#
# Compressibility (1/GPa) = 0.02985118
#
# Stress axis : x y z
#
# Youngs Moduli (GPa) = 73.35021 73.51980 36.85227
#
# Poissons Ratio (x) = 0.39012 0.12531
# Poissons Ratio (y) = 0.38922 0.13093
# Poissons Ratio (z) = 0.24942 0.26120
#
# Static dielectric constant tensor:
#      x y z
#    x 1.794020 0.000000 0.000000 
#    y 0.000000 1.775270 0.000000 
#    z 0.000000 0.000000 1.719230 
# 
# From -- ./inp_files/26446.got.cif
#   From: 2010.05.17/outbox.cif.g08.bks.cpg/sg49_14_cif.got.tgz:26446.got - 2010.06.03 21:02:19.
