data_PCOD9394032
_publ_section_title
;
Structure prediction by ZEFSAII (Michael W. Deem and Ramdas Pophale) SiO2 
 PCOD9394032
Probable space group: P C C M
;
_chemical_formula_sum "Si O2"
_cell_formula_units_Z 32
_cell_length_a 10.611691
_cell_length_b 9.097938
_cell_length_c 14.698142
_cell_angle_alpha 90.000000
_cell_angle_beta 90.000000
_cell_angle_gamma 90.000000
_cell_volume 1419.024870
_symmetry_space_group_name_H-M "P C C M"
_symmetry_group_IT_number 49
_symmetry_cell_setting 'orthorhombic'
loop_
_space_group_symop_operation_xyz
x,y,z
-x,-y,z
x,-y,1/2-z
-x,y,1/2-z
-x,-y,-z
x,y,-z
-x,y,1/2+z
x,-y,1/2+z
loop_
_atom_site_type_symbol
_atom_site_label
_atom_site_fract_x
_atom_site_fract_y
_atom_site_fract_z
Si Si1 0.370316 0.578812 0.888759
Si Si2 0.128276 0.064145 0.851264
Si Si3 0.121498 0.403825 0.889437
Si Si4 0.615915 0.091039 0.105288
O O1 0.500000 0.500000 0.862274
O O2 0.248071 0.487429 0.860871
O O3 0.364703 0.746681 0.854493
O O4 0.366536 0.579897 0.000000
O O5 0.119878 0.239197 0.852180
O O6 0.132652 0.000000 0.750000
O O7 0.257079 0.003967 0.893752
O O8 0.000000 0.000000 0.894180
O O9 0.000000 0.500000 0.863779
O O10 0.121108 0.391313 0.000000
O O11 0.500000 0.000000 0.145898
O O12 0.581221 0.118991 0.000000
#
# Coordination Sequence:
#
# PCOD9394032 Si02
#       4
#     8   8   8   8
#     4   9  17  31  53  83 114 143 183 236 292 346
#     4  11  24  40  56  82 120 161 200 242 299 365
#     4  10  20  36  61  89 115 149 198 253 303 354
#     4  10  20  36  61  89 116 152 198 248 300 354
#
# _framework density 22.550698000000001
#
# number of rings (size 3 to 8) (size 9 to 14) (size 15 to 20)
#    0.000    2.000    0.000    3.750    0.000    8.500 
#    0.000    8.750    0.000    1.500    0.000    0.000 
#    0.000    0.000    0.000    0.000    0.000    0.000 
#
# Total GULP energy -178986.416826 kJ/mol
# GULP energy per Si atom -5593.325526 kJ/mol
# Density = 2.249937 g / cm^3
# Si number density = 22.550698 Si / 1000 Ang^3
#
#
#
# Elastic Constant Matrix: (Units=GPa)
#
#
# Indices 1 2 3 4 5 6 
#
# 1 226.9387 139.6843 3.9687 0.0000 0.0000 0.0000
# 2 139.6843 282.2964 19.5794 0.0000 0.0000 0.0000
# 3 3.9687 19.5794 68.1158 0.0000 0.0000 0.0000
# 4 0.0000 0.0000 0.0000 20.0269 0.0000 0.0000
# 5 0.0000 0.0000 0.0000 0.0000 -4.6953 0.0000
# 6 0.0000 0.0000 0.0000 0.0000 0.0000 43.3742
#
#
#
# Elastic Compliance Matrix: (Units=1/GPa)
#
#
# Indices 1 2 3 4 5 6 
#
# 1 0.006356 -0.003183 0.000545 0.000000 0.000000 0.000000
# 2 -0.003183 0.005208 -0.001312 0.000000 0.000000 0.000000
# 3 0.000545 -0.001312 0.015026 0.000000 0.000000 0.000000
# 4 0.000000 0.000000 0.000000 0.049933 0.000000 0.000000
# 5 0.000000 0.000000 0.000000 0.000000 -0.212978 0.000000
# 6 0.000000 0.000000 0.000000 0.000000 0.000000 0.023055
#
#
# Mechanical properties :
#
#
# Convention : Reuss Voigt Hill
#
# Bulk Modulus (GPa) = 53.50267 100.42397 76.96332
# Shear Modulus (GPa) = -50.36768 39.34907 -5.50931
#
# Velocity S-wave (km/s) = -4.73115 4.18175 -1.56473
# Velocity P-wave (km/s) = 2.46334 8.24289 5.56225
#
# Compressibility (1/GPa) = 0.01869066
#
# Stress axis : x y z
#
# Youngs Moduli (GPa) = 157.33093 192.00291 66.55052
#
# Poissons Ratio (x) = 0.61111 -0.03624
# Poissons Ratio (y) = 0.50076 0.08729
# Poissons Ratio (z) = -0.08568 0.25184
#
# Static dielectric constant tensor:
#      x y z
#    x 1.810630 0.000000 0.000000 
#    y 0.000000 1.783280 0.000000 
#    z 0.000000 0.000000 1.944390 
# 
# From -- ./inp_files/11190.got.cif
#   From: 2010.05.17/outbox.cif.g08.bks.cpg/sg49_6_cif.got.tgz:11190.got - 2010.06.03 21:02:19.
