data_PCOD9394794
_publ_section_title
;
Structure prediction by ZEFSAII (Michael W. Deem and Ramdas Pophale) SiO2 
 PCOD9394794
Probable space group: P C C M
;
_chemical_formula_sum "Si O2"
_cell_formula_units_Z 32
_cell_length_a 8.920543
_cell_length_b 5.208838
_cell_length_c 30.038811
_cell_angle_alpha 90.000000
_cell_angle_beta 90.000000
_cell_angle_gamma 90.000000
_cell_volume 1395.773280
_symmetry_space_group_name_H-M "P C C M"
_symmetry_group_IT_number 49
_symmetry_cell_setting 'orthorhombic'
loop_
_space_group_symop_operation_xyz
x,y,z
-x,-y,z
x,-y,1/2-z
-x,y,1/2-z
-x,-y,-z
x,y,-z
-x,y,1/2+z
x,-y,1/2+z
loop_
_atom_site_type_symbol
_atom_site_label
_atom_site_fract_x
_atom_site_fract_y
_atom_site_fract_z
Si Si1 0.335236 0.408240 0.052010
Si Si2 0.566155 0.748699 0.700201
Si Si3 0.905208 0.240647 0.818136
Si Si4 0.838787 0.089965 0.079574
O O1 0.500000 0.500000 0.066813
O O2 0.230178 0.659092 0.056604
O O3 0.268072 0.159832 0.076910
O O4 0.345694 0.333609 0.000000
O O5 0.500000 0.500000 0.676783
O O6 0.500000 0.749836 0.750000
O O7 0.743454 0.739519 0.704031
O O8 0.500000 0.000000 0.677346
O O9 0.868612 0.179048 0.869744
O O10 0.000000 0.500000 0.814036
O O11 0.000000 0.000000 0.801166
O O12 0.000000 0.000000 0.060869
#
# Coordination Sequence:
#
# PCOD9394794 Si02
#       4
#     8   8   8   8
#     4  11  24  41  61  90 127 167 212 263 320 377
#     4  10  22  42  64  94 128 160 204 254 306 375
#     4  11  23  42  65  92 127 166 209 260 315 371
#     4  11  23  40  62  91 124 164 215 263 314 376
#
# _framework density 22.926361
#
# number of rings (size 3 to 8) (size 9 to 14) (size 15 to 20)
#    0.000    1.250    0.000    6.750    0.000    8.000 
#    0.000   15.000    0.000    0.000    0.000    0.000 
#    0.000    0.000    0.000    0.000    0.000    0.000 
#
# Total GULP energy -179084.716803 kJ/mol
# GULP energy per Si atom -5596.397400 kJ/mol
# Density = 2.287418 g / cm^3
# Si number density = 22.926361 Si / 1000 Ang^3
#
#
#
# Elastic Constant Matrix: (Units=GPa)
#
#
# Indices 1 2 3 4 5 6 
#
# 1 200.0473 97.9746 35.0350 0.0000 0.0000 0.0000
# 2 97.9746 240.1890 16.9409 0.0000 0.0000 0.0000
# 3 35.0350 16.9409 55.5468 0.0000 0.0000 0.0000
# 4 0.0000 0.0000 0.0000 63.5500 0.0000 0.0000
# 5 0.0000 0.0000 0.0000 0.0000-1179.0847 0.0000
# 6 0.0000 0.0000 0.0000 0.0000 0.0000 53.3501
#
#
#
# Elastic Compliance Matrix: (Units=1/GPa)
#
#
# Indices 1 2 3 4 5 6 
#
# 1 0.006871 -0.002552 -0.003556 0.000000 0.000000 0.000000
# 2 -0.002552 0.005203 0.000023 0.000000 0.000000 0.000000
# 3 -0.003556 0.000023 0.020239 0.000000 0.000000 0.000000
# 4 0.000000 0.000000 0.000000 0.015736 0.000000 0.000000
# 5 0.000000 0.000000 0.000000 0.000000 -0.000848 0.000000
# 6 0.000000 0.000000 0.000000 0.000000 0.000000 0.018744
#
#
# Mechanical properties :
#
#
# Convention : Reuss Voigt Hill
#
# Bulk Modulus (GPa) = 49.64494 88.40932 69.02713
# Shear Modulus (GPa) = 58.94249 -189.38140 -65.21946
#
# Velocity S-wave (km/s) = 5.07595 -9.09855 -5.33939
# Velocity P-wave (km/s) = 7.48698 8.46948 2.79975
#
# Compressibility (1/GPa) = 0.02014304
#
# Stress axis : x y z
#
# Youngs Moduli (GPa) = 145.52967 192.20429 49.41076
#
# Poissons Ratio (x) = 0.49053 0.17569
# Poissons Ratio (y) = 0.37141 -0.00113
# Poissons Ratio (z) = 0.51745 -0.00441
#
# Static dielectric constant tensor:
#      x y z
#    x 1.685250 0.000000 0.000000 
#    y 0.000000 1.890860 0.000000 
#    z 0.000000 0.000000 1.695510 
# 
# From -- ./inp_files/26003.got.cif
#   From: 2010.05.17/outbox.cif.g08.bks.cpg/sg49_14_cif.got.tgz:26003.got - 2010.06.03 21:02:19.
