data_PCOD9394562
_publ_section_title
;
Structure prediction by ZEFSAII (Michael W. Deem and Ramdas Pophale) SiO2 
 PCOD9394562
Probable space group: P C C M
;
_chemical_formula_sum "Si O2"
_cell_formula_units_Z 48
_cell_length_a 17.761953
_cell_length_b 14.368523
_cell_length_c 9.258407
_cell_angle_alpha 90.000000
_cell_angle_beta 90.000000
_cell_angle_gamma 90.000000
_cell_volume 2362.866105
_symmetry_space_group_name_H-M "P C C M"
_symmetry_group_IT_number 49
_symmetry_cell_setting 'orthorhombic'
loop_
_space_group_symop_operation_xyz
x,y,z
-x,-y,z
x,-y,1/2-z
-x,y,1/2-z
-x,-y,-z
x,y,-z
-x,y,1/2+z
x,-y,1/2+z
loop_
_atom_site_type_symbol
_atom_site_label
_atom_site_fract_x
_atom_site_fract_y
_atom_site_fract_z
Si Si1 0.421368 0.589564 0.831144
Si Si2 0.112925 0.581950 0.500000
Si Si3 0.079370 0.087953 0.832542
Si Si4 0.064315 0.629509 0.000000
Si Si5 0.849219 0.281263 0.744468
Si Si6 0.317608 0.769422 0.163850
Si Si7 0.575586 0.899631 0.173768
O O1 0.388042 0.500000 0.750000
O O2 0.500000 0.608528 0.750000
O O3 0.367334 0.676994 0.822589
O O4 0.434362 0.569661 0.000000
O O5 0.107894 0.470190 0.500000
O O6 0.151692 0.631672 0.635584
O O7 0.024691 0.612021 0.500000
O O8 0.123484 0.184675 0.824457
O O9 0.000000 0.101092 0.750000
O O10 0.116752 0.000000 0.750000
O O11 0.068326 0.064517 0.000000
O O12 0.090364 0.688174 0.136629
O O13 0.768131 0.259555 0.810726
O O14 0.352029 0.840413 0.279530
O O15 0.326594 0.806820 0.000000
O O16 0.500000 0.858146 0.250000
O O17 0.583152 0.000000 0.250000
O O18 0.566847 0.905346 0.000000
#
# Coordination Sequence:
#
# PCOD9394562 Si02
#       7
#     8   4   8   4   8   8   8
#     4  10  21  39  62  90 121 163 211 258 309 371
#     4  11  24  44  69  99 128 167 235 281 343 422
#     4  11  24  41  67  96 126 166 214 267 326 397
#     4  11  24  44  71  95 128 179 219 287 347 408
#     4  12  25  43  65  98 137 174 221 280 345 402
#     4  11  25  43  61  93 134 175 218 267 331 389
#     4  11  23  42  72 103 137 178 223 272 322 387
#
# _framework density 20.314311
#
# number of rings (size 3 to 8) (size 9 to 14) (size 15 to 20)
#    0.000    1.000    1.667    6.500    3.500    6.000 
#    0.000    0.000    0.000    0.000    0.000    0.000 
#    0.000    0.000    0.000    0.000    0.000    0.000 
#
# Total GULP energy -268239.312101 kJ/mol
# GULP energy per Si atom -5588.319002 kJ/mol
# Density = 2.026807 g / cm^3
# Si number density = 20.314311 Si / 1000 Ang^3
#
#
#
# Elastic Constant Matrix: (Units=GPa)
#
#
# Indices 1 2 3 4 5 6 
#
# 1 50.2511 20.8403 20.7023 0.0000 0.0000 0.0000
# 2 20.8403 94.2057 37.8655 0.0000 0.0000 0.0000
# 3 20.7023 37.8655 168.5939 0.0000 0.0000 0.0000
# 4 0.0000 0.0000 0.0000 46.4885 0.0000 0.0000
# 5 0.0000 0.0000 0.0000 0.0000 23.5755 0.0000
# 6 0.0000 0.0000 0.0000 0.0000 0.0000 -135.2491
#
#
#
# Elastic Compliance Matrix: (Units=1/GPa)
#
#
# Indices 1 2 3 4 5 6 
#
# 1 0.022396 -0.004231 -0.001800 0.000000 0.000000 0.000000
# 2 -0.004231 0.012468 -0.002281 0.000000 0.000000 0.000000
# 3 -0.001800 -0.002281 0.006665 0.000000 0.000000 0.000000
# 4 0.000000 0.000000 0.000000 0.021511 0.000000 0.000000
# 5 0.000000 0.000000 0.000000 0.000000 0.042417 0.000000
# 6 0.000000 0.000000 0.000000 0.000000 0.000000 -0.007394
#
#
# Mechanical properties :
#
#
# Convention : Reuss Voigt Hill
#
# Bulk Modulus (GPa) = 40.15175 52.42965 46.29070
# Shear Modulus (GPa) = 40.65452 2.53917 21.59685
#
# Velocity S-wave (km/s) = 4.47841 1.11922 3.26411
# Velocity P-wave (km/s) = 6.82274 5.24742 6.08626
#
# Compressibility (1/GPa) = 0.02490552
#
# Stress axis : x y z
#
# Youngs Moduli (GPa) = 44.65026 80.20680 150.04547
#
# Poissons Ratio (x) = 0.33936 0.27006
# Poissons Ratio (y) = 0.18892 0.34220
# Poissons Ratio (z) = 0.08036 0.18292
#
# Static dielectric constant tensor:
#      x y z
#    x 1.706690 0.000000 0.000000 
#    y 0.000000 1.722660 0.000000 
#    z 0.000000 0.000000 1.037100 
# 
# From -- ./inp_files/4910.got.cif
#   From: 2010.05.17/outbox.cif.g08.bks.cpg/sg49_3_cif.got.tgz:4910.got - 2010.06.03 21:02:19.
