data_PCOD9394164
_publ_section_title
;
Structure prediction by ZEFSAII (Michael W. Deem and Ramdas Pophale) SiO2 
 PCOD9394164
Probable space group: P C C M
;
_chemical_formula_sum "Si O2"
_cell_formula_units_Z 48
_cell_length_a 14.825063
_cell_length_b 8.842132
_cell_length_c 18.086377
_cell_angle_alpha 90.000000
_cell_angle_beta 90.000000
_cell_angle_gamma 90.000000
_cell_volume 2370.855694
_symmetry_space_group_name_H-M "P C C M"
_symmetry_group_IT_number 49
_symmetry_cell_setting 'orthorhombic'
loop_
_space_group_symop_operation_xyz
x,y,z
-x,-y,z
x,-y,1/2-z
-x,y,1/2-z
-x,-y,-z
x,y,-z
-x,y,1/2+z
x,-y,1/2+z
loop_
_atom_site_type_symbol
_atom_site_label
_atom_site_fract_x
_atom_site_fract_y
_atom_site_fract_z
Si Si1 0.224217 0.652943 0.159477
Si Si2 0.083464 0.899722 0.583371
Si Si3 0.228545 0.296221 0.166412
Si Si4 0.051706 0.366652 0.418023
Si Si5 0.606799 0.184004 0.912326
Si Si6 0.400073 0.823827 0.411770
O O1 0.211287 0.472423 0.144737
O O2 0.220942 0.696173 0.245312
O O3 0.135405 0.715714 0.119548
O O4 0.316660 0.719620 0.127634
O O5 0.109890 0.957671 0.500000
O O6 0.167104 0.839499 0.632158
O O7 0.029376 0.746509 0.572346
O O8 0.000000 0.000000 0.614412
O O9 0.328517 0.262995 0.137262
O O10 0.081920 0.419724 0.500000
O O11 0.000000 0.500000 0.374645
O O12 0.502911 0.220915 0.893286
O O13 0.613924 0.003536 0.898973
O O14 0.617182 0.207162 0.000000
O O15 0.386426 0.797744 0.500000
#
# Coordination Sequence:
#
# PCOD9394164 Si02
#       6
#     8   8   8   8   8   8
#     4  11  24  39  58  88 126 164 202 244 302 370
#     4  10  22  40  62  89 118 154 203 255 305 355
#     4  11  24  40  57  88 127 165 199 243 306 367
#     4  10  20  38  62  85 113 155 204 251 297 351
#     4   9  20  40  65  91 117 155 205 255 307 363
#     4   9  20  40  65  90 119 155 201 257 310 362
#
# _framework density 20.245856
#
# number of rings (size 3 to 8) (size 9 to 14) (size 15 to 20)
#    0.000    2.000    1.667    2.000    2.333    4.667 
#    0.000    5.833    0.000    0.000    0.000    0.000 
#    0.000    0.000    0.000    0.000    0.000    0.000 
#
# Total GULP energy -267244.798891 kJ/mol
# GULP energy per Si atom -5567.599977 kJ/mol
# Density = 2.019978 g / cm^3
# Si number density = 20.245856 Si / 1000 Ang^3
#
#
#
# Elastic Constant Matrix: (Units=GPa)
#
#
# Indices 1 2 3 4 5 6 
#
# 1 119.8660 16.5532 49.6250 0.0000 0.0000 0.0000
# 2 16.5532 25.4095 8.0052 0.0000 0.0000 0.0000
# 3 49.6250 8.0052 50.8499 0.0000 0.0000 0.0000
# 4 0.0000 0.0000 0.0000 26.1477 0.0000 0.0000
# 5 0.0000 0.0000 0.0000 0.0000 -13.3239 0.0000
# 6 0.0000 0.0000 0.0000 0.0000 0.0000 43.1552
#
#
#
# Elastic Compliance Matrix: (Units=1/GPa)
#
#
# Indices 1 2 3 4 5 6 
#
# 1 0.014647 -0.005302 -0.013460 0.000000 0.000000 0.000000
# 2 -0.005302 0.043328 -0.001647 0.000000 0.000000 0.000000
# 3 -0.013460 -0.001647 0.033061 0.000000 0.000000 0.000000
# 4 0.000000 0.000000 0.000000 0.038244 0.000000 0.000000
# 5 0.000000 0.000000 0.000000 0.000000 -0.075053 0.000000
# 6 0.000000 0.000000 0.000000 0.000000 0.000000 0.023172
#
#
# Mechanical properties :
#
#
# Convention : Reuss Voigt Hill
#
# Bulk Modulus (GPa) = 19.91289 38.27692 29.09490
# Shear Modulus (GPa) = 37.04921 19.32525 28.18723
#
# Velocity S-wave (km/s) = 4.28245 3.09290 3.73533
# Velocity P-wave (km/s) = 5.85742 5.63043 5.74505
#
# Compressibility (1/GPa) = 0.05021873
#
# Stress axis : x y z
#
# Youngs Moduli (GPa) = 68.27263 23.07975 30.24752
#
# Poissons Ratio (x) = 0.12236 0.40712
# Poissons Ratio (y) = 0.36195 0.04983
# Poissons Ratio (z) = 0.91893 0.03802
#
# Static dielectric constant tensor:
#      x y z
#    x 1.716550 0.000000 0.000000 
#    y 0.000000 1.845200 0.000000 
#    z 0.000000 0.000000 1.789050 
# 
# From -- ./inp_files/17695.got.cif
#   From: 2010.05.17/outbox.cif.g08.bks.cpg/sg49_9_cif.got.tgz:17695.got - 2010.06.03 21:02:19.
