data_PCOD9394851
_publ_section_title
;
Structure prediction by ZEFSAII (Michael W. Deem and Ramdas Pophale) SiO2 
 PCOD9394851
Probable space group: P C C M
;
_chemical_formula_sum "Si O2"
_cell_formula_units_Z 48
_cell_length_a 8.084554
_cell_length_b 18.950567
_cell_length_c 14.154932
_cell_angle_alpha 90.000000
_cell_angle_beta 90.000000
_cell_angle_gamma 90.000000
_cell_volume 2168.633000
_symmetry_space_group_name_H-M "P C C M"
_symmetry_group_IT_number 49
_symmetry_cell_setting 'orthorhombic'
loop_
_space_group_symop_operation_xyz
x,y,z
-x,-y,z
x,-y,1/2-z
-x,y,1/2-z
-x,-y,-z
x,y,-z
-x,y,1/2+z
x,-y,1/2+z
loop_
_atom_site_type_symbol
_atom_site_label
_atom_site_fract_x
_atom_site_fract_y
_atom_site_fract_z
Si Si1 0.070613 0.344457 0.113330
Si Si2 0.299994 0.882528 0.245096
Si Si3 0.237046 0.479274 0.111941
Si Si4 0.572682 0.611635 0.387602
Si Si5 0.756365 0.279498 0.782871
Si Si6 0.701890 0.006358 0.393979
O O1 0.086971 0.427881 0.138125
O O2 0.208624 0.306238 0.176879
O O3 0.903852 0.309251 0.150838
O O4 0.089829 0.337917 0.000000
O O5 0.500000 0.879380 0.250000
O O6 0.242043 0.804466 0.222166
O O7 0.244944 0.938690 0.166189
O O8 0.250037 0.921023 0.342339
O O9 0.399139 0.428977 0.121766
O O10 0.293072 0.554458 0.152266
O O11 0.217071 0.493103 0.000000
O O12 0.597007 0.623048 0.500000
O O13 0.599664 0.683917 0.332502
O O14 0.761504 0.004055 0.500000
O O15 0.500000 0.000000 0.393801
#
# Coordination Sequence:
#
# PCOD9394851 Si02
#       6
#     8   8   8   8   8   8
#     4  10  23  41  54  73 113 159 201 242 290 353
#     4   9  19  33  53  88 124 145 185 245 288 352
#     4   8  17  36  58  80 114 156 196 247 296 347
#     4   9  18  34  58  88 116 147 197 251 299 350
#     4  11  23  35  57  86 114 154 193 240 305 353
#     4   8  15  32  56  82 117 157 186 223 292 359
#
# _framework density 22.133759000000001
#
# number of rings (size 3 to 8) (size 9 to 14) (size 15 to 20)
#    0.000    2.833    0.000    2.500    2.333    3.333 
#    0.000    5.833    0.000    8.000    0.000    9.333 
#    0.000    0.000    0.000    0.000    0.000    0.000 
#
# Total GULP energy -267988.798799 kJ/mol
# GULP energy per Si atom -5583.099975 kJ/mol
# Density = 2.208338 g / cm^3
# Si number density = 22.133759 Si / 1000 Ang^3
#
#
#
# Elastic Constant Matrix: (Units=GPa)
#
#
# Indices 1 2 3 4 5 6 
#
# 1 43.8712 9.2415 20.9652 0.0000 0.0000 0.0000
# 2 9.2415 177.0218 60.3313 0.0000 0.0000 0.0000
# 3 20.9652 60.3313 151.4861 0.0000 0.0000 0.0000
# 4 0.0000 0.0000 0.0000 8.2063 0.0000 0.0000
# 5 0.0000 0.0000 0.0000 0.0000 19.6092 0.0000
# 6 0.0000 0.0000 0.0000 0.0000 0.0000 21.1949
#
#
#
# Elastic Compliance Matrix: (Units=1/GPa)
#
#
# Indices 1 2 3 4 5 6 
#
# 1 0.024411 -0.000142 -0.003322 0.000000 0.000000 0.000000
# 2 -0.000142 0.006537 -0.002584 0.000000 0.000000 0.000000
# 3 -0.003322 -0.002584 0.008090 0.000000 0.000000 0.000000
# 4 0.000000 0.000000 0.000000 0.121858 0.000000 0.000000
# 5 0.000000 0.000000 0.000000 0.000000 0.050996 0.000000
# 6 0.000000 0.000000 0.000000 0.000000 0.000000 0.047181
#
#
# Mechanical properties :
#
#
# Convention : Reuss Voigt Hill
#
# Bulk Modulus (GPa) = 37.11575 61.49501 49.30538
# Shear Modulus (GPa) = 17.84751 28.59146 23.21949
#
# Velocity S-wave (km/s) = 2.84271 3.59800 3.24242
# Velocity P-wave (km/s) = 5.25166 6.71599 6.02845
#
# Compressibility (1/GPa) = 0.02694274
#
# Stress axis : x y z
#
# Youngs Moduli (GPa) = 40.96444 152.97468 123.60929
#
# Poissons Ratio (x) = 0.02177 0.41060
# Poissons Ratio (y) = 0.00583 0.31938
# Poissons Ratio (z) = 0.13608 0.39525
#
# Static dielectric constant tensor:
#      x y z
#    x 1.961980 0.000000 0.000000 
#    y 0.000000 1.775660 0.000000 
#    z 0.000000 0.000000 1.804710 
# 
# From -- ./inp_files/11847.got.cif
#   From: 2010.05.17/outbox.cif.g08.bks.cpg/sg49_6_cif.got.tgz:11847.got - 2010.06.03 21:02:19.
