data_PCOD9394413
_publ_section_title
;
Structure prediction by ZEFSAII (Michael W. Deem and Ramdas Pophale) SiO2 
 PCOD9394413
Probable space group: P C C M
;
_chemical_formula_sum "Si O2"
_cell_formula_units_Z 48
_cell_length_a 31.296656
_cell_length_b 9.271670
_cell_length_c 8.652946
_cell_angle_alpha 90.000000
_cell_angle_beta 90.000000
_cell_angle_gamma 90.000000
_cell_volume 2510.844953
_symmetry_space_group_name_H-M "P C C M"
_symmetry_group_IT_number 49
_symmetry_cell_setting 'orthorhombic'
loop_
_space_group_symop_operation_xyz
x,y,z
-x,-y,z
x,-y,1/2-z
-x,y,1/2-z
-x,-y,-z
x,y,-z
-x,y,1/2+z
x,-y,1/2+z
loop_
_atom_site_type_symbol
_atom_site_label
_atom_site_fract_x
_atom_site_fract_y
_atom_site_fract_z
Si Si1 0.209205 0.838934 0.684882
Si Si2 0.129494 0.339100 0.314676
Si Si3 0.452976 0.340279 0.185524
Si Si4 0.705073 0.338670 0.314346
Si Si5 0.045897 0.839148 0.185466
Si Si6 0.625280 0.160591 0.185014
O O1 0.205501 0.844872 0.500000
O O2 0.168329 0.756932 0.752557
O O3 0.252002 0.749923 0.723621
O O4 0.211871 0.000000 0.750000
O O5 0.132571 0.500000 0.250000
O O6 0.131476 0.343093 0.500000
O O7 0.084671 0.264792 0.269220
O O8 0.442441 0.500000 0.250000
O O9 0.500000 0.304120 0.250000
O O10 0.417801 0.229754 0.246435
O O11 0.453712 0.344101 0.000000
O O12 0.708280 0.500000 0.250000
O O13 0.700223 0.342140 0.500000
O O14 0.664676 0.258498 0.240592
O O15 0.000000 0.790816 0.250000
O O16 0.053749 0.000000 0.250000
O O17 0.043742 0.846645 0.000000
O O18 0.631089 0.000000 0.250000
O O19 0.623252 0.158066 0.000000
#
# Coordination Sequence:
#
# PCOD9394413 Si02
#       6
#     8   8   8   8   8   8
#     4  11  24  41  64  91 122 158 199 245 297 354
#     4  11  24  40  60  87 120 157 199 245 298 354
#     4  11  22  40  64  92 124 161 204 251 302 358
#     4  11  24  42  64  92 123 159 200 246 297 353
#     4  10  21  37  59  86 115 152 195 243 295 353
#     4  12  25  42  63  90 123 161 203 250 302 358
#
# _framework density 19.117069999999998
#
# number of rings (size 3 to 8) (size 9 to 14) (size 15 to 20)
#    0.000    1.000    0.000    8.000    0.000   10.000 
#    0.000    3.333    0.000    0.000    0.000    0.000 
#    0.000    0.000    0.000    0.000    0.000    0.000 
#
# Total GULP energy -268656.029501 kJ/mol
# GULP energy per Si atom -5597.000615 kJ/mol
# Density = 1.907356 g / cm^3
# Si number density = 19.117070 Si / 1000 Ang^3
#
#
#
# Elastic Constant Matrix: (Units=GPa)
#
#
# Indices 1 2 3 4 5 6 
#
# 1 132.8269 113.2291 72.3410 0.0000 0.0000 0.0000
# 2 113.2291 182.0722 72.0193 0.0000 0.0000 0.0000
# 3 72.3410 72.0193 123.4165 0.0000 0.0000 0.0000
# 4 0.0000 0.0000 0.0000 34.7563 0.0000 0.0000
# 5 0.0000 0.0000 0.0000 0.0000 32.7478 0.0000
# 6 0.0000 0.0000 0.0000 0.0000 0.0000 40.1516
#
#
#
# Elastic Compliance Matrix: (Units=1/GPa)
#
#
# Indices 1 2 3 4 5 6 
#
# 1 0.018378 -0.009319 -0.005334 0.000000 0.000000 0.000000
# 2 -0.009319 0.011866 -0.001462 0.000000 0.000000 0.000000
# 3 -0.005334 -0.001462 0.012082 0.000000 0.000000 0.000000
# 4 0.000000 0.000000 0.000000 0.028772 0.000000 0.000000
# 5 0.000000 0.000000 0.000000 0.000000 0.030536 0.000000
# 6 0.000000 0.000000 0.000000 0.000000 0.000000 0.024906
#
#
# Mechanical properties :
#
#
# Convention : Reuss Voigt Hill
#
# Bulk Modulus (GPa) = 99.04990 105.94381 102.49685
# Shear Modulus (GPa) = 30.83836 33.57952 32.20894
#
# Velocity S-wave (km/s) = 4.02074 4.19563 4.10912
# Velocity P-wave (km/s) = 8.57204 8.88875 8.73183
#
# Compressibility (1/GPa) = 0.01009592
#
# Stress axis : x y z
#
# Youngs Moduli (GPa) = 54.41356 84.27392 82.76506
#
# Poissons Ratio (x) = 0.78535 0.44148
# Poissons Ratio (y) = 0.50708 0.12100
# Poissons Ratio (z) = 0.29025 0.12321
#
# Static dielectric constant tensor:
#      x y z
#    x 1.644120 0.000000 0.000000 
#    y 0.000000 1.624740 0.000000 
#    z 0.000000 0.000000 1.640280 
# 
# From -- ./inp_files/6890.got.cif
#   From: 2010.05.17/outbox.cif.g08.bks.cpg/sg49_4_cif.got.tgz:6890.got - 2010.06.03 21:02:19.
