data_PCOD9394569
_publ_section_title
;
Structure prediction by ZEFSAII (Michael W. Deem and Ramdas Pophale) SiO2 
 PCOD9394569
Probable space group: P C C M
;
_chemical_formula_sum "Si O2"
_cell_formula_units_Z 56
_cell_length_a 5.883349
_cell_length_b 14.510902
_cell_length_c 29.031390
_cell_angle_alpha 90.000000
_cell_angle_beta 90.000000
_cell_angle_gamma 90.000000
_cell_volume 2478.488171
_symmetry_space_group_name_H-M "P C C M"
_symmetry_group_IT_number 49
_symmetry_cell_setting 'orthorhombic'
loop_
_space_group_symop_operation_xyz
x,y,z
-x,-y,z
x,-y,1/2-z
-x,y,1/2-z
-x,-y,-z
x,y,-z
-x,y,1/2+z
x,-y,1/2+z
loop_
_atom_site_type_symbol
_atom_site_label
_atom_site_fract_x
_atom_site_fract_y
_atom_site_fract_z
Si Si1 0.027239 0.704492 0.052743
Si Si2 0.091950 0.627672 0.202706
Si Si3 0.812718 0.081378 0.052083
Si Si4 0.450609 0.098810 0.644911
Si Si5 0.724436 0.725225 0.862513
Si Si6 0.655966 0.414533 0.118580
Si Si7 0.249783 0.818651 0.771925
O O1 0.102340 0.812126 0.052701
O O2 0.196975 0.632484 0.078069
O O3 0.812433 0.706980 0.086032
O O4 0.987482 0.677434 0.000000
O O5 0.200732 0.560826 0.164498
O O6 0.253462 0.708595 0.222541
O O7 0.000000 0.588278 0.250000
O O8 0.902068 0.684237 0.173528
O O9 0.633135 0.082797 0.093090
O O10 0.726095 0.065085 0.000000
O O11 0.000000 0.000000 0.060435
O O12 0.661715 0.168759 0.645422
O O13 0.255509 0.142316 0.676300
O O14 0.500000 0.000000 0.665702
O O15 0.495977 0.667597 0.861695
O O16 0.500000 0.500000 0.103996
O O17 0.500000 0.845440 0.750000
O O18 0.000000 0.842425 0.750000
#
# Coordination Sequence:
#
# PCOD9394569 Si02
#       7
#     8   8   8   8   8   8   8
#     4  10  22  41  66  97 136 185 233 292 365 433
#     4  10  22  41  70  91 132 178 225 289 365 426
#     4  10  21  39  62  96 138 179 234 295 352 428
#     4  12  23  39  66 100 136 188 233 288 365 430
#     4  11  22  43  64  95 134 177 231 293 355 425
#     4  11  24  43  68  96 135 175 232 297 360 434
#     4  11  24  44  70  99 139 187 236 293 351 430
#
# _framework density 22.594418000000001
#
# number of rings (size 3 to 8) (size 9 to 14) (size 15 to 20)
#    0.000    1.286    2.857    3.429    0.000    5.429 
#    0.000    5.714    0.000    0.000    0.000    0.000 
#    0.000    0.000    0.000    0.000    0.000    0.000 
#
# Total GULP energy -312460.906371 kJ/mol
# GULP energy per Si atom -5579.659042 kJ/mol
# Density = 2.254299 g / cm^3
# Si number density = 22.594418 Si / 1000 Ang^3
#
#
#
# Elastic Constant Matrix: (Units=GPa)
#
#
# Indices 1 2 3 4 5 6 
#
# 1 95.3089 27.9167 57.4991 0.0000 0.0000 0.0000
# 2 27.9167 113.9969 31.7843 0.0000 0.0000 0.0000
# 3 57.4991 31.7843 155.3379 0.0000 0.0000 0.0000
# 4 0.0000 0.0000 0.0000 13.6589 0.0000 0.0000
# 5 0.0000 0.0000 0.0000 0.0000 25.9159 0.0000
# 6 0.0000 0.0000 0.0000 0.0000 0.0000 9.8108
#
#
#
# Elastic Compliance Matrix: (Units=1/GPa)
#
#
# Indices 1 2 3 4 5 6 
#
# 1 0.013967 -0.002099 -0.004740 0.000000 0.000000 0.000000
# 2 -0.002099 0.009618 -0.001191 0.000000 0.000000 0.000000
# 3 -0.004740 -0.001191 0.008436 0.000000 0.000000 0.000000
# 4 0.000000 0.000000 0.000000 0.073212 0.000000 0.000000
# 5 0.000000 0.000000 0.000000 0.000000 0.038586 0.000000
# 6 0.000000 0.000000 0.000000 0.000000 0.000000 0.101928
#
#
# Mechanical properties :
#
#
# Convention : Reuss Voigt Hill
#
# Bulk Modulus (GPa) = 62.65483 66.56044 64.60764
# Shear Modulus (GPa) = 18.71759 26.37337 22.54548
#
# Velocity S-wave (km/s) = 2.88135 3.42021 3.16228
# Velocity P-wave (km/s) = 6.23378 6.71713 6.47996
#
# Compressibility (1/GPa) = 0.01596046
#
# Stress axis : x y z
#
# Youngs Moduli (GPa) = 71.59842 103.96923 118.53915
#
# Poissons Ratio (x) = 0.21819 0.56193
# Poissons Ratio (y) = 0.15026 0.14121
# Poissons Ratio (z) = 0.33941 0.12385
#
# Static dielectric constant tensor:
#      x y z
#    x 1.946000 0.000000 0.000000 
#    y 0.000000 1.908360 0.000000 
#    z 0.000000 0.000000 1.857110 
# 
# From -- ./inp_files/25819.got.cif
#   From: 2010.05.17/outbox.cif.g08.bks.cpg/sg49_13_cif.got.tgz:25819.got - 2010.06.03 21:02:19.
