data_PCOD9394042
_publ_section_title
;
Structure prediction by ZEFSAII (Michael W. Deem and Ramdas Pophale) SiO2 
 PCOD9394042
Probable space group: P C C M
;
_chemical_formula_sum "Si O2"
_cell_formula_units_Z 48
_cell_length_a 10.681871
_cell_length_b 7.629224
_cell_length_c 31.461117
_cell_angle_alpha 90.000000
_cell_angle_beta 90.000000
_cell_angle_gamma 90.000000
_cell_volume 2563.904432
_symmetry_space_group_name_H-M "P C C M"
_symmetry_group_IT_number 49
_symmetry_cell_setting 'orthorhombic'
loop_
_space_group_symop_operation_xyz
x,y,z
-x,-y,z
x,-y,1/2-z
-x,y,1/2-z
-x,-y,-z
x,y,-z
-x,y,1/2+z
x,-y,1/2+z
loop_
_atom_site_type_symbol
_atom_site_label
_atom_site_fract_x
_atom_site_fract_y
_atom_site_fract_z
Si Si1 0.740696 0.304476 0.348219
Si Si2 0.138051 0.003594 0.391667
Si Si3 0.629046 0.112750 0.950302
Si Si4 0.752181 0.288050 0.832795
Si Si5 0.645837 0.210342 0.254564
Si Si6 0.518031 0.302192 0.880095
O O1 0.767132 0.512849 0.349760
O O2 0.699075 0.262709 0.300293
O O3 0.622281 0.239396 0.376641
O O4 0.846592 0.179273 0.366436
O O5 0.248136 0.039505 0.426233
O O6 0.153817 0.156553 0.355987
O O7 0.000000 0.000000 0.411276
O O8 0.586072 0.287616 0.925186
O O9 0.500000 0.000000 0.945532
O O10 0.653076 0.135127 0.000000
O O11 0.736019 0.285763 0.782291
O O12 0.615100 0.215529 0.847940
O O13 0.500000 0.269307 0.250000
O O14 0.647028 0.000000 0.250000
O O15 0.500000 0.500000 0.865450
#
# Coordination Sequence:
#
# PCOD9394042 Si02
#       6
#     8   8   8   8   8   8
#     4  11  20  35  57  83 120 154 193 244 287 342
#     4  11  24  41  60  82 116 158 198 240 291 349
#     4  10  20  36  62  91 117 145 187 239 298 361
#     4  10  21  35  55  87 114 153 202 237 292 342
#     4  11  20  30  55  89 123 156 192 246 298 342
#     4   9  18  32  55  86 117 148 186 234 290 350
#
# _framework density 18.721447000000001
#
# number of rings (size 3 to 8) (size 9 to 14) (size 15 to 20)
#    0.000    1.667    5.000    0.500    0.000    2.000 
#    0.000    1.667    0.000    2.000    0.000    4.667 
#    0.000    0.000    0.000    0.000    0.000    0.000 
#
# Total GULP energy -267228.493829 kJ/mol
# GULP energy per Si atom -5567.260288 kJ/mol
# Density = 1.867884 g / cm^3
# Si number density = 18.721447 Si / 1000 Ang^3
#
#
#
# Elastic Constant Matrix: (Units=GPa)
#
#
# Indices 1 2 3 4 5 6 
#
# 1 90.1012 13.4253 31.4963 0.0000 0.0000 0.0000
# 2 13.4253 63.3244 5.7267 0.0000 0.0000 0.0000
# 3 31.4963 5.7267 98.8741 0.0000 0.0000 0.0000
# 4 0.0000 0.0000 0.0000 19.1756 0.0000 0.0000
# 5 0.0000 0.0000 0.0000 0.0000 14.4683 0.0000
# 6 0.0000 0.0000 0.0000 0.0000 0.0000 2.6491
#
#
#
# Elastic Compliance Matrix: (Units=1/GPa)
#
#
# Indices 1 2 3 4 5 6 
#
# 1 0.012832 -0.002363 -0.003951 0.000000 0.000000 0.000000
# 2 -0.002363 0.016310 -0.000192 0.000000 0.000000 0.000000
# 3 -0.003951 -0.000192 0.011383 0.000000 0.000000 0.000000
# 4 0.000000 0.000000 0.000000 0.052150 0.000000 0.000000
# 5 0.000000 0.000000 0.000000 0.000000 0.069117 0.000000
# 6 0.000000 0.000000 0.000000 0.000000 0.000000 0.377494
#
#
# Mechanical properties :
#
#
# Convention : Reuss Voigt Hill
#
# Bulk Modulus (GPa) = 36.34532 39.28847 37.81689
# Shear Modulus (GPa) = 8.90523 20.70201 14.80362
#
# Velocity S-wave (km/s) = 2.18335 3.32895 2.81504
# Velocity P-wave (km/s) = 5.08054 5.98392 5.55064
#
# Compressibility (1/GPa) = 0.02751386
#
# Stress axis : x y z
#
# Youngs Moduli (GPa) = 77.93158 61.31182 87.84664
#
# Poissons Ratio (x) = 0.14489 0.34705
# Poissons Ratio (y) = 0.18417 0.01686
# Poissons Ratio (z) = 0.30788 0.01176
#
# Static dielectric constant tensor:
#      x y z
#    x 1.720600 0.000000 0.000000 
#    y 0.000000 1.682390 0.000000 
#    z 0.000000 0.000000 1.647460 
# 
# From -- ./inp_files/26268.got.cif
#   From: 2010.05.17/outbox.cif.g08.bks.cpg/sg49_14_cif.got.tgz:26268.got - 2010.06.03 21:02:19.
