data_PCOD9394814
_publ_section_title
;
Structure prediction by ZEFSAII (Michael W. Deem and Ramdas Pophale) SiO2 
 PCOD9394814
Probable space group: P C C M
;
_chemical_formula_sum "Si O2"
_cell_formula_units_Z 56
_cell_length_a 9.767791
_cell_length_b 13.419299
_cell_length_c 19.856679
_cell_angle_alpha 90.000000
_cell_angle_beta 90.000000
_cell_angle_gamma 90.000000
_cell_volume 2602.752086
_symmetry_space_group_name_H-M "P C C M"
_symmetry_group_IT_number 49
_symmetry_cell_setting 'orthorhombic'
loop_
_space_group_symop_operation_xyz
x,y,z
-x,-y,z
x,-y,1/2-z
-x,y,1/2-z
-x,-y,-z
x,y,-z
-x,y,1/2+z
x,-y,1/2+z
loop_
_atom_site_type_symbol
_atom_site_label
_atom_site_fract_x
_atom_site_fract_y
_atom_site_fract_z
Si Si1 0.632104 0.068601 0.423842
Si Si2 0.405896 0.597529 0.500000
Si Si3 0.211359 0.316459 0.622984
Si Si4 0.848240 0.956413 0.178782
Si Si5 0.928844 0.272182 0.678089
Si Si6 0.311342 0.613875 0.729106
Si Si7 0.842256 0.466557 0.000000
Si Si8 0.489393 0.730601 0.624834
O O1 0.673652 0.096358 0.500000
O O2 0.751946 0.015516 0.382819
O O3 0.586848 0.165360 0.382130
O O4 0.500000 0.000000 0.427619
O O5 0.500000 0.500000 0.500000
O O6 0.249984 0.564366 0.500000
O O7 0.441519 0.660290 0.564903
O O8 0.253666 0.348195 0.698987
O O9 0.200160 0.402377 0.566333
O O10 0.348463 0.252077 0.610295
O O11 0.056622 0.274426 0.626680
O O12 0.860516 0.836567 0.178844
O O13 0.795514 0.000000 0.250000
O O14 0.000000 0.000000 0.170993
O O15 0.816039 0.360656 0.677598
O O16 0.000000 0.281754 0.750000
O O17 0.341020 0.500000 0.750000
O O18 0.435457 0.671187 0.690966
O O19 0.000000 0.500000 0.000000
#
# Coordination Sequence:
#
# PCOD9394814 Si02
#       8
#     8   4   8   8   8   8   4   8
#     4  11  27  49  74 107 148 192 246 311 373 441
#     4  12  24  46  73  96 144 198 244 290 366 432
#     4  11  26  43  67 103 144 184 245 298 355 432
#     4  11  23  45  77 106 139 184 239 301 373 449
#     4  10  22  43  65 102 141 185 233 293 367 429
#     4  11  25  42  70 101 148 193 238 299 366 436
#     4  12  28  44  70 104 141 196 255 298 352 438
#     4  12  24  46  75 105 146 197 242 307 372 441
#
# _framework density 21.515688000000001
#
# number of rings (size 3 to 8) (size 9 to 14) (size 15 to 20)
#    0.000    0.857    5.000    1.286    6.000    3.143 
#    3.857    0.000    0.000    0.000    0.000    0.000 
#    0.000    0.000    0.000    0.000    0.000    0.000 
#
# Total GULP energy -312265.942312 kJ/mol
# GULP energy per Si atom -5576.177541 kJ/mol
# Density = 2.146672 g / cm^3
# Si number density = 21.515688 Si / 1000 Ang^3
#
#
#
# Elastic Constant Matrix: (Units=GPa)
#
#
# Indices 1 2 3 4 5 6 
#
# 1 132.0886 23.1340 41.5298 0.0000 0.0000 0.0000
# 2 23.1340 85.1792 29.8432 0.0000 0.0000 0.0000
# 3 41.5298 29.8432 113.8774 0.0000 0.0000 0.0000
# 4 0.0000 0.0000 0.0000 5.1741 0.0000 0.0000
# 5 0.0000 0.0000 0.0000 0.0000 35.7692 0.0000
# 6 0.0000 0.0000 0.0000 0.0000 0.0000 16.7797
#
#
#
# Elastic Compliance Matrix: (Units=1/GPa)
#
#
# Indices 1 2 3 4 5 6 
#
# 1 0.008695 -0.001377 -0.002810 0.000000 0.000000 0.000000
# 2 -0.001377 0.013145 -0.002943 0.000000 0.000000 0.000000
# 3 -0.002810 -0.002943 0.010577 0.000000 0.000000 0.000000
# 4 0.000000 0.000000 0.000000 0.193271 0.000000 0.000000
# 5 0.000000 0.000000 0.000000 0.000000 0.027957 0.000000
# 6 0.000000 0.000000 0.000000 0.000000 0.000000 0.059596
#
#
# Mechanical properties :
#
#
# Convention : Reuss Voigt Hill
#
# Bulk Modulus (GPa) = 55.07236 57.79548 56.43392
# Shear Modulus (GPa) = 14.99005 27.32047 21.15526
#
# Velocity S-wave (km/s) = 2.64238 3.56728 3.13908
# Velocity P-wave (km/s) = 5.91282 6.62478 6.27890
#
# Compressibility (1/GPa) = 0.01815793
#
# Stress axis : x y z
#
# Youngs Moduli (GPa) = 115.00313 76.07509 94.54117
#
# Poissons Ratio (x) = 0.10476 0.26569
# Poissons Ratio (y) = 0.15836 0.27820
# Poissons Ratio (z) = 0.32319 0.22386
#
# Static dielectric constant tensor:
#      x y z
#    x 1.860100 0.000000 0.000000 
#    y 0.000000 1.755820 0.000000 
#    z 0.000000 0.000000 1.786320 
# 
# From -- ./inp_files/19942.got.cif
#   From: 2010.05.17/outbox.cif.g08.bks.cpg/sg49_10_cif.got.tgz:19942.got - 2010.06.03 21:02:19.
