data_PCOD9394183
_publ_section_title
;
Structure prediction by ZEFSAII (Michael W. Deem and Ramdas Pophale) SiO2 
 PCOD9394183
Probable space group: P C C M
;
_chemical_formula_sum "Si O2"
_cell_formula_units_Z 64
_cell_length_a 16.220379
_cell_length_b 12.881312
_cell_length_c 14.938478
_cell_angle_alpha 90.000000
_cell_angle_beta 90.000000
_cell_angle_gamma 90.000000
_cell_volume 3121.242048
_symmetry_space_group_name_H-M "P C C M"
_symmetry_group_IT_number 49
_symmetry_cell_setting 'orthorhombic'
loop_
_space_group_symop_operation_xyz
x,y,z
-x,-y,z
x,-y,1/2-z
-x,y,1/2-z
-x,-y,-z
x,y,-z
-x,y,1/2+z
x,-y,1/2+z
loop_
_atom_site_type_symbol
_atom_site_label
_atom_site_fract_x
_atom_site_fract_y
_atom_site_fract_z
Si Si1 0.639609 0.276440 0.640714
Si Si2 0.901464 0.880729 0.250000
Si Si3 0.376253 0.500000 0.351886
Si Si4 0.167104 0.728502 0.602595
Si Si5 0.500000 0.118258 0.359189
Si Si6 0.639609 0.276440 0.859286
Si Si7 0.832896 0.728502 0.397405
Si Si8 0.816083 0.500000 0.891497
O O1 0.603387 0.387599 0.609246
O O2 0.733208 0.266064 0.608185
O O3 0.580606 0.182920 0.613741
O O4 0.642648 0.279912 0.750000
O O5 0.869569 0.816394 0.165057
O O6 0.869569 0.816394 0.334943
O O7 0.000000 0.881704 0.250000
O O8 0.871766 0.000000 0.250000
O O9 0.406326 0.500000 0.250000
O O10 0.396613 0.387599 0.390754
O O11 0.276192 0.500000 0.352574
O O12 0.141277 0.741097 0.500000
O O13 0.144544 0.610562 0.632878
O O14 0.500000 0.117196 0.250000
O O15 0.419394 0.182920 0.386259
O O16 0.500000 0.000000 0.389948
O O17 0.733208 0.266064 0.891815
O O18 0.858723 0.741097 0.500000
O O19 0.855456 0.610561 0.367121
O O20 0.807911 0.500000 0.000000
#
# Coordination Sequence:
#
# PCOD9394183 Si02
#       8
#     8   8   8   8   8   8   8   8
#     4   9  16  30  50  78 110 148 189 231 283 338
#     4  11  26  45  63  86 116 152 196 243 286 334
#     4   8  14  23  44  72 105 142 183 229 276 334
#     4  10  20  38  64  91 119 153 191 234 290 353
#     4   9  18  29  44  70 107 148 192 243 290 325
#     4   9  16  30  50  78 110 148 189 231 283 338
#     4  10  20  38  64  91 119 153 191 234 290 353
#     4   8  16  30  55  90 121 146 179 229 287 349
#
# _framework density 20.504657999999999
#
# number of rings (size 3 to 8) (size 9 to 14) (size 15 to 20)
#    0.000    2.750    1.250    0.000    1.750    2.500 
#    0.000    5.625    0.000    3.000    0.000    8.750 
#    0.000    0.000    0.000    0.000    0.000    0.000 
#
# Total GULP energy -357119.074586 kJ/mol
# GULP energy per Si atom -5579.985540 kJ/mol
# Density = 2.045799 g / cm^3
# Si number density = 20.504658 Si / 1000 Ang^3
#
#
#
# Elastic Constant Matrix: (Units=GPa)
#
#
# Indices 1 2 3 4 5 6 
#
# 1 41.6111 52.7900 13.1849 0.0000 0.0000 0.0000
# 2 52.7900 236.5235 56.5410 0.0000 0.0000 0.0000
# 3 13.1849 56.5410 89.7156 0.0000 0.0000 0.0000
# 4 0.0000 0.0000 0.0000 12.3815 0.0000 0.0000
# 5 0.0000 0.0000 0.0000 0.0000 49.0780 0.0000
# 6 0.0000 0.0000 0.0000 0.0000 0.0000 44.6247
#
#
#
# Elastic Compliance Matrix: (Units=1/GPa)
#
#
# Indices 1 2 3 4 5 6 
#
# 1 0.033529 -0.007424 -0.000249 0.000000 0.000000 0.000000
# 2 -0.007424 0.006622 -0.003082 0.000000 0.000000 0.000000
# 3 -0.000249 -0.003082 0.013125 0.000000 0.000000 0.000000
# 4 0.000000 0.000000 0.000000 0.080765 0.000000 0.000000
# 5 0.000000 0.000000 0.000000 0.000000 0.020376 0.000000
# 6 0.000000 0.000000 0.000000 0.000000 0.000000 0.022409
#
#
# Mechanical properties :
#
#
# Convention : Reuss Voigt Hill
#
# Bulk Modulus (GPa) = 31.47969 68.09799 49.78884
# Shear Modulus (GPa) = 23.93204 37.57246 30.75225
#
# Velocity S-wave (km/s) = 3.42007 4.28528 3.87689
# Velocity P-wave (km/s) = 5.56611 7.60052 6.66144
#
# Compressibility (1/GPa) = 0.03176651
#
# Stress axis : x y z
#
# Youngs Moduli (GPa) = 29.82469 151.01996 76.18874
#
# Poissons Ratio (x) = 1.12117 0.01896
# Poissons Ratio (y) = 0.22142 0.23482
# Poissons Ratio (z) = 0.00742 0.46545
#
# Static dielectric constant tensor:
#      x y z
#    x 1.689050 0.000000 0.000000 
#    y 0.000000 1.746780 0.000000 
#    z 0.000000 0.000000 1.757220 
# 
# From -- ./inp_files/14215.got.cif
#   From: 2010.05.17/outbox.cif.g08.bks.cpg/sg49_8_cif.got.tgz:14215.got - 2010.06.03 21:02:19.
