data_PCOD9394956
_publ_section_title
;
Structure prediction by ZEFSAII (Michael W. Deem and Ramdas Pophale) SiO2 
 PCOD9394956
Probable space group: P C C M
;
_chemical_formula_sum "Si O2"
_cell_formula_units_Z 58
_cell_length_a 9.905099
_cell_length_b 11.342812
_cell_length_c 29.899779
_cell_angle_alpha 90.000000
_cell_angle_beta 90.000000
_cell_angle_gamma 90.000000
_cell_volume 3359.290277
_symmetry_space_group_name_H-M "P C C M"
_symmetry_group_IT_number 49
_symmetry_cell_setting 'orthorhombic'
loop_
_space_group_symop_operation_xyz
x,y,z
-x,-y,z
x,-y,1/2-z
-x,y,1/2-z
-x,-y,-z
x,y,-z
-x,y,1/2+z
x,-y,1/2+z
loop_
_atom_site_type_symbol
_atom_site_label
_atom_site_fract_x
_atom_site_fract_y
_atom_site_fract_z
Si Si1 0.990269 0.633723 0.696226
Si Si2 0.705161 0.259202 0.201784
Si Si3 0.267898 0.997970 0.064107
Si Si4 0.730843 0.253943 0.694087
Si Si5 0.000000 0.000000 0.500000
Si Si6 0.339823 0.995647 0.163793
Si Si7 0.510545 0.363056 0.633888
Si Si8 0.501833 0.807297 0.049247
O O1 0.850375 0.695877 0.685796
O O2 0.000000 0.500000 0.678309
O O3 0.000000 0.624159 0.750000
O O4 0.114487 0.716696 0.684263
O O5 0.694435 0.286133 0.254629
O O6 0.686350 0.120086 0.193132
O O7 0.598154 0.325722 0.171185
O O8 0.124497 0.999071 0.038691
O O9 0.256987 0.989682 0.117746
O O10 0.368747 0.890374 0.051113
O O11 0.363207 0.112172 0.054367
O O12 0.648692 0.330023 0.658542
O O13 0.695779 0.117155 0.687908
O O14 0.500000 0.000000 0.152145
O O15 0.500000 0.500000 0.623287
O O16 0.495089 0.283084 0.590042
O O17 0.506406 0.751476 0.000000
#
# Coordination Sequence:
#
# PCOD9394956 Si02
#       8
#     8   8   8   8   2   8   8   8
#     4   9  20  38  55  76 114 165 208 240 288 348
#     4  11  22  37  60  88 122 163 203 251 303 356
#     4  11  19  38  61  90 120 147 186 235 301 362
#     4  11  22  37  60  88 122 163 203 251 303 356
#     4  12  24  30  64 112 108 134 204 244 296 372
#     4  12  21  38  60  90 127 162 193 247 314 369
#     4  12  24  38  60  91 115 155 217 255 294 353
#     4  11  20  42  65  80 117 161 183 239 312 368
#
# _framework density 17.265552
#
# number of rings (size 3 to 8) (size 9 to 14) (size 15 to 20)
#    0.000    0.966    6.897    2.069    0.000    4.690 
#    0.000    2.069    0.000    0.000    0.000    0.966 
#    0.000    0.000    0.000    0.000    0.000    0.000 
#
# Total GULP energy -323083.542162 kJ/mol
# GULP energy per Si atom -5570.405899 kJ/mol
# Density = 1.722625 g / cm^3
# Si number density = 17.265552 Si / 1000 Ang^3
#
#
#
# Elastic Constant Matrix: (Units=GPa)
#
#
# Indices 1 2 3 4 5 6 
#
# 1 90.7044 18.8836 -2.2318 0.0000 0.0000 0.0000
# 2 18.8836 94.9257 8.0213 0.0000 0.0000 0.0000
# 3 -2.2318 8.0213 80.1561 0.0000 0.0000 0.0000
# 4 0.0000 0.0000 0.0000 -2.3620 0.0000 0.0000
# 5 0.0000 0.0000 0.0000 0.0000 7.5467 0.0000
# 6 0.0000 0.0000 0.0000 0.0000 0.0000 39.7238
#
#
#
# Elastic Compliance Matrix: (Units=1/GPa)
#
#
# Indices 1 2 3 4 5 6 
#
# 1 0.011526 -0.002340 0.000555 0.000000 0.000000 0.000000
# 2 -0.002340 0.011099 -0.001176 0.000000 0.000000 0.000000
# 3 0.000555 -0.001176 0.012609 0.000000 0.000000 0.000000
# 4 0.000000 0.000000 0.000000 -0.423372 0.000000 0.000000
# 5 0.000000 0.000000 0.000000 0.000000 0.132509 0.000000
# 6 0.000000 0.000000 0.000000 0.000000 0.000000 0.025174
#
#
# Mechanical properties :
#
#
# Convention : Reuss Voigt Hill
#
# Bulk Modulus (GPa) = 34.11493 35.01471 34.56482
# Shear Modulus (GPa) = -23.28141 25.05589 0.88724
#
# Velocity S-wave (km/s) = -3.67608 3.81360 0.71763
# Velocity P-wave (km/s) = 1.33557 6.30203 4.55518
#
# Compressibility (1/GPa) = 0.02931268
#
# Stress axis : x y z
#
# Youngs Moduli (GPa) = 86.76359 90.09538 79.30977
#
# Poissons Ratio (x) = 0.21079 -0.04402
# Poissons Ratio (y) = 0.20300 0.09326
# Poissons Ratio (z) = -0.04816 0.10594
#
# Static dielectric constant tensor:
#      x y z
#    x 1.603220 0.000000 0.000000 
#    y 0.000000 1.581540 0.000000 
#    z 0.000000 0.000000 1.564400 
# 
# From -- ./inp_files/26417.got.cif
#   From: 2010.05.17/outbox.cif.g08.bks.cpg/sg49_14_cif.got.tgz:26417.got - 2010.06.03 21:02:19.
