data_PCOD9394722
_publ_section_title
;
Structure prediction by ZEFSAII (Michael W. Deem and Ramdas Pophale) SiO2 
 PCOD9394722
Probable space group: P C C M
;
_chemical_formula_sum "Si O2"
_cell_formula_units_Z 38
_cell_length_a 27.773221
_cell_length_b 5.174739
_cell_length_c 12.955701
_cell_angle_alpha 90.000000
_cell_angle_beta 90.000000
_cell_angle_gamma 90.000000
_cell_volume 1861.982593
_symmetry_space_group_name_H-M "P C C M"
_symmetry_group_IT_number 49
_symmetry_cell_setting 'orthorhombic'
loop_
_space_group_symop_operation_xyz
x,y,z
-x,-y,z
x,-y,1/2-z
-x,y,1/2-z
-x,-y,-z
x,y,-z
-x,y,1/2+z
x,-y,1/2+z
loop_
_atom_site_type_symbol
_atom_site_label
_atom_site_fract_x
_atom_site_fract_y
_atom_site_fract_z
Si Si1 0.888199 0.251060 0.321680
Si Si2 0.500000 0.000000 0.500000
Si Si3 0.295593 0.835507 0.500000
Si Si4 0.780400 0.250509 0.678505
Si Si5 0.436164 0.251077 0.676531
Si Si6 0.641875 0.661038 0.500000
Si Si7 0.033659 0.750505 0.500000
O O1 0.893083 0.500000 0.250000
O O2 0.834268 0.263371 0.368986
O O3 0.930765 0.247100 0.402903
O O4 0.890682 0.000000 0.250000
O O5 0.522707 0.812253 0.592226
O O6 0.261851 0.777788 0.597207
O O7 0.339100 0.631299 0.500000
O O8 0.315685 0.126536 0.500000
O O9 0.773825 0.500000 0.750000
O O10 0.779770 0.000000 0.750000
O O11 0.443327 0.500000 0.750000
O O12 0.389714 0.293484 0.602919
O O13 0.430310 0.000000 0.750000
O O14 0.000000 0.500000 0.500000
O O15 0.000000 0.000000 0.500000
#
# Coordination Sequence:
#
# PCOD9394722 Si02
#       7
#     8   2   4   8   8   4   4
#     4  10  22  41  61  84 119 157 198 254 312 370
#     4  10  26  46  72 108 130 166 238 276 324 396
#     4  12  23  40  64  93 129 166 211 267 305 366
#     4  10  22  39  62  90 119 159 208 256 312 370
#     4  11  25  46  70  97 137 179 216 272 331 383
#     4  11  26  41  63  97 133 175 217 253 315 395
#     4  12  25  38  59  88 115 154 202 247 308 380
#
# _framework density 20.408353999999999
#
# number of rings (size 3 to 8) (size 9 to 14) (size 15 to 20)
#    0.000    1.263    0.000    4.737    0.000   12.632 
#    0.000    8.421    0.000    0.000    0.000    0.000 
#    0.000    0.000    0.000    0.000    0.000    0.000 
#
# Total GULP energy -211993.927325 kJ/mol
# GULP energy per Si atom -5578.787561 kJ/mol
# Density = 2.036190 g / cm^3
# Si number density = 20.408354 Si / 1000 Ang^3
#
#
#
# Elastic Constant Matrix: (Units=GPa)
#
#
# Indices 1 2 3 4 5 6 
#
# 1 76.2112 16.8749 50.6727 0.0000 0.0000 0.0000
# 2 16.8749 132.7007 46.2958 0.0000 0.0000 0.0000
# 3 50.6727 46.2958 130.2727 0.0000 0.0000 0.0000
# 4 0.0000 0.0000 0.0000 24.9357 0.0000 0.0000
# 5 0.0000 0.0000 0.0000 0.0000 35.6774 0.0000
# 6 0.0000 0.0000 0.0000 0.0000 0.0000 39.4691
#
#
#
# Elastic Compliance Matrix: (Units=1/GPa)
#
#
# Indices 1 2 3 4 5 6 
#
# 1 0.017702 0.000173 -0.006947 0.000000 0.000000 0.000000
# 2 0.000173 0.008604 -0.003125 0.000000 0.000000 0.000000
# 3 -0.006947 -0.003125 0.011489 0.000000 0.000000 0.000000
# 4 0.000000 0.000000 0.000000 0.040103 0.000000 0.000000
# 5 0.000000 0.000000 0.000000 0.000000 0.028029 0.000000
# 6 0.000000 0.000000 0.000000 0.000000 0.000000 0.025336
#
#
# Mechanical properties :
#
#
# Convention : Reuss Voigt Hill
#
# Bulk Modulus (GPa) = 55.56605 62.98574 59.27589
# Shear Modulus (GPa) = 31.83477 35.03918 33.43698
#
# Velocity S-wave (km/s) = 3.95383 4.14805 4.05210
# Velocity P-wave (km/s) = 6.93757 7.33972 7.14148
#
# Compressibility (1/GPa) = 0.01799660
#
# Stress axis : x y z
#
# Youngs Moduli (GPa) = 56.48980 116.22558 87.04054
#
# Poissons Ratio (x) = -0.02005 0.60468
# Poissons Ratio (y) = -0.00975 0.27198
# Poissons Ratio (z) = 0.39244 0.36318
#
# Static dielectric constant tensor:
#      x y z
#    x 1.743130 0.000000 0.000000 
#    y 0.000000 1.677520 0.000000 
#    z 0.000000 0.000000 1.680450 
# 
# From -- ./inp_files/10090.got.cif
#   From: 2010.05.17/outbox.cif.g08.bks.cpg/sg49_6_cif.got.tgz:10090.got - 2010.06.03 21:02:19.
