data_PCOD9394531
_publ_section_title
;
Structure prediction by ZEFSAII (Michael W. Deem and Ramdas Pophale) SiO2 
 PCOD9394531
Probable space group: P C C M
;
_chemical_formula_sum "Si O2"
_cell_formula_units_Z 34
_cell_length_a 9.433021
_cell_length_b 19.550358
_cell_length_c 9.693473
_cell_angle_alpha 90.000000
_cell_angle_beta 90.000000
_cell_angle_gamma 90.000000
_cell_volume 1787.659992
_symmetry_space_group_name_H-M "P C C M"
_symmetry_group_IT_number 49
_symmetry_cell_setting 'orthorhombic'
loop_
_space_group_symop_operation_xyz
x,y,z
-x,-y,z
x,-y,1/2-z
-x,y,1/2-z
-x,-y,-z
x,y,-z
-x,y,1/2+z
x,-y,1/2+z
loop_
_atom_site_type_symbol
_atom_site_label
_atom_site_fract_x
_atom_site_fract_y
_atom_site_fract_z
Si Si1 0.671644 0.857275 0.764391
Si Si2 0.871889 0.633870 0.340953
Si Si3 0.000000 0.500000 0.250000
Si Si4 0.823857 0.065074 0.500000
Si Si5 0.642894 0.296260 0.337723
Si Si6 0.849982 0.098879 0.000000
O O1 0.500000 0.864527 0.750000
O O2 0.733173 0.911977 0.869596
O O3 0.699640 0.781247 0.822970
O O4 0.765254 0.868817 0.628196
O O5 0.863274 0.657123 0.500000
O O6 0.905952 0.552765 0.337702
O O7 0.739392 0.651373 0.246569
O O8 0.000000 0.665500 0.250000
O O9 0.977705 0.103568 0.500000
O O10 0.835689 0.983457 0.500000
O O11 0.500000 0.295315 0.250000
O O12 0.626871 0.312381 0.500000
#
# Coordination Sequence:
#
# PCOD9394531 Si02
#       6
#     8   8   2   4   8   4
#     4  11  24  41  64  90 126 168 221 272 330 396
#     4  10  21  38  66  97 132 171 214 259 313 374
#     4   8  22  40  68  96 142 168 218 256 318 364
#     4  11  23  45  59  93 127 165 218 271 338 398
#     4  11  24  42  64  92 131 171 216 273 329 387
#     4  11  25  39  67  89 127 169 210 279 336 398
#
# _framework density 19.019276999999999
#
# number of rings (size 3 to 8) (size 9 to 14) (size 15 to 20)
#    0.706    0.706    1.176    3.882    6.588    6.588 
#    0.000    0.588    0.000    2.824    0.000    0.000 
#    0.000    0.000    0.000    0.000    0.000    0.000 
#
# Total GULP energy -189382.348594 kJ/mol
# GULP energy per Si atom -5570.069076 kJ/mol
# Density = 1.897599 g / cm^3
# Si number density = 19.019277 Si / 1000 Ang^3
#
#
#
# Elastic Constant Matrix: (Units=GPa)
#
#
# Indices 1 2 3 4 5 6 
#
# 1 84.2437 33.7714 40.5667 0.0000 0.0000 0.0000
# 2 33.7714 52.8944 24.5591 0.0000 0.0000 0.0000
# 3 40.5667 24.5591 188.7564 0.0000 0.0000 0.0000
# 4 0.0000 0.0000 0.0000 43.6378 0.0000 0.0000
# 5 0.0000 0.0000 0.0000 0.0000 26.4811 0.0000
# 6 0.0000 0.0000 0.0000 0.0000 0.0000 39.2167
#
#
#
# Elastic Compliance Matrix: (Units=1/GPa)
#
#
# Indices 1 2 3 4 5 6 
#
# 1 0.016895 -0.009686 -0.002371 0.000000 0.000000 0.000000
# 2 -0.009686 0.025674 -0.001259 0.000000 0.000000 0.000000
# 3 -0.002371 -0.001259 0.005971 0.000000 0.000000 0.000000
# 4 0.000000 0.000000 0.000000 0.022916 0.000000 0.000000
# 5 0.000000 0.000000 0.000000 0.000000 0.037763 0.000000
# 6 0.000000 0.000000 0.000000 0.000000 0.000000 0.025499
#
#
# Mechanical properties :
#
#
# Convention : Reuss Voigt Hill
#
# Bulk Modulus (GPa) = 45.64312 58.18764 51.91538
# Shear Modulus (GPa) = 29.64674 37.00025 33.32350
#
# Velocity S-wave (km/s) = 3.95241 4.41546 4.19034
# Velocity P-wave (km/s) = 6.69919 7.52699 7.12512
#
# Compressibility (1/GPa) = 0.02190911
#
# Stress axis : x y z
#
# Youngs Moduli (GPa) = 59.18961 38.94941 167.47275
#
# Poissons Ratio (x) = 0.37727 0.39703
# Poissons Ratio (y) = 0.57332 0.21081
# Poissons Ratio (z) = 0.14032 0.04903
#
# Static dielectric constant tensor:
#      x y z
#    x -1.163880 0.000000 0.000000 
#    y 0.000000 1.656920 0.000000 
#    z 0.000000 0.000000 1.762020 
# 
# From -- ./inp_files/1588.got.cif
#   From: 2010.05.17/outbox.cif.g08.bks.cpg/sg49_1_cif.got.tgz:1588.got - 2010.06.03 21:02:19.
