data_PCOD9394228
_publ_section_title
;
Structure prediction by ZEFSAII (Michael W. Deem and Ramdas Pophale) SiO2 
 PCOD9394228
Probable space group: P C C M
;
_chemical_formula_sum "Si O2"
_cell_formula_units_Z 40
_cell_length_a 8.743692
_cell_length_b 10.250591
_cell_length_c 18.275095
_cell_angle_alpha 90.000000
_cell_angle_beta 90.000000
_cell_angle_gamma 90.000000
_cell_volume 1637.960407
_symmetry_space_group_name_H-M "P C C M"
_symmetry_group_IT_number 49
_symmetry_cell_setting 'orthorhombic'
loop_
_space_group_symop_operation_xyz
x,y,z
-x,-y,z
x,-y,1/2-z
-x,y,1/2-z
-x,-y,-z
x,y,-z
-x,y,1/2+z
x,-y,1/2+z
loop_
_atom_site_type_symbol
_atom_site_label
_atom_site_fract_x
_atom_site_fract_y
_atom_site_fract_z
Si Si1 0.595115 0.715313 0.315293
Si Si2 0.324303 0.048476 0.413458
Si Si3 0.342197 0.593050 0.582606
Si Si4 0.903884 0.821028 0.914875
Si Si5 0.123790 0.390616 0.345312
O O1 0.500000 0.777559 0.250000
O O2 0.666865 0.818399 0.369970
O O3 0.475404 0.626413 0.359700
O O4 0.747010 0.643278 0.285300
O O5 0.304330 0.066124 0.500000
O O6 0.183091 0.953935 0.389496
O O7 0.500000 0.000000 0.403592
O O8 0.401832 0.594343 0.500000
O O9 0.233583 0.466923 0.596030
O O10 0.233813 0.718245 0.585786
O O11 0.032748 0.738783 0.871569
O O12 0.952909 0.839020 0.000000
O O13 0.000000 0.500000 0.326975
#
# Coordination Sequence:
#
# PCOD9394228 Si02
#       5
#     8   8   8   8   8
#     4  12  26  42  65 101 137 189 241 289 353 424
#     4  10  20  40  72 103 138 178 231 295 348 417
#     4  10  20  39  67  98 135 181 237 293 349 418
#     4   9  18  37  66 104 142 179 221 284 363 416
#     4  10  23  42  66  99 142 178 228 293 357 421
#
# _framework density 24.420615999999999
#
# number of rings (size 3 to 8) (size 9 to 14) (size 15 to 20)
#    0.000    1.800    2.000    1.800    0.000    9.200 
#    0.000    9.000    0.000    0.000   10.400    0.000 
#    0.000    0.000    0.000    0.000    0.000    0.000 
#
# Total GULP energy -223185.062315 kJ/mol
# GULP energy per Si atom -5579.626558 kJ/mol
# Density = 2.436503 g / cm^3
# Si number density = 24.420616 Si / 1000 Ang^3
#
#
#
# Elastic Constant Matrix: (Units=GPa)
#
#
# Indices 1 2 3 4 5 6 
#
# 1 195.4035 56.2311 37.6731 0.0000 0.0000 0.0000
# 2 56.2311 140.0371 22.8670 0.0000 0.0000 0.0000
# 3 37.6731 22.8670 24.6112 0.0000 0.0000 0.0000
# 4 0.0000 0.0000 0.0000 -1.0099 0.0000 0.0000
# 5 0.0000 0.0000 0.0000 0.0000 -29.2018 0.0000
# 6 0.0000 0.0000 0.0000 0.0000 0.0000 59.0069
#
#
#
# Elastic Compliance Matrix: (Units=1/GPa)
#
#
# Indices 1 2 3 4 5 6 
#
# 1 0.007466 -0.001334 -0.010189 0.000000 0.000000 0.000000
# 2 -0.001334 0.008657 -0.006001 0.000000 0.000000 0.000000
# 3 -0.010189 -0.006001 0.061804 0.000000 0.000000 0.000000
# 4 0.000000 0.000000 0.000000 -0.990176 0.000000 0.000000
# 5 0.000000 0.000000 0.000000 0.000000 -0.034244 0.000000
# 6 0.000000 0.000000 0.000000 0.000000 0.000000 0.016947
#
#
# Mechanical properties :
#
#
# Convention : Reuss Voigt Hill
#
# Bulk Modulus (GPa) = 23.32157 65.95491 44.63824
# Shear Modulus (GPa) = -5.68048 21.97774 8.14863
#
# Velocity S-wave (km/s) = -1.52681 3.00320 1.82867
# Velocity P-wave (km/s) = 2.54214 6.25237 4.77256
#
# Compressibility (1/GPa) = 0.04287876
#
# Stress axis : x y z
#
# Youngs Moduli (GPa) = 133.94271 115.51900 16.18026
#
# Poissons Ratio (x) = 0.15412 0.16486
# Poissons Ratio (y) = 0.17870 0.09710
# Poissons Ratio (z) = 1.36470 0.69322
#
# Static dielectric constant tensor:
#      x y z
#    x 1.994870 0.000000 0.000000 
#    y 0.000000 2.031450 0.000000 
#    z 0.000000 0.000000 1.907170 
# 
# From -- ./inp_files/19643.got.cif
#   From: 2010.05.17/outbox.cif.g08.bks.cpg/sg49_10_cif.got.tgz:19643.got - 2010.06.03 21:02:19.
