data_PCOD9394638
_publ_section_title
;
Structure prediction by ZEFSAII (Michael W. Deem and Ramdas Pophale) SiO2 
 PCOD9394638
Probable space group: P C C M
;
_chemical_formula_sum "Si O2"
_cell_formula_units_Z 38
_cell_length_a 5.058520
_cell_length_b 15.457473
_cell_length_c 22.367956
_cell_angle_alpha 90.000000
_cell_angle_beta 90.000000
_cell_angle_gamma 90.000000
_cell_volume 1748.993791
_symmetry_space_group_name_H-M "P C C M"
_symmetry_group_IT_number 49
_symmetry_cell_setting 'orthorhombic'
loop_
_space_group_symop_operation_xyz
x,y,z
-x,-y,z
x,-y,1/2-z
-x,y,1/2-z
-x,-y,-z
x,y,-z
-x,y,1/2+z
x,-y,1/2+z
loop_
_atom_site_type_symbol
_atom_site_label
_atom_site_fract_x
_atom_site_fract_y
_atom_site_fract_z
Si Si1 0.743754 0.060761 0.175864
Si Si2 0.500000 0.500000 0.750000
Si Si3 0.033118 0.715355 0.432124
Si Si4 0.191112 0.347056 0.192714
Si Si5 0.500000 0.797888 0.250000
Si Si6 0.535240 0.831482 0.433374
O O1 0.724711 0.140915 0.221831
O O2 0.660606 0.102215 0.112899
O O3 0.500000 0.000000 0.190298
O O4 0.000000 0.000000 0.175917
O O5 0.668749 0.562936 0.792133
O O6 0.087969 0.681578 0.500000
O O7 0.071934 0.656462 0.373519
O O8 0.238389 0.795941 0.423540
O O9 0.734727 0.750053 0.431717
O O10 0.392170 0.266423 0.199358
O O11 0.000000 0.333943 0.250000
O O12 0.543684 0.868687 0.500000
#
# Coordination Sequence:
#
# PCOD9394638 Si02
#       6
#     8   2   8   8   4   8
#     4  12  26  40  58  90 134 172 226 287 337 389
#     4  10  26  44  64 118 134 164 216 282 334 410
#     4  10  21  40  70 100 129 174 228 274 323 404
#     4  11  23  43  75  96 140 175 223 271 345 415
#     4  11  25  41  61  92 124 188 225 275 343 407
#     4  10  21  41  64  92 127 171 229 278 332 396
#
# _framework density 21.726780000000002
#
# number of rings (size 3 to 8) (size 9 to 14) (size 15 to 20)
#    0.000    1.263    2.105    3.158    5.895    1.684 
#    0.000    0.526    0.000    2.526    0.000    0.000 
#    0.000    0.000    0.000    0.000    0.000    0.000 
#
# Total GULP energy -212245.400625 kJ/mol
# GULP energy per Si atom -5585.405280 kJ/mol
# Density = 2.167733 g / cm^3
# Si number density = 21.726780 Si / 1000 Ang^3
#
#
#
# Elastic Constant Matrix: (Units=GPa)
#
#
# Indices 1 2 3 4 5 6 
#
# 1 84.7153 17.2497 -3.2351 0.0000 0.0000 0.0000
# 2 17.2497 93.5017 36.3138 0.0000 0.0000 0.0000
# 3 -3.2351 36.3138 158.4142 0.0000 0.0000 0.0000
# 4 0.0000 0.0000 0.0000 20.9825 0.0000 0.0000
# 5 0.0000 0.0000 0.0000 0.0000 29.4031 0.0000
# 6 0.0000 0.0000 0.0000 0.0000 0.0000 51.1473
#
#
#
# Elastic Compliance Matrix: (Units=1/GPa)
#
#
# Indices 1 2 3 4 5 6 
#
# 1 0.012369 -0.002613 0.000851 0.000000 0.000000 0.000000
# 2 -0.002613 0.012292 -0.002871 0.000000 0.000000 0.000000
# 3 0.000851 -0.002871 0.006988 0.000000 0.000000 0.000000
# 4 0.000000 0.000000 0.000000 0.047659 0.000000 0.000000
# 5 0.000000 0.000000 0.000000 0.000000 0.034010 0.000000
# 6 0.000000 0.000000 0.000000 0.000000 0.000000 0.019551
#
#
# Mechanical properties :
#
#
# Convention : Reuss Voigt Hill
#
# Bulk Modulus (GPa) = 44.67370 48.58755 46.63062
# Shear Modulus (GPa) = 33.42358 39.39341 36.40849
#
# Velocity S-wave (km/s) = 3.92645 4.26270 4.09802
# Velocity P-wave (km/s) = 6.41578 6.82928 6.62575
#
# Compressibility (1/GPa) = 0.02238454
#
# Stress axis : x y z
#
# Youngs Moduli (GPa) = 80.84911 81.35348 143.10027
#
# Poissons Ratio (x) = 0.21254 -0.12185
# Poissons Ratio (y) = 0.21122 0.41085
# Poissons Ratio (z) = -0.06884 0.23357
#
# Static dielectric constant tensor:
#      x y z
#    x 1.824100 0.000000 0.000000 
#    y 0.000000 1.742820 0.000000 
#    z 0.000000 0.000000 1.899270 
# 
# From -- ./inp_files/21750.got.cif
#   From: 2010.05.17/outbox.cif.g08.bks.cpg/sg49_11_cif.got.tgz:21750.got - 2010.06.03 21:02:19.
