data_PCOD9394305
_publ_section_title
;
Structure prediction by ZEFSAII (Michael W. Deem and Ramdas Pophale) SiO2 
 PCOD9394305
Probable space group: P C C M
;
_chemical_formula_sum "Si O2"
_cell_formula_units_Z 64
_cell_length_a 15.403278
_cell_length_b 11.950572
_cell_length_c 17.442882
_cell_angle_alpha 90.000000
_cell_angle_beta 90.000000
_cell_angle_gamma 90.000000
_cell_volume 3210.850532
_symmetry_space_group_name_H-M "P C C M"
_symmetry_group_IT_number 49
_symmetry_cell_setting 'orthorhombic'
loop_
_space_group_symop_operation_xyz
x,y,z
-x,-y,z
x,-y,1/2-z
-x,y,1/2-z
-x,-y,-z
x,y,-z
-x,y,1/2+z
x,-y,1/2+z
loop_
_atom_site_type_symbol
_atom_site_label
_atom_site_fract_x
_atom_site_fract_y
_atom_site_fract_z
Si Si1 0.194814 0.200375 0.325595
Si Si2 0.308994 0.614316 0.908316
Si Si3 0.974506 0.872159 0.590728
Si Si4 0.785464 0.387148 0.591456
Si Si5 0.533287 0.761337 0.407487
Si Si6 0.341470 0.189926 0.908192
Si Si7 0.642233 0.955888 0.328711
Si Si8 0.076170 0.305589 0.195284
O O1 0.242139 0.304858 0.365531
O O2 0.124267 0.148525 0.383361
O O3 0.270438 0.112040 0.308502
O O4 0.142459 0.242288 0.251933
O O5 0.281402 0.487619 0.892653
O O6 0.405744 0.655759 0.887067
O O7 0.300578 0.631149 0.000000
O O8 0.985259 0.853801 0.500000
O O9 0.032837 0.785490 0.638635
O O10 0.000000 0.000000 0.608407
O O11 0.804933 0.388362 0.500000
O O12 0.737273 0.271434 0.611794
O O13 0.870879 0.392935 0.643502
O O14 0.533377 0.769862 0.500000
O O15 0.433732 0.758864 0.381330
O O16 0.579460 0.871344 0.373477
O O17 0.334842 0.064666 0.877942
O O18 0.343929 0.186783 0.000000
O O19 0.602301 0.000000 0.250000
O O20 0.000000 0.351777 0.250000
#
# Coordination Sequence:
#
# PCOD9394305 Si02
#       8
#     8   8   8   8   8   8   8   8
#     4  10  22  37  58  81 111 155 194 232 286 349
#     4   9  19  38  61  83 113 151 193 237 283 345
#     4  10  22  37  58  85 114 147 186 237 291 349
#     4  10  21  38  61  87 115 149 194 248 293 337
#     4   9  19  37  57  82 116 153 191 231 285 348
#     4  10  21  35  56  86 117 149 189 239 293 342
#     4  11  22  34  54  82 116 154 192 235 283 344
#     4  10  22  40  58  82 117 153 191 241 289 351
#
# _framework density 19.932413
#
# number of rings (size 3 to 8) (size 9 to 14) (size 15 to 20)
#    0.000    2.125    0.000    2.250    3.500    6.250 
#    0.000    6.875    0.000    6.750    0.000    3.500 
#    0.000    0.000    0.000    0.000    0.000    0.000 
#
# Total GULP energy -357443.500323 kJ/mol
# GULP energy per Si atom -5585.054693 kJ/mol
# Density = 1.988705 g / cm^3
# Si number density = 19.932413 Si / 1000 Ang^3
#
#
#
# Elastic Constant Matrix: (Units=GPa)
#
#
# Indices 1 2 3 4 5 6 
#
# 1 72.4857 9.3272 22.7924 0.0000 0.0000 0.0000
# 2 9.3272 55.0595 20.2388 0.0000 0.0000 0.0000
# 3 22.7924 20.2388 34.5857 0.0000 0.0000 0.0000
# 4 0.0000 0.0000 0.0000 13.1235 0.0000 0.0000
# 5 0.0000 0.0000 0.0000 0.0000 13.9364 0.0000
# 6 0.0000 0.0000 0.0000 0.0000 0.0000 11.0412
#
#
#
# Elastic Compliance Matrix: (Units=1/GPa)
#
#
# Indices 1 2 3 4 5 6 
#
# 1 0.017515 0.001625 -0.012494 0.000000 0.000000 0.000000
# 2 0.001625 0.023290 -0.014700 0.000000 0.000000 0.000000
# 3 -0.012494 -0.014700 0.045750 0.000000 0.000000 0.000000
# 4 0.000000 0.000000 0.000000 0.076199 0.000000 0.000000
# 5 0.000000 0.000000 0.000000 0.000000 0.071754 0.000000
# 6 0.000000 0.000000 0.000000 0.000000 0.000000 0.090570
#
#
# Mechanical properties :
#
#
# Convention : Reuss Voigt Hill
#
# Bulk Modulus (GPa) = 28.23441 29.64975 28.94208
# Shear Modulus (GPa) = 12.88587 14.93839 13.91213
#
# Velocity S-wave (km/s) = 2.54535 2.74058 2.64477
# Velocity P-wave (km/s) = 4.77852 4.99218 4.88652
#
# Compressibility (1/GPa) = 0.03541777
#
# Stress axis : x y z
#
# Youngs Moduli (GPa) = 57.09302 42.93631 21.85814
#
# Poissons Ratio (x) = -0.06979 0.27309
# Poissons Ratio (y) = -0.09280 0.32132
# Poissons Ratio (z) = 0.71332 0.63117
#
# Static dielectric constant tensor:
#      x y z
#    x 1.723510 0.000000 0.000000 
#    y 0.000000 1.682020 0.000000 
#    z 0.000000 0.000000 1.699670 
# 
# From -- ./inp_files/17932.got.cif
#   From: 2010.05.17/outbox.cif.g08.bks.cpg/sg49_9_cif.got.tgz:17932.got - 2010.06.03 21:02:19.
