data_PCOD9394970
_publ_section_title
;
Structure prediction by ZEFSAII (Michael W. Deem and Ramdas Pophale) SiO2 
 PCOD9394970
Probable space group: P C C M
;
_chemical_formula_sum "Si O2"
_cell_formula_units_Z 64
_cell_length_a 14.265105
_cell_length_b 12.981201
_cell_length_c 17.029927
_cell_angle_alpha 90.000000
_cell_angle_beta 90.000000
_cell_angle_gamma 90.000000
_cell_volume 3153.571148
_symmetry_space_group_name_H-M "P C C M"
_symmetry_group_IT_number 49
_symmetry_cell_setting 'orthorhombic'
loop_
_space_group_symop_operation_xyz
x,y,z
-x,-y,z
x,-y,1/2-z
-x,y,1/2-z
-x,-y,-z
x,y,-z
-x,y,1/2+z
x,-y,1/2+z
loop_
_atom_site_type_symbol
_atom_site_label
_atom_site_fract_x
_atom_site_fract_y
_atom_site_fract_z
Si Si1 0.353122 0.282607 0.587330
Si Si2 0.256810 0.891112 0.408772
Si Si3 0.607574 0.497582 0.657446
Si Si4 0.407062 0.939101 0.904269
Si Si5 0.840280 0.257575 0.147886
Si Si6 0.890376 0.020746 0.163248
Si Si7 0.769481 0.677651 0.175874
Si Si8 0.980668 0.615468 0.844380
O O1 0.392813 0.294422 0.500000
O O2 0.358913 0.391168 0.629822
O O3 0.398233 0.178839 0.624517
O O4 0.243058 0.261279 0.586407
O O5 0.277444 0.869133 0.500000
O O6 0.263013 0.786832 0.359322
O O7 0.323718 0.984359 0.381193
O O8 0.155554 0.941896 0.397253
O O9 0.500000 0.500000 0.623578
O O10 0.596118 0.500000 0.750000
O O11 0.689143 0.407563 0.651342
O O12 0.500000 0.000000 0.881314
O O13 0.404647 0.931640 0.000000
O O14 0.869291 0.139549 0.152619
O O15 0.795610 0.302249 0.230968
O O16 0.934803 0.315876 0.123971
O O17 0.851005 0.000000 0.250000
O O18 0.000000 0.000000 0.163979
O O19 0.872689 0.647108 0.141987
O O20 0.000000 0.500000 0.871045
O O21 0.000000 0.619271 0.750000
#
# Coordination Sequence:
#
# PCOD9394970 Si02
#       8
#     8   8   8   8   8   8   8   8
#     4  11  23  41  67  95 125 167 216 269 327 388
#     4  11  23  39  60  92 127 162 204 261 324 374
#     4  11  25  43  65  95 130 169 213 266 326 380
#     4   9  20  39  62  87 119 161 209 257 311 378
#     4  11  20  37  63  91 122 159 215 264 312 381
#     4  11  22  36  60  91 127 170 214 255 312 389
#     4  11  22  39  63  90 126 168 206 257 313 380
#     4   9  19  33  59  88 114 157 211 252 300 369
#
# _framework density 20.294453000000001
#
# number of rings (size 3 to 8) (size 9 to 14) (size 15 to 20)
#    0.000    1.500    3.750    1.500    7.000    1.000 
#    0.000    1.875    0.000    4.125    0.000    0.000 
#    0.000    0.000    0.000    0.000    0.000    0.000 
#
# Total GULP energy -356297.803916 kJ/mol
# GULP energy per Si atom -5567.153186 kJ/mol
# Density = 2.024826 g / cm^3
# Si number density = 20.294453 Si / 1000 Ang^3
#
#
#
# Elastic Constant Matrix: (Units=GPa)
#
#
# Indices 1 2 3 4 5 6 
#
# 1 97.8134 60.7628 7.4270 0.0000 0.0000 0.0000
# 2 60.7628 186.6241 24.8975 0.0000 0.0000 0.0000
# 3 7.4270 24.8975 24.7927 0.0000 0.0000 0.0000
# 4 0.0000 0.0000 0.0000 -7.2898 0.0000 0.0000
# 5 0.0000 0.0000 0.0000 0.0000 15.8739 0.0000
# 6 0.0000 0.0000 0.0000 0.0000 0.0000 42.6147
#
#
#
# Elastic Compliance Matrix: (Units=1/GPa)
#
#
# Indices 1 2 3 4 5 6 
#
# 1 0.012819 -0.004228 0.000406 0.000000 0.000000 0.000000
# 2 -0.004228 0.007582 -0.006347 0.000000 0.000000 0.000000
# 3 0.000406 -0.006347 0.046587 0.000000 0.000000 0.000000
# 4 0.000000 0.000000 0.000000 -0.137179 0.000000 0.000000
# 5 0.000000 0.000000 0.000000 0.000000 0.062997 0.000000
# 6 0.000000 0.000000 0.000000 0.000000 0.000000 0.023466
#
#
# Mechanical properties :
#
#
# Convention : Reuss Voigt Hill
#
# Bulk Modulus (GPa) = 21.43676 55.04499 38.24087
# Shear Modulus (GPa) = 95.85805 24.64929 60.25367
#
# Velocity S-wave (km/s) = 6.88013 3.48887 5.45474
# Velocity P-wave (km/s) = 8.58491 6.58875 7.65220
#
# Compressibility (1/GPa) = 0.04664883
#
# Stress axis : x y z
#
# Youngs Moduli (GPa) = 78.00819 131.89635 21.46522
#
# Poissons Ratio (x) = 0.55764 -0.00871
# Poissons Ratio (y) = 0.32981 0.13624
# Poissons Ratio (z) = -0.03164 0.83718
#
# Static dielectric constant tensor:
#      x y z
#    x 1.872110 0.000000 0.000000 
#    y 0.000000 1.416870 0.000000 
#    z 0.000000 0.000000 1.768280 
# 
# From -- ./inp_files/17968.got.cif
#   From: 2010.05.17/outbox.cif.g08.bks.cpg/sg49_9_cif.got.tgz:17968.got - 2010.06.03 21:02:19.
