data_PCOD9394084
_publ_section_title
;
Structure prediction by ZEFSAII (Michael W. Deem and Ramdas Pophale) SiO2 
 PCOD9394084
Probable space group: P C C M
;
_chemical_formula_sum "Si O2"
_cell_formula_units_Z 64
_cell_length_a 18.461284
_cell_length_b 10.103532
_cell_length_c 15.037813
_cell_angle_alpha 90.000000
_cell_angle_beta 90.000000
_cell_angle_gamma 90.000000
_cell_volume 2804.915643
_symmetry_space_group_name_H-M "P C C M"
_symmetry_group_IT_number 49
_symmetry_cell_setting 'orthorhombic'
loop_
_space_group_symop_operation_xyz
x,y,z
-x,-y,z
x,-y,1/2-z
-x,y,1/2-z
-x,-y,-z
x,y,-z
-x,y,1/2+z
x,-y,1/2+z
loop_
_atom_site_type_symbol
_atom_site_label
_atom_site_fract_x
_atom_site_fract_y
_atom_site_fract_z
Si Si1 0.917040 0.867816 0.354579
Si Si2 0.927196 0.828094 0.857604
Si Si3 0.757713 0.124886 0.899769
Si Si4 0.431880 0.404564 0.607535
Si Si5 0.676026 0.874874 0.898334
Si Si6 0.517248 0.151326 0.391934
Si Si7 0.722603 0.393023 0.158577
Si Si8 0.213343 0.652495 0.357230
O O1 0.925320 0.853023 0.248526
O O2 0.836097 0.822837 0.370716
O O3 0.990543 0.798372 0.388350
O O4 0.914264 0.020413 0.388671
O O5 0.865351 0.718989 0.873190
O O6 0.710545 0.255156 0.891714
O O7 0.718843 0.999071 0.855241
O O8 0.769519 0.081967 0.000000
O O9 0.500000 0.500000 0.623836
O O10 0.418957 0.406925 0.500000
O O11 0.459851 0.260066 0.638521
O O12 0.358574 0.450340 0.655645
O O13 0.599636 0.829491 0.859023
O O14 0.730715 0.753730 0.899972
O O15 0.657801 0.916100 0.000000
O O16 0.515592 0.165434 0.500000
O O17 0.500000 0.000000 0.369949
O O18 0.758764 0.357817 0.254039
O O19 0.774980 0.501399 0.113162
#
# Coordination Sequence:
#
# PCOD9394084 Si02
#       8
#     8   8   8   8   8   8   8   8
#     4   9  17  33  60  91 109 145 195 243 288 346
#     4   9  17  34  61  85 114 147 193 241 287 342
#     4  11  21  36  59  89 122 152 190 248 309 358
#     4  10  20  37  60  82 111 158 207 250 295 352
#     4  10  21  36  59  87 112 149 199 247 301 358
#     4   9  17  32  53  78 108 141 186 238 289 350
#     4  11  24  37  56  86 120 158 200 244 305 360
#     4  11  22  39  58  83 116 157 196 245 290 358
#
# _framework density 22.817086
#
# number of rings (size 3 to 8) (size 9 to 14) (size 15 to 20)
#    0.000    2.000    2.500    2.625    0.000    4.500 
#    0.000    6.875    0.000    1.500    0.000    0.000 
#    0.000    0.000    0.000    0.000    0.000    0.000 
#
# Total GULP energy -356621.936805 kJ/mol
# GULP energy per Si atom -5572.217763 kJ/mol
# Density = 2.276515 g / cm^3
# Si number density = 22.817086 Si / 1000 Ang^3
#
#
#
# Elastic Constant Matrix: (Units=GPa)
#
#
# Indices 1 2 3 4 5 6 
#
# 1 154.0806 35.7616 15.9020 0.0000 0.0000 0.0000
# 2 35.7616 97.8861 4.0360 0.0000 0.0000 0.0000
# 3 15.9020 4.0360 47.2503 0.0000 0.0000 0.0000
# 4 0.0000 0.0000 0.0000 9.7484 0.0000 0.0000
# 5 0.0000 0.0000 0.0000 0.0000 17.5467 0.0000
# 6 0.0000 0.0000 0.0000 0.0000 0.0000 36.2492
#
#
#
# Elastic Compliance Matrix: (Units=1/GPa)
#
#
# Indices 1 2 3 4 5 6 
#
# 1 0.007321 -0.002582 -0.002243 0.000000 0.000000 0.000000
# 2 -0.002582 0.011163 -0.000084 0.000000 0.000000 0.000000
# 3 -0.002243 -0.000084 0.021926 0.000000 0.000000 0.000000
# 4 0.000000 0.000000 0.000000 0.102581 0.000000 0.000000
# 5 0.000000 0.000000 0.000000 0.000000 0.056991 0.000000
# 6 0.000000 0.000000 0.000000 0.000000 0.000000 0.027587
#
#
# Mechanical properties :
#
#
# Convention : Reuss Voigt Hill
#
# Bulk Modulus (GPa) = 32.69041 45.62402 39.15721
# Shear Modulus (GPa) = 20.19506 28.94335 24.56920
#
# Velocity S-wave (km/s) = 2.97827 3.56546 3.28501
# Velocity P-wave (km/s) = 5.11713 6.08185 5.62023
#
# Compressibility (1/GPa) = 0.03059001
#
# Stress axis : x y z
#
# Youngs Moduli (GPa) = 136.59457 89.58332 45.60777
#
# Poissons Ratio (x) = 0.23132 0.10231
# Poissons Ratio (y) = 0.35271 0.00385
# Poissons Ratio (z) = 0.30642 0.00757
#
# Static dielectric constant tensor:
#      x y z
#    x 1.952290 0.000000 0.000000 
#    y 0.000000 1.923130 0.000000 
#    z 0.000000 0.000000 1.950050 
# 
# From -- ./inp_files/21089.got.cif
#   From: 2010.05.17/outbox.cif.g08.bks.cpg/sg49_11_cif.got.tgz:21089.got - 2010.06.03 21:02:19.
