data_PCOD9394735
_publ_section_title
;
Structure prediction by ZEFSAII (Michael W. Deem and Ramdas Pophale) SiO2 
 PCOD9394735
Probable space group: P C C M
;
_chemical_formula_sum "Si O2"
_cell_formula_units_Z 48
_cell_length_a 9.838788
_cell_length_b 28.844511
_cell_length_c 9.629930
_cell_angle_alpha 90.000000
_cell_angle_beta 90.000000
_cell_angle_gamma 90.000000
_cell_volume 2732.926261
_symmetry_space_group_name_H-M "P C C M"
_symmetry_group_IT_number 49
_symmetry_cell_setting 'orthorhombic'
loop_
_space_group_symop_operation_xyz
x,y,z
-x,-y,z
x,-y,1/2-z
-x,y,1/2-z
-x,-y,-z
x,y,-z
-x,y,1/2+z
x,-y,1/2+z
loop_
_atom_site_type_symbol
_atom_site_label
_atom_site_fract_x
_atom_site_fract_y
_atom_site_fract_z
Si Si1 0.000000 0.107824 0.750000
Si Si2 0.417917 0.952464 0.500000
Si Si3 0.140348 0.274314 0.331990
Si Si4 0.644306 0.542460 0.667363
Si Si5 0.500000 0.114640 0.250000
Si Si6 0.360640 0.353289 0.663868
Si Si7 0.901435 0.955520 0.000000
Si Si8 0.243564 0.173564 0.337586
O O1 0.935053 0.075308 0.633751
O O2 0.885402 0.140569 0.814724
O O3 0.459704 0.920163 0.372221
O O4 0.258739 0.965513 0.500000
O O5 0.500000 0.000000 0.500000
O O6 0.117061 0.273018 0.500000
O O7 0.248747 0.314759 0.302444
O O8 0.204948 0.224943 0.287534
O O9 0.000000 0.281165 0.250000
O O10 0.715182 0.500000 0.750000
O O11 0.500000 0.545722 0.750000
O O12 0.631100 0.533521 0.500000
O O13 0.699003 0.594660 0.683864
O O14 0.371970 0.148172 0.272215
O O15 0.500000 0.347866 0.750000
O O16 0.394281 0.349409 0.500000
O O17 0.000000 0.000000 0.000000
O O18 0.273222 0.177701 0.500000
#
# Coordination Sequence:
#
# PCOD9394735 Si02
#       8
#     4   4   8   8   4   8   4   8
#     4  12  23  42  66  88 116 148 193 234 278 332
#     4  12  28  44  64  90 122 156 190 230 285 340
#     4  10  22  40  59  85 116 152 190 236 287 341
#     4   9  15  25  44  73 106 147 189 237 287 336
#     4  12  25  44  64  90 120 152 187 232 286 336
#     4   9  19  34  53  80 118 152 192 240 290 343
#     4  12  28  42  64  92 118 154 192 232 277 334
#     4  11  23  41  65  90 116 149 189 238 282 335
#
# _framework density 17.563590000000001
#
# number of rings (size 3 to 8) (size 9 to 14) (size 15 to 20)
#    0.000    1.500    4.167    1.500    3.500    2.667 
#    1.500    0.000    0.000    0.500    0.000    3.500 
#    0.000    0.000    0.000    0.000    0.000    0.000 
#
# Total GULP energy -267636.914688 kJ/mol
# GULP energy per Si atom -5575.769056 kJ/mol
# Density = 1.752361 g / cm^3
# Si number density = 17.563590 Si / 1000 Ang^3
#
#
#
# Elastic Constant Matrix: (Units=GPa)
#
#
# Indices 1 2 3 4 5 6 
#
# 1 126.3097 84.4535 45.1026 0.0000 0.0000 0.0000
# 2 84.4535 178.7400 58.4730 0.0000 0.0000 0.0000
# 3 45.1026 58.4730 89.4323 0.0000 0.0000 0.0000
# 4 0.0000 0.0000 0.0000 -2.2016 0.0000 0.0000
# 5 0.0000 0.0000 0.0000 0.0000 20.3015 0.0000
# 6 0.0000 0.0000 0.0000 0.0000 0.0000 -33.5290
#
#
#
# Elastic Compliance Matrix: (Units=1/GPa)
#
#
# Indices 1 2 3 4 5 6 
#
# 1 0.012186 -0.004767 -0.003029 0.000000 0.000000 0.000000
# 2 -0.004767 0.008982 -0.003468 0.000000 0.000000 0.000000
# 3 -0.003029 -0.003468 0.014977 0.000000 0.000000 0.000000
# 4 0.000000 0.000000 0.000000 -0.454207 0.000000 0.000000
# 5 0.000000 0.000000 0.000000 0.000000 0.049258 0.000000
# 6 0.000000 0.000000 0.000000 0.000000 0.000000 -0.029825
#
#
# Mechanical properties :
#
#
# Convention : Reuss Voigt Hill
#
# Bulk Modulus (GPa) = 73.44245 85.61559 79.52902
# Shear Modulus (GPa) = -13.45666 10.67770 -1.38948
#
# Velocity S-wave (km/s) = -2.77098 2.46833 -0.89041
# Velocity P-wave (km/s) = 5.62745 7.54821 6.65746
#
# Compressibility (1/GPa) = 0.01361610
#
# Stress axis : x y z
#
# Youngs Moduli (GPa) = 82.06254 111.33770 66.76945
#
# Poissons Ratio (x) = 0.53073 0.20224
# Poissons Ratio (y) = 0.39118 0.23158
# Poissons Ratio (z) = 0.24856 0.38617
#
# Static dielectric constant tensor:
#      x y z
#    x 1.580480 0.000000 0.000000 
#    y 0.000000 1.625800 0.000000 
#    z 0.000000 0.000000 1.595390 
# 
# From -- ./inp_files/2189.got.cif
#   From: 2010.05.17/outbox.cif.g08.bks.cpg/sg49_2_cif.got.tgz:2189.got - 2010.06.03 21:02:19.
