data_PCOD9394855
_publ_section_title
;
Structure prediction by ZEFSAII (Michael W. Deem and Ramdas Pophale) SiO2 
 PCOD9394855
Probable space group: P C C M
;
_chemical_formula_sum "Si O2"
_cell_formula_units_Z 58
_cell_length_a 18.767826
_cell_length_b 17.383015
_cell_length_c 8.752675
_cell_angle_alpha 90.000000
_cell_angle_beta 90.000000
_cell_angle_gamma 90.000000
_cell_volume 2855.484953
_symmetry_space_group_name_H-M "P C C M"
_symmetry_group_IT_number 49
_symmetry_cell_setting 'orthorhombic'
loop_
_space_group_symop_operation_xyz
x,y,z
-x,-y,z
x,-y,1/2-z
-x,y,1/2-z
-x,-y,-z
x,y,-z
-x,y,1/2+z
x,-y,1/2+z
loop_
_atom_site_type_symbol
_atom_site_label
_atom_site_fract_x
_atom_site_fract_y
_atom_site_fract_z
Si Si1 0.874881 0.877897 0.679524
Si Si2 0.173828 0.582994 0.674899
Si Si3 0.692079 0.688941 0.823409
Si Si4 0.719933 0.150141 0.183251
Si Si5 0.923462 0.287988 0.182395
Si Si6 0.000000 0.000000 0.750000
Si Si7 0.579271 0.581069 0.683054
Si Si8 0.426801 0.913879 0.317156
O O1 0.863933 0.866987 0.500000
O O2 0.793500 0.892641 0.736183
O O3 0.899313 0.795727 0.744935
O O4 0.939669 0.938797 0.690804
O O5 0.172070 0.500000 0.750000
O O6 0.148411 0.578890 0.500000
O O7 0.252341 0.619018 0.674383
O O8 0.127882 0.644365 0.767115
O O9 0.725343 0.760433 0.731553
O O10 0.623374 0.654195 0.741144
O O11 0.678008 0.711735 0.000000
O O12 0.647226 0.122894 0.262579
O O13 0.711905 0.142146 0.000000
O O14 0.000000 0.304759 0.250000
O O15 0.926788 0.283409 0.000000
O O16 0.608504 0.500000 0.750000
O O17 0.500000 0.587327 0.750000
O O18 0.578587 0.577060 0.500000
O O19 0.500000 0.877608 0.250000
O O20 0.430963 0.915051 0.500000
O O21 0.424916 0.000000 0.250000
#
# Coordination Sequence:
#
# PCOD9394855 Si02
#       8
#     8   8   8   8   8   2   8   8
#     4  10  23  41  64  96 136 177 220 268 328 392
#     4  11  24  41  64  94 125 166 214 267 325 391
#     4  11  23  40  62  92 125 165 215 267 325 390
#     4  11  23  42  65  95 132 175 220 271 330 391
#     4  11  22  42  66  93 129 171 213 266 325 385
#     4  12  22  44  68 106 136 180 222 268 326 396
#     4  11  22  38  60  88 125 169 215 269 325 385
#     4  11  23  43  68  98 131 173 218 271 331 396
#
# _framework density 20.311786999999999
#
# number of rings (size 3 to 8) (size 9 to 14) (size 15 to 20)
#    0.000    1.103    2.069    5.586    0.966    3.586 
#    0.000    6.207    0.000    0.000    0.000    0.000 
#    0.000    0.000    0.000    0.000    0.000    0.000 
#
# Total GULP energy -323598.456304 kJ/mol
# GULP energy per Si atom -5579.283729 kJ/mol
# Density = 2.026556 g / cm^3
# Si number density = 20.311787 Si / 1000 Ang^3
#
#
#
# Elastic Constant Matrix: (Units=GPa)
#
#
# Indices 1 2 3 4 5 6 
#
# 1 132.0877 28.9983 43.9020 0.0000 0.0000 0.0000
# 2 28.9983 70.2269 14.0724 0.0000 0.0000 0.0000
# 3 43.9020 14.0724 121.4444 0.0000 0.0000 0.0000
# 4 0.0000 0.0000 0.0000 2.9662 0.0000 0.0000
# 5 0.0000 0.0000 0.0000 0.0000 14.3261 0.0000
# 6 0.0000 0.0000 0.0000 0.0000 0.0000 52.3461
#
#
#
# Elastic Compliance Matrix: (Units=1/GPa)
#
#
# Indices 1 2 3 4 5 6 
#
# 1 0.009269 -0.003231 -0.002976 0.000000 0.000000 0.000000
# 2 -0.003231 0.015704 -0.000652 0.000000 0.000000 0.000000
# 3 -0.002976 -0.000652 0.009386 0.000000 0.000000 0.000000
# 4 0.000000 0.000000 0.000000 0.337137 0.000000 0.000000
# 5 0.000000 0.000000 0.000000 0.000000 0.069803 0.000000
# 6 0.000000 0.000000 0.000000 0.000000 0.000000 0.019104
#
#
# Mechanical properties :
#
#
# Convention : Reuss Voigt Hill
#
# Bulk Modulus (GPa) = 48.44747 55.30048 51.87398
# Shear Modulus (GPa) = 10.39498 29.71343 20.05421
#
# Velocity S-wave (km/s) = 2.26469 3.82889 3.14557
# Velocity P-wave (km/s) = 5.54456 6.84340 6.22793
#
# Compressibility (1/GPa) = 0.02064091
#
# Stress axis : x y z
#
# Youngs Moduli (GPa) = 107.88224 63.67662 106.54476
#
# Poissons Ratio (x) = 0.20575 0.31713
# Poissons Ratio (y) = 0.34858 0.06944
# Poissons Ratio (z) = 0.32111 0.04150
#
# Static dielectric constant tensor:
#      x y z
#    x 1.762270 0.000000 0.000000 
#    y 0.000000 1.729310 0.000000 
#    z 0.000000 0.000000 1.698570 
# 
# From -- ./inp_files/5075.got.cif
#   From: 2010.05.17/outbox.cif.g08.bks.cpg/sg49_3_cif.got.tgz:5075.got - 2010.06.03 21:02:19.
