data_PCOD9394759
_publ_section_title
;
Structure prediction by ZEFSAII (Michael W. Deem and Ramdas Pophale) SiO2 
 PCOD9394759
Probable space group: P C C M
;
_chemical_formula_sum "Si O2"
_cell_formula_units_Z 32
_cell_length_a 4.873011
_cell_length_b 14.844174
_cell_length_c 18.654803
_cell_angle_alpha 90.000000
_cell_angle_beta 90.000000
_cell_angle_gamma 90.000000
_cell_volume 1349.410531
_symmetry_space_group_name_H-M "P C C M"
_symmetry_group_IT_number 49
_symmetry_cell_setting 'orthorhombic'
loop_
_space_group_symop_operation_xyz
x,y,z
-x,-y,z
x,-y,1/2-z
-x,y,1/2-z
-x,-y,-z
x,y,-z
-x,y,1/2+z
x,-y,1/2+z
loop_
_atom_site_type_symbol
_atom_site_label
_atom_site_fract_x
_atom_site_fract_y
_atom_site_fract_z
Si Si1 0.664815 0.799457 0.118568
Si Si2 0.500000 0.307849 0.750000
Si Si3 0.342012 0.320814 0.500000
Si Si4 0.827921 0.085634 0.084440
Si Si5 0.755749 0.565184 0.366397
O O1 0.673879 0.753858 0.195908
O O2 0.959770 0.831730 0.091559
O O3 0.455315 0.884817 0.120178
O O4 0.525017 0.731926 0.062348
O O5 0.319949 0.371036 0.699395
O O6 0.180801 0.376645 0.436512
O O7 0.768724 0.070887 0.000000
O O8 0.000000 0.000000 0.111471
O O9 0.500000 0.500000 0.384684
O O10 0.000000 0.500000 0.346573
#
# Coordination Sequence:
#
# PCOD9394759 Si02
#       5
#     8   4   4   8   8
#     4  11  23  42  66  98 136 175 223 270 334 392
#     4  10  27  44  67  96 136 180 218 274 333 410
#     4  10  22  40  67  98 128 168 218 282 323 380
#     4  11  22  40  68 100 133 173 222 277 331 389
#     4  11  25  43  67  94 129 169 221 270 333 389
#
# _framework density 23.714058999999999
#
# number of rings (size 3 to 8) (size 9 to 14) (size 15 to 20)
#    0.000    1.250    2.500    1.875    0.000   17.000 
#    0.000    3.750    0.000    1.500    0.000    0.000 
#    0.000    0.000    0.000    0.000    0.000    0.000 
#
# Total GULP energy -178333.913173 kJ/mol
# GULP energy per Si atom -5572.934787 kJ/mol
# Density = 2.366008 g / cm^3
# Si number density = 23.714059 Si / 1000 Ang^3
#
#
#
# Elastic Constant Matrix: (Units=GPa)
#
#
# Indices 1 2 3 4 5 6 
#
# 1 96.5295 20.9187 2.8304 0.0000 0.0000 0.0000
# 2 20.9187 73.6271 37.0150 0.0000 0.0000 0.0000
# 3 2.8304 37.0150 157.0077 0.0000 0.0000 0.0000
# 4 0.0000 0.0000 0.0000 47.3903 0.0000 0.0000
# 5 0.0000 0.0000 0.0000 0.0000 11.1094 0.0000
# 6 0.0000 0.0000 0.0000 0.0000 0.0000 37.7903
#
#
#
# Elastic Compliance Matrix: (Units=1/GPa)
#
#
# Indices 1 2 3 4 5 6 
#
# 1 0.011091 -0.003461 0.000616 0.000000 0.000000 0.000000
# 2 -0.003461 0.016488 -0.003825 0.000000 0.000000 0.000000
# 3 0.000616 -0.003825 0.007260 0.000000 0.000000 0.000000
# 4 0.000000 0.000000 0.000000 0.021101 0.000000 0.000000
# 5 0.000000 0.000000 0.000000 0.000000 0.090014 0.000000
# 6 0.000000 0.000000 0.000000 0.000000 0.000000 0.026462
#
#
# Mechanical properties :
#
#
# Convention : Reuss Voigt Hill
#
# Bulk Modulus (GPa) = 46.51186 49.85472 48.18329
# Shear Modulus (GPa) = 25.91715 37.01801 31.46758
#
# Velocity S-wave (km/s) = 3.30949 3.95526 3.64670
# Velocity P-wave (km/s) = 5.85319 6.47516 6.17201
#
# Compressibility (1/GPa) = 0.02149989
#
# Stress axis : x y z
#
# Youngs Moduli (GPa) = 90.15931 60.64979 137.74670
#
# Poissons Ratio (x) = 0.20991 -0.08485
# Poissons Ratio (y) = 0.31204 0.52684
# Poissons Ratio (z) = -0.05554 0.23197
#
# Static dielectric constant tensor:
#      x y z
#    x 1.902910 0.000000 0.000000 
#    y 0.000000 2.001860 0.000000 
#    z 0.000000 0.000000 1.828090 
# 
# From -- ./inp_files/15156.got.cif
#   From: 2010.05.17/outbox.cif.g08.bks.cpg/sg49_8_cif.got.tgz:15156.got - 2010.06.03 21:02:19.
