data_PCOD9394621
_publ_section_title
;
Structure prediction by ZEFSAII (Michael W. Deem and Ramdas Pophale) SiO2 
 PCOD9394621
Probable space group: P C C M
;
_chemical_formula_sum "Si O2"
_cell_formula_units_Z 64
_cell_length_a 14.099115
_cell_length_b 11.814001
_cell_length_c 18.145287
_cell_angle_alpha 90.000000
_cell_angle_beta 90.000000
_cell_angle_gamma 90.000000
_cell_volume 3022.405270
_symmetry_space_group_name_H-M "P C C M"
_symmetry_group_IT_number 49
_symmetry_cell_setting 'orthorhombic'
loop_
_space_group_symop_operation_xyz
x,y,z
-x,-y,z
x,-y,1/2-z
-x,y,1/2-z
-x,-y,-z
x,y,-z
-x,y,1/2+z
x,-y,1/2+z
loop_
_atom_site_type_symbol
_atom_site_label
_atom_site_fract_x
_atom_site_fract_y
_atom_site_fract_z
Si Si1 0.829958 0.049022 0.168923
Si Si2 0.846217 0.662453 0.916060
Si Si3 0.674323 0.754371 0.339225
Si Si4 0.395766 0.615712 0.285256
Si Si5 0.024320 0.760971 0.163624
Si Si6 0.531641 0.748947 0.088813
Si Si7 0.176837 0.403607 0.589175
Si Si8 0.287677 0.867284 0.416347
O O1 0.744086 0.139423 0.163588
O O2 0.923413 0.119963 0.146017
O O3 0.846572 0.000000 0.250000
O O4 0.788256 0.945141 0.123418
O O5 0.826904 0.535611 0.888840
O O6 0.754116 0.740455 0.915838
O O7 0.926283 0.731978 0.874809
O O8 0.879354 0.649072 0.000000
O O9 0.663140 0.713744 0.254685
O O10 0.571892 0.771951 0.376822
O O11 0.726013 0.656094 0.386162
O O12 0.356047 0.500000 0.250000
O O13 0.500000 0.623468 0.250000
O O14 0.421714 0.639136 0.370117
O O15 0.096157 0.664554 0.133743
O O16 0.000000 0.756798 0.250000
O O17 0.603942 0.851494 0.108969
O O18 0.528518 0.737257 0.000000
O O19 0.164927 0.393558 0.500000
O O20 0.292185 0.908804 0.500000
#
# Coordination Sequence:
#
# PCOD9394621 Si02
#       8
#     8   8   8   8   8   8   8   8
#     4  11  24  43  64  89 125 166 213 276 332 394
#     4  10  22  41  63  90 127 167 206 259 331 397
#     4  10  22  40  64  96 126 176 223 271 330 401
#     4   9  19  36  56  87 126 164 211 265 318 383
#     4  11  24  41  64  94 122 161 212 266 330 404
#     4  10  21  40  64  93 132 174 223 275 330 392
#     4  10  22  41  64  96 132 167 212 269 333 404
#     4  10  23  40  61  92 126 167 215 268 324 386
#
# _framework density 21.175187999999999
#
# number of rings (size 3 to 8) (size 9 to 14) (size 15 to 20)
#    0.000    1.875    0.000    2.625    1.750    8.250 
#    0.000    8.125    0.000    0.000    0.000    0.000 
#    0.000    0.000    0.000    0.000    0.000    0.000 
#
# Total GULP energy -356965.512440 kJ/mol
# GULP energy per Si atom -5577.586132 kJ/mol
# Density = 2.112699 g / cm^3
# Si number density = 21.175188 Si / 1000 Ang^3
#
#
#
# Elastic Constant Matrix: (Units=GPa)
#
#
# Indices 1 2 3 4 5 6 
#
# 1 85.3431 31.4722 20.5557 0.0000 0.0000 0.0000
# 2 31.4722 105.7789 19.8760 0.0000 0.0000 0.0000
# 3 20.5557 19.8760 62.9422 0.0000 0.0000 0.0000
# 4 0.0000 0.0000 0.0000 32.1052 0.0000 0.0000
# 5 0.0000 0.0000 0.0000 0.0000 33.3411 0.0000
# 6 0.0000 0.0000 0.0000 0.0000 0.0000 10.6912
#
#
#
# Elastic Compliance Matrix: (Units=1/GPa)
#
#
# Indices 1 2 3 4 5 6 
#
# 1 0.013820 -0.003470 -0.003418 0.000000 0.000000 0.000000
# 2 -0.003470 0.010921 -0.002316 0.000000 0.000000 0.000000
# 3 -0.003418 -0.002316 0.017735 0.000000 0.000000 0.000000
# 4 0.000000 0.000000 0.000000 0.031148 0.000000 0.000000
# 5 0.000000 0.000000 0.000000 0.000000 0.029993 0.000000
# 6 0.000000 0.000000 0.000000 0.000000 0.000000 0.093534
#
#
# Mechanical properties :
#
#
# Convention : Reuss Voigt Hill
#
# Bulk Modulus (GPa) = 41.54503 44.20801 42.87652
# Shear Modulus (GPa) = 22.36330 27.37153 24.86742
#
# Velocity S-wave (km/s) = 3.25331 3.59921 3.43062
# Velocity P-wave (km/s) = 5.81156 6.18021 5.99872
#
# Compressibility (1/GPa) = 0.02407027
#
# Stress axis : x y z
#
# Youngs Moduli (GPa) = 72.35822 91.56587 56.38582
#
# Poissons Ratio (x) = 0.31770 0.19271
# Poissons Ratio (y) = 0.25106 0.13056
# Poissons Ratio (z) = 0.24730 0.21203
#
# Static dielectric constant tensor:
#      x y z
#    x 1.774010 0.000000 0.000000 
#    y 0.000000 1.816080 0.000000 
#    z 0.000000 0.000000 1.803460 
# 
# From -- ./inp_files/17985.got.cif
#   From: 2010.05.17/outbox.cif.g08.bks.cpg/sg49_9_cif.got.tgz:17985.got - 2010.06.03 21:02:19.
