data_PCOD9394211
_publ_section_title
;
Structure prediction by ZEFSAII (Michael W. Deem and Ramdas Pophale) SiO2 
 PCOD9394211
Probable space group: P C C M
;
_chemical_formula_sum "Si O2"
_cell_formula_units_Z 56
_cell_length_a 16.213824
_cell_length_b 9.446877
_cell_length_c 19.180446
_cell_angle_alpha 90.000000
_cell_angle_beta 90.000000
_cell_angle_gamma 90.000000
_cell_volume 2937.868934
_symmetry_space_group_name_H-M "P C C M"
_symmetry_group_IT_number 49
_symmetry_cell_setting 'orthorhombic'
loop_
_space_group_symop_operation_xyz
x,y,z
-x,-y,z
x,-y,1/2-z
-x,y,1/2-z
-x,-y,-z
x,y,-z
-x,y,1/2+z
x,-y,1/2+z
loop_
_atom_site_type_symbol
_atom_site_label
_atom_site_fract_x
_atom_site_fract_y
_atom_site_fract_z
Si Si1 0.267739 0.923672 0.077596
Si Si2 0.421524 0.083015 0.677145
Si Si3 0.582049 0.422543 0.175673
Si Si4 0.010616 0.831735 0.332993
Si Si5 0.266393 0.477133 0.917429
Si Si6 0.131597 0.684989 0.919189
Si Si7 0.828186 0.212623 0.419584
O O1 0.205854 0.054389 0.081636
O O2 0.339859 0.934388 0.132366
O O3 0.210125 0.788349 0.087191
O O4 0.304143 0.917844 0.000000
O O5 0.433196 0.253536 0.684506
O O6 0.500000 0.000000 0.644836
O O7 0.409938 0.000000 0.750000
O O8 0.500000 0.500000 0.146528
O O9 0.596473 0.500000 0.250000
O O10 0.660818 0.454825 0.127251
O O11 0.940187 0.741636 0.371054
O O12 0.000000 0.816019 0.250000
O O13 0.097626 0.781060 0.364756
O O14 0.000000 0.000000 0.349256
O O15 0.174732 0.537420 0.901229
O O16 0.250880 0.311620 0.904610
O O17 0.281270 0.502124 0.000000
O O18 0.104455 0.684517 0.000000
O O19 0.855336 0.244598 0.500000
#
# Coordination Sequence:
#
# PCOD9394211 Si02
#       7
#     8   8   8   8   8   8   8
#     4  10  21  38  63  90 118 156 202 250 298 350
#     4  11  24  40  62  90 123 159 201 248 296 357
#     4  11  24  41  62  87 123 164 200 241 300 364
#     4  11  23  37  58  89 121 154 199 248 297 353
#     4  10  23  42  63  89 120 157 201 248 301 358
#     4  10  20  39  62  84 116 156 196 241 299 355
#     4  10  22  39  61  89 120 156 199 246 300 360
#
# _framework density 19.061434999999999
#
# number of rings (size 3 to 8) (size 9 to 14) (size 15 to 20)
#    0.000    1.571    2.857    2.143    4.000    4.000 
#    0.000    2.857    0.000    0.000    0.000    0.000 
#    0.000    0.000    0.000    0.000    0.000    0.000 
#
# Total GULP energy -312381.537877 kJ/mol
# GULP energy per Si atom -5578.241748 kJ/mol
# Density = 1.901805 g / cm^3
# Si number density = 19.061435 Si / 1000 Ang^3
#
#
#
# Elastic Constant Matrix: (Units=GPa)
#
#
# Indices 1 2 3 4 5 6 
#
# 1 81.4021 21.4479 48.7495 0.0000 0.0000 0.0000
# 2 21.4479 68.5923 31.0838 0.0000 0.0000 0.0000
# 3 48.7495 31.0838 53.6522 0.0000 0.0000 0.0000
# 4 0.0000 0.0000 0.0000 18.0701 0.0000 0.0000
# 5 0.0000 0.0000 0.0000 0.0000 44.0847 0.0000
# 6 0.0000 0.0000 0.0000 0.0000 0.0000 21.9287
#
#
#
# Elastic Compliance Matrix: (Units=1/GPa)
#
#
# Indices 1 2 3 4 5 6 
#
# 1 0.027629 0.003712 -0.027254 0.000000 0.000000 0.000000
# 2 0.003712 0.020268 -0.015115 0.000000 0.000000 0.000000
# 3 -0.027254 -0.015115 0.052159 0.000000 0.000000 0.000000
# 4 0.000000 0.000000 0.000000 0.055340 0.000000 0.000000
# 5 0.000000 0.000000 0.000000 0.000000 0.022684 0.000000
# 6 0.000000 0.000000 0.000000 0.000000 0.000000 0.045602
#
#
# Mechanical properties :
#
#
# Convention : Reuss Voigt Hill
#
# Bulk Modulus (GPa) = 43.97381 45.13434 44.55408
# Shear Modulus (GPa) = 16.20343 23.64105 19.92224
#
# Velocity S-wave (km/s) = 2.91875 3.52555 3.23640
# Velocity P-wave (km/s) = 5.87183 6.34842 6.11477
#
# Compressibility (1/GPa) = 0.02274081
#
# Stress axis : x y z
#
# Youngs Moduli (GPa) = 36.19446 49.33926 19.17211
#
# Poissons Ratio (x) = -0.18313 0.52252
# Poissons Ratio (y) = -0.13434 0.28978
# Poissons Ratio (z) = 0.98645 0.74575
#
# Static dielectric constant tensor:
#      x y z
#    x 1.634920 0.000000 0.000000 
#    y 0.000000 1.676530 0.000000 
#    z 0.000000 0.000000 1.650720 
# 
# From -- ./inp_files/19880.got.cif
#   From: 2010.05.17/outbox.cif.g08.bks.cpg/sg49_10_cif.got.tgz:19880.got - 2010.06.03 21:02:19.
