data_PCOD9394687
_publ_section_title
;
Structure prediction by ZEFSAII (Michael W. Deem and Ramdas Pophale) SiO2 
 PCOD9394687
Probable space group: P C C M
;
_chemical_formula_sum "Si O2"
_cell_formula_units_Z 56
_cell_length_a 9.510897
_cell_length_b 14.066114
_cell_length_c 21.948536
_cell_angle_alpha 90.000000
_cell_angle_beta 90.000000
_cell_angle_gamma 90.000000
_cell_volume 2936.305028
_symmetry_space_group_name_H-M "P C C M"
_symmetry_group_IT_number 49
_symmetry_cell_setting 'orthorhombic'
loop_
_space_group_symop_operation_xyz
x,y,z
-x,-y,z
x,-y,1/2-z
-x,y,1/2-z
-x,-y,-z
x,y,-z
-x,y,1/2+z
x,-y,1/2+z
loop_
_atom_site_type_symbol
_atom_site_label
_atom_site_fract_x
_atom_site_fract_y
_atom_site_fract_z
Si Si1 0.670542 0.607605 0.817942
Si Si2 0.253832 0.806231 0.343066
Si Si3 0.029884 0.107101 0.602474
Si Si4 0.844822 0.891617 0.730017
Si Si5 0.246857 0.249550 0.433513
Si Si6 0.484240 0.112848 0.931381
Si Si7 0.333118 0.609139 0.826779
O O1 0.751340 0.693194 0.849743
O O2 0.502875 0.621345 0.828763
O O3 0.702562 0.501273 0.840101
O O4 0.700514 0.617565 0.745372
O O5 0.261647 0.831776 0.270857
O O6 0.385085 0.846251 0.379531
O O7 0.117305 0.857055 0.370503
O O8 0.143304 0.102396 0.657957
O O9 0.101682 0.190472 0.564767
O O10 0.000000 0.000000 0.578602
O O11 0.000000 0.856438 0.750000
O O12 0.829460 0.000000 0.750000
O O13 0.264908 0.298335 0.500000
O O14 0.370476 0.170646 0.429501
O O15 0.262678 0.319397 0.375236
O O16 0.500000 0.000000 0.922951
O O17 0.424285 0.126821 0.000000
#
# Coordination Sequence:
#
# PCOD9394687 Si02
#       7
#     8   8   8   8   8   8   8
#     4   9  18  34  63  87 111 147 185 242 303 351
#     4  11  19  34  59  83 109 146 196 237 279 354
#     4  11  21  36  57  81 119 157 195 236 282 353
#     4   9  16  31  51  78 114 147 179 228 292 331
#     4  11  23  39  59  83 118 160 199 241 291 346
#     4  10  22  38  53  76 115 152 188 236 282 335
#     4   9  18  38  58  85 118 145 187 241 299 355
#
# _framework density 19.071588999999999
#
# number of rings (size 3 to 8) (size 9 to 14) (size 15 to 20)
#    0.000    2.000    4.286    2.571    0.000    0.857 
#    0.000    2.857    0.000    2.571    0.000    0.000 
#    0.000    0.000    0.000    0.000    0.000    0.000 
#
# Total GULP energy -311863.670810 kJ/mol
# GULP energy per Si atom -5568.994122 kJ/mol
# Density = 1.902818 g / cm^3
# Si number density = 19.071589 Si / 1000 Ang^3
#
#
#
# Elastic Constant Matrix: (Units=GPa)
#
#
# Indices 1 2 3 4 5 6 
#
# 1 27.8136 13.9430 8.4944 0.0000 0.0000 0.0000
# 2 13.9430 110.4516 37.2258 0.0000 0.0000 0.0000
# 3 8.4944 37.2258 71.4022 0.0000 0.0000 0.0000
# 4 0.0000 0.0000 0.0000 20.2845 0.0000 0.0000
# 5 0.0000 0.0000 0.0000 0.0000 0.4739 0.0000
# 6 0.0000 0.0000 0.0000 0.0000 0.0000 24.2184
#
#
#
# Elastic Compliance Matrix: (Units=1/GPa)
#
#
# Indices 1 2 3 4 5 6 
#
# 1 0.038747 -0.004049 -0.002498 0.000000 0.000000 0.000000
# 2 -0.004049 0.011407 -0.005465 0.000000 0.000000 0.000000
# 3 -0.002498 -0.005465 0.017152 0.000000 0.000000 0.000000
# 4 0.000000 0.000000 0.000000 0.049299 0.000000 0.000000
# 5 0.000000 0.000000 0.000000 0.000000 2.110042 0.000000
# 6 0.000000 0.000000 0.000000 0.000000 0.000000 0.041291
#
#
# Mechanical properties :
#
#
# Convention : Reuss Voigt Hill
#
# Bulk Modulus (GPa) = 23.10571 36.55486 29.83029
# Shear Modulus (GPa) = 2.16789 18.99564 10.58177
#
# Velocity S-wave (km/s) = 1.06732 3.15940 2.35807
# Velocity P-wave (km/s) = 3.69601 5.70244 4.80512
#
# Compressibility (1/GPa) = 0.04327934
#
# Stress axis : x y z
#
# Youngs Moduli (GPa) = 25.80876 87.66634 58.30299
#
# Poissons Ratio (x) = 0.35497 0.14567
# Poissons Ratio (y) = 0.10450 0.31864
# Poissons Ratio (z) = 0.06448 0.47912
#
# Static dielectric constant tensor:
#      x y z
#    x 1.654810 0.000000 0.000000 
#    y 0.000000 1.671140 0.000000 
#    z 0.000000 0.000000 1.776190 
# 
# From -- ./inp_files/20534.got.cif
#   From: 2010.05.17/outbox.cif.g08.bks.cpg/sg49_11_cif.got.tgz:20534.got - 2010.06.03 21:02:19.
