data_PCOD9394419
_publ_section_title
;
Structure prediction by ZEFSAII (Michael W. Deem and Ramdas Pophale) SiO2 
 PCOD9394419
Probable space group: P C C M
;
_chemical_formula_sum "Si O2"
_cell_formula_units_Z 48
_cell_length_a 8.301921
_cell_length_b 17.940666
_cell_length_c 15.446260
_cell_angle_alpha 90.000000
_cell_angle_beta 90.000000
_cell_angle_gamma 90.000000
_cell_volume 2300.596731
_symmetry_space_group_name_H-M "P C C M"
_symmetry_group_IT_number 49
_symmetry_cell_setting 'orthorhombic'
loop_
_space_group_symop_operation_xyz
x,y,z
-x,-y,z
x,-y,1/2-z
-x,y,1/2-z
-x,-y,-z
x,y,-z
-x,y,1/2+z
x,-y,1/2+z
loop_
_atom_site_type_symbol
_atom_site_label
_atom_site_fract_x
_atom_site_fract_y
_atom_site_fract_z
Si Si1 0.718630 0.694894 0.600858
Si Si2 0.331074 0.301738 0.100866
Si Si3 0.302966 0.414309 0.249609
Si Si4 0.111908 0.157924 0.661343
Si Si5 0.679173 0.990585 0.351647
Si Si6 0.786167 0.851179 0.907327
O O1 0.772824 0.691094 0.500000
O O2 0.524148 0.695015 0.598608
O O3 0.760558 0.626451 0.664122
O O4 0.781590 0.768666 0.649724
O O5 0.262849 0.365260 0.164346
O O6 0.289212 0.219951 0.140137
O O7 0.273984 0.308084 0.000000
O O8 0.250743 0.500000 0.250000
O O9 0.500000 0.414134 0.250000
O O10 0.223097 0.086203 0.640089
O O11 0.000000 0.151059 0.750000
O O12 0.973515 0.164985 0.590635
O O13 0.500000 0.000000 0.391077
O O14 0.660085 0.000000 0.250000
O O15 0.773916 0.064315 0.377787
O O16 0.702672 0.849246 0.000000
#
# Coordination Sequence:
#
# PCOD9394419 Si02
#       6
#     8   8   8   8   8   8
#     4  10  21  37  59  87 122 159 200 245 300 361
#     4   9  19  37  60  88 120 159 201 248 300 358
#     4   9  18  33  57  90 122 154 196 247 301 356
#     4  12  23  38  59  84 115 155 200 247 300 353
#     4  11  24  40  59  83 114 153 196 242 293 349
#     4  11  23  38  59  85 115 152 196 245 295 346
#
# _framework density 20.864153999999999
#
# number of rings (size 3 to 8) (size 9 to 14) (size 15 to 20)
#    0.000    1.667    1.667    3.000    0.000    3.000 
#    0.000    3.333    0.000    4.500    0.000    7.000 
#    0.000    0.000    0.000    0.000    0.000    0.000 
#
# Total GULP energy -267267.452174 kJ/mol
# GULP energy per Si atom -5568.071920 kJ/mol
# Density = 2.081667 g / cm^3
# Si number density = 20.864154 Si / 1000 Ang^3
#
#
#
# Elastic Constant Matrix: (Units=GPa)
#
#
# Indices 1 2 3 4 5 6 
#
# 1 33.8683 24.4146 15.7505 0.0000 0.0000 0.0000
# 2 24.4146 210.4733 71.6873 0.0000 0.0000 0.0000
# 3 15.7505 71.6873 120.9538 0.0000 0.0000 0.0000
# 4 0.0000 0.0000 0.0000 -60.5971 0.0000 0.0000
# 5 0.0000 0.0000 0.0000 0.0000 9.9908 0.0000
# 6 0.0000 0.0000 0.0000 0.0000 0.0000 -41.4652
#
#
#
# Elastic Compliance Matrix: (Units=1/GPa)
#
#
# Indices 1 2 3 4 5 6 
#
# 1 0.032826 -0.002947 -0.002528 0.000000 0.000000 0.000000
# 2 -0.002947 0.006217 -0.003301 0.000000 0.000000 0.000000
# 3 -0.002528 -0.003301 0.010553 0.000000 0.000000 0.000000
# 4 0.000000 0.000000 0.000000 -0.016502 0.000000 0.000000
# 5 0.000000 0.000000 0.000000 0.000000 0.100092 0.000000
# 6 0.000000 0.000000 0.000000 0.000000 0.000000 -0.024117
#
#
# Mechanical properties :
#
#
# Convention : Reuss Voigt Hill
#
# Bulk Modulus (GPa) = 31.20638 65.44448 48.32543
# Shear Modulus (GPa) = 36.41556 -1.51811 17.44873
#
# Velocity S-wave (km/s) = 4.18229 -0.85393 2.89503
# Velocity P-wave (km/s) = 6.18963 5.51931 5.86405
#
# Compressibility (1/GPa) = 0.03204473
#
# Stress axis : x y z
#
# Youngs Moduli (GPa) = 30.46365 160.83865 94.75594
#
# Poissons Ratio (x) = 0.47394 0.23956
# Poissons Ratio (y) = 0.08977 0.31281
# Poissons Ratio (z) = 0.07702 0.53097
#
# Static dielectric constant tensor:
#      x y z
#    x 1.786520 0.000000 0.000000 
#    y 0.000000 1.296330 0.000000 
#    z 0.000000 0.000000 1.863880 
# 
# From -- ./inp_files/16339.got.cif
#   From: 2010.05.17/outbox.cif.g08.bks.cpg/sg49_9_cif.got.tgz:16339.got - 2010.06.03 21:02:19.
