data_PCOD9394685
_publ_section_title
;
Structure prediction by ZEFSAII (Michael W. Deem and Ramdas Pophale) SiO2 
 PCOD9394685
Probable space group: P C C M
;
_chemical_formula_sum "Si O2"
_cell_formula_units_Z 64
_cell_length_a 20.682086
_cell_length_b 10.105700
_cell_length_c 15.678424
_cell_angle_alpha 90.000000
_cell_angle_beta 90.000000
_cell_angle_gamma 90.000000
_cell_volume 3276.899683
_symmetry_space_group_name_H-M "P C C M"
_symmetry_group_IT_number 49
_symmetry_cell_setting 'orthorhombic'
loop_
_space_group_symop_operation_xyz
x,y,z
-x,-y,z
x,-y,1/2-z
-x,y,1/2-z
-x,-y,-z
x,y,-z
-x,y,1/2+z
x,-y,1/2+z
loop_
_atom_site_type_symbol
_atom_site_label
_atom_site_fract_x
_atom_site_fract_y
_atom_site_fract_z
Si Si1 0.926558 0.345936 0.768636
Si Si2 0.503034 0.152381 0.851845
Si Si3 0.171659 0.704479 0.903411
Si Si4 0.648013 0.794146 0.599907
Si Si5 0.622444 0.685200 0.904450
Si Si6 0.283236 0.456543 0.340130
Si Si7 0.172253 0.859386 0.737653
Si Si8 0.720435 0.930377 0.902476
O O1 0.920210 0.500000 0.750000
O O2 0.899135 0.326410 0.864910
O O3 0.877196 0.256578 0.713555
O O4 0.000000 0.306417 0.750000
O O5 0.500000 0.143631 0.750000
O O6 0.571895 0.202470 0.884232
O O7 0.445594 0.253765 0.874416
O O8 0.500000 0.000000 0.885247
O O9 0.220778 0.579820 0.897383
O O10 0.195756 0.809736 0.831579
O O11 0.170835 0.752865 0.000000
O O12 0.661496 0.762652 0.500000
O O13 0.677489 0.680292 0.658562
O O14 0.679832 0.936874 0.617639
O O15 0.663999 0.568550 0.861516
O O16 0.669452 0.811384 0.903951
O O17 0.611576 0.636221 0.000000
O O18 0.254796 0.500000 0.250000
O O19 0.227446 0.889816 0.668973
O O20 0.137397 0.000000 0.750000
O O21 0.746708 0.943785 0.000000
#
# Coordination Sequence:
#
# PCOD9394685 Si02
#       8
#     8   8   8   8   8   8   8   8
#     4   9  21  43  67  94 135 176 225 270 327 392
#     4  11  23  40  59  85 118 163 213 264 323 394
#     4  10  22  41  68  97 134 179 220 263 334 404
#     4  11  23  41  65  88 125 169 214 267 333 400
#     4  11  23  39  61  88 121 157 209 266 317 381
#     4  12  24  40  62  93 127 161 208 268 328 383
#     4  10  22  37  64  96 131 174 214 275 328 385
#     4  10  22  39  61  96 130 167 216 270 331 395
#
# _framework density 19.530656
#
# number of rings (size 3 to 8) (size 9 to 14) (size 15 to 20)
#    0.750    0.750    1.250    4.125    1.750    3.750 
#    0.000    4.375    0.000    0.750    0.000    0.000 
#    0.000    0.000    0.000    0.000    0.000    0.000 
#
# Total GULP energy -356583.195372 kJ/mol
# GULP energy per Si atom -5571.612428 kJ/mol
# Density = 1.948620 g / cm^3
# Si number density = 19.530656 Si / 1000 Ang^3
#
#
#
# Elastic Constant Matrix: (Units=GPa)
#
#
# Indices 1 2 3 4 5 6 
#
# 1 126.9959 44.2760 43.6081 0.0000 0.0000 0.0000
# 2 44.2760 106.6928 32.1322 0.0000 0.0000 0.0000
# 3 43.6081 32.1322 105.8212 0.0000 0.0000 0.0000
# 4 0.0000 0.0000 0.0000 -52.5136 0.0000 0.0000
# 5 0.0000 0.0000 0.0000 0.0000 10.6008 0.0000
# 6 0.0000 0.0000 0.0000 0.0000 0.0000 32.1041
#
#
#
# Elastic Compliance Matrix: (Units=1/GPa)
#
#
# Indices 1 2 3 4 5 6 
#
# 1 0.010092 -0.003231 -0.003178 0.000000 0.000000 0.000000
# 2 -0.003231 0.011350 -0.002115 0.000000 0.000000 0.000000
# 3 -0.003178 -0.002115 0.011402 0.000000 0.000000 0.000000
# 4 0.000000 0.000000 0.000000 -0.019043 0.000000 0.000000
# 5 0.000000 0.000000 0.000000 0.000000 0.094332 0.000000
# 6 0.000000 0.000000 0.000000 0.000000 0.000000 0.031149
#
#
# Mechanical properties :
#
#
# Convention : Reuss Voigt Hill
#
# Bulk Modulus (GPa) = 63.30514 64.39361 63.84938
# Shear Modulus (GPa) = 30.94150 12.67117 21.80634
#
# Velocity S-wave (km/s) = 3.98459 2.54989 3.34506
# Velocity P-wave (km/s) = 7.32481 6.45843 6.90522
#
# Compressibility (1/GPa) = 0.01579651
#
# Stress axis : x y z
#
# Youngs Moduli (GPa) = 99.08945 88.10187 87.70663
#
# Poissons Ratio (x) = 0.28465 0.27871
# Poissons Ratio (y) = 0.32016 0.18551
# Poissons Ratio (z) = 0.31488 0.18634
#
# Static dielectric constant tensor:
#      x y z
#    x 1.725940 0.000000 0.000000 
#    y 0.000000 1.712250 0.000000 
#    z 0.000000 0.000000 1.716610 
# 
# From -- ./inp_files/14522.got.cif
#   From: 2010.05.17/outbox.cif.g08.bks.cpg/sg49_8_cif.got.tgz:14522.got - 2010.06.03 21:02:19.
