data_PCOD9394657
_publ_section_title
;
Structure prediction by ZEFSAII (Michael W. Deem and Ramdas Pophale) SiO2 
 PCOD9394657
Probable space group: P C C M
;
_chemical_formula_sum "Si O2"
_cell_formula_units_Z 64
_cell_length_a 11.832545
_cell_length_b 8.758996
_cell_length_c 28.514416
_cell_angle_alpha 90.000000
_cell_angle_beta 90.000000
_cell_angle_gamma 90.000000
_cell_volume 2955.268700
_symmetry_space_group_name_H-M "P C C M"
_symmetry_group_IT_number 49
_symmetry_cell_setting 'orthorhombic'
loop_
_space_group_symop_operation_xyz
x,y,z
-x,-y,z
x,-y,1/2-z
-x,y,1/2-z
-x,-y,-z
x,y,-z
-x,y,1/2+z
x,-y,1/2+z
loop_
_atom_site_type_symbol
_atom_site_label
_atom_site_fract_x
_atom_site_fract_y
_atom_site_fract_z
Si Si1 0.719337 0.662972 0.693567
Si Si2 0.031146 0.179532 0.895257
Si Si3 0.181146 0.289376 0.447358
Si Si4 0.019591 0.319087 0.696886
Si Si5 0.408113 0.362714 0.401234
Si Si6 0.759474 0.928030 0.947294
Si Si7 0.616312 0.669364 0.781322
Si Si8 0.568234 0.141863 0.625409
O O1 0.848705 0.696624 0.683477
O O2 0.641149 0.690503 0.649108
O O3 0.691675 0.750058 0.741808
O O4 0.684024 0.485882 0.704465
O O5 0.130973 0.171319 0.933106
O O6 0.929929 0.285269 0.915146
O O7 0.056153 0.242153 0.843255
O O8 0.000000 0.000000 0.889818
O O9 0.152505 0.336762 0.500000
O O10 0.293345 0.380508 0.430590
O O11 0.213414 0.108948 0.448017
O O12 0.000000 0.500000 0.697385
O O13 0.000000 0.262724 0.750000
O O14 0.500000 0.500000 0.398666
O O15 0.487413 0.221219 0.413579
O O16 0.676541 0.903482 0.903989
O O17 0.720659 0.887665 0.000000
O O18 0.500000 0.651221 0.750000
O O19 0.596446 0.752088 0.830238
O O20 0.500000 0.000000 0.644942
#
# Coordination Sequence:
#
# PCOD9394657 Si02
#       8
#     8   8   8   8   8   8   8   8
#     4  11  21  39  64  88 126 173 215 250 316 386
#     4  10  22  42  70  95 126 164 218 267 323 387
#     4  10  21  42  68  94 123 166 218 272 323 388
#     4  11  24  39  63  98 130 166 210 260 320 383
#     4  12  22  40  64  93 127 175 213 261 321 386
#     4  10  23  42  68  94 126 172 215 264 330 396
#     4  11  21  37  62  88 121 169 216 255 307 391
#     4  12  25  39  62  96 131 164 215 266 326 379
#
# _framework density 21.656237999999998
#
# number of rings (size 3 to 8) (size 9 to 14) (size 15 to 20)
#    0.000    1.125    5.000    2.625    3.500    3.000 
#    0.000    0.000    2.750    0.750    0.000    0.000 
#    0.000    0.000    0.000    0.000    0.000    0.000 
#
# Total GULP energy -356522.186909 kJ/mol
# GULP energy per Si atom -5570.659170 kJ/mol
# Density = 2.160695 g / cm^3
# Si number density = 21.656238 Si / 1000 Ang^3
#
#
#
# Elastic Constant Matrix: (Units=GPa)
#
#
# Indices 1 2 3 4 5 6 
#
# 1 67.7480 4.3246 17.3337 0.0000 0.0000 0.0000
# 2 4.3246 24.4288 9.6309 0.0000 0.0000 0.0000
# 3 17.3337 9.6309 135.2735 0.0000 0.0000 0.0000
# 4 0.0000 0.0000 0.0000 7.4261 0.0000 0.0000
# 5 0.0000 0.0000 0.0000 0.0000 28.1092 0.0000
# 6 0.0000 0.0000 0.0000 0.0000 0.0000 15.3894
#
#
#
# Elastic Compliance Matrix: (Units=1/GPa)
#
#
# Indices 1 2 3 4 5 6 
#
# 1 0.015355 -0.001999 -0.001825 0.000000 0.000000 0.000000
# 2 -0.001999 0.042378 -0.002761 0.000000 0.000000 0.000000
# 3 -0.001825 -0.002761 0.007823 0.000000 0.000000 0.000000
# 4 0.000000 0.000000 0.000000 0.134660 0.000000 0.000000
# 5 0.000000 0.000000 0.000000 0.000000 0.035576 0.000000
# 6 0.000000 0.000000 0.000000 0.000000 0.000000 0.064980
#
#
# Mechanical properties :
#
#
# Convention : Reuss Voigt Hill
#
# Bulk Modulus (GPa) = 19.08917 32.22542 25.65729
# Shear Modulus (GPa) = 15.08737 23.26235 19.17486
#
# Velocity S-wave (km/s) = 2.64232 3.28100 2.97883
# Velocity P-wave (km/s) = 4.25945 5.40981 4.86872
#
# Compressibility (1/GPa) = 0.05238573
#
# Stress axis : x y z
#
# Youngs Moduli (GPa) = 65.12464 23.59736 127.82998
#
# Poissons Ratio (x) = 0.04716 0.23333
# Poissons Ratio (y) = 0.13016 0.35294
# Poissons Ratio (z) = 0.11887 0.06515
#
# Static dielectric constant tensor:
#      x y z
#    x 2.124020 0.000000 0.000000 
#    y 0.000000 1.914590 0.000000 
#    z 0.000000 0.000000 1.815120 
# 
# From -- ./inp_files/26699.got.cif
#   From: 2010.05.17/outbox.cif.g08.bks.cpg/sg49_14_cif.got.tgz:26699.got - 2010.06.03 21:02:19.
