data_PCOD9394515
_publ_section_title
;
Structure prediction by ZEFSAII (Michael W. Deem and Ramdas Pophale) SiO2 
 PCOD9394515
Probable space group: P C C M
;
_chemical_formula_sum "Si O2"
_cell_formula_units_Z 58
_cell_length_a 9.414257
_cell_length_b 16.593457
_cell_length_c 17.912473
_cell_angle_alpha 90.000000
_cell_angle_beta 90.000000
_cell_angle_gamma 90.000000
_cell_volume 2798.198201
_symmetry_space_group_name_H-M "P C C M"
_symmetry_group_IT_number 49
_symmetry_cell_setting 'orthorhombic'
loop_
_space_group_symop_operation_xyz
x,y,z
-x,-y,z
x,-y,1/2-z
-x,y,1/2-z
-x,-y,-z
x,y,-z
-x,y,1/2+z
x,-y,1/2+z
loop_
_atom_site_type_symbol
_atom_site_label
_atom_site_fract_x
_atom_site_fract_y
_atom_site_fract_z
Si Si1 0.541596 0.300123 0.164448
Si Si2 0.500000 0.000000 0.250000
Si Si3 0.959776 0.908154 0.411380
Si Si4 0.324825 0.421559 0.086850
Si Si5 0.881592 0.805901 0.807148
Si Si6 0.679365 0.140664 0.181263
Si Si7 0.958517 0.380770 0.332656
Si Si8 0.755108 0.400721 0.914002
O O1 0.500000 0.312913 0.250000
O O2 0.434967 0.354103 0.115050
O O3 0.566665 0.205628 0.149545
O O4 0.694176 0.337731 0.144998
O O5 0.400033 0.941445 0.201621
O O6 0.943808 0.901416 0.500000
O O7 0.813761 0.877295 0.372324
O O8 0.093004 0.855965 0.381673
O O9 0.000000 0.000000 0.391685
O O10 0.188729 0.413899 0.138911
O O11 0.342403 0.518817 0.090535
O O12 0.294228 0.404773 0.000000
O O13 0.739442 0.818984 0.759014
O O14 0.927927 0.715096 0.825945
O O15 0.000000 0.839221 0.750000
O O16 0.000000 0.407811 0.250000
O O17 0.081249 0.407333 0.389949
O O18 0.746450 0.373171 0.000000
#
# Coordination Sequence:
#
# PCOD9394515 Si02
#       8
#     8   2   8   8   8   8   8   8
#     4  12  24  42  65  93 128 166 226 280 324 385
#     4  12  24  40  68  88 122 176 216 264 316 408
#     4  10  21  38  62  94 128 160 204 268 339 404
#     4  11  25  42  61  91 134 179 222 271 332 403
#     4   9  19  37  61  90 121 157 207 266 322 399
#     4  11  23  41  66  94 128 171 220 265 331 403
#     4  11  22  38  64  95 128 167 218 281 337 381
#     4  11  24  42  64  92 130 179 227 270 332 402
#
# _framework density 20.727625
#
# number of rings (size 3 to 8) (size 9 to 14) (size 15 to 20)
#    0.000    1.241    0.690    6.621    0.000   10.759 
#    0.000    0.345    0.000    0.000    0.000    0.000 
#    0.000    0.000    0.000    0.000    0.000    0.000 
#
# Total GULP energy -323599.127801 kJ/mol
# GULP energy per Si atom -5579.295307 kJ/mol
# Density = 2.068045 g / cm^3
# Si number density = 20.727625 Si / 1000 Ang^3
#
#
#
# Elastic Constant Matrix: (Units=GPa)
#
#
# Indices 1 2 3 4 5 6 
#
# 1 66.0845 24.3621 17.2074 0.0000 0.0000 0.0000
# 2 24.3621 117.6097 47.2591 0.0000 0.0000 0.0000
# 3 17.2074 47.2591 93.3075 0.0000 0.0000 0.0000
# 4 0.0000 0.0000 0.0000 17.5289 0.0000 0.0000
# 5 0.0000 0.0000 0.0000 0.0000 78.9114 0.0000
# 6 0.0000 0.0000 0.0000 0.0000 0.0000 38.8788
#
#
#
# Elastic Compliance Matrix: (Units=1/GPa)
#
#
# Indices 1 2 3 4 5 6 
#
# 1 0.016584 -0.002770 -0.001655 0.000000 0.000000 0.000000
# 2 -0.002770 0.011138 -0.005130 0.000000 0.000000 0.000000
# 3 -0.001655 -0.005130 0.013621 0.000000 0.000000 0.000000
# 4 0.000000 0.000000 0.000000 0.057049 0.000000 0.000000
# 5 0.000000 0.000000 0.000000 0.000000 0.012672 0.000000
# 6 0.000000 0.000000 0.000000 0.000000 0.000000 0.025721
#
#
# Mechanical properties :
#
#
# Convention : Reuss Voigt Hill
#
# Bulk Modulus (GPa) = 44.98109 50.51764 47.74937
# Shear Modulus (GPa) = 30.61699 39.60870 35.11284
#
# Velocity S-wave (km/s) = 3.84749 4.37614 4.12030
# Velocity P-wave (km/s) = 6.44094 7.06818 6.76184
#
# Compressibility (1/GPa) = 0.02223156
#
# Stress axis : x y z
#
# Youngs Moduli (GPa) = 60.29764 89.78202 73.41583
#
# Poissons Ratio (x) = 0.24871 0.12153
# Poissons Ratio (y) = 0.16703 0.37666
# Poissons Ratio (z) = 0.09981 0.46062
#
# Static dielectric constant tensor:
#      x y z
#    x 1.764280 0.000000 0.000000 
#    y 0.000000 1.802690 0.000000 
#    z 0.000000 0.000000 1.725020 
# 
# From -- ./inp_files/16495.got.cif
#   From: 2010.05.17/outbox.cif.g08.bks.cpg/sg49_9_cif.got.tgz:16495.got - 2010.06.03 21:02:19.
