data_PCOD9394223
_publ_section_title
;
Structure prediction by ZEFSAII (Michael W. Deem and Ramdas Pophale) SiO2 
 PCOD9394223
Probable space group: P C C M
;
_chemical_formula_sum "Si O2"
_cell_formula_units_Z 64
_cell_length_a 18.704641
_cell_length_b 7.964460
_cell_length_c 21.464195
_cell_angle_alpha 90.000000
_cell_angle_beta 90.000000
_cell_angle_gamma 90.000000
_cell_volume 3197.571893
_symmetry_space_group_name_H-M "P C C M"
_symmetry_group_IT_number 49
_symmetry_cell_setting 'orthorhombic'
loop_
_space_group_symop_operation_xyz
x,y,z
-x,-y,z
x,-y,1/2-z
-x,y,1/2-z
-x,-y,-z
x,y,-z
-x,y,1/2+z
x,-y,1/2+z
loop_
_atom_site_type_symbol
_atom_site_label
_atom_site_fract_x
_atom_site_fract_y
_atom_site_fract_z
Si Si1 0.682636 0.663743 0.926982
Si Si2 0.300708 0.403691 0.311459
Si Si3 0.821711 0.899677 0.071375
Si Si4 0.038711 0.318154 0.306927
Si Si5 0.537903 0.320019 0.192951
Si Si6 0.817511 0.132160 0.808053
Si Si7 0.477573 0.193749 0.932262
Si Si8 0.020447 0.195511 0.065926
O O1 0.692487 0.522105 0.873136
O O2 0.749537 0.791538 0.920366
O O3 0.606012 0.759959 0.919058
O O4 0.683985 0.603442 0.000000
O O5 0.272443 0.500000 0.250000
O O6 0.379761 0.343567 0.294056
O O7 0.253709 0.238460 0.319340
O O8 0.894150 0.789232 0.074083
O O9 0.830061 0.029519 0.127979
O O10 0.820453 0.970430 0.000000
O O11 0.121432 0.274084 0.296849
O O12 0.000000 0.500000 0.307036
O O13 0.000000 0.223033 0.250000
O O14 0.020600 0.258485 0.375128
O O15 0.500000 0.500000 0.190189
O O16 0.500000 0.224360 0.250000
O O17 0.524771 0.252417 0.124801
O O18 0.814812 0.000000 0.750000
O O19 0.500000 0.000000 0.937028
O O20 0.493949 0.272013 0.000000
O O21 0.999661 0.274804 0.000000
O O22 0.000000 0.000000 0.062444
#
# Coordination Sequence:
#
# PCOD9394223 Si02
#       8
#     8   8   8   8   8   8   8   8
#     4  10  22  41  64  93 131 173 213 266 329 388
#     4  12  25  42  65  90 128 169 216 267 328 393
#     4  10  22  41  64  91 127 166 210 260 319 385
#     4  11  26  42  64  95 127 161 209 267 322 381
#     4  11  21  42  63  89 121 164 213 270 326 381
#     4  12  27  43  66  96 129 172 217 266 326 391
#     4  10  22  39  63  93 127 166 215 270 324 385
#     4  10  20  39  66  91 120 165 211 255 312 381
#
# _framework density 20.015187000000001
#
# number of rings (size 3 to 8) (size 9 to 14) (size 15 to 20)
#    0.000    1.250    3.750    1.500    5.250    1.750 
#    0.000    0.000    0.000    0.000    0.000    0.000 
#    0.000    0.000    0.000    0.000    0.000    0.000 
#
# Total GULP energy -356515.984806 kJ/mol
# GULP energy per Si atom -5570.562263 kJ/mol
# Density = 1.996963 g / cm^3
# Si number density = 20.015187 Si / 1000 Ang^3
#
#
#
# Elastic Constant Matrix: (Units=GPa)
#
#
# Indices 1 2 3 4 5 6 
#
# 1 90.5512 22.5296 14.7652 0.0000 0.0000 0.0000
# 2 22.5296 63.7153 41.1165 0.0000 0.0000 0.0000
# 3 14.7652 41.1165 137.7730 0.0000 0.0000 0.0000
# 4 0.0000 0.0000 0.0000 23.9769 0.0000 0.0000
# 5 0.0000 0.0000 0.0000 0.0000 35.8240 0.0000
# 6 0.0000 0.0000 0.0000 0.0000 0.0000 9.8632
#
#
#
# Elastic Compliance Matrix: (Units=1/GPa)
#
#
# Indices 1 2 3 4 5 6 
#
# 1 0.012109 -0.004266 -0.000025 0.000000 0.000000 0.000000
# 2 -0.004266 0.020941 -0.005792 0.000000 0.000000 0.000000
# 3 -0.000025 -0.005792 0.008990 0.000000 0.000000 0.000000
# 4 0.000000 0.000000 0.000000 0.041707 0.000000 0.000000
# 5 0.000000 0.000000 0.000000 0.000000 0.027914 0.000000
# 6 0.000000 0.000000 0.000000 0.000000 0.000000 0.101387
#
#
# Mechanical properties :
#
#
# Convention : Reuss Voigt Hill
#
# Bulk Modulus (GPa) = 45.71656 49.87358 47.79507
# Shear Modulus (GPa) = 20.78965 28.17471 24.48218
#
# Velocity S-wave (km/s) = 3.22637 3.75596 3.50119
# Velocity P-wave (km/s) = 6.06381 6.61677 6.34632
#
# Compressibility (1/GPa) = 0.02187391
#
# Stress axis : x y z
#
# Youngs Moduli (GPa) = 82.58436 47.75294 111.23925
#
# Poissons Ratio (x) = 0.20370 0.00274
# Poissons Ratio (y) = 0.35228 0.64435
# Poissons Ratio (z) = 0.00204 0.27661
#
# Static dielectric constant tensor:
#      x y z
#    x 1.727780 0.000000 0.000000 
#    y 0.000000 1.722640 0.000000 
#    z 0.000000 0.000000 1.854430 
# 
# From -- ./inp_files/21098.got.cif
#   From: 2010.05.17/outbox.cif.g08.bks.cpg/sg49_11_cif.got.tgz:21098.got - 2010.06.03 21:02:19.
