data_PCOD9394359
_publ_section_title
;
Structure prediction by ZEFSAII (Michael W. Deem and Ramdas Pophale) SiO2 
 PCOD9394359
Probable space group: P C C M
;
_chemical_formula_sum "Si O2"
_cell_formula_units_Z 48
_cell_length_a 11.677216
_cell_length_b 14.445622
_cell_length_c 14.499556
_cell_angle_alpha 90.000000
_cell_angle_beta 90.000000
_cell_angle_gamma 90.000000
_cell_volume 2445.852505
_symmetry_space_group_name_H-M "P C C M"
_symmetry_group_IT_number 49
_symmetry_cell_setting 'orthorhombic'
loop_
_space_group_symop_operation_xyz
x,y,z
-x,-y,z
x,-y,1/2-z
-x,y,1/2-z
-x,-y,-z
x,y,-z
-x,y,1/2+z
x,-y,1/2+z
loop_
_atom_site_type_symbol
_atom_site_label
_atom_site_fract_x
_atom_site_fract_y
_atom_site_fract_z
Si Si1 0.779978 0.355965 0.898245
Si Si2 0.127867 0.043638 0.608291
Si Si3 0.244466 0.430291 0.104845
Si Si4 0.188079 0.138140 0.802519
Si Si5 0.366562 0.711960 0.267447
Si Si6 0.970358 0.694834 0.146574
O O1 0.782602 0.463959 0.869338
O O2 0.701037 0.303905 0.827182
O O3 0.907406 0.313883 0.900661
O O4 0.730433 0.351262 0.000000
O O5 0.144226 0.073217 0.500000
O O6 0.152593 0.111934 0.695973
O O7 0.201628 0.953685 0.636910
O O8 0.000000 0.000000 0.615877
O O9 0.333007 0.376043 0.169363
O O10 0.125804 0.373376 0.108367
O O11 0.287108 0.429755 0.000000
O O12 0.303604 0.197784 0.807162
O O13 0.088994 0.204664 0.845110
O O14 0.500000 0.720705 0.250000
O O15 0.000000 0.664650 0.250000
#
# Coordination Sequence:
#
# PCOD9394359 Si02
#       6
#     8   8   8   8   8   8
#     4  11  23  37  58  88 120 157 202 253 306 359
#     4  10  21  36  63  95 126 155 180 228 299 371
#     4  10  22  38  58  86 120 158 202 253 308 362
#     4  10  21  40  59  89 126 152 196 241 291 364
#     4  11  25  42  61  83 115 165 214 258 297 339
#     4  11  19  34  59  91 124 158 188 240 302 371
#
# _framework density 19.625059
#
# number of rings (size 3 to 8) (size 9 to 14) (size 15 to 20)
#    0.000    1.500    3.333    3.500    0.000    8.000 
#    0.000    3.333    0.000    1.000    0.000    0.000 
#    0.000    0.000    0.000    0.000    0.000    0.000 
#
# Total GULP energy -267852.152419 kJ/mol
# GULP energy per Si atom -5580.253175 kJ/mol
# Density = 1.958039 g / cm^3
# Si number density = 19.625059 Si / 1000 Ang^3
#
#
#
# Elastic Constant Matrix: (Units=GPa)
#
#
# Indices 1 2 3 4 5 6 
#
# 1 114.2278 31.0971 -5.1321 0.0000 0.0000 0.0000
# 2 31.0971 90.1249 -3.5320 0.0000 0.0000 0.0000
# 3 -5.1321 -3.5320 48.4002 0.0000 0.0000 0.0000
# 4 0.0000 0.0000 0.0000 -13.2022 0.0000 0.0000
# 5 0.0000 0.0000 0.0000 0.0000 -60.9577 0.0000
# 6 0.0000 0.0000 0.0000 0.0000 0.0000 7.4849
#
#
#
# Elastic Compliance Matrix: (Units=1/GPa)
#
#
# Indices 1 2 3 4 5 6 
#
# 1 0.009692 -0.003313 0.000786 0.000000 0.000000 0.000000
# 2 -0.003313 0.012260 0.000543 0.000000 0.000000 0.000000
# 3 0.000786 0.000543 0.020784 0.000000 0.000000 0.000000
# 4 0.000000 0.000000 0.000000 -0.075745 0.000000 0.000000
# 5 0.000000 0.000000 0.000000 0.000000 -0.016405 0.000000
# 6 0.000000 0.000000 0.000000 0.000000 0.000000 0.133602
#
#
# Mechanical properties :
#
#
# Convention : Reuss Voigt Hill
#
# Bulk Modulus (GPa) = 25.79451 33.06877 29.43164
# Shear Modulus (GPa) = 49.46604 2.01966 25.74285
#
# Velocity S-wave (km/s) = 5.02596 1.01556 3.62572
# Velocity P-wave (km/s) = 6.84489 4.27341 5.70590
#
# Compressibility (1/GPa) = 0.03876794
#
# Stress axis : x y z
#
# Youngs Moduli (GPa) = 103.18057 81.56449 48.11381
#
# Poissons Ratio (x) = 0.27025 -0.03781
# Poissons Ratio (y) = 0.34187 -0.02614
# Poissons Ratio (z) = -0.08109 -0.04432
#
# Static dielectric constant tensor:
#      x y z
#    x 1.661990 0.000000 0.000000 
#    y 0.000000 1.731280 0.000000 
#    z 0.000000 0.000000 1.725770 
# 
# From -- ./inp_files/12800.got.cif
#   From: 2010.05.17/outbox.cif.g08.bks.cpg/sg49_7_cif.got.tgz:12800.got - 2010.06.03 21:02:19.
