data_PCOD9394502
_publ_section_title
;
Structure prediction by ZEFSAII (Michael W. Deem and Ramdas Pophale) SiO2 
 PCOD9394502
Probable space group: P C C M
;
_chemical_formula_sum "Si O2"
_cell_formula_units_Z 34
_cell_length_a 23.250980
_cell_length_b 7.686585
_cell_length_c 8.875430
_cell_angle_alpha 90.000000
_cell_angle_beta 90.000000
_cell_angle_gamma 90.000000
_cell_volume 1586.222478
_symmetry_space_group_name_H-M "P C C M"
_symmetry_group_IT_number 49
_symmetry_cell_setting 'orthorhombic'
loop_
_space_group_symop_operation_xyz
x,y,z
-x,-y,z
x,-y,1/2-z
-x,y,1/2-z
-x,-y,-z
x,y,-z
-x,y,1/2+z
x,-y,1/2+z
loop_
_atom_site_type_symbol
_atom_site_label
_atom_site_fract_x
_atom_site_fract_y
_atom_site_fract_z
Si Si1 0.000000 0.000000 0.250000
Si Si2 0.197766 0.193159 0.319934
Si Si3 0.322933 0.189089 0.319142
Si Si4 0.917791 0.676226 0.173614
Si Si5 0.442905 0.691970 0.319298
O O1 0.956115 0.854451 0.180208
O O2 0.193006 0.178959 0.500000
O O3 0.260799 0.276643 0.287955
O O4 0.142876 0.288885 0.253912
O O5 0.195533 0.000000 0.250000
O O6 0.331799 0.188527 0.500000
O O7 0.381030 0.246346 0.237707
O O8 0.313977 0.000000 0.250000
O O9 0.941340 0.500000 0.250000
O O10 0.908567 0.636431 0.000000
O O11 0.444561 0.500000 0.250000
O O12 0.500000 0.782728 0.250000
O O13 0.446248 0.692985 0.500000
#
# Coordination Sequence:
#
# PCOD9394502 Si02
#       5
#     2   8   8   8   8
#     4  12  28  48  76 104 138 184 226 280 342 394
#     4  10  21  40  67  96 131 172 216 268 333 394
#     4  10  21  38  61  92 126 164 210 262 319 385
#     4  12  27  46  72 104 140 180 230 279 335 404
#     4  11  22  38  59  84 118 162 210 264 324 387
#
# _framework density 21.434573
#
# number of rings (size 3 to 8) (size 9 to 14) (size 15 to 20)
#    0.000    1.176    1.176    5.647    0.000    8.000 
#    0.000    2.353    0.000    0.000    0.000    0.000 
#    0.000    0.000    0.000    0.000    0.000    0.000 
#
# Total GULP energy -189476.742686 kJ/mol
# GULP energy per Si atom -5572.845373 kJ/mol
# Density = 2.138579 g / cm^3
# Si number density = 21.434573 Si / 1000 Ang^3
#
#
#
# Elastic Constant Matrix: (Units=GPa)
#
#
# Indices 1 2 3 4 5 6 
#
# 1 223.5993 53.1961 99.6929 0.0000 0.0000 0.0000
# 2 53.1961 96.7943 36.2416 0.0000 0.0000 0.0000
# 3 99.6929 36.2416 172.2328 0.0000 0.0000 0.0000
# 4 0.0000 0.0000 0.0000 27.1763 0.0000 0.0000
# 5 0.0000 0.0000 0.0000 0.0000 4308.0536 0.0000
# 6 0.0000 0.0000 0.0000 0.0000 0.0000 45.4541
#
#
#
# Elastic Compliance Matrix: (Units=1/GPa)
#
#
# Indices 1 2 3 4 5 6 
#
# 1 0.006483 -0.002342 -0.003260 0.000000 0.000000 0.000000
# 2 -0.002342 0.012061 -0.001182 0.000000 0.000000 0.000000
# 3 -0.003260 -0.001182 0.007942 0.000000 0.000000 0.000000
# 4 0.000000 0.000000 0.000000 0.036797 0.000000 0.000000
# 5 0.000000 0.000000 0.000000 0.000000 0.000232 0.000000
# 6 0.000000 0.000000 0.000000 0.000000 0.000000 0.022000
#
#
# Mechanical properties :
#
#
# Convention : Reuss Voigt Hill
#
# Bulk Modulus (GPa) = 77.41473 96.76529 87.09001
# Shear Modulus (GPa) = 48.36128 896.36985 472.36557
#
# Velocity S-wave (km/s) = 4.75513 20.47185 14.86116
# Velocity P-wave (km/s) = 8.14515 24.57719 18.30822
#
# Compressibility (1/GPa) = 0.01291744
#
# Stress axis : x y z
#
# Youngs Moduli (GPa) = 154.25316 82.91113 125.92008
#
# Poissons Ratio (x) = 0.19421 0.41044
# Poissons Ratio (y) = 0.36132 0.14885
# Poissons Ratio (z) = 0.50280 0.09801
#
# Static dielectric constant tensor:
#      x y z
#    x 1.956360 0.000000 0.000000 
#    y 0.000000 1.775840 0.000000 
#    z 0.000000 0.000000 1.711550 
# 
# From -- ./inp_files/1550.got.cif
#   From: 2010.05.17/outbox.cif.g08.bks.cpg/sg49_1_cif.got.tgz:1550.got - 2010.06.03 21:02:19.
