data_PCOD9394427
_publ_section_title
;
Structure prediction by ZEFSAII (Michael W. Deem and Ramdas Pophale) SiO2 
 PCOD9394427
Probable space group: P C C M
;
_chemical_formula_sum "Si O2"
_cell_formula_units_Z 48
_cell_length_a 9.252966
_cell_length_b 31.295066
_cell_length_c 8.690615
_cell_angle_alpha 90.000000
_cell_angle_beta 90.000000
_cell_angle_gamma 90.000000
_cell_volume 2516.560346
_symmetry_space_group_name_H-M "P C C M"
_symmetry_group_IT_number 49
_symmetry_cell_setting 'orthorhombic'
loop_
_space_group_symop_operation_xyz
x,y,z
-x,-y,z
x,-y,1/2-z
-x,y,1/2-z
-x,-y,-z
x,y,-z
-x,y,1/2+z
x,-y,1/2+z
loop_
_atom_site_type_symbol
_atom_site_label
_atom_site_fract_x
_atom_site_fract_y
_atom_site_fract_z
Si Si1 0.339599 0.045717 0.184213
Si Si2 0.161222 0.129928 0.184890
Si Si3 0.839665 0.453633 0.184168
Si Si4 0.161376 0.289614 0.184249
Si Si5 0.661587 0.790255 0.683981
Si Si6 0.340164 0.375497 0.815824
O O1 0.500000 0.054002 0.250000
O O2 0.234213 0.084538 0.225062
O O3 0.291042 0.000000 0.250000
O O4 0.349237 0.042872 0.000000
O O5 0.257482 0.167763 0.254273
O O6 0.000000 0.132618 0.250000
O O7 0.158674 0.133901 0.000000
O O8 0.796827 0.500000 0.250000
O O9 0.732550 0.416972 0.240700
O O10 0.000000 0.444522 0.250000
O O11 0.845900 0.455290 0.000000
O O12 0.250143 0.250836 0.257972
O O13 0.242426 0.334069 0.218365
O O14 0.000000 0.290397 0.250000
O O15 0.156910 0.284046 0.000000
O O16 0.500000 0.788788 0.750000
O O17 0.657029 0.790839 0.500000
O O18 0.500000 0.369041 0.750000
O O19 0.346144 0.380784 0.000000
#
# Coordination Sequence:
#
# PCOD9394427 Si02
#       6
#     8   8   8   8   8   8
#     4  10  21  37  60  87 117 154 197 245 297 355
#     4  11  24  41  61  88 121 159 201 246 299 355
#     4  11  22  39  63  90 122 159 202 250 301 358
#     4  11  24  42  65  92 124 160 200 246 297 355
#     4  12  25  42  65  91 122 158 199 247 298 355
#     4  11  24  41  62  90 123 160 202 248 300 356
#
# _framework density 19.073651999999999
#
# number of rings (size 3 to 8) (size 9 to 14) (size 15 to 20)
#    0.000    1.000    0.000    8.000    0.000   10.000 
#    0.000    3.333    0.000    0.000    0.000    0.000 
#    0.000    0.000    0.000    0.000    0.000    0.000 
#
# Total GULP energy -268661.967452 kJ/mol
# GULP energy per Si atom -5597.124322 kJ/mol
# Density = 1.903024 g / cm^3
# Si number density = 19.073652 Si / 1000 Ang^3
#
#
#
# Elastic Constant Matrix: (Units=GPa)
#
#
# Indices 1 2 3 4 5 6 
#
# 1 185.6512 124.3049 88.9513 0.0000 0.0000 0.0000
# 2 124.3049 156.7552 93.2527 0.0000 0.0000 0.0000
# 3 88.9513 93.2527 131.8943 0.0000 0.0000 0.0000
# 4 0.0000 0.0000 0.0000 27.4659 0.0000 0.0000
# 5 0.0000 0.0000 0.0000 0.0000 35.5414 0.0000
# 6 0.0000 0.0000 0.0000 0.0000 0.0000 34.7547
#
#
#
# Elastic Compliance Matrix: (Units=1/GPa)
#
#
# Indices 1 2 3 4 5 6 
#
# 1 0.011886 -0.008037 -0.002334 0.000000 0.000000 0.000000
# 2 -0.008037 0.016445 -0.006207 0.000000 0.000000 0.000000
# 3 -0.002334 -0.006207 0.013544 0.000000 0.000000 0.000000
# 4 0.000000 0.000000 0.000000 0.036409 0.000000 0.000000
# 5 0.000000 0.000000 0.000000 0.000000 0.028136 0.000000
# 6 0.000000 0.000000 0.000000 0.000000 0.000000 0.028773
#
#
# Mechanical properties :
#
#
# Convention : Reuss Voigt Hill
#
# Bulk Modulus (GPa) = 114.67825 120.81318 117.74572
# Shear Modulus (GPa) = 29.19634 30.73853 29.96743
#
# Velocity S-wave (km/s) = 3.91668 4.01879 3.96806
# Velocity P-wave (km/s) = 8.98378 9.22020 9.10276
#
# Compressibility (1/GPa) = 0.00872005
#
# Stress axis : x y z
#
# Youngs Moduli (GPa) = 84.13356 60.80852 73.83389
#
# Poissons Ratio (x) = 0.48873 0.17229
# Poissons Ratio (y) = 0.67619 0.45827
# Poissons Ratio (z) = 0.19633 0.37742
#
# Static dielectric constant tensor:
#      x y z
#    x 1.622170 0.000000 0.000000 
#    y 0.000000 1.640360 0.000000 
#    z 0.000000 0.000000 1.637910 
# 
# From -- ./inp_files/2084.got.cif
#   From: 2010.05.17/outbox.cif.g08.bks.cpg/sg49_2_cif.got.tgz:2084.got - 2010.06.03 21:02:19.
