data_PCOD9394573
_publ_section_title
;
Structure prediction by ZEFSAII (Michael W. Deem and Ramdas Pophale) SiO2 
 PCOD9394573
Probable space group: P C C M
;
_chemical_formula_sum "Si O2"
_cell_formula_units_Z 40
_cell_length_a 16.327270
_cell_length_b 7.482441
_cell_length_c 14.395940
_cell_angle_alpha 90.000000
_cell_angle_beta 90.000000
_cell_angle_gamma 90.000000
_cell_volume 1758.720815
_symmetry_space_group_name_H-M "P C C M"
_symmetry_group_IT_number 49
_symmetry_cell_setting 'orthorhombic'
loop_
_space_group_symop_operation_xyz
x,y,z
-x,-y,z
x,-y,1/2-z
-x,y,1/2-z
-x,-y,-z
x,y,-z
-x,y,1/2+z
x,-y,1/2+z
loop_
_atom_site_type_symbol
_atom_site_label
_atom_site_fract_x
_atom_site_fract_y
_atom_site_fract_z
Si Si1 0.591138 0.045757 0.858274
Si Si2 0.720189 0.246387 0.393720
Si Si3 0.984387 0.283500 0.894596
Si Si4 0.132313 0.716375 0.260598
Si Si5 0.408902 0.458046 0.389514
O O1 0.660627 0.922264 0.900363
O O2 0.500000 0.000000 0.894738
O O3 0.589789 0.000000 0.750000
O O4 0.609159 0.252807 0.871349
O O5 0.752116 0.284655 0.500000
O O6 0.787417 0.219024 0.313885
O O7 0.661997 0.408336 0.359007
O O8 0.900156 0.232860 0.841875
O O9 0.000000 0.500000 0.896172
O O10 0.059248 0.225385 0.829845
O O11 0.986377 0.220713 0.000000
O O12 0.138042 0.500000 0.250000
O O13 0.500000 0.500000 0.352943
O O14 0.412331 0.487430 0.500000
#
# Coordination Sequence:
#
# PCOD9394573 Si02
#       5
#     8   8   8   8   8
#     4  11  24  40  60  89 123 173 222 276 333 394
#     4  11  23  38  62  92 129 172 221 282 332 390
#     4   8  14  29  53  85 128 172 215 266 331 400
#     4   9  18  30  53  90 130 171 215 275 329 396
#     4  10  21  39  63  89 120 166 223 276 332 398
#
# _framework density 22.743803
#
# number of rings (size 3 to 8) (size 9 to 14) (size 15 to 20)
#    0.000    2.200    2.000    2.400    2.800    1.600 
#    0.000    0.000    0.000    0.000    0.000    8.400 
#    0.000   12.000    0.000    0.000    0.000    0.000 
#
# Total GULP energy -223443.213481 kJ/mol
# GULP energy per Si atom -5586.080337 kJ/mol
# Density = 2.269204 g / cm^3
# Si number density = 22.743803 Si / 1000 Ang^3
#
#
#
# Elastic Constant Matrix: (Units=GPa)
#
#
# Indices 1 2 3 4 5 6 
#
# 1 134.7441 43.7443 60.4712 0.0000 0.0000 0.0000
# 2 43.7443 103.6560 1.5880 0.0000 0.0000 0.0000
# 3 60.4712 1.5880 146.7513 0.0000 0.0000 0.0000
# 4 0.0000 0.0000 0.0000 13.2963 0.0000 0.0000
# 5 0.0000 0.0000 0.0000 0.0000 -0.4104 0.0000
# 6 0.0000 0.0000 0.0000 0.0000 0.0000 15.3237
#
#
#
# Elastic Compliance Matrix: (Units=1/GPa)
#
#
# Indices 1 2 3 4 5 6 
#
# 1 0.010880 -0.004524 -0.004434 0.000000 0.000000 0.000000
# 2 -0.004524 0.011530 0.001739 0.000000 0.000000 0.000000
# 3 -0.004434 0.001739 0.008623 0.000000 0.000000 0.000000
# 4 0.000000 0.000000 0.000000 0.075209 0.000000 0.000000
# 5 0.000000 0.000000 0.000000 0.000000 -2.436765 0.000000
# 6 0.000000 0.000000 0.000000 0.000000 0.000000 0.065258
#
#
# Mechanical properties :
#
#
# Convention : Reuss Voigt Hill
#
# Bulk Modulus (GPa) = 60.25905 66.30651 63.28278
# Shear Modulus (GPa) = -2.22688 24.26511 11.01912
#
# Velocity S-wave (km/s) = -0.99058 3.26987 2.20350
# Velocity P-wave (km/s) = 5.02433 6.59341 5.86161
#
# Compressibility (1/GPa) = 0.01659502
#
# Stress axis : x y z
#
# Youngs Moduli (GPa) = 91.91047 86.73258 115.97312
#
# Poissons Ratio (x) = 0.39235 0.51427
# Poissons Ratio (y) = 0.41577 -0.20171
# Poissons Ratio (z) = 0.40757 -0.15085
#
# Static dielectric constant tensor:
#      x y z
#    x 1.822600 0.000000 0.000000 
#    y 0.000000 1.824220 0.000000 
#    z 0.000000 0.000000 1.885460 
# 
# From -- ./inp_files/13335.got.cif
#   From: 2010.05.17/outbox.cif.g08.bks.cpg/sg49_7_cif.got.tgz:13335.got - 2010.06.03 21:02:19.
