data_PCOD9394601
_publ_section_title
;
Structure prediction by ZEFSAII (Michael W. Deem and Ramdas Pophale) SiO2 
 PCOD9394601
Probable space group: P C C M
;
_chemical_formula_sum "Si O2"
_cell_formula_units_Z 58
_cell_length_a 9.029528
_cell_length_b 11.471720
_cell_length_c 27.740337
_cell_angle_alpha 90.000000
_cell_angle_beta 90.000000
_cell_angle_gamma 90.000000
_cell_volume 2873.461086
_symmetry_space_group_name_H-M "P C C M"
_symmetry_group_IT_number 49
_symmetry_cell_setting 'orthorhombic'
loop_
_space_group_symop_operation_xyz
x,y,z
-x,-y,z
x,-y,1/2-z
-x,y,1/2-z
-x,-y,-z
x,y,-z
-x,y,1/2+z
x,-y,1/2+z
loop_
_atom_site_type_symbol
_atom_site_label
_atom_site_fract_x
_atom_site_fract_y
_atom_site_fract_z
Si Si1 0.500000 0.500000 0.000000
Si Si2 0.709393 0.502114 0.849013
Si Si3 0.582506 0.121487 0.555745
Si Si4 0.090689 0.694267 0.677320
Si Si5 0.663350 0.945530 0.699285
Si Si6 0.472576 0.347980 0.595340
Si Si7 0.759962 0.690097 0.720623
Si Si8 0.854875 0.070702 0.381667
O O1 0.508267 0.598495 0.956754
O O2 0.858825 0.576458 0.849311
O O3 0.586767 0.597204 0.865669
O O4 0.685931 0.398091 0.887996
O O5 0.691709 0.430248 0.799359
O O6 0.580858 0.157169 0.500000
O O7 0.497759 0.212353 0.590056
O O8 0.747825 0.104375 0.574812
O O9 0.500000 0.000000 0.559398
O O10 0.204461 0.696913 0.722736
O O11 0.107548 0.809496 0.645828
O O12 0.923763 0.690857 0.696647
O O13 0.670281 0.805480 0.704878
O O14 0.500000 0.000000 0.692787
O O15 0.720660 0.000000 0.750000
O O16 0.765575 0.989901 0.656162
O O17 0.000000 0.000000 0.396491
#
# Coordination Sequence:
#
# PCOD9394601 Si02
#       8
#     2   8   8   8   8   8   8   8
#     4   8  16  36  62  92 114 160 206 258 328 396
#     4  10  22  37  58  94 123 168 216 277 323 386
#     4  11  25  45  72 100 131 169 218 282 355 416
#     4  11  22  40  62  89 127 180 229 271 317 393
#     4  11  24  39  59  96 133 179 227 278 327 390
#     4  10  21  39  66  92 126 164 218 273 339 414
#     4  11  23  39  62  88 132 178 230 268 320 394
#     4  12  24  41  68  94 132 176 223 274 334 404
#
# _framework density 20.184716999999999
#
# number of rings (size 3 to 8) (size 9 to 14) (size 15 to 20)
#    0.000    1.379    4.828    1.241    3.862    1.655 
#    0.000    2.759    0.000    0.000    1.793   16.414 
#    0.000    0.000    0.000    0.000    0.000    0.000 
#
# Total GULP energy -323232.790036 kJ/mol
# GULP energy per Si atom -5572.979139 kJ/mol
# Density = 2.013878 g / cm^3
# Si number density = 20.184717 Si / 1000 Ang^3
#
#
#
# Elastic Constant Matrix: (Units=GPa)
#
#
# Indices 1 2 3 4 5 6 
#
# 1 69.4092 42.0205 30.3396 0.0000 0.0000 0.0000
# 2 42.0205 146.9404 51.1707 0.0000 0.0000 0.0000
# 3 30.3396 51.1707 62.8708 0.0000 0.0000 0.0000
# 4 0.0000 0.0000 0.0000 27.7275 0.0000 0.0000
# 5 0.0000 0.0000 0.0000 0.0000 12.7830 0.0000
# 6 0.0000 0.0000 0.0000 0.0000 0.0000 37.5629
#
#
#
# Elastic Compliance Matrix: (Units=1/GPa)
#
#
# Indices 1 2 3 4 5 6 
#
# 1 0.019262 -0.003170 -0.006715 0.000000 0.000000 0.000000
# 2 -0.003170 0.010019 -0.006625 0.000000 0.000000 0.000000
# 3 -0.006715 -0.006625 0.024538 0.000000 0.000000 0.000000
# 4 0.000000 0.000000 0.000000 0.036065 0.000000 0.000000
# 5 0.000000 0.000000 0.000000 0.000000 0.078229 0.000000
# 6 0.000000 0.000000 0.000000 0.000000 0.000000 0.026622
#
#
# Mechanical properties :
#
#
# Convention : Reuss Voigt Hill
#
# Bulk Modulus (GPa) = 48.07890 58.47577 53.27734
# Shear Modulus (GPa) = 21.30494 25.99400 23.64947
#
# Velocity S-wave (km/s) = 3.25237 3.59249 3.42665
# Velocity P-wave (km/s) = 6.16239 6.80009 6.48908
#
# Compressibility (1/GPa) = 0.02079914
#
# Stress axis : x y z
#
# Youngs Moduli (GPa) = 51.91690 99.81066 40.75275
#
# Poissons Ratio (x) = 0.31637 0.27366
# Poissons Ratio (y) = 0.16456 0.26998
# Poissons Ratio (z) = 0.34863 0.66123
#
# Static dielectric constant tensor:
#      x y z
#    x 1.764390 0.000000 0.000000 
#    y 0.000000 1.758670 0.000000 
#    z 0.000000 0.000000 1.718680 
# 
# From -- ./inp_files/24582.got.cif
#   From: 2010.05.17/outbox.cif.g08.bks.cpg/sg49_13_cif.got.tgz:24582.got - 2010.06.03 21:02:19.
