data_PCOD9394736
_publ_section_title
;
Structure prediction by ZEFSAII (Michael W. Deem and Ramdas Pophale) SiO2 
 PCOD9394736
Probable space group: P C C M
;
_chemical_formula_sum "Si O2"
_cell_formula_units_Z 64
_cell_length_a 9.878076
_cell_length_b 19.336109
_cell_length_c 16.948333
_cell_angle_alpha 90.000000
_cell_angle_beta 90.000000
_cell_angle_gamma 90.000000
_cell_volume 3237.191842
_symmetry_space_group_name_H-M "P C C M"
_symmetry_group_IT_number 49
_symmetry_cell_setting 'orthorhombic'
loop_
_space_group_symop_operation_xyz
x,y,z
-x,-y,z
x,-y,1/2-z
-x,y,1/2-z
-x,-y,-z
x,y,-z
-x,y,1/2+z
x,-y,1/2+z
loop_
_atom_site_type_symbol
_atom_site_label
_atom_site_fract_x
_atom_site_fract_y
_atom_site_fract_z
Si Si1 0.216840 0.849468 0.845901
Si Si2 0.848417 0.698885 0.347185
Si Si3 0.468816 0.921861 0.092563
Si Si4 0.038574 0.920612 0.407432
Si Si5 0.341257 0.422663 0.404874
Si Si6 0.839910 0.298045 0.343057
Si Si7 0.714094 0.848577 0.838461
Si Si8 0.651549 0.580765 0.095333
O O1 0.222285 0.770125 0.874256
O O2 0.314175 0.900127 0.894070
O O3 0.062735 0.873725 0.856575
O O4 0.260710 0.853056 0.754892
O O5 0.765978 0.632193 0.374033
O O6 0.847059 0.701397 0.252027
O O7 0.005452 0.698937 0.373081
O O8 0.561889 0.867537 0.139138
O O9 0.500000 0.000000 0.119888
O O10 0.502152 0.918219 0.000000
O O11 0.021089 0.904825 0.500000
O O12 0.190209 0.904303 0.381223
O O13 0.000000 0.000000 0.394466
O O14 0.338962 0.421476 0.500000
O O15 0.495675 0.405404 0.380278
O O16 0.313961 0.502018 0.380387
O O17 0.764752 0.226874 0.366007
O O18 0.753499 0.363149 0.371160
O O19 0.655582 0.583129 0.000000
#
# Coordination Sequence:
#
# PCOD9394736 Si02
#       8
#     8   8   8   8   8   8   8   8
#     4  11  23  41  62  87 120 159 202 246 296 359
#     4  10  22  40  59  85 121 156 194 242 292 345
#     4  11  25  43  61  87 122 155 196 253 309 360
#     4  11  23  39  61  89 120 155 198 249 301 352
#     4   9  20  39  61  88 121 155 195 241 288 344
#     4  10  22  40  59  85 121 156 194 242 292 345
#     4  11  23  41  62  87 120 159 202 246 296 359
#     4   9  20  39  61  88 121 155 195 241 288 344
#
# _framework density 19.770220999999999
#
# number of rings (size 3 to 8) (size 9 to 14) (size 15 to 20)
#    0.000    1.750    1.250    3.000    1.750    9.000 
#    0.000    3.750    0.000    0.000    0.000    0.000 
#    0.000    0.000    0.000    0.000    0.000    0.000 
#
# Total GULP energy -357637.538540 kJ/mol
# GULP energy per Si atom -5588.086540 kJ/mol
# Density = 1.972522 g / cm^3
# Si number density = 19.770221 Si / 1000 Ang^3
#
#
#
# Elastic Constant Matrix: (Units=GPa)
#
#
# Indices 1 2 3 4 5 6 
#
# 1 63.2957 39.1566 2.1792 0.0000 0.0000 0.0000
# 2 39.1566 110.1333 18.9501 0.0000 0.0000 0.0000
# 3 2.1792 18.9501 18.3988 0.0000 0.0000 0.0000
# 4 0.0000 0.0000 0.0000 25.1958 0.0000 0.0000
# 5 0.0000 0.0000 0.0000 0.0000 35.3175 0.0000
# 6 0.0000 0.0000 0.0000 0.0000 0.0000 39.5677
#
#
#
# Elastic Compliance Matrix: (Units=1/GPa)
#
#
# Indices 1 2 3 4 5 6 
#
# 1 0.020833 -0.008486 0.006273 0.000000 0.000000 0.000000
# 2 -0.008486 0.014492 -0.013922 0.000000 0.000000 0.000000
# 3 0.006273 -0.013922 0.067947 0.000000 0.000000 0.000000
# 4 0.000000 0.000000 0.000000 0.039689 0.000000 0.000000
# 5 0.000000 0.000000 0.000000 0.000000 0.028315 0.000000
# 6 0.000000 0.000000 0.000000 0.000000 0.000000 0.025273
#
#
# Mechanical properties :
#
#
# Convention : Reuss Voigt Hill
#
# Bulk Modulus (GPa) = 14.08399 34.71108 24.39754
# Shear Modulus (GPa) = 19.80305 28.78565 24.29435
#
# Velocity S-wave (km/s) = 3.16834 3.81991 3.50928
# Velocity P-wave (km/s) = 4.53032 6.08695 5.36539
#
# Compressibility (1/GPa) = 0.07100259
#
# Stress axis : x y z
#
# Youngs Moduli (GPa) = 48.00144 69.00126 14.71735
#
# Poissons Ratio (x) = 0.58556 -0.09232
# Poissons Ratio (y) = 0.40735 0.20489
# Poissons Ratio (z) = -0.30111 0.96061
#
# Static dielectric constant tensor:
#      x y z
#    x 1.657870 0.000000 0.000000 
#    y 0.000000 1.680610 0.000000 
#    z 0.000000 0.000000 1.687290 
# 
# From -- ./inp_files/20013.got.cif
#   From: 2010.05.17/outbox.cif.g08.bks.cpg/sg49_11_cif.got.tgz:20013.got - 2010.06.03 21:02:19.
