data_PCOD9394086
_publ_section_title
;
Structure prediction by ZEFSAII (Michael W. Deem and Ramdas Pophale) SiO2 
 PCOD9394086
Probable space group: P C C M
;
_chemical_formula_sum "Si O2"
_cell_formula_units_Z 58
_cell_length_a 17.496002
_cell_length_b 18.671641
_cell_length_c 8.970755
_cell_angle_alpha 90.000000
_cell_angle_beta 90.000000
_cell_angle_gamma 90.000000
_cell_volume 2930.557885
_symmetry_space_group_name_H-M "P C C M"
_symmetry_group_IT_number 49
_symmetry_cell_setting 'orthorhombic'
loop_
_space_group_symop_operation_xyz
x,y,z
-x,-y,z
x,-y,1/2-z
-x,y,1/2-z
-x,-y,-z
x,y,-z
-x,y,1/2+z
x,-y,1/2+z
loop_
_atom_site_type_symbol
_atom_site_label
_atom_site_fract_x
_atom_site_fract_y
_atom_site_fract_z
Si Si1 0.784987 0.576592 0.681707
Si Si2 0.078285 0.077742 0.176419
Si Si3 0.619417 0.626260 0.675094
Si Si4 0.584530 0.927839 0.821044
Si Si5 0.500000 0.500000 0.750000
Si Si6 0.643969 0.783086 0.322978
Si Si7 0.818795 0.182966 0.831930
Si Si8 0.080295 0.321907 0.671236
O O1 0.799469 0.500000 0.750000
O O2 0.783306 0.575320 0.500000
O O3 0.701357 0.601587 0.735568
O O4 0.852921 0.627790 0.732620
O O5 0.152885 0.123721 0.217182
O O6 0.000000 0.108432 0.250000
O O7 0.087172 0.000000 0.250000
O O8 0.067809 0.072837 0.000000
O O9 0.629381 0.638503 0.500000
O O10 0.559688 0.560348 0.687068
O O11 0.605587 0.708002 0.731465
O O12 0.500000 0.925366 0.750000
O O13 0.621215 0.853307 0.768750
O O14 0.621319 0.000000 0.750000
O O15 0.582026 0.933652 0.000000
O O16 0.625943 0.794131 0.500000
O O17 0.736380 0.780037 0.309965
O O18 0.883313 0.243459 0.825726
O O19 0.817431 0.151961 0.000000
O O20 0.068401 0.342648 0.500000
O O21 0.000000 0.326040 0.750000
#
# Coordination Sequence:
#
# PCOD9394086 Si02
#       8
#     8   8   8   8   2   8   8   8
#     4  10  20  39  61  84 118 161 199 244 305 367
#     4  11  22  37  57  83 118 157 201 252 305 362
#     4  10  21  39  61  89 128 167 206 251 311 377
#     4  11  23  42  66  94 126 164 208 257 312 372
#     4  12  22  36  64 102 128 160 214 256 314 372
#     4  10  21  40  64  89 124 168 207 252 311 376
#     4  10  20  37  60  84 114 157 202 247 306 367
#     4  10  21  37  59  84 115 155 202 250 303 366
#
# _framework density 19.791454999999999
#
# number of rings (size 3 to 8) (size 9 to 14) (size 15 to 20)
#    0.000    1.655    2.069    3.931    0.966    3.586 
#    0.000    2.759    0.000    0.000    0.000    0.000 
#    0.000    0.000    0.000    0.000    0.000    0.000 
#
# Total GULP energy -323206.246660 kJ/mol
# GULP energy per Si atom -5572.521494 kJ/mol
# Density = 1.974641 g / cm^3
# Si number density = 19.791455 Si / 1000 Ang^3
#
#
#
# Elastic Constant Matrix: (Units=GPa)
#
#
# Indices 1 2 3 4 5 6 
#
# 1 76.2964 24.2943 25.7883 0.0000 0.0000 0.0000
# 2 24.2943 109.9163 43.8806 0.0000 0.0000 0.0000
# 3 25.7883 43.8806 86.6685 0.0000 0.0000 0.0000
# 4 0.0000 0.0000 0.0000 23.0070 0.0000 0.0000
# 5 0.0000 0.0000 0.0000 0.0000 20.4768 0.0000
# 6 0.0000 0.0000 0.0000 0.0000 0.0000 35.2356
#
#
#
# Elastic Compliance Matrix: (Units=1/GPa)
#
#
# Indices 1 2 3 4 5 6 
#
# 1 0.014885 -0.001907 -0.003463 0.000000 0.000000 0.000000
# 2 -0.001907 0.011647 -0.005329 0.000000 0.000000 0.000000
# 3 -0.003463 -0.005329 0.015267 0.000000 0.000000 0.000000
# 4 0.000000 0.000000 0.000000 0.043465 0.000000 0.000000
# 5 0.000000 0.000000 0.000000 0.000000 0.048836 0.000000
# 6 0.000000 0.000000 0.000000 0.000000 0.000000 0.028380
#
#
# Mechanical properties :
#
#
# Convention : Reuss Voigt Hill
#
# Bulk Modulus (GPa) = 49.02262 51.20084 50.11173
# Shear Modulus (GPa) = 26.22203 27.67175 26.94689
#
# Velocity S-wave (km/s) = 3.64389 3.74326 3.69391
# Velocity P-wave (km/s) = 6.52129 6.67900 6.60062
#
# Compressibility (1/GPa) = 0.02039875
#
# Stress axis : x y z
#
# Youngs Moduli (GPa) = 67.18310 85.85913 65.50065
#
# Poissons Ratio (x) = 0.16376 0.22685
# Poissons Ratio (y) = 0.12814 0.34908
# Poissons Ratio (z) = 0.23267 0.45758
#
# Static dielectric constant tensor:
#      x y z
#    x 1.720160 0.000000 0.000000 
#    y 0.000000 1.736720 0.000000 
#    z 0.000000 0.000000 1.674230 
# 
# From -- ./inp_files/5091.got.cif
#   From: 2010.05.17/outbox.cif.g08.bks.cpg/sg49_3_cif.got.tgz:5091.got - 2010.06.03 21:02:19.
