data_PCOD9394080
_publ_section_title
;
Structure prediction by ZEFSAII (Michael W. Deem and Ramdas Pophale) SiO2 
 PCOD9394080
Probable space group: P C C M
;
_chemical_formula_sum "Si O2"
_cell_formula_units_Z 64
_cell_length_a 11.993171
_cell_length_b 9.066139
_cell_length_c 29.203596
_cell_angle_alpha 90.000000
_cell_angle_beta 90.000000
_cell_angle_gamma 90.000000
_cell_volume 3175.358255
_symmetry_space_group_name_H-M "P C C M"
_symmetry_group_IT_number 49
_symmetry_cell_setting 'orthorhombic'
loop_
_space_group_symop_operation_xyz
x,y,z
-x,-y,z
x,-y,1/2-z
-x,y,1/2-z
-x,-y,-z
x,y,-z
-x,y,1/2+z
x,-y,1/2+z
loop_
_atom_site_type_symbol
_atom_site_label
_atom_site_fract_x
_atom_site_fract_y
_atom_site_fract_z
Si Si1 0.026479 0.824038 0.353973
Si Si2 0.048566 0.833800 0.049771
Si Si3 0.328507 0.403514 0.350930
Si Si4 0.176128 0.210153 0.707836
Si Si5 0.722333 0.691006 0.550193
Si Si6 0.242002 0.879710 0.690268
Si Si7 0.570530 0.723127 0.146580
Si Si8 0.475512 0.827763 0.550136
O O1 0.993304 0.761062 0.403317
O O2 0.949356 0.772771 0.311586
O O3 0.156999 0.806927 0.345637
O O4 0.000000 0.000000 0.355484
O O5 0.183074 0.818397 0.052515
O O6 0.016557 0.769080 0.000000
O O7 0.000000 0.000000 0.049576
O O8 0.244641 0.344691 0.312982
O O9 0.274529 0.394745 0.401731
O O10 0.438020 0.298010 0.348608
O O11 0.373144 0.566744 0.343090
O O12 0.197857 0.182574 0.761258
O O13 0.222630 0.054971 0.687518
O O14 0.739674 0.616587 0.500000
O O15 0.596919 0.752278 0.549224
O O16 0.368329 0.839023 0.679125
O O17 0.589559 0.766376 0.093587
O O18 0.422707 0.804717 0.500000
O O19 0.500000 0.000000 0.556435
#
# Coordination Sequence:
#
# PCOD9394080 Si02
#       8
#     8   8   8   8   8   8   8   8
#     4   9  17  32  55  81 113 143 179 230 285 333
#     4   9  16  26  47  82 113 139 179 227 278 334
#     4  10  21  38  57  79 110 153 187 230 282 336
#     4  10  20  37  60  80 109 143 192 235 285 338
#     4   9  17  31  53  80 109 147 189 224 269 334
#     4  10  22  36  56  86 107 143 187 241 287 337
#     4  10  23  37  55  83 114 146 186 230 286 336
#     4   9  19  33  54  83 115 148 185 233 282 334
#
# _framework density 20.155206
#
# number of rings (size 3 to 8) (size 9 to 14) (size 15 to 20)
#    0.000    2.500    1.250    0.375    3.500    3.000 
#    0.000    6.250    0.000    1.500    0.000    1.750 
#    0.000    0.000    0.000    0.000    0.000    0.000 
#
# Total GULP energy -356343.009027 kJ/mol
# GULP energy per Si atom -5567.859516 kJ/mol
# Density = 2.010933 g / cm^3
# Si number density = 20.155206 Si / 1000 Ang^3
#
#
#
# Elastic Constant Matrix: (Units=GPa)
#
#
# Indices 1 2 3 4 5 6 
#
# 1 48.0762 -1.3213 13.6393 0.0000 0.0000 0.0000
# 2 -1.3213 7.5416 -0.2717 0.0000 0.0000 0.0000
# 3 13.6393 -0.2717 52.4152 0.0000 0.0000 0.0000
# 4 0.0000 0.0000 0.0000 16.0676 0.0000 0.0000
# 5 0.0000 0.0000 0.0000 0.0000 53.6832 0.0000
# 6 0.0000 0.0000 0.0000 0.0000 0.0000 19.6333
#
#
#
# Elastic Compliance Matrix: (Units=1/GPa)
#
#
# Indices 1 2 3 4 5 6 
#
# 1 0.022563 0.003742 -0.005852 0.000000 0.000000 0.000000
# 2 0.003742 0.133244 -0.000283 0.000000 0.000000 0.000000
# 3 -0.005852 -0.000283 0.020600 0.000000 0.000000 0.000000
# 4 0.000000 0.000000 0.000000 0.062237 0.000000 0.000000
# 5 0.000000 0.000000 0.000000 0.000000 0.018628 0.000000
# 6 0.000000 0.000000 0.000000 0.000000 0.000000 0.050934
#
#
# Mechanical properties :
#
#
# Convention : Reuss Voigt Hill
#
# Bulk Modulus (GPa) = 5.82678 14.68061 10.25370
# Shear Modulus (GPa) = 13.50628 24.27592 18.89110
#
# Velocity S-wave (km/s) = 2.59146 3.47428 3.06483
# Velocity P-wave (km/s) = 3.44260 4.83671 4.19793
#
# Compressibility (1/GPa) = 0.17162138
#
# Stress axis : x y z
#
# Youngs Moduli (GPa) = 44.31967 7.50504 48.54431
#
# Poissons Ratio (x) = -0.02809 0.28408
# Poissons Ratio (y) = -0.16586 0.01375
# Poissons Ratio (z) = 0.25936 0.00213
#
# Static dielectric constant tensor:
#      x y z
#    x 1.701890 0.000000 0.000000 
#    y 0.000000 1.696780 0.000000 
#    z 0.000000 0.000000 1.765540 
# 
# From -- ./inp_files/26692.got.cif
#   From: 2010.05.17/outbox.cif.g08.bks.cpg/sg49_14_cif.got.tgz:26692.got - 2010.06.03 21:02:19.
