data_PCOD9394065
_publ_section_title
;
Structure prediction by ZEFSAII (Michael W. Deem and Ramdas Pophale) SiO2 
 PCOD9394065
Probable space group: P C C M
;
_chemical_formula_sum "Si O2"
_cell_formula_units_Z 56
_cell_length_a 15.965301
_cell_length_b 20.778210
_cell_length_c 8.512749
_cell_angle_alpha 90.000000
_cell_angle_beta 90.000000
_cell_angle_gamma 90.000000
_cell_volume 2823.937434
_symmetry_space_group_name_H-M "P C C M"
_symmetry_group_IT_number 49
_symmetry_cell_setting 'orthorhombic'
loop_
_space_group_symop_operation_xyz
x,y,z
-x,-y,z
x,-y,1/2-z
-x,y,1/2-z
-x,-y,-z
x,y,-z
-x,y,1/2+z
x,-y,1/2+z
loop_
_atom_site_type_symbol
_atom_site_label
_atom_site_fract_x
_atom_site_fract_y
_atom_site_fract_z
Si Si1 0.403902 0.655614 0.189294
Si Si2 0.904398 0.337799 0.310953
Si Si3 0.905854 0.193992 0.688771
Si Si4 0.167751 0.937204 0.813263
Si Si5 0.350632 0.066486 0.180850
Si Si6 0.406446 0.797617 0.813216
Si Si7 0.750359 0.572557 0.188992
O O1 0.500000 0.646376 0.250000
O O2 0.372599 0.727688 0.238369
O O3 0.335300 0.605819 0.251690
O O4 0.406945 0.652756 0.000000
O O5 0.910064 0.340749 0.500000
O O6 0.872363 0.265358 0.271688
O O7 0.833593 0.388140 0.257790
O O8 0.000000 0.347482 0.250000
O O9 0.900976 0.184905 0.500000
O O10 0.868651 0.132529 0.775789
O O11 0.000000 0.197224 0.750000
O O12 0.251708 0.938970 0.709286
O O13 0.117710 0.000000 0.750000
O O14 0.183392 0.942826 0.000000
O O15 0.370802 0.134781 0.257034
O O16 0.387758 0.000000 0.250000
O O17 0.373278 0.069396 0.000000
O O18 0.500000 0.797001 0.750000
O O19 0.404346 0.798148 0.000000
O O20 0.754659 0.500000 0.250000
O O21 0.749544 0.573318 0.000000
#
# Coordination Sequence:
#
# PCOD9394065 Si02
#       7
#     8   8   8   8   8   8   8
#     4  10  22  41  65  94 127 164 204 254 307 365
#     4   9  21  40  63  91 125 163 204 252 306 362
#     4  10  20  37  58  85 114 150 194 243 298 356
#     4  11  22  37  55  80 112 151 195 245 298 356
#     4  11  22  37  56  80 113 153 196 246 298 353
#     4  10  21  38  59  87 117 151 196 242 297 356
#     4  11  24  42  64  95 128 164 207 250 301 366
#
# _framework density 19.830468
#
# number of rings (size 3 to 8) (size 9 to 14) (size 15 to 20)
#    0.000    1.714    0.000    5.143    2.000    4.571 
#    0.000    5.714    0.000    0.000    0.000    0.000 
#    0.000    0.000    0.000    0.000    0.000    0.000 
#
# Total GULP energy -312263.424440 kJ/mol
# GULP energy per Si atom -5576.132579 kJ/mol
# Density = 1.978533 g / cm^3
# Si number density = 19.830468 Si / 1000 Ang^3
#
#
#
# Elastic Constant Matrix: (Units=GPa)
#
#
# Indices 1 2 3 4 5 6 
#
# 1 68.8442 72.7723 12.3942 0.0000 0.0000 0.0000
# 2 72.7723 199.1042 40.9725 0.0000 0.0000 0.0000
# 3 12.3942 40.9725 65.0643 0.0000 0.0000 0.0000
# 4 0.0000 0.0000 0.0000 31.8592 0.0000 0.0000
# 5 0.0000 0.0000 0.0000 0.0000 27.0004 0.0000
# 6 0.0000 0.0000 0.0000 0.0000 0.0000 72.5200
#
#
#
# Elastic Compliance Matrix: (Units=1/GPa)
#
#
# Indices 1 2 3 4 5 6 
#
# 1 0.023737 -0.008898 0.001082 0.000000 0.000000 0.000000
# 2 -0.008898 0.009106 -0.004039 0.000000 0.000000 0.000000
# 3 0.001082 -0.004039 0.017707 0.000000 0.000000 0.000000
# 4 0.000000 0.000000 0.000000 0.031388 0.000000 0.000000
# 5 0.000000 0.000000 0.000000 0.000000 0.037036 0.000000
# 6 0.000000 0.000000 0.000000 0.000000 0.000000 0.013789
#
#
# Mechanical properties :
#
#
# Convention : Reuss Voigt Hill
#
# Bulk Modulus (GPa) = 37.26013 65.03230 51.14622
# Shear Modulus (GPa) = 30.22580 40.06750 35.14665
#
# Velocity S-wave (km/s) = 3.90835 4.49988 4.21450
# Velocity P-wave (km/s) = 6.26075 7.73717 7.03779
#
# Compressibility (1/GPa) = 0.02683834
#
# Stress axis : x y z
#
# Youngs Moduli (GPa) = 42.12838 109.81676 56.47514
#
# Poissons Ratio (x) = 0.97720 -0.06110
# Poissons Ratio (y) = 0.37488 0.22812
# Poissons Ratio (z) = -0.04558 0.44357
#
# Static dielectric constant tensor:
#      x y z
#    x 1.690660 0.000000 0.000000 
#    y 0.000000 1.814440 0.000000 
#    z 0.000000 0.000000 1.674790 
# 
# From -- ./inp_files/4040.got.cif
#   From: 2010.05.17/outbox.cif.g08.bks.cpg/sg49_3_cif.got.tgz:4040.got - 2010.06.03 21:02:19.
