data_PCOD9394683
_publ_section_title
;
Structure prediction by ZEFSAII (Michael W. Deem and Ramdas Pophale) SiO2 
 PCOD9394683
Probable space group: P C C M
;
_chemical_formula_sum "Si O2"
_cell_formula_units_Z 64
_cell_length_a 15.017876
_cell_length_b 12.420560
_cell_length_c 16.684632
_cell_angle_alpha 90.000000
_cell_angle_beta 90.000000
_cell_angle_gamma 90.000000
_cell_volume 3112.191580
_symmetry_space_group_name_H-M "P C C M"
_symmetry_group_IT_number 49
_symmetry_cell_setting 'orthorhombic'
loop_
_space_group_symop_operation_xyz
x,y,z
-x,-y,z
x,-y,1/2-z
-x,y,1/2-z
-x,-y,-z
x,y,-z
-x,y,1/2+z
x,-y,1/2+z
loop_
_atom_site_type_symbol
_atom_site_label
_atom_site_fract_x
_atom_site_fract_y
_atom_site_fract_z
Si Si1 0.988918 0.123241 0.655039
Si Si2 0.291422 0.112659 0.409207
Si Si3 0.358722 0.733223 0.591096
Si Si4 0.152841 0.281931 0.366331
Si Si5 0.901469 0.517280 0.908547
Si Si6 0.235436 0.616200 0.709357
Si Si7 0.198061 0.902176 0.408112
Si Si8 0.516896 0.123787 0.155321
O O1 0.887144 0.148287 0.634036
O O2 0.000000 0.117927 0.750000
O O3 0.062026 0.211312 0.629034
O O4 0.000000 0.000000 0.623035
O O5 0.316767 0.080122 0.500000
O O6 0.226883 0.213106 0.410250
O O7 0.379888 0.142177 0.362241
O O8 0.234657 0.014075 0.371966
O O9 0.361953 0.687430 0.500000
O O10 0.322978 0.655711 0.661668
O O11 0.281670 0.823508 0.591509
O O12 0.450813 0.793321 0.611801
O O13 0.139267 0.398142 0.404993
O O14 0.193106 0.305997 0.277242
O O15 0.840901 0.594764 0.856527
O O16 0.000000 0.500000 0.873506
O O17 0.908939 0.555837 0.000000
O O18 0.252386 0.500000 0.750000
O O19 0.171185 0.924163 0.500000
O O20 0.500000 0.130378 0.250000
O O21 0.500000 0.000000 0.129179
#
# Coordination Sequence:
#
# PCOD9394683 Si02
#       8
#     8   8   8   8   8   8   8   8
#     4  11  23  37  53  85 126 171 210 251 300 371
#     4  11  22  40  62  91 130 170 205 251 309 380
#     4  11  22  40  66  95 127 168 213 260 318 380
#     4  11  23  39  63  89 124 169 215 258 316 380
#     4  10  23  41  62  88 118 160 217 275 322 369
#     4  10  23  42  64  89 125 165 218 275 328 364
#     4  10  22  37  57  87 128 171 208 251 306 370
#     4  11  23  39  63  97 134 170 209 253 308 377
#
# _framework density 20.564288000000001
#
# number of rings (size 3 to 8) (size 9 to 14) (size 15 to 20)
#    0.000    1.375    2.500    2.625    3.500    3.500 
#    0.000    0.000    0.000    8.625    0.000   12.250 
#    0.000    0.000    0.000    0.000    0.000    0.000 
#
# Total GULP energy -357503.361181 kJ/mol
# GULP energy per Si atom -5585.990018 kJ/mol
# Density = 2.051748 g / cm^3
# Si number density = 20.564288 Si / 1000 Ang^3
#
#
#
# Elastic Constant Matrix: (Units=GPa)
#
#
# Indices 1 2 3 4 5 6 
#
# 1 143.1666 32.5323 41.4853 0.0000 0.0000 0.0000
# 2 32.5323 69.8573 20.9532 0.0000 0.0000 0.0000
# 3 41.4853 20.9532 78.0119 0.0000 0.0000 0.0000
# 4 0.0000 0.0000 0.0000 13.8880 0.0000 0.0000
# 5 0.0000 0.0000 0.0000 0.0000 29.2845 0.0000
# 6 0.0000 0.0000 0.0000 0.0000 0.0000 24.7582
#
#
#
# Elastic Compliance Matrix: (Units=1/GPa)
#
#
# Indices 1 2 3 4 5 6 
#
# 1 0.008773 -0.002922 -0.003881 0.000000 0.000000 0.000000
# 2 -0.002922 0.016542 -0.002889 0.000000 0.000000 0.000000
# 3 -0.003881 -0.002889 0.015658 0.000000 0.000000 0.000000
# 4 0.000000 0.000000 0.000000 0.072004 0.000000 0.000000
# 5 0.000000 0.000000 0.000000 0.000000 0.034148 0.000000
# 6 0.000000 0.000000 0.000000 0.000000 0.000000 0.040391
#
#
# Mechanical properties :
#
#
# Convention : Reuss Voigt Hill
#
# Bulk Modulus (GPa) = 46.31730 53.44193 49.87961
# Shear Modulus (GPa) = 23.35391 26.65715 25.00553
#
# Velocity S-wave (km/s) = 3.37360 3.60430 3.49086
# Velocity P-wave (km/s) = 6.14386 6.58525 6.36838
#
# Compressibility (1/GPa) = 0.02159021
#
# Stress axis : x y z
#
# Youngs Moduli (GPa) = 113.98224 60.45159 63.86382
#
# Poissons Ratio (x) = 0.17662 0.24784
# Poissons Ratio (y) = 0.33302 0.18452
# Poissons Ratio (z) = 0.44234 0.17467
#
# Static dielectric constant tensor:
#      x y z
#    x 1.719270 0.000000 0.000000 
#    y 0.000000 1.758520 0.000000 
#    z 0.000000 0.000000 1.776000 
# 
# From -- ./inp_files/17925.got.cif
#   From: 2010.05.17/outbox.cif.g08.bks.cpg/sg49_9_cif.got.tgz:17925.got - 2010.06.03 21:02:19.
