data_PCOD9394131
_publ_section_title
;
Structure prediction by ZEFSAII (Michael W. Deem and Ramdas Pophale) SiO2 
 PCOD9394131
Probable space group: P C C M
;
_chemical_formula_sum "Si O2"
_cell_formula_units_Z 64
_cell_length_a 15.773245
_cell_length_b 24.160026
_cell_length_c 8.692782
_cell_angle_alpha 90.000000
_cell_angle_beta 90.000000
_cell_angle_gamma 90.000000
_cell_volume 3312.662831
_symmetry_space_group_name_H-M "P C C M"
_symmetry_group_IT_number 49
_symmetry_cell_setting 'orthorhombic'
loop_
_space_group_symop_operation_xyz
x,y,z
-x,-y,z
x,-y,1/2-z
-x,y,1/2-z
-x,-y,-z
x,y,-z
-x,y,1/2+z
x,-y,1/2+z
loop_
_atom_site_type_symbol
_atom_site_label
_atom_site_fract_x
_atom_site_fract_y
_atom_site_fract_z
Si Si1 0.751935 0.561704 0.184976
Si Si2 0.852962 0.244667 0.816806
Si Si3 0.408213 0.126095 0.183949
Si Si4 0.335852 0.753680 0.314925
Si Si5 0.591048 0.364828 0.315131
Si Si6 0.910216 0.130444 0.682762
Si Si7 0.908738 0.630965 0.315861
Si Si8 0.247237 0.061633 0.316161
O O1 0.750570 0.500000 0.250000
O O2 0.667545 0.595161 0.233768
O O3 0.833721 0.594394 0.245857
O O4 0.754260 0.560560 0.000000
O O5 0.754411 0.244474 0.768832
O O6 0.897494 0.194568 0.728719
O O7 0.890686 0.304648 0.777020
O O8 0.861191 0.235929 0.000000
O O9 0.500000 0.111599 0.250000
O O10 0.387157 0.190463 0.218836
O O11 0.333459 0.089986 0.256937
O O12 0.407162 0.119253 0.000000
O O13 0.320986 0.751664 0.500000
O O14 0.385006 0.698003 0.269170
O O15 0.500000 0.380753 0.250000
O O16 0.587055 0.366092 0.500000
O O17 0.908872 0.124529 0.500000
O O18 0.831953 0.097240 0.755133
O O19 0.000000 0.111128 0.750000
O O20 0.908105 0.625735 0.500000
O O21 0.000000 0.614797 0.250000
O O22 0.246365 0.060753 0.500000
O O23 0.241427 0.000000 0.250000
#
# Coordination Sequence:
#
# PCOD9394131 Si02
#       8
#     8   8   8   8   8   8   8   8
#     4  11  24  43  65  89 122 163 210 262 314 370
#     4  11  22  37  63  97 130 168 208 253 313 376
#     4  11  23  40  65  97 131 171 212 261 317 378
#     4  10  20  37  62  92 129 168 207 253 314 376
#     4  10  22  39  62  92 125 166 207 255 312 370
#     4  12  25  43  67  97 132 170 212 260 314 376
#     4  11  24  41  64  95 127 164 207 255 311 374
#     4  12  26  46  69  95 127 167 216 267 320 378
#
# _framework density 19.319804999999999
#
# number of rings (size 3 to 8) (size 9 to 14) (size 15 to 20)
#    0.000    1.000    2.500    4.500    0.000    5.500 
#    0.000    5.000    0.000    0.000    0.000    0.000 
#    0.000    0.000    0.000    0.000    0.000    0.000 
#
# Total GULP energy -358125.670121 kJ/mol
# GULP energy per Si atom -5595.713596 kJ/mol
# Density = 1.927583 g / cm^3
# Si number density = 19.319805 Si / 1000 Ang^3
#
#
#
# Elastic Constant Matrix: (Units=GPa)
#
#
# Indices 1 2 3 4 5 6 
#
# 1 182.4383 64.8924 60.3993 0.0000 0.0000 0.0000
# 2 64.8924 127.6693 56.4323 0.0000 0.0000 0.0000
# 3 60.3993 56.4323 89.6910 0.0000 0.0000 0.0000
# 4 0.0000 0.0000 0.0000 18.3378 0.0000 0.0000
# 5 0.0000 0.0000 0.0000 0.0000 34.8281 0.0000
# 6 0.0000 0.0000 0.0000 0.0000 0.0000 -7.9928
#
#
#
# Elastic Compliance Matrix: (Units=1/GPa)
#
#
# Indices 1 2 3 4 5 6 
#
# 1 0.007467 -0.002179 -0.003658 0.000000 0.000000 0.000000
# 2 -0.002179 0.011486 -0.005760 0.000000 0.000000 0.000000
# 3 -0.003658 -0.005760 0.017236 0.000000 0.000000 0.000000
# 4 0.000000 0.000000 0.000000 0.054532 0.000000 0.000000
# 5 0.000000 0.000000 0.000000 0.000000 0.028712 0.000000
# 6 0.000000 0.000000 0.000000 0.000000 0.000000 -0.125112
#
#
# Mechanical properties :
#
#
# Convention : Reuss Voigt Hill
#
# Bulk Modulus (GPa) = 76.93786 84.80518 80.87152
# Shear Modulus (GPa) = 228.86780 23.57293 126.22036
#
# Velocity S-wave (km/s) = 10.89587 3.49684 8.09160
# Velocity P-wave (km/s) = 14.07846 7.76496 11.36877
#
# Compressibility (1/GPa) = 0.01299750
#
# Stress axis : x y z
#
# Youngs Moduli (GPa) = 133.91892 87.06238 58.01649
#
# Poissons Ratio (x) = 0.18968 0.21221
# Poissons Ratio (y) = 0.29177 0.33416
# Poissons Ratio (z) = 0.48984 0.50145
#
# Static dielectric constant tensor:
#      x y z
#    x 1.644810 0.000000 0.000000 
#    y 0.000000 1.658530 0.000000 
#    z 0.000000 0.000000 1.649670 
# 
# From -- ./inp_files/4326.got.cif
#   From: 2010.05.17/outbox.cif.g08.bks.cpg/sg49_3_cif.got.tgz:4326.got - 2010.06.03 21:02:19.
