data_PCOD9394170
_publ_section_title
;
Structure prediction by ZEFSAII (Michael W. Deem and Ramdas Pophale) SiO2 
 PCOD9394170
Probable space group: P C C M
;
_chemical_formula_sum "Si O2"
_cell_formula_units_Z 64
_cell_length_a 16.732964
_cell_length_b 12.715716
_cell_length_c 15.597844
_cell_angle_alpha 90.000000
_cell_angle_beta 90.000000
_cell_angle_gamma 90.000000
_cell_volume 3318.778506
_symmetry_space_group_name_H-M "P C C M"
_symmetry_group_IT_number 49
_symmetry_cell_setting 'orthorhombic'
loop_
_space_group_symop_operation_xyz
x,y,z
-x,-y,z
x,-y,1/2-z
-x,y,1/2-z
-x,-y,-z
x,y,-z
-x,y,1/2+z
x,-y,1/2+z
loop_
_atom_site_type_symbol
_atom_site_label
_atom_site_fract_x
_atom_site_fract_y
_atom_site_fract_z
Si Si1 0.716399 0.690055 0.596499
Si Si2 0.951811 0.607125 0.902070
Si Si3 0.998222 0.173448 0.150089
Si Si4 0.594104 0.371690 0.753372
Si Si5 0.177535 0.885015 0.145561
Si Si6 0.692205 0.703106 0.905476
Si Si7 0.790846 0.486622 0.348727
Si Si8 0.177213 0.123755 0.146943
O O1 0.685890 0.681185 0.500000
O O2 0.646186 0.665932 0.664583
O O3 0.760412 0.800766 0.609907
O O4 0.785356 0.601678 0.611174
O O5 0.873268 0.576503 0.850419
O O6 0.000000 0.500000 0.905548
O O7 0.000636 0.700865 0.859875
O O8 0.930630 0.637084 0.000000
O O9 0.914268 0.131840 0.114555
O O10 0.000000 0.142017 0.250000
O O11 0.085522 0.140035 0.115665
O O12 0.600057 0.500000 0.750000
O O13 0.500000 0.348628 0.750000
O O14 0.631469 0.308648 0.672897
O O15 0.176246 0.868129 0.249059
O O16 0.201330 0.004598 0.126178
O O17 0.732566 0.588192 0.901336
O O18 0.761188 0.789577 0.887527
O O19 0.657976 0.721663 0.000000
O O20 0.767962 0.500000 0.250000
#
# Coordination Sequence:
#
# PCOD9394170 Si02
#       8
#     8   8   8   8   8   8   8   8
#     4  12  23  40  64  92 129 166 203 252 310 371
#     4  11  24  35  48  77 116 160 211 264 311 362
#     4  10  21  34  55  83 119 164 214 265 312 353
#     4  11  24  44  69  99 131 160 197 245 306 382
#     4  10  21  38  60  88 123 169 219 264 308 358
#     4  12  22  39  66  95 127 161 202 252 307 371
#     4  12  22  37  60  84 119 164 210 250 306 369
#     4  10  20  38  62  88 123 167 218 267 307 357
#
# _framework density 19.284203999999999
#
# number of rings (size 3 to 8) (size 9 to 14) (size 15 to 20)
#    0.000    1.000    5.000    2.250    3.500    4.000 
#    0.000    1.250    0.000    3.750    0.000    1.750 
#    0.000    0.000    0.000    0.000    0.000    0.000 
#
# Total GULP energy -357241.926414 kJ/mol
# GULP energy per Si atom -5581.905100 kJ/mol
# Density = 1.924031 g / cm^3
# Si number density = 19.284204 Si / 1000 Ang^3
#
#
#
# Elastic Constant Matrix: (Units=GPa)
#
#
# Indices 1 2 3 4 5 6 
#
# 1 101.1750 35.6800 45.1159 0.0000 0.0000 0.0000
# 2 35.6800 103.8496 30.9812 0.0000 0.0000 0.0000
# 3 45.1159 30.9812 112.8644 0.0000 0.0000 0.0000
# 4 0.0000 0.0000 0.0000 1.1237 0.0000 0.0000
# 5 0.0000 0.0000 0.0000 0.0000 1.0244 0.0000
# 6 0.0000 0.0000 0.0000 0.0000 0.0000 5.3055
#
#
#
# Elastic Compliance Matrix: (Units=1/GPa)
#
#
# Indices 1 2 3 4 5 6 
#
# 1 0.012912 -0.003155 -0.004295 0.000000 0.000000 0.000000
# 2 -0.003155 0.011259 -0.001830 0.000000 0.000000 0.000000
# 3 -0.004295 -0.001830 0.011079 0.000000 0.000000 0.000000
# 4 0.000000 0.000000 0.000000 0.889954 0.000000 0.000000
# 5 0.000000 0.000000 0.000000 0.000000 0.976195 0.000000
# 6 0.000000 0.000000 0.000000 0.000000 0.000000 0.188484
#
#
# Mechanical properties :
#
#
# Convention : Reuss Voigt Hill
#
# Bulk Modulus (GPa) = 59.91257 60.16035 60.03646
# Shear Modulus (GPa) = 2.36518 15.23151 8.79834
#
# Velocity S-wave (km/s) = 1.10867 2.81346 2.13831
# Velocity P-wave (km/s) = 5.72490 6.46673 6.10709
#
# Compressibility (1/GPa) = 0.01669099
#
# Stress axis : x y z
#
# Youngs Moduli (GPa) = 77.44879 88.81790 90.25774
#
# Poissons Ratio (x) = 0.28020 0.38769
# Poissons Ratio (y) = 0.24433 0.16513
# Poissons Ratio (z) = 0.33267 0.16249
#
# Static dielectric constant tensor:
#      x y z
#    x 1.683660 0.000000 0.000000 
#    y 0.000000 1.663990 0.000000 
#    z 0.000000 0.000000 1.873710 
# 
# From -- ./inp_files/14184.got.cif
#   From: 2010.05.17/outbox.cif.g08.bks.cpg/sg49_8_cif.got.tgz:14184.got - 2010.06.03 21:02:19.
