data_PCOD9394156
_publ_section_title
;
Structure prediction by ZEFSAII (Michael W. Deem and Ramdas Pophale) SiO2 
 PCOD9394156
Probable space group: P C C M
;
_chemical_formula_sum "Si O2"
_cell_formula_units_Z 64
_cell_length_a 14.299204
_cell_length_b 11.844134
_cell_length_c 18.474246
_cell_angle_alpha 90.000000
_cell_angle_beta 90.000000
_cell_angle_gamma 90.000000
_cell_volume 3128.829492
_symmetry_space_group_name_H-M "P C C M"
_symmetry_group_IT_number 49
_symmetry_cell_setting 'orthorhombic'
loop_
_space_group_symop_operation_xyz
x,y,z
-x,-y,z
x,-y,1/2-z
-x,y,1/2-z
-x,-y,-z
x,y,-z
-x,y,1/2+z
x,-y,1/2+z
loop_
_atom_site_type_symbol
_atom_site_label
_atom_site_fract_x
_atom_site_fract_y
_atom_site_fract_z
Si Si1 0.066756 0.739661 0.918974
Si Si2 0.366153 0.045100 0.326213
Si Si3 0.486670 0.260265 0.663800
Si Si4 0.322697 0.416887 0.317973
Si Si5 0.135127 0.744260 0.366043
Si Si6 0.338850 0.181752 0.915611
Si Si7 0.841204 0.498109 0.415020
Si Si8 0.196008 0.800280 0.211124
O O1 0.088523 0.604908 0.910886
O O2 0.127082 0.794594 0.856225
O O3 0.959403 0.773729 0.907989
O O4 0.098072 0.769357 0.000000
O O5 0.431255 0.145139 0.356832
O O6 0.267482 0.099407 0.303426
O O7 0.404349 0.000000 0.250000
O O8 0.352428 0.941287 0.379895
O O9 0.500000 0.255253 0.750000
O O10 0.418998 0.366254 0.651630
O O11 0.586468 0.261269 0.625300
O O12 0.337339 0.500000 0.250000
O O13 0.258808 0.465601 0.382353
O O14 0.262026 0.310987 0.288086
O O15 0.232763 0.778228 0.402893
O O16 0.130420 0.607965 0.366210
O O17 0.140782 0.797761 0.286352
O O18 0.359729 0.179364 0.000000
O O19 0.836539 0.465201 0.500000
#
# Coordination Sequence:
#
# PCOD9394156 Si02
#       8
#     8   8   8   8   8   8   8   8
#     4  10  22  38  60  93 130 168 209 260 319 373
#     4  11  21  42  67  88 118 159 206 259 320 380
#     4  11  23  39  63  91 122 165 209 261 314 380
#     4  10  20  38  60  90 125 163 213 257 312 375
#     4  12  21  40  63  90 130 170 213 262 311 379
#     4  12  26  41  65  98 127 163 215 271 328 382
#     4  10  21  37  60  89 127 170 208 255 318 376
#     4  10  21  38  66  94 120 162 216 262 310 386
#
# _framework density 20.454933
#
# number of rings (size 3 to 8) (size 9 to 14) (size 15 to 20)
#    0.000    1.250    3.750    3.000    0.000    3.250 
#    0.000    4.375    0.000    3.000    0.000    0.000 
#    0.000    0.000    0.000    0.000    0.000    0.000 
#
# Total GULP energy -357653.358300 kJ/mol
# GULP energy per Si atom -5588.333723 kJ/mol
# Density = 2.040838 g / cm^3
# Si number density = 20.454933 Si / 1000 Ang^3
#
#
#
# Elastic Constant Matrix: (Units=GPa)
#
#
# Indices 1 2 3 4 5 6 
#
# 1 129.7642 41.1542 52.8767 0.0000 0.0000 0.0000
# 2 41.1542 16.9792 12.1957 0.0000 0.0000 0.0000
# 3 52.8767 12.1957 124.1579 0.0000 0.0000 0.0000
# 4 0.0000 0.0000 0.0000 2.8841 0.0000 0.0000
# 5 0.0000 0.0000 0.0000 0.0000 15.2798 0.0000
# 6 0.0000 0.0000 0.0000 0.0000 0.0000 63.6497
#
#
#
# Elastic Compliance Matrix: (Units=1/GPa)
#
#
# Indices 1 2 3 4 5 6 
#
# 1 0.039521 -0.090054 -0.007985 0.000000 0.000000 0.000000
# 2 -0.090054 0.268571 0.011972 0.000000 0.000000 0.000000
# 3 -0.007985 0.011972 0.010279 0.000000 0.000000 0.000000
# 4 0.000000 0.000000 0.000000 0.346729 0.000000 0.000000
# 5 0.000000 0.000000 0.000000 0.000000 0.065446 0.000000
# 6 0.000000 0.000000 0.000000 0.000000 0.000000 0.015711
#
#
# Mechanical properties :
#
#
# Convention : Reuss Voigt Hill
#
# Bulk Modulus (GPa) = 6.83834 53.70606 30.27220
# Shear Modulus (GPa) = 5.16990 27.34103 16.25546
#
# Velocity S-wave (km/s) = 1.59152 3.65998 2.82209
# Velocity P-wave (km/s) = 2.59377 6.64631 5.04485
#
# Compressibility (1/GPa) = 0.14623432
#
# Stress axis : x y z
#
# Youngs Moduli (GPa) = 25.30327 3.72341 97.28458
#
# Poissons Ratio (x) = 0.33531 0.77685
# Poissons Ratio (y) = 2.27867 -1.16464
# Poissons Ratio (z) = 0.20205 -0.04457
#
# Static dielectric constant tensor:
#      x y z
#    x 1.751020 0.000000 0.000000 
#    y 0.000000 1.759860 0.000000 
#    z 0.000000 0.000000 1.686120 
# 
# From -- ./inp_files/17939.got.cif
#   From: 2010.05.17/outbox.cif.g08.bks.cpg/sg49_9_cif.got.tgz:17939.got - 2010.06.03 21:02:19.
