data_PCOD9394574
_publ_section_title
;
Structure prediction by ZEFSAII (Michael W. Deem and Ramdas Pophale) SiO2 
 PCOD9394574
Probable space group: P C C M
;
_chemical_formula_sum "Si O2"
_cell_formula_units_Z 64
_cell_length_a 11.741412
_cell_length_b 16.754744
_cell_length_c 14.776709
_cell_angle_alpha 90.000000
_cell_angle_beta 90.000000
_cell_angle_gamma 90.000000
_cell_volume 2906.938507
_symmetry_space_group_name_H-M "P C C M"
_symmetry_group_IT_number 49
_symmetry_cell_setting 'orthorhombic'
loop_
_space_group_symop_operation_xyz
x,y,z
-x,-y,z
x,-y,1/2-z
-x,y,1/2-z
-x,-y,-z
x,y,-z
-x,y,1/2+z
x,-y,1/2+z
loop_
_atom_site_type_symbol
_atom_site_label
_atom_site_fract_x
_atom_site_fract_y
_atom_site_fract_z
Si Si1 0.533738 0.105953 0.393041
Si Si2 0.246022 0.163861 0.101017
Si Si3 0.001521 0.594608 0.853810
Si Si4 0.364823 0.405370 0.262317
Si Si5 0.784377 0.698937 0.604843
Si Si6 0.231950 0.659619 0.594659
Si Si7 0.306456 0.950748 0.108828
Si Si8 0.132503 0.858289 0.782393
O O1 0.514056 0.095913 0.500000
O O2 0.619328 0.178466 0.381858
O O3 0.406869 0.109800 0.354992
O O4 0.619749 0.031890 0.370180
O O5 0.190806 0.249708 0.098583
O O6 0.193228 0.123645 0.187092
O O7 0.233144 0.127484 0.000000
O O8 0.108139 0.638862 0.896926
O O9 0.000000 0.500000 0.851386
O O10 0.000000 0.624234 0.750000
O O11 0.883902 0.612641 0.901096
O O12 0.332362 0.500000 0.250000
O O13 0.500000 0.400980 0.250000
O O14 0.314572 0.355486 0.348046
O O15 0.306785 0.362142 0.178566
O O16 0.757792 0.723138 0.500000
O O17 0.824008 0.776132 0.666607
O O18 0.294186 0.646519 0.500000
O O19 0.186684 0.927757 0.153567
O O20 0.291026 0.946914 0.000000
O O21 0.000000 0.855021 0.750000
#
# Coordination Sequence:
#
# PCOD9394574 Si02
#       8
#     8   8   8   8   8   8   8   8
#     4   8  17  38  68  99 128 164 218 275 329 387
#     4  10  21  39  63  89 123 169 218 270 327 389
#     4  11  21  37  64  94 123 158 207 268 330 391
#     4  11  25  44  64  91 130 172 216 271 338 412
#     4  12  25  43  67  96 130 171 223 281 337 400
#     4  11  22  39  63  90 123 165 214 267 325 386
#     4   9  19  39  67  99 134 170 215 276 332 387
#     4  12  25  41  62  94 137 178 220 272 334 402
#
# _framework density 22.016289
#
# number of rings (size 3 to 8) (size 9 to 14) (size 15 to 20)
#    0.000    1.500    2.500    3.375    0.000    7.000 
#    0.000    5.000    0.000    2.250    0.000    0.000 
#    0.000    0.000    0.000    0.000    0.000    0.000 
#
# Total GULP energy -356330.590055 kJ/mol
# GULP energy per Si atom -5567.665470 kJ/mol
# Density = 2.196618 g / cm^3
# Si number density = 22.016289 Si / 1000 Ang^3
#
#
#
# Elastic Constant Matrix: (Units=GPa)
#
#
# Indices 1 2 3 4 5 6 
#
# 1 101.1725 25.9695 42.5851 0.0000 0.0000 0.0000
# 2 25.9695 64.3158 23.8202 0.0000 0.0000 0.0000
# 3 42.5851 23.8202 137.8524 0.0000 0.0000 0.0000
# 4 0.0000 0.0000 0.0000 21.1508 0.0000 0.0000
# 5 0.0000 0.0000 0.0000 0.0000 23.9262 0.0000
# 6 0.0000 0.0000 0.0000 0.0000 0.0000 46.7568
#
#
#
# Elastic Compliance Matrix: (Units=1/GPa)
#
#
# Indices 1 2 3 4 5 6 
#
# 1 0.012156 -0.003758 -0.003106 0.000000 0.000000 0.000000
# 2 -0.003758 0.017773 -0.001910 0.000000 0.000000 0.000000
# 3 -0.003106 -0.001910 0.008544 0.000000 0.000000 0.000000
# 4 0.000000 0.000000 0.000000 0.047280 0.000000 0.000000
# 5 0.000000 0.000000 0.000000 0.000000 0.041795 0.000000
# 6 0.000000 0.000000 0.000000 0.000000 0.000000 0.021387
#
#
# Mechanical properties :
#
#
# Convention : Reuss Voigt Hill
#
# Bulk Modulus (GPa) = 47.79047 54.23224 51.01135
# Shear Modulus (GPa) = 28.82543 32.43116 30.62830
#
# Velocity S-wave (km/s) = 3.62232 3.84220 3.73388
# Velocity P-wave (km/s) = 6.26490 6.66105 6.46601
#
# Compressibility (1/GPa) = 0.02092467
#
# Stress axis : x y z
#
# Youngs Moduli (GPa) = 82.26355 56.26461 117.04589
#
# Poissons Ratio (x) = 0.21145 0.36353
# Poissons Ratio (y) = 0.30915 0.22358
# Poissons Ratio (z) = 0.25550 0.10747
#
# Static dielectric constant tensor:
#      x y z
#    x 1.853400 0.000000 0.000000 
#    y 0.000000 1.925610 0.000000 
#    z 0.000000 0.000000 1.875460 
# 
# From -- ./inp_files/13074.got.cif
#   From: 2010.05.17/outbox.cif.g08.bks.cpg/sg49_7_cif.got.tgz:13074.got - 2010.06.03 21:02:19.
