data_PCOD9394276
_publ_section_title
;
Structure prediction by ZEFSAII (Michael W. Deem and Ramdas Pophale) SiO2 
 PCOD9394276
Probable space group: P C C M
;
_chemical_formula_sum "Si O2"
_cell_formula_units_Z 38
_cell_length_a 16.813853
_cell_length_b 12.915300
_cell_length_c 9.953688
_cell_angle_alpha 90.000000
_cell_angle_beta 90.000000
_cell_angle_gamma 90.000000
_cell_volume 2161.502630
_symmetry_space_group_name_H-M "P C C M"
_symmetry_group_IT_number 49
_symmetry_cell_setting 'orthorhombic'
loop_
_space_group_symop_operation_xyz
x,y,z
-x,-y,z
x,-y,1/2-z
-x,y,1/2-z
-x,-y,-z
x,y,-z
-x,y,1/2+z
x,-y,1/2+z
loop_
_atom_site_type_symbol
_atom_site_label
_atom_site_fract_x
_atom_site_fract_y
_atom_site_fract_z
Si Si1 0.250237 0.255207 0.159159
Si Si2 0.567604 0.204802 0.652675
Si Si3 0.117601 0.091419 0.148472
Si Si4 0.000000 0.259453 0.250000
Si Si5 0.858277 0.398827 0.158088
Si Si6 0.500000 0.000000 0.250000
O O1 0.343009 0.237075 0.186460
O O2 0.201589 0.148039 0.173961
O O3 0.210425 0.334405 0.263800
O O4 0.240499 0.285877 0.000000
O O5 0.500000 0.249615 0.750000
O O6 0.551842 0.234487 0.500000
O O7 0.554534 0.080302 0.667453
O O8 0.053595 0.183215 0.160778
O O9 0.101237 0.000000 0.250000
O O10 0.116759 0.046998 0.000000
O O11 0.061540 0.330437 0.331028
O O12 0.870431 0.500000 0.250000
O O13 0.841414 0.419308 0.000000
#
# Coordination Sequence:
#
# PCOD9394276 Si02
#       6
#     8   8   8   4   8   2
#     4   9  20  38  54  77 112 148 183 225 271 321
#     4   9  18  31  51  77 111 147 182 221 263 309
#     4  10  21  34  51  74 106 146 184 222 262 312
#     4  10  22  38  56  76 108 140 180 222 268 326
#     4  11  23  39  61  85 105 136 177 226 282 333
#     4   8  18  28  50  80 112 146 190 220 266 312
#
# _framework density 17.580362000000001
#
# number of rings (size 3 to 8) (size 9 to 14) (size 15 to 20)
#    0.632    1.684    0.000    2.211    1.474    9.263 
#    0.000    0.000    0.000    0.632    0.000    4.421 
#    0.000    0.000    0.000    0.000    0.000    0.000 
#
# Total GULP energy -211649.364917 kJ/mol
# GULP energy per Si atom -5569.720129 kJ/mol
# Density = 1.754035 g / cm^3
# Si number density = 17.580362 Si / 1000 Ang^3
#
#
#
# Elastic Constant Matrix: (Units=GPa)
#
#
# Indices 1 2 3 4 5 6 
#
# 1 140.6480 39.6405 67.1474 0.0000 0.0000 0.0000
# 2 39.6405 82.1655 65.3402 0.0000 0.0000 0.0000
# 3 67.1474 65.3402 129.8585 0.0000 0.0000 0.0000
# 4 0.0000 0.0000 0.0000 21.9558 0.0000 0.0000
# 5 0.0000 0.0000 0.0000 0.0000 44.0315 0.0000
# 6 0.0000 0.0000 0.0000 0.0000 0.0000 10.7346
#
#
#
# Elastic Compliance Matrix: (Units=1/GPa)
#
#
# Indices 1 2 3 4 5 6 
#
# 1 0.009503 -0.001129 -0.004346 0.000000 0.000000 0.000000
# 2 -0.001129 0.020423 -0.009692 0.000000 0.000000 0.000000
# 3 -0.004346 -0.009692 0.014825 0.000000 0.000000 0.000000
# 4 0.000000 0.000000 0.000000 0.045546 0.000000 0.000000
# 5 0.000000 0.000000 0.000000 0.000000 0.022711 0.000000
# 6 0.000000 0.000000 0.000000 0.000000 0.000000 0.093157
#
#
# Mechanical properties :
#
#
# Convention : Reuss Voigt Hill
#
# Bulk Modulus (GPa) = 69.36510 77.43649 73.40080
# Shear Modulus (GPa) = 20.72081 27.38063 24.05072
#
# Velocity S-wave (km/s) = 3.43685 3.95074 3.70272
# Velocity P-wave (km/s) = 7.43579 8.05940 7.75386
#
# Compressibility (1/GPa) = 0.01441647
#
# Stress axis : x y z
#
# Youngs Moduli (GPa) = 105.23195 48.96506 67.45508
#
# Poissons Ratio (x) = 0.05527 0.29315
# Poissons Ratio (y) = 0.11878 0.65380
# Poissons Ratio (z) = 0.45732 0.47459
#
# Static dielectric constant tensor:
#      x y z
#    x 1.596350 0.000000 0.000000 
#    y 0.000000 1.593530 0.000000 
#    z 0.000000 0.000000 1.602490 
# 
# From -- ./inp_files/4666.got.cif
#   From: 2010.05.17/outbox.cif.g08.bks.cpg/sg49_3_cif.got.tgz:4666.got - 2010.06.03 21:02:19.
