data_PCOD9394950
_publ_section_title
;
Structure prediction by ZEFSAII (Michael W. Deem and Ramdas Pophale) SiO2 
 PCOD9394950
Probable space group: P C C M
;
_chemical_formula_sum "Si O2"
_cell_formula_units_Z 48
_cell_length_a 16.651059
_cell_length_b 7.132079
_cell_length_c 15.281499
_cell_angle_alpha 90.000000
_cell_angle_beta 90.000000
_cell_angle_gamma 90.000000
_cell_volume 1814.779907
_symmetry_space_group_name_H-M "P C C M"
_symmetry_group_IT_number 49
_symmetry_cell_setting 'orthorhombic'
loop_
_space_group_symop_operation_xyz
x,y,z
-x,-y,z
x,-y,1/2-z
-x,y,1/2-z
-x,-y,-z
x,y,-z
-x,y,1/2+z
x,-y,1/2+z
loop_
_atom_site_type_symbol
_atom_site_label
_atom_site_fract_x
_atom_site_fract_y
_atom_site_fract_z
Si Si1 0.653067 0.909496 0.165378
Si Si2 0.666319 0.689652 0.399896
Si Si3 0.899749 0.656152 0.098098
Si Si4 0.071649 0.791868 0.096725
Si Si5 0.494431 0.229306 0.898514
Si Si6 0.199625 0.260325 0.267026
O O1 0.596030 0.744309 0.133517
O O2 0.735169 0.839293 0.205264
O O3 0.609986 0.000000 0.250000
O O4 0.670273 0.080023 0.099785
O O5 0.675494 0.622580 0.500000
O O6 0.574514 0.669890 0.363998
O O7 0.738801 0.635237 0.335451
O O8 0.920024 0.435442 0.092520
O O9 0.854923 0.658090 0.190380
O O10 0.975543 0.798311 0.110453
O O11 0.864896 0.698880 0.000000
O O12 0.136575 0.847693 0.169556
O O13 0.092516 0.863584 0.000000
O O14 0.500000 0.000000 0.892583
O O15 0.496689 0.275078 0.000000
#
# Coordination Sequence:
#
# PCOD9394950 Si02
#       6
#     8   8   8   8   8   8
#     4   9  18  27  41  67  98 130 161 195 229 267
#     4   9  18  31  46  68  98 132 166 196 229 270
#     4   9  19  34  53  75  95 117 148 191 243 292
#     4   9  18  35  55  73  94 118 148 191 242 292
#     4   8  14  27  45  62  87 126 165 198 232 266
#     4  11  19  27  47  77 102 122 149 192 241 286
#
# _framework density 26.449487999999999
#
# number of rings (size 3 to 8) (size 9 to 14) (size 15 to 20)
#    0.000    2.833    0.000    4.000    0.000   10.333 
#    0.000    0.000    0.000   18.000    0.000   35.000 
#    0.000   21.333    0.000    0.000    0.000    0.000 
#
# Total GULP energy -267478.912402 kJ/mol
# GULP energy per Si atom -5572.477342 kJ/mol
# Density = 2.638929 g / cm^3
# Si number density = 26.449488 Si / 1000 Ang^3
#
#
#
# Elastic Constant Matrix: (Units=GPa)
#
#
# Indices 1 2 3 4 5 6 
#
# 1 156.4688 13.2290 93.2085 0.0000 0.0000 0.0000
# 2 13.2290 68.8752 6.6274 0.0000 0.0000 0.0000
# 3 93.2085 6.6274 154.9072 0.0000 0.0000 0.0000
# 4 0.0000 0.0000 0.0000 21.6586 0.0000 0.0000
# 5 0.0000 0.0000 0.0000 0.0000 86.2580 0.0000
# 6 0.0000 0.0000 0.0000 0.0000 0.0000 24.3936
#
#
#
# Elastic Compliance Matrix: (Units=1/GPa)
#
#
# Indices 1 2 3 4 5 6 
#
# 1 0.010087 -0.001359 -0.006011 0.000000 0.000000 0.000000
# 2 -0.001359 0.014762 0.000186 0.000000 0.000000 0.000000
# 3 -0.006011 0.000186 0.010064 0.000000 0.000000 0.000000
# 4 0.000000 0.000000 0.000000 0.046171 0.000000 0.000000
# 5 0.000000 0.000000 0.000000 0.000000 0.011593 0.000000
# 6 0.000000 0.000000 0.000000 0.000000 0.000000 0.040994
#
#
# Mechanical properties :
#
#
# Convention : Reuss Voigt Hill
#
# Bulk Modulus (GPa) = 48.67268 67.37567 58.02417
# Shear Modulus (GPa) = 32.28135 44.27447 38.27791
#
# Velocity S-wave (km/s) = 3.49734 4.09580 3.80835
# Velocity P-wave (km/s) = 5.89496 6.92070 6.42832
#
# Compressibility (1/GPa) = 0.02054541
#
# Stress axis : x y z
#
# Youngs Moduli (GPa) = 99.13967 67.74092 99.35967
#
# Poissons Ratio (x) = 0.09206 0.59726
# Poissons Ratio (y) = 0.13473 -0.01850
# Poissons Ratio (z) = 0.59594 -0.01261
#
# Static dielectric constant tensor:
#      x y z
#    x 2.197640 0.000000 0.000000 
#    y 0.000000 2.374620 0.000000 
#    z 0.000000 0.000000 2.076860 
# 
# From -- ./inp_files/13462.got.cif
#   From: 2010.05.17/outbox.cif.g08.bks.cpg/sg49_7_cif.got.tgz:13462.got - 2010.06.03 21:02:19.
