data_PCOD9394593
_publ_section_title
;
Structure prediction by ZEFSAII (Michael W. Deem and Ramdas Pophale) SiO2 
 PCOD9394593
Probable space group: P C C M
;
_chemical_formula_sum "Si O2"
_cell_formula_units_Z 56
_cell_length_a 8.483709
_cell_length_b 14.187306
_cell_length_c 22.116554
_cell_angle_alpha 90.000000
_cell_angle_beta 90.000000
_cell_angle_gamma 90.000000
_cell_volume 2661.970016
_symmetry_space_group_name_H-M "P C C M"
_symmetry_group_IT_number 49
_symmetry_cell_setting 'orthorhombic'
loop_
_space_group_symop_operation_xyz
x,y,z
-x,-y,z
x,-y,1/2-z
-x,y,1/2-z
-x,-y,-z
x,y,-z
-x,y,1/2+z
x,-y,1/2+z
loop_
_atom_site_type_symbol
_atom_site_label
_atom_site_fract_x
_atom_site_fract_y
_atom_site_fract_z
Si Si1 0.182565 0.026405 0.429738
Si Si2 0.123942 0.680264 0.432405
Si Si3 0.641355 0.784526 0.428389
Si Si4 0.678738 0.279506 0.731200
Si Si5 0.825898 0.354410 0.149197
Si Si6 0.304400 0.155146 0.878721
Si Si7 0.669695 0.548006 0.861629
O O1 0.227329 0.009063 0.500000
O O2 0.278204 0.954611 0.388184
O O3 0.226862 0.134549 0.417625
O O4 0.000000 0.000000 0.422827
O O5 0.059696 0.668518 0.500000
O O6 0.192684 0.784893 0.423748
O O7 0.263733 0.605925 0.418861
O O8 0.994703 0.662080 0.380871
O O9 0.616577 0.775588 0.500000
O O10 0.702039 0.689209 0.398606
O O11 0.481545 0.817090 0.396473
O O12 0.500000 0.256635 0.750000
O O13 0.789292 0.301348 0.788155
O O14 0.734240 0.196281 0.687178
O O15 0.664620 0.374412 0.691240
O O16 0.788468 0.464298 0.155588
O O17 0.500000 0.500000 0.869744
#
# Coordination Sequence:
#
# PCOD9394593 Si02
#       7
#     8   8   8   8   8   8   8
#     4  10  21  39  64  95 132 171 215 272 333 399
#     4  11  25  42  61  95 137 171 214 277 343 399
#     4  11  22  37  64  97 126 170 221 266 329 399
#     4  11  22  43  68  93 124 166 221 276 322 390
#     4  12  23  40  65  91 129 172 216 268 331 392
#     4  11  22  40  66  94 125 167 219 275 328 389
#     4  11  23  39  66  93 123 174 224 273 325 390
#
# _framework density 21.037053
#
# number of rings (size 3 to 8) (size 9 to 14) (size 15 to 20)
#    0.000    1.000    2.857    4.714    0.000    6.571 
#    0.000    3.571    0.000    0.857    0.000    0.000 
#    0.000    0.000    0.000    0.000    0.000    0.000 
#
# Total GULP energy -313245.306382 kJ/mol
# GULP energy per Si atom -5593.666185 kJ/mol
# Density = 2.098917 g / cm^3
# Si number density = 21.037053 Si / 1000 Ang^3
#
#
#
# Elastic Constant Matrix: (Units=GPa)
#
#
# Indices 1 2 3 4 5 6 
#
# 1 61.2540 -3.2466 14.8097 0.0000 0.0000 0.0000
# 2 -3.2466 39.8408 19.1947 0.0000 0.0000 0.0000
# 3 14.8097 19.1947 97.2382 0.0000 0.0000 0.0000
# 4 0.0000 0.0000 0.0000 1.0849 0.0000 0.0000
# 5 0.0000 0.0000 0.0000 0.0000 29.0318 0.0000
# 6 0.0000 0.0000 0.0000 0.0000 0.0000 36.2963
#
#
#
# Elastic Compliance Matrix: (Units=1/GPa)
#
#
# Indices 1 2 3 4 5 6 
#
# 1 0.017259 0.002954 -0.003212 0.000000 0.000000 0.000000
# 2 0.002954 0.028243 -0.006025 0.000000 0.000000 0.000000
# 3 -0.003212 -0.006025 0.011962 0.000000 0.000000 0.000000
# 4 0.000000 0.000000 0.000000 0.921728 0.000000 0.000000
# 5 0.000000 0.000000 0.000000 0.000000 0.034445 0.000000
# 6 0.000000 0.000000 0.000000 0.000000 0.000000 0.027551
#
#
# Mechanical properties :
#
#
# Convention : Reuss Voigt Hill
#
# Bulk Modulus (GPa) = 22.27247 28.87205 25.57226
# Shear Modulus (GPa) = 4.67849 24.45429 14.56639
#
# Velocity S-wave (km/s) = 1.49290 3.41315 2.63423
# Velocity P-wave (km/s) = 3.68537 5.41175 4.62974
#
# Compressibility (1/GPa) = 0.04489847
#
# Stress axis : x y z
#
# Youngs Moduli (GPa) = 57.94244 35.40653 83.59463
#
# Poissons Ratio (x) = -0.10458 0.26847
# Poissons Ratio (y) = -0.17114 0.50366
# Poissons Ratio (z) = 0.18609 0.21333
#
# Static dielectric constant tensor:
#      x y z
#    x 1.796200 0.000000 0.000000 
#    y 0.000000 1.722390 0.000000 
#    z 0.000000 0.000000 1.751070 
# 
# From -- ./inp_files/19902.got.cif
#   From: 2010.05.17/outbox.cif.g08.bks.cpg/sg49_10_cif.got.tgz:19902.got - 2010.06.03 21:02:19.
