data_PCOD9394985
_publ_section_title
;
Structure prediction by ZEFSAII (Michael W. Deem and Ramdas Pophale) SiO2 
 PCOD9394985
Probable space group: P C C M
;
_chemical_formula_sum "Si O2"
_cell_formula_units_Z 40
_cell_length_a 7.872489
_cell_length_b 28.184459
_cell_length_c 8.531977
_cell_angle_alpha 90.000000
_cell_angle_beta 90.000000
_cell_angle_gamma 90.000000
_cell_volume 1893.090785
_symmetry_space_group_name_H-M "P C C M"
_symmetry_group_IT_number 49
_symmetry_cell_setting 'orthorhombic'
loop_
_space_group_symop_operation_xyz
x,y,z
-x,-y,z
x,-y,1/2-z
-x,y,1/2-z
-x,-y,-z
x,y,-z
-x,y,1/2+z
x,-y,1/2+z
loop_
_atom_site_type_symbol
_atom_site_label
_atom_site_fract_x
_atom_site_fract_y
_atom_site_fract_z
Si Si1 0.809133 0.548339 0.313562
Si Si2 0.305501 0.848890 0.189257
Si Si3 0.304821 0.951138 0.812072
Si Si4 0.304395 0.253524 0.688480
Si Si5 0.309932 0.350664 0.813540
O O1 0.722554 0.500000 0.250000
O O2 0.804703 0.546992 0.500000
O O3 0.747061 0.599041 0.253917
O O4 0.000000 0.546670 0.250000
O O5 0.500000 0.849108 0.250000
O O6 0.229752 0.899906 0.238284
O O7 0.229055 0.797849 0.236927
O O8 0.310095 0.848750 0.000000
O O9 0.500000 0.950667 0.750000
O O10 0.225593 0.000000 0.750000
O O11 0.308303 0.953269 0.000000
O O12 0.500000 0.251543 0.750000
O O13 0.306950 0.257103 0.500000
O O14 0.223526 0.301733 0.755825
O O15 0.500000 0.346323 0.750000
O O16 0.303836 0.352249 0.000000
#
# Coordination Sequence:
#
# PCOD9394985 Si02
#       5
#     8   8   8   8   8
#     4  11  22  39  59  80 103 131 162 195 233 280
#     4   8  14  21  30  43  63  91 127 168 215 264
#     4   9  14  19  25  36  54  81 118 164 210 256
#     4   9  15  25  39  57  80 109 142 182 228 276
#     4  11  21  34  51  75 102 130 162 201 242 284
#
# _framework density 21.129469
#
# number of rings (size 3 to 8) (size 9 to 14) (size 15 to 20)
#    0.000    2.400    0.000    7.200    0.000    2.000 
#    0.000    2.000    0.000    0.000    0.000    0.000 
#    0.000    0.000    0.000    0.000    0.000    1.000 
#
# Total GULP energy -222768.458588 kJ/mol
# GULP energy per Si atom -5569.211465 kJ/mol
# Density = 2.108138 g / cm^3
# Si number density = 21.129469 Si / 1000 Ang^3
#
#
#
# Elastic Constant Matrix: (Units=GPa)
#
#
# Indices 1 2 3 4 5 6 
#
# 1 16.2802 21.9326 -0.7631 0.0000 0.0000 0.0000
# 2 21.9326 313.1234 82.1407 0.0000 0.0000 0.0000
# 3 -0.7631 82.1407 129.5061 0.0000 0.0000 0.0000
# 4 0.0000 0.0000 0.0000 43.4744 0.0000 0.0000
# 5 0.0000 0.0000 0.0000 0.0000 8.3440 0.0000
# 6 0.0000 0.0000 0.0000 0.0000 0.0000 -80.3986
#
#
#
# Elastic Compliance Matrix: (Units=1/GPa)
#
#
# Indices 1 2 3 4 5 6 
#
# 1 0.069684 -0.005984 0.004206 0.000000 0.000000 0.000000
# 2 -0.005984 0.004345 -0.002791 0.000000 0.000000 0.000000
# 3 0.004206 -0.002791 0.009517 0.000000 0.000000 0.000000
# 4 0.000000 0.000000 0.000000 0.023002 0.000000 0.000000
# 5 0.000000 0.000000 0.000000 0.000000 0.119847 0.000000
# 6 0.000000 0.000000 0.000000 0.000000 0.000000 -0.012438
#
#
# Mechanical properties :
#
#
# Convention : Reuss Voigt Hill
#
# Bulk Modulus (GPa) = 13.43963 73.94781 43.69372
# Shear Modulus (GPa) = 20.16966 17.99058 19.08012
#
# Velocity S-wave (km/s) = 3.09297 2.92112 3.00827
# Velocity P-wave (km/s) = 4.37375 6.81547 5.72627
#
# Compressibility (1/GPa) = 0.07440680
#
# Stress axis : x y z
#
# Youngs Moduli (GPa) = 14.35058 230.15029 105.07819
#
# Poissons Ratio (x) = 1.37730 -0.44198
# Poissons Ratio (y) = 0.08588 0.29329
# Poissons Ratio (z) = -0.06036 0.64238
#
# Static dielectric constant tensor:
#      x y z
#    x 1.744270 0.000000 0.000000 
#    y 0.000000 1.962280 0.000000 
#    z 0.000000 0.000000 1.708000 
# 
# From -- ./inp_files/1907.got.cif
#   From: 2010.05.17/outbox.cif.g08.bks.cpg/sg49_1_cif.got.tgz:1907.got - 2010.06.03 21:02:19.
