data_PCOD9394438
_publ_section_title
;
Structure prediction by ZEFSAII (Michael W. Deem and Ramdas Pophale) SiO2 
 PCOD9394438
Probable space group: P C C M
;
_chemical_formula_sum "Si O2"
_cell_formula_units_Z 48
_cell_length_a 8.604260
_cell_length_b 15.437163
_cell_length_c 14.631809
_cell_angle_alpha 90.000000
_cell_angle_beta 90.000000
_cell_angle_gamma 90.000000
_cell_volume 1943.475358
_symmetry_space_group_name_H-M "P C C M"
_symmetry_group_IT_number 49
_symmetry_cell_setting 'orthorhombic'
loop_
_space_group_symop_operation_xyz
x,y,z
-x,-y,z
x,-y,1/2-z
-x,y,1/2-z
-x,-y,-z
x,y,-z
-x,y,1/2+z
x,-y,1/2+z
loop_
_atom_site_type_symbol
_atom_site_label
_atom_site_fract_x
_atom_site_fract_y
_atom_site_fract_z
Si Si1 0.126339 0.118748 0.611622
Si Si2 0.231362 0.703932 0.897660
Si Si3 0.084920 0.382995 0.153301
Si Si4 0.666007 0.478690 0.855997
Si Si5 0.797810 0.791692 0.889398
Si Si6 0.664311 0.038046 0.388474
O O1 0.129063 0.116848 0.500000
O O2 0.226213 0.201309 0.644841
O O3 0.952927 0.151393 0.632960
O O4 0.198781 0.028038 0.642204
O O5 0.321931 0.624008 0.858556
O O6 0.055909 0.663173 0.900974
O O7 0.289012 0.716596 0.000000
O O8 0.182693 0.464158 0.113527
O O9 0.200931 0.300863 0.159750
O O10 0.000000 0.403351 0.250000
O O11 0.500000 0.500000 0.898999
O O12 0.662520 0.500000 0.750000
O O13 0.670124 0.861524 0.862471
O O14 0.793630 0.776539 0.000000
O O15 0.674775 0.038086 0.500000
O O16 0.500000 0.000000 0.361684
#
# Coordination Sequence:
#
# PCOD9394438 Si02
#       6
#     8   8   8   8   8   8
#     4   8  15  29  49  76 108 141 181 229 279 321
#     4  10  21  37  61  89 113 145 194 248 287 332
#     4  11  21  37  61  84 109 152 194 238 289 348
#     4  11  24  40  57  82 116 154 189 227 289 361
#     4   9  18  32  53  83 114 145 188 240 281 327
#     4   9  16  27  48  79 116 153 184 221 277 338
#
# _framework density 24.698025000000001
#
# number of rings (size 3 to 8) (size 9 to 14) (size 15 to 20)
#    0.000    2.333    1.667    2.500    0.000    5.667 
#    0.000    1.667    0.000    8.000    0.000    4.667 
#    0.000    0.000    0.000    0.000    0.000    0.000 
#
# Total GULP energy -267738.405736 kJ/mol
# GULP energy per Si atom -5577.883453 kJ/mol
# Density = 2.464181 g / cm^3
# Si number density = 24.698025 Si / 1000 Ang^3
#
#
#
# Elastic Constant Matrix: (Units=GPa)
#
#
# Indices 1 2 3 4 5 6 
#
# 1 46.3350 9.2786 -3.7583 0.0000 0.0000 0.0000
# 2 9.2786 146.3233 8.9684 0.0000 0.0000 0.0000
# 3 -3.7583 8.9684 59.1959 0.0000 0.0000 0.0000
# 4 0.0000 0.0000 0.0000 19.5741 0.0000 0.0000
# 5 0.0000 0.0000 0.0000 0.0000 -181.7263 0.0000
# 6 0.0000 0.0000 0.0000 0.0000 0.0000 9.6331
#
#
#
# Elastic Compliance Matrix: (Units=1/GPa)
#
#
# Indices 1 2 3 4 5 6 
#
# 1 0.022013 -0.001495 0.001624 0.000000 0.000000 0.000000
# 2 -0.001495 0.007000 -0.001155 0.000000 0.000000 0.000000
# 3 0.001624 -0.001155 0.017171 0.000000 0.000000 0.000000
# 4 0.000000 0.000000 0.000000 0.051088 0.000000 0.000000
# 5 0.000000 0.000000 0.000000 0.000000 -0.005503 0.000000
# 6 0.000000 0.000000 0.000000 0.000000 0.000000 0.103809
#
#
# Mechanical properties :
#
#
# Convention : Reuss Voigt Hill
#
# Bulk Modulus (GPa) = 22.65991 31.20351 26.93171
# Shear Modulus (GPa) = 23.54690 -14.67946 4.43372
#
# Velocity S-wave (km/s) = 3.09105 -2.44059 1.34129
# Velocity P-wave (km/s) = 4.68340 2.17243 3.65059
#
# Compressibility (1/GPa) = 0.04413079
#
# Stress axis : x y z
#
# Youngs Moduli (GPa) = 45.42738 142.86067 58.23693
#
# Poissons Ratio (x) = 0.21364 -0.09459
# Poissons Ratio (y) = 0.06793 0.06729
# Poissons Ratio (z) = -0.07378 0.16507
#
# Static dielectric constant tensor:
#      x y z
#    x 2.062590 0.000000 0.000000 
#    y 0.000000 2.059230 0.000000 
#    z 0.000000 0.000000 2.032610 
# 
# From -- ./inp_files/16286.got.cif
#   From: 2010.05.17/outbox.cif.g08.bks.cpg/sg49_9_cif.got.tgz:16286.got - 2010.06.03 21:02:19.
