data_PCOD9394605
_publ_section_title
;
Structure prediction by ZEFSAII (Michael W. Deem and Ramdas Pophale) SiO2 
 PCOD9394605
Probable space group: P C C M
;
_chemical_formula_sum "Si O2"
_cell_formula_units_Z 56
_cell_length_a 12.972832
_cell_length_b 9.630249
_cell_length_c 21.583913
_cell_angle_alpha 90.000000
_cell_angle_beta 90.000000
_cell_angle_gamma 90.000000
_cell_volume 2696.512837
_symmetry_space_group_name_H-M "P C C M"
_symmetry_group_IT_number 49
_symmetry_cell_setting 'orthorhombic'
loop_
_space_group_symop_operation_xyz
x,y,z
-x,-y,z
x,-y,1/2-z
-x,y,1/2-z
-x,-y,-z
x,y,-z
-x,y,1/2+z
x,-y,1/2+z
loop_
_atom_site_type_symbol
_atom_site_label
_atom_site_fract_x
_atom_site_fract_y
_atom_site_fract_z
Si Si1 0.806538 0.909501 0.632739
Si Si2 0.755079 0.471125 0.680611
Si Si3 0.880092 0.853843 0.500000
Si Si4 0.608461 0.579393 0.570556
Si Si5 0.137684 0.778697 0.367884
Si Si6 0.601887 0.909678 0.571633
Si Si7 0.886102 0.190437 0.500000
Si Si8 0.067144 0.314118 0.687935
O O1 0.829307 0.828893 0.567107
O O2 0.687455 0.945409 0.622807
O O3 0.847716 0.808037 0.685453
O O4 0.863340 0.056053 0.641085
O O5 0.714380 0.500000 0.750000
O O6 0.683740 0.527906 0.625344
O O7 0.783882 0.309722 0.672794
O O8 0.865897 0.549537 0.676729
O O9 0.991639 0.783117 0.500000
O O10 0.885016 0.022414 0.500000
O O11 0.500000 0.500000 0.575602
O O12 0.649476 0.556613 0.500000
O O13 0.586554 0.744179 0.576137
O O14 0.167860 0.755906 0.439020
O O15 0.021249 0.725066 0.360604
O O16 0.637032 0.939173 0.500000
O O17 0.500000 0.000000 0.580790
O O18 0.000000 0.319909 0.750000
#
# Coordination Sequence:
#
# PCOD9394605 Si02
#       8
#     8   8   4   8   8   8   4   8
#     4  11  21  38  64  96 127 174 224 275 336 401
#     4  12  26  46  67  94 135 187 227 274 342 414
#     4   9  16  32  56  84 129 162 209 262 331 404
#     4  10  24  47  74 104 134 172 228 288 347 416
#     4  11  24  37  62  94 131 176 221 277 329 407
#     4  10  21  39  67 102 137 171 214 281 352 410
#     4   9  18  34  52  89 124 166 215 268 331 380
#     4  12  24  44  62  89 135 181 233 277 327 402
#
# _framework density 20.767562999999999
#
# number of rings (size 3 to 8) (size 9 to 14) (size 15 to 20)
#    0.000    1.286    5.000    0.857    3.000    1.429 
#    1.286    0.714    0.000    0.000    0.000    0.000 
#    0.000    0.000    0.000    0.000    0.000    0.000 
#
# Total GULP energy -312473.973828 kJ/mol
# GULP energy per Si atom -5579.892390 kJ/mol
# Density = 2.072030 g / cm^3
# Si number density = 20.767563 Si / 1000 Ang^3
#
#
#
# Elastic Constant Matrix: (Units=GPa)
#
#
# Indices 1 2 3 4 5 6 
#
# 1 85.3871 29.7452 41.0731 0.0000 0.0000 0.0000
# 2 29.7452 75.6128 36.9727 0.0000 0.0000 0.0000
# 3 41.0731 36.9727 103.7275 0.0000 0.0000 0.0000
# 4 0.0000 0.0000 0.0000 24.8533 0.0000 0.0000
# 5 0.0000 0.0000 0.0000 0.0000 40.4264 0.0000
# 6 0.0000 0.0000 0.0000 0.0000 0.0000 33.0973
#
#
#
# Elastic Compliance Matrix: (Units=1/GPa)
#
#
# Indices 1 2 3 4 5 6 
#
# 1 0.015274 -0.003695 -0.004731 0.000000 0.000000 0.000000
# 2 -0.003695 0.016911 -0.004564 0.000000 0.000000 0.000000
# 3 -0.004731 -0.004564 0.013141 0.000000 0.000000 0.000000
# 4 0.000000 0.000000 0.000000 0.040236 0.000000 0.000000
# 5 0.000000 0.000000 0.000000 0.000000 0.024736 0.000000
# 6 0.000000 0.000000 0.000000 0.000000 0.000000 0.030214
#
#
# Mechanical properties :
#
#
# Convention : Reuss Voigt Hill
#
# Bulk Modulus (GPa) = 51.69434 53.36768 52.53101
# Shear Modulus (GPa) = 28.91132 30.13784 29.52458
#
# Velocity S-wave (km/s) = 3.73518 3.81359 3.77459
# Velocity P-wave (km/s) = 6.59909 6.71898 6.65931
#
# Compressibility (1/GPa) = 0.01934448
#
# Stress axis : x y z
#
# Youngs Moduli (GPa) = 65.46887 59.13340 76.09800
#
# Poissons Ratio (x) = 0.21852 0.36002
# Poissons Ratio (y) = 0.24194 0.34735
# Poissons Ratio (z) = 0.30974 0.26991
#
# Static dielectric constant tensor:
#      x y z
#    x 1.756530 0.000000 0.000000 
#    y 0.000000 1.760650 0.000000 
#    z 0.000000 0.000000 1.811070 
# 
# From -- ./inp_files/20901.got.cif
#   From: 2010.05.17/outbox.cif.g08.bks.cpg/sg49_11_cif.got.tgz:20901.got - 2010.06.03 21:02:19.
