data_PCOD9394579
_publ_section_title
;
Structure prediction by ZEFSAII (Michael W. Deem and Ramdas Pophale) SiO2 
 PCOD9394579
Probable space group: P C C M
;
_chemical_formula_sum "Si O2"
_cell_formula_units_Z 58
_cell_length_a 23.127988
_cell_length_b 5.341658
_cell_length_c 19.986917
_cell_angle_alpha 90.000000
_cell_angle_beta 90.000000
_cell_angle_gamma 90.000000
_cell_volume 2469.219745
_symmetry_space_group_name_H-M "P C C M"
_symmetry_group_IT_number 49
_symmetry_cell_setting 'orthorhombic'
loop_
_space_group_symop_operation_xyz
x,y,z
-x,-y,z
x,-y,1/2-z
-x,y,1/2-z
-x,-y,-z
x,y,-z
-x,y,1/2+z
x,-y,1/2+z
loop_
_atom_site_type_symbol
_atom_site_label
_atom_site_fract_x
_atom_site_fract_y
_atom_site_fract_z
Si Si1 0.500000 0.000000 0.000000
Si Si2 0.825580 0.807474 0.925541
Si Si3 0.256834 0.577768 0.321604
Si Si4 0.373607 0.140827 0.814745
Si Si5 0.559916 0.632653 0.910308
Si Si6 0.668257 0.262541 0.077102
Si Si7 0.097972 0.305755 0.426029
Si Si8 0.935328 0.749527 0.720828
O O1 0.453992 0.102223 0.943901
O O2 0.782617 0.763938 0.864536
O O3 0.871275 0.576673 0.921461
O O4 0.856188 0.077093 0.922870
O O5 0.798100 0.784426 0.000000
O O6 0.229900 0.500000 0.250000
O O7 0.315640 0.710723 0.299357
O O8 0.279271 0.376630 0.377696
O O9 0.425983 0.318856 0.834394
O O10 0.391369 0.000000 0.750000
O O11 0.355504 0.963577 0.877180
O O12 0.500000 0.500000 0.926971
O O13 0.616221 0.469241 0.929675
O O14 0.684526 0.197650 0.000000
O O15 0.069727 0.290077 0.500000
O O16 0.061143 0.265628 0.359162
O O17 0.906777 0.500000 0.750000
O O18 0.000000 0.751603 0.750000
O O19 0.906530 0.000000 0.750000
#
# Coordination Sequence:
#
# PCOD9394579 Si02
#       8
#     2   8   8   8   8   8   8   8
#     4  12  22  44  66  98 124 156 216 272 328 422
#     4  10  23  41  67 103 139 183 235 291 352 425
#     4  11  24  43  66  96 133 172 220 274 337 418
#     4  11  25  45  68  92 129 172 209 267 335 406
#     4  11  25  41  66  93 127 157 209 268 330 397
#     4  11  24  43  67  96 127 167 213 269 335 400
#     4  10  22  42  66  98 142 187 236 295 358 412
#     4  10  21  39  63  97 138 185 241 295 348 412
#
# _framework density 23.4892
#
# number of rings (size 3 to 8) (size 9 to 14) (size 15 to 20)
#    0.000    1.379    2.069    2.276    4.828    2.759 
#    0.000    7.931    0.000    0.000    0.000    0.000 
#    0.000    0.000    0.000    0.000    0.000    0.000 
#
# Total GULP energy -323121.164837 kJ/mol
# GULP energy per Si atom -5571.054566 kJ/mol
# Density = 2.343574 g / cm^3
# Si number density = 23.489200 Si / 1000 Ang^3
#
#
#
# Elastic Constant Matrix: (Units=GPa)
#
#
# Indices 1 2 3 4 5 6 
#
# 1 52.8389 3.1753 35.7997 0.0000 0.0000 0.0000
# 2 3.1753 86.8680 8.8098 0.0000 0.0000 0.0000
# 3 35.7997 8.8098 178.9238 0.0000 0.0000 0.0000
# 4 0.0000 0.0000 0.0000 64.6141 0.0000 0.0000
# 5 0.0000 0.0000 0.0000 0.0000 41.0578 0.0000
# 6 0.0000 0.0000 0.0000 0.0000 0.0000 7.2950
#
#
#
# Elastic Compliance Matrix: (Units=1/GPa)
#
#
# Indices 1 2 3 4 5 6 
#
# 1 0.021904 -0.000358 -0.004365 0.000000 0.000000 0.000000
# 2 -0.000358 0.011575 -0.000498 0.000000 0.000000 0.000000
# 3 -0.004365 -0.000498 0.006487 0.000000 0.000000 0.000000
# 4 0.000000 0.000000 0.000000 0.015477 0.000000 0.000000
# 5 0.000000 0.000000 0.000000 0.000000 0.024356 0.000000
# 6 0.000000 0.000000 0.000000 0.000000 0.000000 0.137079
#
#
# Mechanical properties :
#
#
# Convention : Reuss Voigt Hill
#
# Bulk Modulus (GPa) = 33.87088 46.02226 39.94657
# Shear Modulus (GPa) = 21.08259 40.64977 30.86618
#
# Velocity S-wave (km/s) = 2.99915 4.16453 3.62893
# Velocity P-wave (km/s) = 5.14240 6.53910 5.88235
#
# Compressibility (1/GPa) = 0.02952388
#
# Stress axis : x y z
#
# Youngs Moduli (GPa) = 45.65288 86.39054 154.15706
#
# Poissons Ratio (x) = 0.03093 0.67291
# Poissons Ratio (y) = 0.01634 0.07682
# Poissons Ratio (z) = 0.19928 0.04305
#
# Static dielectric constant tensor:
#      x y z
#    x 1.265300 0.000000 0.000000 
#    y 0.000000 1.455870 0.000000 
#    z 0.000000 0.000000 1.983140 
# 
# From -- ./inp_files/18416.got.cif
#   From: 2010.05.17/outbox.cif.g08.bks.cpg/sg49_10_cif.got.tgz:18416.got - 2010.06.03 21:02:19.
