data_PCOD9394069
_publ_section_title
;
Structure prediction by ZEFSAII (Michael W. Deem and Ramdas Pophale) SiO2 
 PCOD9394069
Probable space group: P C C M
;
_chemical_formula_sum "Si O2"
_cell_formula_units_Z 48
_cell_length_a 14.941476
_cell_length_b 18.028706
_cell_length_c 9.511241
_cell_angle_alpha 90.000000
_cell_angle_beta 90.000000
_cell_angle_gamma 90.000000
_cell_volume 2562.095091
_symmetry_space_group_name_H-M "P C C M"
_symmetry_group_IT_number 49
_symmetry_cell_setting 'orthorhombic'
loop_
_space_group_symop_operation_xyz
x,y,z
-x,-y,z
x,-y,1/2-z
-x,y,1/2-z
-x,-y,-z
x,y,-z
-x,y,1/2+z
x,-y,1/2+z
loop_
_atom_site_type_symbol
_atom_site_label
_atom_site_fract_x
_atom_site_fract_y
_atom_site_fract_z
Si Si1 0.412610 0.360162 0.164944
Si Si2 0.784138 0.818634 0.164444
Si Si3 0.106122 0.569055 0.500000
Si Si4 0.093944 0.608415 0.000000
Si Si5 0.418044 0.179933 0.159024
Si Si6 0.904496 0.927159 0.671228
Si Si7 0.786759 0.646027 0.763141
O O1 0.500000 0.387496 0.250000
O O2 0.419405 0.270152 0.161777
O O3 0.318313 0.375844 0.243099
O O4 0.409599 0.383925 0.000000
O O5 0.682277 0.841285 0.200177
O O6 0.847644 0.857408 0.276720
O O7 0.789210 0.729729 0.177672
O O8 0.803164 0.838143 0.000000
O O9 0.095812 0.481030 0.500000
O O10 0.164847 0.591057 0.631701
O O11 0.013907 0.617303 0.500000
O O12 0.150119 0.640832 0.871388
O O13 0.500000 0.152241 0.250000
O O14 0.431827 0.156267 0.000000
O O15 0.910947 0.934025 0.500000
O O16 0.000000 0.919126 0.750000
O O17 0.864655 0.000000 0.750000
#
# Coordination Sequence:
#
# PCOD9394069 Si02
#       7
#     8   8   4   4   8   8   8
#     4   9  17  31  54  81 112 148 184 231 293 350
#     4  10  20  37  58  85 121 153 189 239 292 335
#     4  11  22  46  57  79 112 158 195 246 299 359
#     4  11  26  36  63  85 108 150 209 240 295 361
#     4   8  15  28  48  77 111 148 183 227 279 334
#     4  11  23  40  61  85 117 157 197 234 285 347
#     4  11  21  39  60  86 119 150 193 251 297 344
#
# _framework density 18.734667000000002
#
# number of rings (size 3 to 8) (size 9 to 14) (size 15 to 20)
#    0.000    2.000    1.667    4.000    2.333    3.333 
#    3.000    0.000    0.000    3.500    0.000    3.500 
#    0.000    0.000    0.000    0.000    0.000    0.000 
#
# Total GULP energy -267330.866407 kJ/mol
# GULP energy per Si atom -5569.393050 kJ/mol
# Density = 1.869203 g / cm^3
# Si number density = 18.734667 Si / 1000 Ang^3
#
#
#
# Elastic Constant Matrix: (Units=GPa)
#
#
# Indices 1 2 3 4 5 6 
#
# 1 116.2454 15.1889 36.1146 0.0000 0.0000 0.0000
# 2 15.1889 23.2809 7.4918 0.0000 0.0000 0.0000
# 3 36.1146 7.4918 81.4909 0.0000 0.0000 0.0000
# 4 0.0000 0.0000 0.0000 23.1020 0.0000 0.0000
# 5 0.0000 0.0000 0.0000 0.0000 30.8675 0.0000
# 6 0.0000 0.0000 0.0000 0.0000 0.0000 -29.0337
#
#
#
# Elastic Compliance Matrix: (Units=1/GPa)
#
#
# Indices 1 2 3 4 5 6 
#
# 1 0.010638 -0.005589 -0.004201 0.000000 0.000000 0.000000
# 2 -0.005589 0.047199 -0.001863 0.000000 0.000000 0.000000
# 3 -0.004201 -0.001863 0.014304 0.000000 0.000000 0.000000
# 4 0.000000 0.000000 0.000000 0.043286 0.000000 0.000000
# 5 0.000000 0.000000 0.000000 0.000000 0.032397 0.000000
# 6 0.000000 0.000000 0.000000 0.000000 0.000000 -0.034443
#
#
# Mechanical properties :
#
#
# Convention : Reuss Voigt Hill
#
# Bulk Modulus (GPa) = 20.47596 37.62308 29.04952
# Shear Modulus (GPa) = 32.68749 15.80193 24.24471
#
# Velocity S-wave (km/s) = 4.18156 2.90739 3.60128
# Velocity P-wave (km/s) = 5.85381 5.60323 5.72989
#
# Compressibility (1/GPa) = 0.04883776
#
# Stress axis : x y z
#
# Youngs Moduli (GPa) = 94.00521 21.18681 69.90994
#
# Poissons Ratio (x) = 0.11840 0.29366
# Poissons Ratio (y) = 0.52535 0.13021
# Poissons Ratio (z) = 0.39488 0.03946
#
# Static dielectric constant tensor:
#      x y z
#    x 1.691090 0.000000 0.000000 
#    y 0.000000 1.655920 0.000000 
#    z 0.000000 0.000000 1.584250 
# 
# From -- ./inp_files/3764.got.cif
#   From: 2010.05.17/outbox.cif.g08.bks.cpg/sg49_2_cif.got.tgz:3764.got - 2010.06.03 21:02:19.
