data_PCOD9394850
_publ_section_title
;
Structure prediction by ZEFSAII (Michael W. Deem and Ramdas Pophale) SiO2 
 PCOD9394850
Probable space group: P C C M
;
_chemical_formula_sum "Si O2"
_cell_formula_units_Z 56
_cell_length_a 31.015284
_cell_length_b 5.188866
_cell_length_c 16.077116
_cell_angle_alpha 90.000000
_cell_angle_beta 90.000000
_cell_angle_gamma 90.000000
_cell_volume 2587.357040
_symmetry_space_group_name_H-M "P C C M"
_symmetry_group_IT_number 49
_symmetry_cell_setting 'orthorhombic'
loop_
_space_group_symop_operation_xyz
x,y,z
-x,-y,z
x,-y,1/2-z
-x,y,1/2-z
-x,-y,-z
x,y,-z
-x,y,1/2+z
x,-y,1/2+z
loop_
_atom_site_type_symbol
_atom_site_label
_atom_site_fract_x
_atom_site_fract_y
_atom_site_fract_z
Si Si1 0.451611 0.430178 0.098305
Si Si2 0.019466 0.753863 0.155633
Si Si3 0.841973 0.416332 0.344344
Si Si4 0.889151 0.896639 0.596068
Si Si5 0.694867 0.055752 0.151159
Si Si6 0.595894 0.074616 0.153688
Si Si7 0.253847 0.563375 0.596768
O O1 0.500000 0.500000 0.126905
O O2 0.435517 0.138706 0.112758
O O3 0.420846 0.636581 0.141911
O O4 0.449886 0.481327 0.000000
O O5 0.070257 0.794136 0.149965
O O6 0.000000 0.500000 0.115938
O O7 0.000000 0.752193 0.250000
O O8 0.000000 0.000000 0.111740
O O9 0.850810 0.500000 0.250000
O O10 0.855837 0.660816 0.399381
O O11 0.791106 0.380714 0.357084
O O12 0.868248 0.158655 0.368403
O O13 0.901869 0.939126 0.500000
O O14 0.720376 0.319474 0.133311
O O15 0.695723 0.000000 0.250000
O O16 0.645113 0.065776 0.122856
O O17 0.717661 0.818056 0.106438
O O18 0.596400 0.000000 0.250000
O O19 0.244743 0.512755 0.500000
#
# Coordination Sequence:
#
# PCOD9394850 Si02
#       7
#     8   8   8   8   8   8   8
#     4  11  24  41  62  90 129 172 219 276 335 400
#     4  10  23  40  67  96 135 174 220 266 317 386
#     4  12  27  45  72  99 135 183 224 268 330 404
#     4  12  26  45  70 104 140 174 223 283 332 381
#     4  11  24  43  67  95 134 172 218 272 332 404
#     4  11  24  41  64  95 127 169 220 275 332 396
#     4  12  25  44  68  99 134 171 220 274 332 389
#
# _framework density 21.643708
#
# number of rings (size 3 to 8) (size 9 to 14) (size 15 to 20)
#    0.000    0.714    0.000    7.286    6.000    9.143 
#    0.000    0.000    0.000    0.000    0.000    0.000 
#    0.000    0.000    0.000    0.000    0.000    0.000 
#
# Total GULP energy -313235.030999 kJ/mol
# GULP energy per Si atom -5593.482696 kJ/mol
# Density = 2.159445 g / cm^3
# Si number density = 21.643708 Si / 1000 Ang^3
#
#
#
# Elastic Constant Matrix: (Units=GPa)
#
#
# Indices 1 2 3 4 5 6 
#
# 1 127.7294 39.5960 26.6973 0.0000 0.0000 0.0000
# 2 39.5960 139.5548 6.8498 0.0000 0.0000 0.0000
# 3 26.6973 6.8498 77.9298 0.0000 0.0000 0.0000
# 4 0.0000 0.0000 0.0000 29.9737 0.0000 0.0000
# 5 0.0000 0.0000 0.0000 0.0000 2.2999 0.0000
# 6 0.0000 0.0000 0.0000 0.0000 0.0000 45.7551
#
#
#
# Elastic Compliance Matrix: (Units=1/GPa)
#
#
# Indices 1 2 3 4 5 6 
#
# 1 0.009208 -0.002468 -0.002938 0.000000 0.000000 0.000000
# 2 -0.002468 0.007858 0.000155 0.000000 0.000000 0.000000
# 3 -0.002938 0.000155 0.013825 0.000000 0.000000 0.000000
# 4 0.000000 0.000000 0.000000 0.033363 0.000000 0.000000
# 5 0.000000 0.000000 0.000000 0.000000 0.434800 0.000000
# 6 0.000000 0.000000 0.000000 0.000000 0.000000 0.021855
#
#
# Mechanical properties :
#
#
# Convention : Reuss Voigt Hill
#
# Bulk Modulus (GPa) = 49.04564 54.61113 51.82838
# Shear Modulus (GPa) = 9.29009 33.74380 21.51694
#
# Velocity S-wave (km/s) = 2.07403 3.95277 3.15642
# Velocity P-wave (km/s) = 5.33340 6.79111 6.10591
#
# Compressibility (1/GPa) = 0.02038917
#
# Stress axis : x y z
#
# Youngs Moduli (GPa) = 108.59788 127.25190 72.33375
#
# Poissons Ratio (x) = 0.31412 0.21249
# Poissons Ratio (y) = 0.26807 -0.01121
# Poissons Ratio (z) = 0.31902 -0.01971
#
# Static dielectric constant tensor:
#      x y z
#    x 1.887320 0.000000 0.000000 
#    y 0.000000 1.757750 0.000000 
#    z 0.000000 0.000000 1.823040 
# 
# From -- ./inp_files/14602.got.cif
#   From: 2010.05.17/outbox.cif.g08.bks.cpg/sg49_8_cif.got.tgz:14602.got - 2010.06.03 21:02:19.
