data_PCOD9394222
_publ_section_title
;
Structure prediction by ZEFSAII (Michael W. Deem and Ramdas Pophale) SiO2 
 PCOD9394222
Probable space group: P C C M
;
_chemical_formula_sum "Si O2"
_cell_formula_units_Z 64
_cell_length_a 18.147815
_cell_length_b 8.069363
_cell_length_c 22.003456
_cell_angle_alpha 90.000000
_cell_angle_beta 90.000000
_cell_angle_gamma 90.000000
_cell_volume 3222.214853
_symmetry_space_group_name_H-M "P C C M"
_symmetry_group_IT_number 49
_symmetry_cell_setting 'orthorhombic'
loop_
_space_group_symop_operation_xyz
x,y,z
-x,-y,z
x,-y,1/2-z
-x,y,1/2-z
-x,-y,-z
x,y,-z
-x,y,1/2+z
x,-y,1/2+z
loop_
_atom_site_type_symbol
_atom_site_label
_atom_site_fract_x
_atom_site_fract_y
_atom_site_fract_z
Si Si1 0.036445 0.818743 0.065892
Si Si2 0.578276 0.298092 0.644542
Si Si3 0.172819 0.857639 0.297058
Si Si4 0.685601 0.686898 0.745292
Si Si5 0.030744 0.316479 0.189842
Si Si6 0.407284 0.672055 0.872630
Si Si7 0.814113 0.010744 0.930798
Si Si8 0.360917 0.990577 0.067142
O O1 0.998750 0.748260 0.125709
O O2 0.124775 0.843333 0.072768
O O3 0.022613 0.735590 0.000000
O O4 0.000000 0.000000 0.061830
O O5 0.616126 0.305533 0.709954
O O6 0.490408 0.300222 0.650750
O O7 0.599233 0.475518 0.612876
O O8 0.609358 0.133479 0.611994
O O9 0.251851 0.806613 0.270491
O O10 0.117520 0.703025 0.300667
O O11 0.174039 0.914894 0.367370
O O12 0.146050 0.000000 0.250000
O O13 0.715260 0.500000 0.750000
O O14 0.654006 0.715373 0.678251
O O15 0.000000 0.500000 0.191014
O O16 0.000000 0.226273 0.250000
O O17 0.397425 0.811600 0.923214
O O18 0.726827 0.042575 0.928798
O O19 0.827524 0.938035 0.000000
O O20 0.377366 0.054230 0.000000
#
# Coordination Sequence:
#
# PCOD9394222 Si02
#       8
#     8   8   8   8   8   8   8   8
#     4  10  20  39  66  90 115 161 215 258 303 364
#     4  10  21  40  62  89 123 161 204 260 318 367
#     4  12  23  39  66  92 122 164 210 255 316 375
#     4  10  22  39  62  91 121 158 203 258 313 377
#     4  11  26  41  57  92 132 162 199 256 319 380
#     4  10  22  39  62  90 124 161 205 259 313 373
#     4  10  21  39  63  90 123 161 210 262 309 369
#     4  11  23  40  60  90 127 165 211 258 312 382
#
# _framework density 19.862113999999998
#
# number of rings (size 3 to 8) (size 9 to 14) (size 15 to 20)
#    0.000    1.500    2.500    2.250    1.750    3.250 
#    2.250    2.500    0.000    0.000    0.000    0.000 
#    0.000    0.000    0.000    0.000    0.000    0.000 
#
# Total GULP energy -356374.736923 kJ/mol
# GULP energy per Si atom -5568.355264 kJ/mol
# Density = 1.981691 g / cm^3
# Si number density = 19.862114 Si / 1000 Ang^3
#
#
#
# Elastic Constant Matrix: (Units=GPa)
#
#
# Indices 1 2 3 4 5 6 
#
# 1 95.9249 25.3174 22.3130 0.0000 0.0000 0.0000
# 2 25.3174 58.9342 28.0887 0.0000 0.0000 0.0000
# 3 22.3130 28.0887 109.4444 0.0000 0.0000 0.0000
# 4 0.0000 0.0000 0.0000 7.0127 0.0000 0.0000
# 5 0.0000 0.0000 0.0000 0.0000 11.7697 0.0000
# 6 0.0000 0.0000 0.0000 0.0000 0.0000 23.8364
#
#
#
# Elastic Compliance Matrix: (Units=1/GPa)
#
#
# Indices 1 2 3 4 5 6 
#
# 1 0.011911 -0.004511 -0.001271 0.000000 0.000000 0.000000
# 2 -0.004511 0.021042 -0.004481 0.000000 0.000000 0.000000
# 3 -0.001271 -0.004481 0.010546 0.000000 0.000000 0.000000
# 4 0.000000 0.000000 0.000000 0.142598 0.000000 0.000000
# 5 0.000000 0.000000 0.000000 0.000000 0.084964 0.000000
# 6 0.000000 0.000000 0.000000 0.000000 0.000000 0.041953
#
#
# Mechanical properties :
#
#
# Convention : Reuss Voigt Hill
#
# Bulk Modulus (GPa) = 43.52774 46.19352 44.86063
# Shear Modulus (GPa) = 14.65435 21.09606 17.87521
#
# Velocity S-wave (km/s) = 2.71920 3.26256 3.00320
# Velocity P-wave (km/s) = 5.64104 6.12373 5.88733
#
# Compressibility (1/GPa) = 0.02297386
#
# Stress axis : x y z
#
# Youngs Moduli (GPa) = 83.95586 47.52510 94.82261
#
# Poissons Ratio (x) = 0.21440 0.12048
# Poissons Ratio (y) = 0.37875 0.42485
# Poissons Ratio (z) = 0.10667 0.21294
#
# Static dielectric constant tensor:
#      x y z
#    x 1.715870 0.000000 0.000000 
#    y 0.000000 1.715110 0.000000 
#    z 0.000000 0.000000 1.726650 
# 
# From -- ./inp_files/21084.got.cif
#   From: 2010.05.17/outbox.cif.g08.bks.cpg/sg49_11_cif.got.tgz:21084.got - 2010.06.03 21:02:19.
