data_PCOD9394353
_publ_section_title
;
Structure prediction by ZEFSAII (Michael W. Deem and Ramdas Pophale) SiO2 
 PCOD9394353
Probable space group: P C C M
;
_chemical_formula_sum "Si O2"
_cell_formula_units_Z 64
_cell_length_a 12.866949
_cell_length_b 14.781119
_cell_length_c 17.399380
_cell_angle_alpha 90.000000
_cell_angle_beta 90.000000
_cell_angle_gamma 90.000000
_cell_volume 3309.151619
_symmetry_space_group_name_H-M "P C C M"
_symmetry_group_IT_number 49
_symmetry_cell_setting 'orthorhombic'
loop_
_space_group_symop_operation_xyz
x,y,z
-x,-y,z
x,-y,1/2-z
-x,y,1/2-z
-x,-y,-z
x,y,-z
-x,y,1/2+z
x,-y,1/2+z
loop_
_atom_site_type_symbol
_atom_site_label
_atom_site_fract_x
_atom_site_fract_y
_atom_site_fract_z
Si Si1 0.690082 0.497769 0.658117
Si Si2 0.182148 0.775390 0.091481
Si Si3 0.882679 0.975254 0.406487
Si Si4 0.390474 0.308620 0.342409
Si Si5 0.975747 0.721830 0.838433
Si Si6 0.621326 0.705881 0.157869
Si Si7 0.797042 0.161961 0.407862
Si Si8 0.892498 0.447267 0.586184
O O1 0.709134 0.500000 0.750000
O O2 0.616977 0.583389 0.642421
O O3 0.649279 0.397987 0.636411
O O4 0.797257 0.508533 0.612408
O O5 0.155205 0.876991 0.120226
O O6 0.292181 0.739838 0.120303
O O7 0.086090 0.714568 0.119603
O O8 0.182236 0.776283 0.000000
O O9 0.886857 0.972096 0.500000
O O10 0.803460 0.056088 0.386173
O O11 0.000000 0.000000 0.380614
O O12 0.379944 0.294266 0.250699
O O13 0.503473 0.274646 0.368103
O O14 0.906390 0.798354 0.877996
O O15 0.907950 0.632080 0.852216
O O16 0.000000 0.738577 0.750000
O O17 0.704812 0.777557 0.127053
O O18 0.793205 0.169018 0.500000
O O19 0.873340 0.410101 0.500000
O O20 0.000000 0.500000 0.584486
#
# Coordination Sequence:
#
# PCOD9394353 Si02
#       8
#     8   8   8   8   8   8   8   8
#     4  10  21  36  60  84 114 155 202 244 291 352
#     4  11  22  39  62  88 120 155 197 248 297 351
#     4   9  18  36  61  87 117 156 194 236 295 358
#     4  10  22  40  60  86 119 157 200 247 297 352
#     4  12  24  36  57  85 122 159 194 236 300 363
#     4  10  21  40  62  85 118 159 202 243 293 357
#     4  11  21  38  63  89 116 151 200 248 294 353
#     4  11  24  37  53  81 119 159 200 245 291 348
#
# _framework density 19.340304
#
# number of rings (size 3 to 8) (size 9 to 14) (size 15 to 20)
#    0.000    1.500    2.500    3.000    3.500    3.500 
#    0.000    3.750    0.000    6.000    0.000    0.000 
#    0.000    0.000    0.000    0.000    0.000    0.000 
#
# Total GULP energy -357395.592330 kJ/mol
# GULP energy per Si atom -5584.306130 kJ/mol
# Density = 1.929628 g / cm^3
# Si number density = 19.340304 Si / 1000 Ang^3
#
#
#
# Elastic Constant Matrix: (Units=GPa)
#
#
# Indices 1 2 3 4 5 6 
#
# 1 137.4965 32.8265 33.2570 0.0000 0.0000 0.0000
# 2 32.8265 79.0290 16.0115 0.0000 0.0000 0.0000
# 3 33.2570 16.0115 33.5569 0.0000 0.0000 0.0000
# 4 0.0000 0.0000 0.0000 18.5936 0.0000 0.0000
# 5 0.0000 0.0000 0.0000 0.0000 102.3217 0.0000
# 6 0.0000 0.0000 0.0000 0.0000 0.0000 20.9175
#
#
#
# Elastic Compliance Matrix: (Units=1/GPa)
#
#
# Indices 1 2 3 4 5 6 
#
# 1 0.009949 -0.002363 -0.008733 0.000000 0.000000 0.000000
# 2 -0.002363 0.014569 -0.004609 0.000000 0.000000 0.000000
# 3 -0.008733 -0.004609 0.040654 0.000000 0.000000 0.000000
# 4 0.000000 0.000000 0.000000 0.053782 0.000000 0.000000
# 5 0.000000 0.000000 0.000000 0.000000 0.009773 0.000000
# 6 0.000000 0.000000 0.000000 0.000000 0.000000 0.047807
#
#
# Mechanical properties :
#
#
# Convention : Reuss Voigt Hill
#
# Bulk Modulus (GPa) = 29.61934 46.03027 37.82480
# Shear Modulus (GPa) = 22.81024 39.56571 31.18798
#
# Velocity S-wave (km/s) = 3.43799 4.52792 4.02006
# Velocity P-wave (km/s) = 5.57743 7.15457 6.41466
#
# Compressibility (1/GPa) = 0.03376172
#
# Stress axis : x y z
#
# Youngs Moduli (GPa) = 100.50845 68.63821 24.59771
#
# Poissons Ratio (x) = 0.16222 0.21481
# Poissons Ratio (y) = 0.23754 0.11338
# Poissons Ratio (z) = 0.87772 0.31637
#
# Static dielectric constant tensor:
#      x y z
#    x 1.652720 0.000000 0.000000 
#    y 0.000000 1.705730 0.000000 
#    z 0.000000 0.000000 1.668880 
# 
# From -- ./inp_files/17300.got.cif
#   From: 2010.05.17/outbox.cif.g08.bks.cpg/sg49_9_cif.got.tgz:17300.got - 2010.06.03 21:02:19.
