data_PCOD9394366
_publ_section_title
;
Structure prediction by ZEFSAII (Michael W. Deem and Ramdas Pophale) SiO2 
 PCOD9394366
Probable space group: P C C M
;
_chemical_formula_sum "Si O2"
_cell_formula_units_Z 48
_cell_length_a 32.127483
_cell_length_b 9.318200
_cell_length_c 8.578993
_cell_angle_alpha 90.000000
_cell_angle_beta 90.000000
_cell_angle_gamma 90.000000
_cell_volume 2568.295812
_symmetry_space_group_name_H-M "P C C M"
_symmetry_group_IT_number 49
_symmetry_cell_setting 'orthorhombic'
loop_
_space_group_symop_operation_xyz
x,y,z
-x,-y,z
x,-y,1/2-z
-x,y,1/2-z
-x,-y,-z
x,y,-z
-x,y,1/2+z
x,-y,1/2+z
loop_
_atom_site_type_symbol
_atom_site_label
_atom_site_fract_x
_atom_site_fract_y
_atom_site_fract_z
Si Si1 0.866006 0.662346 0.688231
Si Si2 0.042511 0.663388 0.813609
Si Si3 0.377454 0.839260 0.187546
Si Si4 0.454507 0.660381 0.686386
Si Si5 0.704234 0.661097 0.688005
Si Si6 0.214547 0.839022 0.188611
O O1 0.861514 0.500000 0.750000
O O2 0.865034 0.655402 0.500000
O O3 0.911927 0.721162 0.732838
O O4 0.827783 0.760275 0.741028
O O5 0.043037 0.500000 0.750000
O O6 0.000000 0.732282 0.750000
O O7 0.039923 0.659699 0.000000
O O8 0.418835 0.765653 0.253916
O O9 0.337312 0.745836 0.236140
O O10 0.373276 0.000000 0.250000
O O11 0.379376 0.840764 0.000000
O O12 0.445974 0.500000 0.750000
O O13 0.500000 0.702508 0.750000
O O14 0.455442 0.656534 0.500000
O O15 0.704265 0.500000 0.750000
O O16 0.704652 0.656377 0.500000
O O17 0.745334 0.747184 0.739355
O O18 0.216930 0.000000 0.250000
O O19 0.214481 0.842331 0.000000
#
# Coordination Sequence:
#
# PCOD9394366 Si02
#       6
#     8   8   8   8   8   8
#     4   9  18  31  49  73 102 132 170 214 259 309
#     4   9  15  24  40  65  95 127 161 206 255 304
#     4  11  23  39  58  85 117 151 188 228 274 327
#     4  11  22  39  62  88 117 152 192 236 280 327
#     4  10  22  38  59  84 111 141 179 222 267 318
#     4  10  21  37  54  77 106 138 174 216 262 314
#
# _framework density 18.689437000000002
#
# number of rings (size 3 to 8) (size 9 to 14) (size 15 to 20)
#    0.000    2.000    0.000    5.000    0.000    5.000 
#    0.000    1.667    0.000    0.500    0.000    3.500 
#    0.000    0.000    0.000    0.000    0.000    0.000 
#
# Total GULP energy -267977.753302 kJ/mol
# GULP energy per Si atom -5582.869860 kJ/mol
# Density = 1.864690 g / cm^3
# Si number density = 18.689437 Si / 1000 Ang^3
#
#
#
# Elastic Constant Matrix: (Units=GPa)
#
#
# Indices 1 2 3 4 5 6 
#
# 1 199.3665 118.4974 49.0784 0.0000 0.0000 0.0000
# 2 118.4974 134.8896 31.8649 0.0000 0.0000 0.0000
# 3 49.0784 31.8649 56.6367 0.0000 0.0000 0.0000
# 4 0.0000 0.0000 0.0000 30.6551 0.0000 0.0000
# 5 0.0000 0.0000 0.0000 0.0000 20.4520 0.0000
# 6 0.0000 0.0000 0.0000 0.0000 0.0000 -12.4657
#
#
#
# Elastic Compliance Matrix: (Units=1/GPa)
#
#
# Indices 1 2 3 4 5 6 
#
# 1 0.011599 -0.009013 -0.004980 0.000000 0.000000 0.000000
# 2 -0.009013 0.015553 -0.000940 0.000000 0.000000 0.000000
# 3 -0.004980 -0.000940 0.022501 0.000000 0.000000 0.000000
# 4 0.000000 0.000000 0.000000 0.032621 0.000000 0.000000
# 5 0.000000 0.000000 0.000000 0.000000 0.048895 0.000000
# 6 0.000000 0.000000 0.000000 0.000000 0.000000 -0.080220
#
#
# Mechanical properties :
#
#
# Convention : Reuss Voigt Hill
#
# Bulk Modulus (GPa) = 50.54035 87.75269 69.14652
# Shear Modulus (GPa) = 57.20106 20.49175 38.84641
#
# Velocity S-wave (km/s) = 5.53828 3.31484 4.56403
# Velocity P-wave (km/s) = 8.24607 7.85531 8.05306
#
# Compressibility (1/GPa) = 0.01978617
#
# Stress axis : x y z
#
# Youngs Moduli (GPa) = 86.21581 64.29549 44.44237
#
# Poissons Ratio (x) = 0.57948 0.22133
# Poissons Ratio (y) = 0.77705 0.04180
# Poissons Ratio (z) = 0.42937 0.06047
#
# Static dielectric constant tensor:
#      x y z
#    x 1.678560 0.000000 0.000000 
#    y 0.000000 1.594000 0.000000 
#    z 0.000000 0.000000 1.640400 
# 
# From -- ./inp_files/2061.got.cif
#   From: 2010.05.17/outbox.cif.g08.bks.cpg/sg49_2_cif.got.tgz:2061.got - 2010.06.03 21:02:19.
