data_PCOD9394942
_publ_section_title
;
Structure prediction by ZEFSAII (Michael W. Deem and Ramdas Pophale) SiO2 
 PCOD9394942
Probable space group: P C C M
;
_chemical_formula_sum "Si O2"
_cell_formula_units_Z 30
_cell_length_a 5.144229
_cell_length_b 22.435307
_cell_length_c 12.583993
_cell_angle_alpha 90.000000
_cell_angle_beta 90.000000
_cell_angle_gamma 90.000000
_cell_volume 1452.348291
_symmetry_space_group_name_H-M "P C C M"
_symmetry_group_IT_number 49
_symmetry_cell_setting 'orthorhombic'
loop_
_space_group_symop_operation_xyz
x,y,z
-x,-y,z
x,-y,1/2-z
-x,y,1/2-z
-x,-y,-z
x,y,-z
-x,y,1/2+z
x,-y,1/2+z
loop_
_atom_site_type_symbol
_atom_site_label
_atom_site_fract_x
_atom_site_fract_y
_atom_site_fract_z
Si Si1 0.751461 0.416466 0.323597
Si Si2 0.356158 0.758664 0.000000
Si Si3 0.500000 0.500000 0.500000
Si Si4 0.859478 0.681427 0.000000
Si Si5 0.251575 0.143206 0.323456
Si Si6 0.247378 0.041956 0.500000
O O1 0.500000 0.406015 0.250000
O O2 0.678678 0.468143 0.406544
O O3 0.809096 0.358798 0.396420
O O4 0.000000 0.428515 0.250000
O O5 0.651005 0.735115 0.000000
O O6 0.294876 0.799611 0.898421
O O7 0.154440 0.704173 0.000000
O O8 0.500000 0.136429 0.250000
O O9 0.235662 0.085651 0.398952
O O10 0.000000 0.149581 0.250000
O O11 0.500000 0.000000 0.500000
O O12 0.000000 0.000000 0.500000
#
# Coordination Sequence:
#
# PCOD9394942 Si02
#       6
#     8   4   2   4   8   4
#     4  11  25  44  68  98 132 173 219 268 329 392
#     4  11  24  42  64  94 129 167 212 266 321 384
#     4  10  26  46  68  98 136 172 218 274 324 392
#     4  11  24  42  66  96 131 167 215 270 320 386
#     4  11  24  41  63  92 126 167 213 261 321 386
#     4  11  24  41  62  91 126 164 213 267 317 378
#
# _framework density 20.656200999999999
#
# number of rings (size 3 to 8) (size 9 to 14) (size 15 to 20)
#    0.000    1.067    0.000    5.200    0.000   20.267 
#    0.000    0.000    0.000    0.000    0.000    0.000 
#    0.000    0.000    0.000    0.000    0.000    0.000 
#
# Total GULP energy -167462.465069 kJ/mol
# GULP energy per Si atom -5582.082169 kJ/mol
# Density = 2.060919 g / cm^3
# Si number density = 20.656201 Si / 1000 Ang^3
#
#
#
# Elastic Constant Matrix: (Units=GPa)
#
#
# Indices 1 2 3 4 5 6 
#
# 1 96.3678 10.4050 44.4579 0.0000 0.0000 0.0000
# 2 10.4050 66.6415 41.9100 0.0000 0.0000 0.0000
# 3 44.4579 41.9100 159.6752 0.0000 0.0000 0.0000
# 4 0.0000 0.0000 0.0000 -5.1578 0.0000 0.0000
# 5 0.0000 0.0000 0.0000 0.0000 40.7800 0.0000
# 6 0.0000 0.0000 0.0000 0.0000 0.0000 41.8126
#
#
#
# Elastic Compliance Matrix: (Units=1/GPa)
#
#
# Indices 1 2 3 4 5 6 
#
# 1 0.011910 0.000271 -0.003387 0.000000 0.000000 0.000000
# 2 0.000271 0.017978 -0.004794 0.000000 0.000000 0.000000
# 3 -0.003387 -0.004794 0.008464 0.000000 0.000000 0.000000
# 4 0.000000 0.000000 0.000000 -0.193880 0.000000 0.000000
# 5 0.000000 0.000000 0.000000 0.000000 0.024522 0.000000
# 6 0.000000 0.000000 0.000000 0.000000 0.000000 0.023916
#
#
# Mechanical properties :
#
#
# Convention : Reuss Voigt Hill
#
# Bulk Modulus (GPa) = 44.38264 57.35890 50.87077
# Shear Modulus (GPa) = -59.69616 30.54774 -14.57421
#
# Velocity S-wave (km/s) = -5.38169 3.84977 -2.65912
# Velocity P-wave (km/s) = 4.13326 6.89853 3.90550
#
# Compressibility (1/GPa) = 0.02253133
#
# Stress axis : x y z
#
# Youngs Moduli (GPa) = 83.96085 55.62234 118.14605
#
# Poissons Ratio (x) = -0.01505 0.40018
# Poissons Ratio (y) = -0.02271 0.56641
# Poissons Ratio (z) = 0.28439 0.26666
#
# Static dielectric constant tensor:
#      x y z
#    x 1.679490 0.000000 0.000000 
#    y 0.000000 1.752060 0.000000 
#    z 0.000000 0.000000 1.696580 
# 
# From -- ./inp_files/7445.got.cif
#   From: 2010.05.17/outbox.cif.g08.bks.cpg/sg49_4_cif.got.tgz:7445.got - 2010.06.03 21:02:19.
