data_PCOD9394341
_publ_section_title
;
Structure prediction by ZEFSAII (Michael W. Deem and Ramdas Pophale) SiO2 
 PCOD9394341
Probable space group: P C C M
;
_chemical_formula_sum "Si O2"
_cell_formula_units_Z 64
_cell_length_a 25.181295
_cell_length_b 15.465956
_cell_length_c 8.753973
_cell_angle_alpha 90.000000
_cell_angle_beta 90.000000
_cell_angle_gamma 90.000000
_cell_volume 3409.259300
_symmetry_space_group_name_H-M "P C C M"
_symmetry_group_IT_number 49
_symmetry_cell_setting 'orthorhombic'
loop_
_space_group_symop_operation_xyz
x,y,z
-x,-y,z
x,-y,1/2-z
-x,y,1/2-z
-x,-y,-z
x,y,-z
-x,y,1/2+z
x,-y,1/2+z
loop_
_atom_site_type_symbol
_atom_site_label
_atom_site_fract_x
_atom_site_fract_y
_atom_site_fract_z
Si Si1 0.943919 0.724572 0.683281
Si Si2 0.860208 0.407783 0.679785
Si Si3 0.327420 0.090747 0.819172
Si Si4 0.643188 0.274967 0.183804
Si Si5 0.238701 0.330143 0.675933
Si Si6 0.215490 0.872369 0.822369
Si Si7 0.904539 0.911264 0.316386
Si Si8 0.440849 0.592637 0.316628
O O1 0.944524 0.722075 0.500000
O O2 0.896568 0.665143 0.743349
O O3 0.933424 0.823670 0.733184
O O4 0.000000 0.694856 0.750000
O O5 0.874424 0.500000 0.750000
O O6 0.868476 0.407468 0.500000
O O7 0.799009 0.386939 0.719592
O O8 0.352853 0.176625 0.744384
O O9 0.264668 0.096680 0.778166
O O10 0.347210 0.000000 0.750000
O O11 0.334829 0.092356 0.000000
O O12 0.699732 0.320906 0.219829
O O13 0.596929 0.330703 0.259443
O O14 0.638164 0.273256 0.000000
O O15 0.234994 0.360426 0.500000
O O16 0.216873 0.231802 0.679965
O O17 0.157623 0.902584 0.771196
O O18 0.224486 0.898476 0.000000
O O19 0.905820 0.914332 0.500000
O O20 0.926574 0.000000 0.250000
O O21 0.421982 0.500000 0.250000
O O22 0.500000 0.605454 0.250000
O O23 0.442554 0.588703 0.500000
#
# Coordination Sequence:
#
# PCOD9394341 Si02
#       8
#     8   8   8   8   8   8   8   8
#     4  11  24  45  65  85 113 146 187 239 291 344
#     4  12  25  41  64  90 116 150 189 233 288 351
#     4  11  21  33  51  81 119 161 204 249 295 350
#     4  10  21  38  60  88 123 163 204 251 302 353
#     4   9  18  36  59  84 120 156 190 235 289 344
#     4   9  17  33  54  79 112 153 190 234 288 339
#     4  10  21  36  57  83 115 149 186 232 282 341
#     4  11  22  39  63  91 123 161 206 255 305 357
#
# _framework density 18.772406
#
# number of rings (size 3 to 8) (size 9 to 14) (size 15 to 20)
#    0.000    1.625    1.250    5.625    0.000    6.000 
#    0.000    2.500    0.000    0.375    0.000    2.625 
#    0.000    0.000    0.000    0.000    0.000    0.000 
#
# Total GULP energy -357629.912891 kJ/mol
# GULP energy per Si atom -5587.967389 kJ/mol
# Density = 1.872968 g / cm^3
# Si number density = 18.772406 Si / 1000 Ang^3
#
#
#
# Elastic Constant Matrix: (Units=GPa)
#
#
# Indices 1 2 3 4 5 6 
#
# 1 71.2160 46.9937 41.5056 0.0000 0.0000 0.0000
# 2 46.9937 106.0408 51.2317 0.0000 0.0000 0.0000
# 3 41.5056 51.2317 106.8693 0.0000 0.0000 0.0000
# 4 0.0000 0.0000 0.0000 26.1548 0.0000 0.0000
# 5 0.0000 0.0000 0.0000 0.0000 72.2659 0.0000
# 6 0.0000 0.0000 0.0000 0.0000 0.0000 -0.3169
#
#
#
# Elastic Compliance Matrix: (Units=1/GPa)
#
#
# Indices 1 2 3 4 5 6 
#
# 1 0.021699 -0.007216 -0.004968 0.000000 0.000000 0.000000
# 2 -0.007216 0.014672 -0.004231 0.000000 0.000000 0.000000
# 3 -0.004968 -0.004231 0.013315 0.000000 0.000000 0.000000
# 4 0.000000 0.000000 0.000000 0.038234 0.000000 0.000000
# 5 0.000000 0.000000 0.000000 0.000000 0.013838 0.000000
# 6 0.000000 0.000000 0.000000 0.000000 0.000000 -3.156000
#
#
# Mechanical properties :
#
#
# Convention : Reuss Voigt Hill
#
# Bulk Modulus (GPa) = 59.32672 62.62089 60.97381
# Shear Modulus (GPa) = -1.65794 29.24711 13.79458
#
# Velocity S-wave (km/s) = -0.94080 3.95141 2.71372
# Velocity P-wave (km/s) = 5.52192 7.36536 6.50923
#
# Compressibility (1/GPa) = 0.01685581
#
# Stress axis : x y z
#
# Youngs Moduli (GPa) = 46.08525 68.15488 75.10245
#
# Poissons Ratio (x) = 0.49180 0.37312
# Poissons Ratio (y) = 0.33255 0.31778
# Poissons Ratio (z) = 0.22896 0.28838
#
# Static dielectric constant tensor:
#      x y z
#    x 1.633080 0.000000 0.000000 
#    y 0.000000 1.654670 0.000000 
#    z 0.000000 0.000000 1.622680 
# 
# From -- ./inp_files/6500.got.cif
#   From: 2010.05.17/outbox.cif.g08.bks.cpg/sg49_4_cif.got.tgz:6500.got - 2010.06.03 21:02:19.
