data_PCOD9394890
_publ_section_title
;
Structure prediction by ZEFSAII (Michael W. Deem and Ramdas Pophale) SiO2 
 PCOD9394890
Probable space group: P C C M
;
_chemical_formula_sum "Si O2"
_cell_formula_units_Z 16
_cell_length_a 8.425501
_cell_length_b 10.334666
_cell_length_c 7.791439
_cell_angle_alpha 90.000000
_cell_angle_beta 90.000000
_cell_angle_gamma 90.000000
_cell_volume 678.437515
_symmetry_space_group_name_H-M "P C C M"
_symmetry_group_IT_number 49
_symmetry_cell_setting 'orthorhombic'
loop_
_space_group_symop_operation_xyz
x,y,z
-x,-y,z
x,-y,1/2-z
-x,y,1/2-z
-x,-y,-z
x,y,-z
-x,y,1/2+z
x,-y,1/2+z
loop_
_atom_site_type_symbol
_atom_site_label
_atom_site_fract_x
_atom_site_fract_y
_atom_site_fract_z
Si Si1 0.898790 0.371794 0.000000
Si Si2 0.121365 0.881296 0.500000
Si Si3 0.678636 0.785056 0.307472
O O1 0.781636 0.345494 0.161174
O O2 0.000000 0.500000 0.000000
O O3 0.014584 0.248279 0.000000
O O4 0.230853 0.869211 0.332538
O O5 0.000000 0.000000 0.500000
O O6 0.500000 0.759787 0.250000
O O7 0.674214 0.844368 0.500000
#
# Coordination Sequence:
#
# PCOD9394890 Si02
#       3
#     4   4   8
#     4  10  25  48  77 112 155 202 257 322 389 462
#     4  12  25  46  77 116 151 202 261 322 393 462
#     4  10  23  47  79 113 160 203 264 323 396 471
#
# _framework density 23.583601000000002
#
# number of rings (size 3 to 8) (size 9 to 14) (size 15 to 20)
#    1.500    0.000    2.500    1.500    0.000    9.000 
#    0.000   15.000    0.000    0.000    0.000    0.000 
#    0.000    0.000    0.000    0.000    0.000    0.000 
#
# Total GULP energy -89482.719674 kJ/mol
# GULP energy per Si atom -5592.669980 kJ/mol
# Density = 2.352992 g / cm^3
# Si number density = 23.583601 Si / 1000 Ang^3
#
#
#
# Elastic Constant Matrix: (Units=GPa)
#
#
# Indices 1 2 3 4 5 6 
#
# 1 249.6584 121.1079 109.5663 0.0000 0.0000 0.0000
# 2 121.1079 189.3220 69.5630 0.0000 0.0000 0.0000
# 3 109.5663 69.5630 205.4608 0.0000 0.0000 0.0000
# 4 0.0000 0.0000 0.0000 17.9385 0.0000 0.0000
# 5 0.0000 0.0000 0.0000 0.0000 27.8798 0.0000
# 6 0.0000 0.0000 0.0000 0.0000 0.0000 37.9853
#
#
#
# Elastic Compliance Matrix: (Units=1/GPa)
#
#
# Indices 1 2 3 4 5 6 
#
# 1 0.006727 -0.003409 -0.002433 0.000000 0.000000 0.000000
# 2 -0.003409 0.007760 -0.000809 0.000000 0.000000 0.000000
# 3 -0.002433 -0.000809 0.006439 0.000000 0.000000 0.000000
# 4 0.000000 0.000000 0.000000 0.055746 0.000000 0.000000
# 5 0.000000 0.000000 0.000000 0.000000 0.035868 0.000000
# 6 0.000000 0.000000 0.000000 0.000000 0.000000 0.026326
#
#
# Mechanical properties :
#
#
# Convention : Reuss Voigt Hill
#
# Bulk Modulus (GPa) = 131.18890 138.32397 134.75644
# Shear Modulus (GPa) = 32.31844 39.70765 36.01305
#
# Velocity S-wave (km/s) = 3.70588 4.10774 3.91197
# Velocity P-wave (km/s) = 8.60577 9.01543 8.81298
#
# Compressibility (1/GPa) = 0.00762260
#
# Stress axis : x y z
#
# Youngs Moduli (GPa) = 148.65263 128.86143 155.31282
#
# Poissons Ratio (x) = 0.43932 0.37789
# Poissons Ratio (y) = 0.50680 0.12570
# Poissons Ratio (z) = 0.36168 0.10429
#
# Static dielectric constant tensor:
#      x y z
#    x 1.889600 0.000000 0.000000 
#    y 0.000000 1.887050 0.000000 
#    z 0.000000 0.000000 1.965490 
# 
# From -- ./inp_files/900.got.cif
#   From: 2010.05.17/outbox.cif.g08.bks.cpg/sg49_1_cif.got.tgz:900.got - 2010.06.03 21:02:19.
