data_PCOD9394374
_publ_section_title
;
Structure prediction by ZEFSAII (Michael W. Deem and Ramdas Pophale) SiO2 
 PCOD9394374
Probable space group: P C C M
;
_chemical_formula_sum "Si O2"
_cell_formula_units_Z 56
_cell_length_a 19.081235
_cell_length_b 9.645141
_cell_length_c 14.915401
_cell_angle_alpha 90.000000
_cell_angle_beta 90.000000
_cell_angle_gamma 90.000000
_cell_volume 2745.048329
_symmetry_space_group_name_H-M "P C C M"
_symmetry_group_IT_number 49
_symmetry_cell_setting 'orthorhombic'
loop_
_space_group_symop_operation_xyz
x,y,z
-x,-y,z
x,-y,1/2-z
-x,y,1/2-z
-x,-y,-z
x,y,-z
-x,y,1/2+z
x,-y,1/2+z
loop_
_atom_site_type_symbol
_atom_site_label
_atom_site_fract_x
_atom_site_fract_y
_atom_site_fract_z
Si Si1 0.225191 0.773344 0.097947
Si Si2 0.334818 0.558357 0.845242
Si Si3 0.663819 0.002185 0.354907
Si Si4 0.555023 0.219647 0.107664
Si Si5 0.400711 0.726940 0.397916
Si Si6 0.889786 0.167184 0.760263
Si Si7 0.986577 0.167315 0.396683
O O1 0.272294 0.635230 0.104015
O O2 0.277263 0.906169 0.100945
O O3 0.179063 0.782001 0.188047
O O4 0.188301 0.777479 0.000000
O O5 0.310457 0.500000 0.750000
O O6 0.393612 0.677822 0.838119
O O7 0.373445 0.428043 0.888739
O O8 0.589142 0.931701 0.379831
O O9 0.674893 0.000000 0.250000
O O10 0.659350 0.163673 0.375534
O O11 0.476703 0.241882 0.143983
O O12 0.561520 0.253082 0.000000
O O13 0.416733 0.755427 0.500000
O O14 0.916794 0.206454 0.660440
O O15 0.950057 0.211034 0.831429
O O16 0.885148 0.000000 0.750000
O O17 0.986291 0.215256 0.500000
O O18 0.000000 0.000000 0.399741
#
# Coordination Sequence:
#
# PCOD9394374 Si02
#       7
#     8   8   8   8   8   8   8
#     4  11  22  38  56  76 112 156 192 230 286 346
#     4  11  23  37  54  75 103 139 184 237 288 345
#     4  11  22  35  52  77 109 141 180 233 288 348
#     4  10  21  37  55  76 103 136 177 230 298 362
#     4  11  21  35  56  78 101 135 183 235 287 348
#     4   9  17  29  51  83 117 155 196 228 271 340
#     4   8  14  27  49  82 122 154 184 232 284 327
#
# _framework density 20.400369000000001
#
# number of rings (size 3 to 8) (size 9 to 14) (size 15 to 20)
#    0.000    1.857    0.000    7.714    0.000    6.286 
#    0.000    0.000    0.000    2.571    0.000    2.000 
#    0.000   10.286    0.000    3.429    0.000    0.143 
#
# Total GULP energy -311968.457833 kJ/mol
# GULP energy per Si atom -5570.865318 kJ/mol
# Density = 2.035394 g / cm^3
# Si number density = 20.400369 Si / 1000 Ang^3
#
#
#
# Elastic Constant Matrix: (Units=GPa)
#
#
# Indices 1 2 3 4 5 6 
#
# 1 68.8704 11.8149 26.3654 0.0000 0.0000 0.0000
# 2 11.8149 53.7800 5.2056 0.0000 0.0000 0.0000
# 3 26.3654 5.2056 126.2930 0.0000 0.0000 0.0000
# 4 0.0000 0.0000 0.0000 11.6699 0.0000 0.0000
# 5 0.0000 0.0000 0.0000 0.0000 33.3768 0.0000
# 6 0.0000 0.0000 0.0000 0.0000 0.0000 12.0485
#
#
#
# Elastic Compliance Matrix: (Units=1/GPa)
#
#
# Indices 1 2 3 4 5 6 
#
# 1 0.016335 -0.003272 -0.003275 0.000000 0.000000 0.000000
# 2 -0.003272 0.019324 -0.000114 0.000000 0.000000 0.000000
# 3 -0.003275 -0.000114 0.008607 0.000000 0.000000 0.000000
# 4 0.000000 0.000000 0.000000 0.085691 0.000000 0.000000
# 5 0.000000 0.000000 0.000000 0.000000 0.029961 0.000000
# 6 0.000000 0.000000 0.000000 0.000000 0.000000 0.082998
#
#
# Mechanical properties :
#
#
# Convention : Reuss Voigt Hill
#
# Bulk Modulus (GPa) = 32.31562 37.30166 34.80864
# Shear Modulus (GPa) = 18.75809 25.12286 21.94048
#
# Velocity S-wave (km/s) = 3.03561 3.51307 3.28303
# Velocity P-wave (km/s) = 5.30676 5.89746 5.60989
#
# Compressibility (1/GPa) = 0.03094478
#
# Stress axis : x y z
#
# Youngs Moduli (GPa) = 61.21758 51.74909 116.19061
#
# Poissons Ratio (x) = 0.16930 0.38056
# Poissons Ratio (y) = 0.20028 0.01319
# Poissons Ratio (z) = 0.20051 0.00587
#
# Static dielectric constant tensor:
#      x y z
#    x 1.866370 0.000000 0.000000 
#    y 0.000000 1.670450 0.000000 
#    z 0.000000 0.000000 2.204800 
# 
# From -- ./inp_files/14409.got.cif
#   From: 2010.05.17/outbox.cif.g08.bks.cpg/sg49_8_cif.got.tgz:14409.got - 2010.06.03 21:02:19.
