data_PCOD9394747
_publ_section_title
;
Structure prediction by ZEFSAII (Michael W. Deem and Ramdas Pophale) SiO2 
 PCOD9394747
Probable space group: P C C M
;
_chemical_formula_sum "Si O2"
_cell_formula_units_Z 40
_cell_length_a 10.958984
_cell_length_b 9.749001
_cell_length_c 18.753204
_cell_angle_alpha 90.000000
_cell_angle_beta 90.000000
_cell_angle_gamma 90.000000
_cell_volume 2003.576300
_symmetry_space_group_name_H-M "P C C M"
_symmetry_group_IT_number 49
_symmetry_cell_setting 'orthorhombic'
loop_
_space_group_symop_operation_xyz
x,y,z
-x,-y,z
x,-y,1/2-z
-x,y,1/2-z
-x,-y,-z
x,y,-z
-x,y,1/2+z
x,-y,1/2+z
loop_
_atom_site_type_symbol
_atom_site_label
_atom_site_fract_x
_atom_site_fract_y
_atom_site_fract_z
Si Si1 0.356027 0.514325 0.922325
Si Si2 0.363494 0.855338 0.719308
Si Si3 0.995419 0.839893 0.836147
Si Si4 0.800591 0.633478 0.702637
Si Si5 0.746727 0.791306 0.080668
O O1 0.500000 0.500000 0.912184
O O2 0.295650 0.586534 0.856033
O O3 0.298767 0.363786 0.924679
O O4 0.334834 0.581302 0.000000
O O5 0.500000 0.834562 0.750000
O O6 0.274466 0.735723 0.746023
O O7 0.349677 0.863282 0.634053
O O8 0.317729 0.000000 0.750000
O O9 0.875927 0.791812 0.878535
O O10 0.000000 0.847801 0.750000
O O11 0.098724 0.721282 0.841464
O O12 0.000000 0.000000 0.859450
O O13 0.842354 0.500000 0.750000
O O14 0.754825 0.847676 0.000000
#
# Coordination Sequence:
#
# PCOD9394747 Si02
#       5
#     8   8   8   8   8
#     4  10  22  40  62  95 136 170 210 279 347 391
#     4  11  23  42  67  99 132 179 224 268 333 403
#     4  11  23  42  65  92 134 180 219 272 332 394
#     4  12  23  38  69  99 126 167 235 275 324 400
#     4  11  23  42  66  95 134 172 216 277 336 387
#
# _framework density 19.964300000000001
#
# number of rings (size 3 to 8) (size 9 to 14) (size 15 to 20)
#    0.000    1.000    4.000    2.400    0.000    4.000 
#    0.000    7.000    0.000    0.000    0.000    0.000 
#    0.000    0.000    0.000    0.000    0.000    0.000 
#
# Total GULP energy -222860.984277 kJ/mol
# GULP energy per Si atom -5571.524607 kJ/mol
# Density = 1.991886 g / cm^3
# Si number density = 19.964300 Si / 1000 Ang^3
#
#
#
# Elastic Constant Matrix: (Units=GPa)
#
#
# Indices 1 2 3 4 5 6 
#
# 1 112.9091 44.0416 63.2859 0.0000 0.0000 0.0000
# 2 44.0416 103.0657 36.6879 0.0000 0.0000 0.0000
# 3 63.2859 36.6879 162.2281 0.0000 0.0000 0.0000
# 4 0.0000 0.0000 0.0000 11.9098 0.0000 0.0000
# 5 0.0000 0.0000 0.0000 0.0000 34.9869 0.0000
# 6 0.0000 0.0000 0.0000 0.0000 0.0000 14.0294
#
#
#
# Elastic Compliance Matrix: (Units=1/GPa)
#
#
# Indices 1 2 3 4 5 6 
#
# 1 0.012675 -0.003976 -0.004045 0.000000 0.000000 0.000000
# 2 -0.003976 0.011799 -0.001117 0.000000 0.000000 0.000000
# 3 -0.004045 -0.001117 0.007995 0.000000 0.000000 0.000000
# 4 0.000000 0.000000 0.000000 0.083965 0.000000 0.000000
# 5 0.000000 0.000000 0.000000 0.000000 0.028582 0.000000
# 6 0.000000 0.000000 0.000000 0.000000 0.000000 0.071279
#
#
# Mechanical properties :
#
#
# Convention : Reuss Voigt Hill
#
# Bulk Modulus (GPa) = 70.46415 74.02597 72.24506
# Shear Modulus (GPa) = 20.89394 27.79770 24.34582
#
# Velocity S-wave (km/s) = 3.23858 3.73550 3.49588
# Velocity P-wave (km/s) = 7.02540 7.46759 7.24987
#
# Compressibility (1/GPa) = 0.01419161
#
# Stress axis : x y z
#
# Youngs Moduli (GPa) = 78.89469 84.75021 125.07881
#
# Poissons Ratio (x) = 0.33699 0.50599
# Poissons Ratio (y) = 0.31371 0.13975
# Poissons Ratio (z) = 0.31916 0.09469
#
# Static dielectric constant tensor:
#      x y z
#    x 1.728500 0.000000 0.000000 
#    y 0.000000 1.749560 0.000000 
#    z 0.000000 0.000000 1.735590 
# 
# From -- ./inp_files/15949.got.cif
#   From: 2010.05.17/outbox.cif.g08.bks.cpg/sg49_8_cif.got.tgz:15949.got - 2010.06.03 21:02:19.
