data_PCOD9394552
_publ_section_title
;
Structure prediction by ZEFSAII (Michael W. Deem and Ramdas Pophale) SiO2 
 PCOD9394552
Probable space group: P C C M
;
_chemical_formula_sum "Si O2"
_cell_formula_units_Z 56
_cell_length_a 15.688584
_cell_length_b 20.367781
_cell_length_c 8.929350
_cell_angle_alpha 90.000000
_cell_angle_beta 90.000000
_cell_angle_gamma 90.000000
_cell_volume 2853.299171
_symmetry_space_group_name_H-M "P C C M"
_symmetry_group_IT_number 49
_symmetry_cell_setting 'orthorhombic'
loop_
_space_group_symop_operation_xyz
x,y,z
-x,-y,z
x,-y,1/2-z
-x,y,1/2-z
-x,-y,-z
x,y,-z
-x,y,1/2+z
x,-y,1/2+z
loop_
_atom_site_type_symbol
_atom_site_label
_atom_site_fract_x
_atom_site_fract_y
_atom_site_fract_z
Si Si1 0.842463 0.708068 0.182356
Si Si2 0.911845 0.849737 0.820222
Si Si3 0.859503 0.566327 0.828278
Si Si4 0.653669 0.296382 0.179148
Si Si5 0.413890 0.165174 0.179538
Si Si6 0.349072 0.567510 0.673632
Si Si7 0.255550 0.928626 0.680136
O O1 0.893574 0.773653 0.219782
O O2 0.883584 0.638600 0.230749
O O3 0.749956 0.712451 0.258390
O O4 0.830894 0.705728 0.000000
O O5 0.831848 0.893468 0.770885
O O6 0.000000 0.871979 0.750000
O O7 0.916593 0.852920 0.000000
O O8 0.888986 0.500000 0.750000
O O9 0.755319 0.566723 0.822429
O O10 0.885825 0.562575 0.000000
O O11 0.601494 0.236560 0.249151
O O12 0.623664 0.367326 0.238747
O O13 0.652379 0.294598 0.000000
O O14 0.500000 0.137253 0.250000
O O15 0.333950 0.119092 0.217750
O O16 0.419703 0.170584 0.000000
O O17 0.377919 0.500000 0.750000
O O18 0.374044 0.570736 0.500000
O O19 0.253356 0.934169 0.500000
O O20 0.264857 0.000000 0.750000
#
# Coordination Sequence:
#
# PCOD9394552 Si02
#       7
#     8   8   8   8   8   8   8
#     4   9  17  33  53  74 110 155 197 243 303 354
#     4  10  21  39  61  88 120 158 199 245 298 354
#     4   8  14  23  40  66  99 141 185 237 290 345
#     4  11  20  31  53  84 115 154 202 249 299 358
#     4  11  23  42  64  90 123 160 199 244 296 352
#     4   9  16  27  44  71 109 152 198 251 304 356
#     4  10  23  43  67  91 124 159 193 238 295 355
#
# _framework density 19.626404000000001
#
# number of rings (size 3 to 8) (size 9 to 14) (size 15 to 20)
#    0.000    2.286    1.429    3.000    0.000    6.286 
#    0.000    2.857    0.000    0.857    0.000    6.000 
#    0.000    0.000    0.000    0.000    0.000    0.000 
#
# Total GULP energy -312653.183840 kJ/mol
# GULP energy per Si atom -5583.092569 kJ/mol
# Density = 1.958173 g / cm^3
# Si number density = 19.626404 Si / 1000 Ang^3
#
#
#
# Elastic Constant Matrix: (Units=GPa)
#
#
# Indices 1 2 3 4 5 6 
#
# 1 99.0836 57.7801 39.5824 0.0000 0.0000 0.0000
# 2 57.7801 147.6196 49.7563 0.0000 0.0000 0.0000
# 3 39.5824 49.7563 61.2472 0.0000 0.0000 0.0000
# 4 0.0000 0.0000 0.0000 34.6621 0.0000 0.0000
# 5 0.0000 0.0000 0.0000 0.0000 39.4399 0.0000
# 6 0.0000 0.0000 0.0000 0.0000 0.0000 -8.1557
#
#
#
# Elastic Compliance Matrix: (Units=1/GPa)
#
#
# Indices 1 2 3 4 5 6 
#
# 1 0.014842 -0.003548 -0.006710 0.000000 0.000000 0.000000
# 2 -0.003548 0.010177 -0.005974 0.000000 0.000000 0.000000
# 3 -0.006710 -0.005974 0.025517 0.000000 0.000000 0.000000
# 4 0.000000 0.000000 0.000000 0.028850 0.000000 0.000000
# 5 0.000000 0.000000 0.000000 0.000000 0.025355 0.000000
# 6 0.000000 0.000000 0.000000 0.000000 0.000000 -0.122614
#
#
# Mechanical properties :
#
#
# Convention : Reuss Voigt Hill
#
# Bulk Modulus (GPa) = 55.33528 66.90975 61.12252
# Shear Modulus (GPa) = 242.55237 23.91139 133.23188
#
# Velocity S-wave (km/s) = 11.12893 3.49424 8.24811
# Velocity P-wave (km/s) = 13.90658 7.10249 11.04170
#
# Compressibility (1/GPa) = 0.01807165
#
# Stress axis : x y z
#
# Youngs Moduli (GPa) = 67.37762 98.26551 39.18930
#
# Poissons Ratio (x) = 0.34861 0.26295
# Poissons Ratio (y) = 0.23903 0.23414
# Poissons Ratio (z) = 0.45209 0.58709
#
# Static dielectric constant tensor:
#      x y z
#    x 1.718510 0.000000 0.000000 
#    y 0.000000 1.687560 0.000000 
#    z 0.000000 0.000000 1.659680 
# 
# From -- ./inp_files/4066.got.cif
#   From: 2010.05.17/outbox.cif.g08.bks.cpg/sg49_3_cif.got.tgz:4066.got - 2010.06.03 21:02:19.
