data_PCOD9394328
_publ_section_title
;
Structure prediction by ZEFSAII (Michael W. Deem and Ramdas Pophale) SiO2 
 PCOD9394328
Probable space group: P C C M
;
_chemical_formula_sum "Si O2"
_cell_formula_units_Z 40
_cell_length_a 13.597911
_cell_length_b 14.413710
_cell_length_c 10.345899
_cell_angle_alpha 90.000000
_cell_angle_beta 90.000000
_cell_angle_gamma 90.000000
_cell_volume 2027.758398
_symmetry_space_group_name_H-M "P C C M"
_symmetry_group_IT_number 49
_symmetry_cell_setting 'orthorhombic'
loop_
_space_group_symop_operation_xyz
x,y,z
-x,-y,z
x,-y,1/2-z
-x,y,1/2-z
-x,-y,-z
x,y,-z
-x,y,1/2+z
x,-y,1/2+z
loop_
_atom_site_type_symbol
_atom_site_label
_atom_site_fract_x
_atom_site_fract_y
_atom_site_fract_z
Si Si1 0.621019 0.936287 0.865586
Si Si2 0.415648 0.275179 0.849330
Si Si3 0.877398 0.380710 0.000000
Si Si4 0.187939 0.714316 0.735747
Si Si5 0.857068 0.082369 0.349767
Si Si6 0.887456 0.406174 0.500000
O O1 0.572829 0.835945 0.861275
O O2 0.738862 0.924417 0.860422
O O3 0.595140 0.000000 0.750000
O O4 0.601070 0.985282 0.000000
O O5 0.500000 0.310174 0.750000
O O6 0.306139 0.283711 0.788104
O O7 0.418571 0.310407 0.000000
O O8 0.839931 0.325937 0.874722
O O9 0.847481 0.488887 0.000000
O O10 0.995165 0.392735 0.000000
O O11 0.134788 0.814005 0.709797
O O12 0.149599 0.645218 0.626774
O O13 0.894709 0.076215 0.500000
O O14 0.888233 0.000000 0.250000
#
# Coordination Sequence:
#
# PCOD9394328 Si02
#       6
#     8   8   4   8   8   4
#     4   8  15  28  44  71 108 153 202 254 302 343
#     4  10  21  36  56  82 121 168 211 251 299 363
#     4  11  26  38  74 106 118 153 206 260 326 411
#     4  11  21  41  65  95 133 168 202 261 325 371
#     4   9  17  31  55  84 123 170 212 251 300 364
#     4  11  22  48  68  98 130 151 196 266 338 383
#
# _framework density 19.726213999999999
#
# number of rings (size 3 to 8) (size 9 to 14) (size 15 to 20)
#    0.000    2.200    2.000    2.400    2.800    2.800 
#    3.600    2.000    0.000    7.200    0.000    0.000 
#    0.000    0.000    0.000    0.000    0.000    0.000 
#
# Total GULP energy -222873.537361 kJ/mol
# GULP energy per Si atom -5571.838434 kJ/mol
# Density = 1.968132 g / cm^3
# Si number density = 19.726214 Si / 1000 Ang^3
#
#
#
# Elastic Constant Matrix: (Units=GPa)
#
#
# Indices 1 2 3 4 5 6 
#
# 1 60.8864 19.0056 38.9411 0.0000 0.0000 0.0000
# 2 19.0056 131.1464 96.6737 0.0000 0.0000 0.0000
# 3 38.9411 96.6737 227.0990 0.0000 0.0000 0.0000
# 4 0.0000 0.0000 0.0000 9.8093 0.0000 0.0000
# 5 0.0000 0.0000 0.0000 0.0000 16.5426 0.0000
# 6 0.0000 0.0000 0.0000 0.0000 0.0000 20.8665
#
#
#
# Elastic Compliance Matrix: (Units=1/GPa)
#
#
# Indices 1 2 3 4 5 6 
#
# 1 0.018469 -0.000498 -0.002955 0.000000 0.000000 0.000000
# 2 -0.000498 0.011125 -0.004650 0.000000 0.000000 0.000000
# 3 -0.002955 -0.004650 0.006890 0.000000 0.000000 0.000000
# 4 0.000000 0.000000 0.000000 0.101944 0.000000 0.000000
# 5 0.000000 0.000000 0.000000 0.000000 0.060450 0.000000
# 6 0.000000 0.000000 0.000000 0.000000 0.000000 0.047924
#
#
# Mechanical properties :
#
#
# Convention : Reuss Voigt Hill
#
# Bulk Modulus (GPa) = 49.31697 80.93027 65.12362
# Shear Modulus (GPa) = 18.53441 27.07779 22.80610
#
# Velocity S-wave (km/s) = 3.06859 3.70899 3.40388
# Velocity P-wave (km/s) = 6.13270 7.71090 6.96663
#
# Compressibility (1/GPa) = 0.02027700
#
# Stress axis : x y z
#
# Youngs Moduli (GPa) = 54.14361 89.88459 145.14438
#
# Poissons Ratio (x) = 0.04480 0.42887
# Poissons Ratio (y) = 0.02699 0.67499
# Poissons Ratio (z) = 0.15998 0.41801
#
# Static dielectric constant tensor:
#      x y z
#    x 1.721480 0.000000 0.000000 
#    y 0.000000 1.687950 0.000000 
#    z 0.000000 0.000000 1.700700 
# 
# From -- ./inp_files/3459.got.cif
#   From: 2010.05.17/outbox.cif.g08.bks.cpg/sg49_2_cif.got.tgz:3459.got - 2010.06.03 21:02:19.
