data_PCOD9394561
_publ_section_title
;
Structure prediction by ZEFSAII (Michael W. Deem and Ramdas Pophale) SiO2 
 PCOD9394561
Probable space group: P C C M
;
_chemical_formula_sum "Si O2"
_cell_formula_units_Z 56
_cell_length_a 8.860136
_cell_length_b 19.571655
_cell_length_c 17.307425
_cell_angle_alpha 90.000000
_cell_angle_beta 90.000000
_cell_angle_gamma 90.000000
_cell_volume 3001.237734
_symmetry_space_group_name_H-M "P C C M"
_symmetry_group_IT_number 49
_symmetry_cell_setting 'orthorhombic'
loop_
_space_group_symop_operation_xyz
x,y,z
-x,-y,z
x,-y,1/2-z
-x,y,1/2-z
-x,-y,-z
x,y,-z
-x,y,1/2+z
x,-y,1/2+z
loop_
_atom_site_type_symbol
_atom_site_label
_atom_site_fract_x
_atom_site_fract_y
_atom_site_fract_z
Si Si1 0.310588 0.209588 0.408441
Si Si2 0.895475 0.682556 0.321108
Si Si3 0.183550 0.352790 0.090841
Si Si4 0.345310 0.790598 0.407916
Si Si5 0.178236 0.079900 0.838996
Si Si6 0.675438 0.420613 0.267093
Si Si7 0.823353 0.925743 0.346688
O O1 0.297146 0.223327 0.500000
O O2 0.196046 0.257076 0.361369
O O3 0.482707 0.222190 0.382742
O O4 0.270243 0.131271 0.390588
O O5 0.780691 0.627580 0.285356
O O6 0.000000 0.708025 0.250000
O O7 0.010583 0.647722 0.381212
O O8 0.246089 0.276429 0.107495
O O9 0.279196 0.402961 0.145035
O O10 0.198427 0.366290 0.000000
O O11 0.348855 0.800480 0.500000
O O12 0.274010 0.857973 0.371451
O O13 0.191644 0.081363 0.746020
O O14 0.001690 0.085937 0.861529
O O15 0.222094 0.003523 0.865879
O O16 0.704378 0.500000 0.250000
O O17 0.500000 0.406468 0.250000
#
# Coordination Sequence:
#
# PCOD9394561 Si02
#       7
#     8   8   8   8   8   8   8
#     4  11  23  37  54  84 117 151 193 239 290 347
#     4  10  22  37  61  89 117 153 196 238 287 340
#     4  10  21  39  62  90 121 157 198 247 293 339
#     4  10  22  37  56  81 116 153 190 239 293 342
#     4   9  19  37  55  79 107 148 195 243 289 348
#     4  10  22  42  65  92 123 159 196 234 286 352
#     4   9  20  35  56  78 109 146 196 244 290 342
#
# _framework density 18.658968000000002
#
# number of rings (size 3 to 8) (size 9 to 14) (size 15 to 20)
#    0.000    2.143    0.000    3.000    6.000    6.000 
#    0.000    8.571    0.000    0.000    0.000    0.000 
#    0.000    0.000    0.000    0.000    0.000    0.000 
#
# Total GULP energy -312749.751344 kJ/mol
# GULP energy per Si atom -5584.816988 kJ/mol
# Density = 1.861650 g / cm^3
# Si number density = 18.658968 Si / 1000 Ang^3
#
#
#
# Elastic Constant Matrix: (Units=GPa)
#
#
# Indices 1 2 3 4 5 6 
#
# 1 101.3712 60.4826 59.1156 0.0000 0.0000 0.0000
# 2 60.4826 95.3937 63.2140 0.0000 0.0000 0.0000
# 3 59.1156 63.2140 79.9017 0.0000 0.0000 0.0000
# 4 0.0000 0.0000 0.0000 20.0379 0.0000 0.0000
# 5 0.0000 0.0000 0.0000 0.0000 22.8987 0.0000
# 6 0.0000 0.0000 0.0000 0.0000 0.0000 28.4851
#
#
#
# Elastic Compliance Matrix: (Units=1/GPa)
#
#
# Indices 1 2 3 4 5 6 
#
# 1 0.018695 -0.005649 -0.009362 0.000000 0.000000 0.000000
# 2 -0.005649 0.023742 -0.014604 0.000000 0.000000 0.000000
# 3 -0.009362 -0.014604 0.030996 0.000000 0.000000 0.000000
# 4 0.000000 0.000000 0.000000 0.049905 0.000000 0.000000
# 5 0.000000 0.000000 0.000000 0.000000 0.043671 0.000000
# 6 0.000000 0.000000 0.000000 0.000000 0.000000 0.035106
#
#
# Mechanical properties :
#
#
# Convention : Reuss Voigt Hill
#
# Bulk Modulus (GPa) = 70.41098 71.36566 70.88832
# Shear Modulus (GPa) = 18.79136 20.54131 19.66633
#
# Velocity S-wave (km/s) = 3.17692 3.32155 3.25004
# Velocity P-wave (km/s) = 7.16064 7.28290 7.22203
#
# Compressibility (1/GPa) = 0.01420233
#
# Stress axis : x y z
#
# Youngs Moduli (GPa) = 53.49036 42.11923 32.26237
#
# Poissons Ratio (x) = 0.23794 0.30205
# Poissons Ratio (y) = 0.30218 0.47116
# Poissons Ratio (z) = 0.50079 0.61511
#
# Static dielectric constant tensor:
#      x y z
#    x 1.647250 0.000000 0.000000 
#    y 0.000000 1.616310 0.000000 
#    z 0.000000 0.000000 1.642270 
# 
# From -- ./inp_files/11973.got.cif
#   From: 2010.05.17/outbox.cif.g08.bks.cpg/sg49_6_cif.got.tgz:11973.got - 2010.06.03 21:02:19.
