data_PCOD9394261
_publ_section_title
;
Structure prediction by ZEFSAII (Michael W. Deem and Ramdas Pophale) SiO2 
 PCOD9394261
Probable space group: P C C M
;
_chemical_formula_sum "Si O2"
_cell_formula_units_Z 32
_cell_length_a 8.569124
_cell_length_b 11.588401
_cell_length_c 14.197180
_cell_angle_alpha 90.000000
_cell_angle_beta 90.000000
_cell_angle_gamma 90.000000
_cell_volume 1409.814688
_symmetry_space_group_name_H-M "P C C M"
_symmetry_group_IT_number 49
_symmetry_cell_setting 'orthorhombic'
loop_
_space_group_symop_operation_xyz
x,y,z
-x,-y,z
x,-y,1/2-z
-x,y,1/2-z
-x,-y,-z
x,y,-z
-x,y,1/2+z
x,-y,1/2+z
loop_
_atom_site_type_symbol
_atom_site_label
_atom_site_fract_x
_atom_site_fract_y
_atom_site_fract_z
Si Si1 0.376629 0.228457 0.179363
Si Si2 0.820154 0.520256 0.500000
Si Si3 0.560469 0.634755 0.000000
Si Si4 0.947751 0.872298 0.887567
Si Si5 0.854050 0.657847 0.312018
O O1 0.500000 0.170374 0.250000
O O2 0.465061 0.288387 0.092040
O O3 0.229648 0.153213 0.144882
O O4 0.289284 0.325798 0.241323
O O5 0.743751 0.394914 0.500000
O O6 0.794351 0.588557 0.402949
O O7 0.000000 0.500000 0.500000
O O8 0.500000 0.500000 0.000000
O O9 0.071495 0.778818 0.848562
O O10 0.951138 0.863553 0.000000
O O11 0.000000 0.000000 0.859873
O O12 0.000000 0.612689 0.250000
#
# Coordination Sequence:
#
# PCOD9394261 Si02
#       5
#     8   4   4   8   8
#     4  11  24  43  66  99 134 173 222 271 332 410
#     4  12  22  36  58  89 128 172 230 285 326 383
#     4  12  26  42  64  91 139 184 222 269 337 397
#     4  10  20  42  72  98 131 173 222 279 340 396
#     4  10  22  37  61  93 130 175 225 280 336 387
#
# _framework density 22.698017
#
# number of rings (size 3 to 8) (size 9 to 14) (size 15 to 20)
#    0.000    1.250    2.500    4.500    0.000   10.500 
#    0.000    2.500    0.000    3.000    0.000    0.000 
#    0.000    0.000    0.000    0.000    0.000    0.000 
#
# Total GULP energy -178793.304529 kJ/mol
# GULP energy per Si atom -5587.290767 kJ/mol
# Density = 2.264636 g / cm^3
# Si number density = 22.698017 Si / 1000 Ang^3
#
#
#
# Elastic Constant Matrix: (Units=GPa)
#
#
# Indices 1 2 3 4 5 6 
#
# 1 58.9236 4.7739 21.3826 0.0000 0.0000 0.0000
# 2 4.7739 107.7770 44.8153 0.0000 0.0000 0.0000
# 3 21.3826 44.8153 179.6365 0.0000 0.0000 0.0000
# 4 0.0000 0.0000 0.0000 106.3529 0.0000 0.0000
# 5 0.0000 0.0000 0.0000 0.0000 36.7902 0.0000
# 6 0.0000 0.0000 0.0000 0.0000 0.0000 26.2858
#
#
#
# Elastic Compliance Matrix: (Units=1/GPa)
#
#
# Indices 1 2 3 4 5 6 
#
# 1 0.017738 0.000103 -0.002137 0.000000 0.000000 0.000000
# 2 0.000103 0.010353 -0.002595 0.000000 0.000000 0.000000
# 3 -0.002137 -0.002595 0.006469 0.000000 0.000000 0.000000
# 4 0.000000 0.000000 0.000000 0.009403 0.000000 0.000000
# 5 0.000000 0.000000 0.000000 0.000000 0.027181 0.000000
# 6 0.000000 0.000000 0.000000 0.000000 0.000000 0.038043
#
#
# Mechanical properties :
#
#
# Convention : Reuss Voigt Hill
#
# Bulk Modulus (GPa) = 39.52362 54.25342 46.88852
# Shear Modulus (GPa) = 39.40751 52.24345 45.82548
#
# Velocity S-wave (km/s) = 4.17125 4.80278 4.49811
# Velocity P-wave (km/s) = 6.37571 7.39661 6.90505
#
# Compressibility (1/GPa) = 0.02530133
#
# Stress axis : x y z
#
# Youngs Moduli (GPa) = 56.37516 96.59100 154.59297
#
# Poissons Ratio (x) = -0.00994 0.33038
# Poissons Ratio (y) = -0.00580 0.40118
# Poissons Ratio (z) = 0.12048 0.25066
#
# Static dielectric constant tensor:
#      x y z
#    x 1.991240 0.000000 0.000000 
#    y 0.000000 1.652630 0.000000 
#    z 0.000000 0.000000 1.887560 
# 
# From -- ./inp_files/11236.got.cif
#   From: 2010.05.17/outbox.cif.g08.bks.cpg/sg49_6_cif.got.tgz:11236.got - 2010.06.03 21:02:19.
