data_PCOD9394269
_publ_section_title
;
Structure prediction by ZEFSAII (Michael W. Deem and Ramdas Pophale) SiO2 
 PCOD9394269
Probable space group: P C C M
;
_chemical_formula_sum "Si O2"
_cell_formula_units_Z 48
_cell_length_a 9.889730
_cell_length_b 10.508675
_cell_length_c 25.352955
_cell_angle_alpha 90.000000
_cell_angle_beta 90.000000
_cell_angle_gamma 90.000000
_cell_volume 2634.880853
_symmetry_space_group_name_H-M "P C C M"
_symmetry_group_IT_number 49
_symmetry_cell_setting 'orthorhombic'
loop_
_space_group_symop_operation_xyz
x,y,z
-x,-y,z
x,-y,1/2-z
-x,y,1/2-z
-x,-y,-z
x,y,-z
-x,y,1/2+z
x,-y,1/2+z
loop_
_atom_site_type_symbol
_atom_site_label
_atom_site_fract_x
_atom_site_fract_y
_atom_site_fract_z
Si Si1 0.356542 0.950820 0.868751
Si Si2 0.096812 0.123050 0.561361
Si Si3 0.809348 0.514873 0.687745
Si Si4 0.626460 0.278766 0.787911
Si Si5 0.811762 0.116851 0.712646
Si Si6 0.033439 0.704958 0.355419
O O1 0.236994 0.908547 0.908352
O O2 0.389582 0.829662 0.831779
O O3 0.500000 0.000000 0.891420
O O4 0.293076 0.060009 0.830587
O O5 0.122516 0.149544 0.500000
O O6 0.014455 0.237641 0.589318
O O7 0.000000 0.000000 0.565337
O O8 0.839841 0.500000 0.750000
O O9 0.666499 0.586210 0.687083
O O10 0.836670 0.387665 0.653743
O O11 0.912738 0.618903 0.665560
O O12 0.500000 0.291046 0.750000
O O13 0.743933 0.224168 0.749339
O O14 0.937587 0.175603 0.682058
O O15 0.844900 0.000000 0.750000
#
# Coordination Sequence:
#
# PCOD9394269 Si02
#       6
#     8   8   8   8   8   8
#     4  11  21  38  59  90 124 159 196 251 310 369
#     4  11  24  42  65  89 111 149 212 273 319 360
#     4  11  23  35  56  84 125 163 196 237 285 364
#     4  11  21  36  54  86 128 166 201 228 286 381
#     4  10  21  32  53  86 121 159 188 231 303 372
#     4  11  21  40  55  83 118 159 200 253 306 356
#
# _framework density 18.217141999999999
#
# number of rings (size 3 to 8) (size 9 to 14) (size 15 to 20)
#    0.000    1.167    6.667    1.000    0.000    0.667 
#    3.000    1.667    0.000    0.000    0.000    0.000 
#    0.000   10.667    0.000    0.000    0.000    0.000 
#
# Total GULP energy -267842.149642 kJ/mol
# GULP energy per Si atom -5580.044784 kJ/mol
# Density = 1.817568 g / cm^3
# Si number density = 18.217142 Si / 1000 Ang^3
#
#
#
# Elastic Constant Matrix: (Units=GPa)
#
#
# Indices 1 2 3 4 5 6 
#
# 1 80.5593 37.5979 44.4066 0.0000 0.0000 0.0000
# 2 37.5979 92.7531 53.5929 0.0000 0.0000 0.0000
# 3 44.4066 53.5929 92.3353 0.0000 0.0000 0.0000
# 4 0.0000 0.0000 0.0000 24.0430 0.0000 0.0000
# 5 0.0000 0.0000 0.0000 0.0000 19.8988 0.0000
# 6 0.0000 0.0000 0.0000 0.0000 0.0000 28.2515
#
#
#
# Elastic Compliance Matrix: (Units=1/GPa)
#
#
# Indices 1 2 3 4 5 6 
#
# 1 0.017564 -0.003369 -0.006492 0.000000 0.000000 0.000000
# 2 -0.003369 0.016867 -0.008170 0.000000 0.000000 0.000000
# 3 -0.006492 -0.008170 0.018694 0.000000 0.000000 0.000000
# 4 0.000000 0.000000 0.000000 0.041592 0.000000 0.000000
# 5 0.000000 0.000000 0.000000 0.000000 0.050254 0.000000
# 6 0.000000 0.000000 0.000000 0.000000 0.000000 0.035396
#
#
# Mechanical properties :
#
#
# Convention : Reuss Voigt Hill
#
# Bulk Modulus (GPa) = 58.60082 59.64916 59.12499
# Shear Modulus (GPa) = 22.51061 23.10867 22.80964
#
# Velocity S-wave (km/s) = 3.51904 3.56548 3.54234
# Velocity P-wave (km/s) = 6.98207 7.05441 7.01834
#
# Compressibility (1/GPa) = 0.01706461
#
# Stress axis : x y z
#
# Youngs Moduli (GPa) = 56.93517 59.28566 53.49252
#
# Poissons Ratio (x) = 0.19971 0.34726
# Poissons Ratio (y) = 0.19179 0.43704
# Poissons Ratio (z) = 0.36961 0.48437
#
# Static dielectric constant tensor:
#      x y z
#    x 1.693200 0.000000 0.000000 
#    y 0.000000 1.697030 0.000000 
#    z 0.000000 0.000000 1.595540 
# 
# From -- ./inp_files/22366.got.cif
#   From: 2010.05.17/outbox.cif.g08.bks.cpg/sg49_12_cif.got.tgz:22366.got - 2010.06.03 21:02:19.
