data_PCOD9394663
_publ_section_title
;
Structure prediction by ZEFSAII (Michael W. Deem and Ramdas Pophale) SiO2 
 PCOD9394663
Probable space group: P C C M
;
_chemical_formula_sum "Si O2"
_cell_formula_units_Z 34
_cell_length_a 11.445558
_cell_length_b 5.998595
_cell_length_c 23.911385
_cell_angle_alpha 90.000000
_cell_angle_beta 90.000000
_cell_angle_gamma 90.000000
_cell_volume 1641.690344
_symmetry_space_group_name_H-M "P C C M"
_symmetry_group_IT_number 49
_symmetry_cell_setting 'orthorhombic'
loop_
_space_group_symop_operation_xyz
x,y,z
-x,-y,z
x,-y,1/2-z
-x,y,1/2-z
-x,-y,-z
x,y,-z
-x,y,1/2+z
x,-y,1/2+z
loop_
_atom_site_type_symbol
_atom_site_label
_atom_site_fract_x
_atom_site_fract_y
_atom_site_fract_z
Si Si1 0.000000 0.500000 0.913640
Si Si2 0.561270 0.244322 0.500000
Si Si3 0.832510 0.807178 0.843411
Si Si4 0.202862 0.816501 0.936828
Si Si5 0.368658 0.565408 0.611835
Si Si6 0.000000 0.000000 0.250000
O O1 0.910416 0.632329 0.876088
O O2 0.917240 0.322689 0.943205
O O3 0.500000 0.500000 0.500000
O O4 0.626082 0.263540 0.559335
O O5 0.500000 0.000000 0.500000
O O6 0.706989 0.684441 0.839810
O O7 0.909083 0.868208 0.789630
O O8 0.818838 0.012929 0.886254
O O9 0.303410 0.649642 0.914451
O O10 0.230707 0.899874 0.000000
O O11 0.500000 0.500000 0.628312
#
# Coordination Sequence:
#
# PCOD9394663 Si02
#       6
#     4   4   8   8   8   2
#     4  10  21  43  56 102 128 177 221 276 358 408
#     4  10  22  38  66 102 151 202 225 274 339 445
#     4  11  25  41  72  94 129 183 224 301 340 431
#     4  11  22  38  63 101 142 180 220 273 353 425
#     4  10  24  40  63 106 142 184 225 271 357 433
#     4  12  24  54  66  98 118 180 260 290 388 400
#
# _framework density 20.710360000000001
#
# number of rings (size 3 to 8) (size 9 to 14) (size 15 to 20)
#    0.000    1.412    3.529    0.353    8.235    3.294 
#    0.000    0.000    0.000    4.235    0.000    0.000 
#    0.000    0.000    0.000    0.000    0.000    0.000 
#
# Total GULP energy -189454.253902 kJ/mol
# GULP energy per Si atom -5572.183938 kJ/mol
# Density = 2.066322 g / cm^3
# Si number density = 20.710360 Si / 1000 Ang^3
#
#
#
# Elastic Constant Matrix: (Units=GPa)
#
#
# Indices 1 2 3 4 5 6 
#
# 1 155.4966 36.7426 44.0902 0.0000 0.0000 0.0000
# 2 36.7426 90.4198 36.9776 0.0000 0.0000 0.0000
# 3 44.0902 36.9776 96.7761 0.0000 0.0000 0.0000
# 4 0.0000 0.0000 0.0000 -45.5413 0.0000 0.0000
# 5 0.0000 0.0000 0.0000 0.0000 36.2583 0.0000
# 6 0.0000 0.0000 0.0000 0.0000 0.0000 42.5539
#
#
#
# Elastic Compliance Matrix: (Units=1/GPa)
#
#
# Indices 1 2 3 4 5 6 
#
# 1 0.007679 -0.002003 -0.002733 0.000000 0.000000 0.000000
# 2 -0.002003 0.013630 -0.004296 0.000000 0.000000 0.000000
# 3 -0.002733 -0.004296 0.013220 0.000000 0.000000 0.000000
# 4 0.000000 0.000000 0.000000 -0.021958 0.000000 0.000000
# 5 0.000000 0.000000 0.000000 0.000000 0.027580 0.000000
# 6 0.000000 0.000000 0.000000 0.000000 0.000000 0.023500
#
#
# Mechanical properties :
#
#
# Convention : Reuss Voigt Hill
#
# Bulk Modulus (GPa) = 60.73200 64.25704 62.49452
# Shear Modulus (GPa) = 57.33802 21.64634 39.49218
#
# Velocity S-wave (km/s) = 5.26743 3.23645 4.37152
# Velocity P-wave (km/s) = 8.14754 6.71268 7.46467
#
# Compressibility (1/GPa) = 0.01646578
#
# Stress axis : x y z
#
# Youngs Moduli (GPa) = 130.22087 73.36752 75.64452
#
# Poissons Ratio (x) = 0.14693 0.20677
# Poissons Ratio (y) = 0.26079 0.32493
# Poissons Ratio (z) = 0.35594 0.31515
#
# Static dielectric constant tensor:
#      x y z
#    x 1.807890 0.000000 0.000000 
#    y 0.000000 1.805870 0.000000 
#    z 0.000000 0.000000 1.746590 
# 
# From -- ./inp_files/21654.got.cif
#   From: 2010.05.17/outbox.cif.g08.bks.cpg/sg49_11_cif.got.tgz:21654.got - 2010.06.03 21:02:19.
