data_PCOD9394334
_publ_section_title
;
Structure prediction by ZEFSAII (Michael W. Deem and Ramdas Pophale) SiO2 
 PCOD9394334
Probable space group: P C C M
;
_chemical_formula_sum "Si O2"
_cell_formula_units_Z 48
_cell_length_a 8.164468
_cell_length_b 16.267949
_cell_length_c 17.157281
_cell_angle_alpha 90.000000
_cell_angle_beta 90.000000
_cell_angle_gamma 90.000000
_cell_volume 2278.815462
_symmetry_space_group_name_H-M "P C C M"
_symmetry_group_IT_number 49
_symmetry_cell_setting 'orthorhombic'
loop_
_space_group_symop_operation_xyz
x,y,z
-x,-y,z
x,-y,1/2-z
-x,y,1/2-z
-x,-y,-z
x,y,-z
-x,y,1/2+z
x,-y,1/2+z
loop_
_atom_site_type_symbol
_atom_site_label
_atom_site_fract_x
_atom_site_fract_y
_atom_site_fract_z
Si Si1 0.061854 0.383467 0.409654
Si Si2 0.247879 0.524942 0.659064
Si Si3 0.744678 0.779633 0.624802
Si Si4 0.445229 0.324050 0.158541
Si Si5 0.840652 0.783648 0.792650
Si Si6 0.998061 0.097318 0.914226
O O1 0.015443 0.392961 0.500000
O O2 0.215281 0.442098 0.388752
O O3 0.119098 0.290414 0.395120
O O4 0.915522 0.420050 0.357218
O O5 0.259381 0.500000 0.750000
O O6 0.398195 0.583390 0.635398
O O7 0.576719 0.730080 0.611456
O O8 0.737116 0.805284 0.715803
O O9 0.816719 0.861429 0.586076
O O10 0.500000 0.330047 0.250000
O O11 0.274961 0.274461 0.158009
O O12 0.000000 0.744803 0.750000
O O13 0.905246 0.857734 0.844951
O O14 0.069939 0.114482 0.000000
O O15 0.000000 0.000000 0.902492
#
# Coordination Sequence:
#
# PCOD9394334 Si02
#       6
#     8   8   8   8   8   8
#     4  11  23  39  56  82 118 157 205 256 305 358
#     4  11  21  35  59  85 111 154 209 256 295 351
#     4  10  21  37  58  84 118 155 195 247 307 364
#     4  10  21  36  56  87 120 152 194 251 309 358
#     4   9  18  35  61  85 110 149 196 242 291 355
#     4  10  21  39  63  90 118 152 195 241 293 360
#
# _framework density 21.063575
#
# number of rings (size 3 to 8) (size 9 to 14) (size 15 to 20)
#    0.000    1.833    0.000    6.500    0.000    8.000 
#    0.000    7.500    0.000    7.000    0.000    0.000 
#    0.000    0.000    0.000    0.000    0.000    0.000 
#
# Total GULP energy -267478.934575 kJ/mol
# GULP energy per Si atom -5572.477804 kJ/mol
# Density = 2.101563 g / cm^3
# Si number density = 21.063575 Si / 1000 Ang^3
#
#
#
# Elastic Constant Matrix: (Units=GPa)
#
#
# Indices 1 2 3 4 5 6 
#
# 1 94.4894 53.3134 7.1672 0.0000 0.0000 0.0000
# 2 53.3134 138.3534 34.8802 0.0000 0.0000 0.0000
# 3 7.1672 34.8802 72.8735 0.0000 0.0000 0.0000
# 4 0.0000 0.0000 0.0000 -19.5895 0.0000 0.0000
# 5 0.0000 0.0000 0.0000 0.0000 -6.8347 0.0000
# 6 0.0000 0.0000 0.0000 0.0000 0.0000 28.4931
#
#
#
# Elastic Compliance Matrix: (Units=1/GPa)
#
#
# Indices 1 2 3 4 5 6 
#
# 1 0.013637 -0.005591 0.001335 0.000000 0.000000 0.000000
# 2 -0.005591 0.010512 -0.004482 0.000000 0.000000 0.000000
# 3 0.001335 -0.004482 0.015736 0.000000 0.000000 0.000000
# 4 0.000000 0.000000 0.000000 -0.051048 0.000000 0.000000
# 5 0.000000 0.000000 0.000000 0.000000 -0.146311 0.000000
# 6 0.000000 0.000000 0.000000 0.000000 0.000000 0.035096
#
#
# Mechanical properties :
#
#
# Convention : Reuss Voigt Hill
#
# Bulk Modulus (GPa) = 44.62441 55.15977 49.89209
# Shear Modulus (GPa) = -51.31795 14.43749 -18.44023
#
# Velocity S-wave (km/s) = -4.94128 2.62090 -2.96202
# Velocity P-wave (km/s) = 3.36503 5.95004 3.46984
#
# Compressibility (1/GPa) = 0.02240926
#
# Stress axis : x y z
#
# Youngs Moduli (GPa) = 73.33129 95.12619 63.54763
#
# Poissons Ratio (x) = 0.53189 -0.08484
# Poissons Ratio (y) = 0.41002 0.28480
# Poissons Ratio (z) = -0.09790 0.42633
#
# Static dielectric constant tensor:
#      x y z
#    x 1.854110 0.000000 0.000000 
#    y 0.000000 1.764530 0.000000 
#    z 0.000000 0.000000 1.789140 
# 
# From -- ./inp_files/16242.got.cif
#   From: 2010.05.17/outbox.cif.g08.bks.cpg/sg49_9_cif.got.tgz:16242.got - 2010.06.03 21:02:19.
