data_PCOD9394729
_publ_section_title
;
Structure prediction by ZEFSAII (Michael W. Deem and Ramdas Pophale) SiO2 
 PCOD9394729
Probable space group: P C C M
;
_chemical_formula_sum "Si O2"
_cell_formula_units_Z 64
_cell_length_a 15.830112
_cell_length_b 9.488858
_cell_length_c 20.182428
_cell_angle_alpha 90.000000
_cell_angle_beta 90.000000
_cell_angle_gamma 90.000000
_cell_volume 3031.596150
_symmetry_space_group_name_H-M "P C C M"
_symmetry_group_IT_number 49
_symmetry_cell_setting 'orthorhombic'
loop_
_space_group_symop_operation_xyz
x,y,z
-x,-y,z
x,-y,1/2-z
-x,y,1/2-z
-x,-y,-z
x,y,-z
-x,y,1/2+z
x,-y,1/2+z
loop_
_atom_site_type_symbol
_atom_site_label
_atom_site_fract_x
_atom_site_fract_y
_atom_site_fract_z
Si Si1 0.071353 0.388574 0.654719
Si Si2 0.656227 0.748954 0.928024
Si Si3 0.224913 0.960613 0.362404
Si Si4 0.326269 0.763924 0.842413
Si Si5 0.491415 0.167907 0.170286
Si Si6 0.768798 0.494749 0.109393
Si Si7 0.206126 0.298676 0.767781
Si Si8 0.932063 0.877184 0.424591
O O1 0.132932 0.458507 0.598699
O O2 0.130495 0.333095 0.715968
O O3 0.034493 0.250560 0.619974
O O4 0.000000 0.500000 0.673859
O O5 0.729912 0.863625 0.916782
O O6 0.590125 0.771377 0.867872
O O7 0.706424 0.601335 0.926820
O O8 0.615247 0.768915 0.000000
O O9 0.195436 0.850776 0.305595
O O10 0.294828 0.075036 0.341505
O O11 0.149783 0.054769 0.390429
O O12 0.424325 0.758208 0.856621
O O13 0.275441 0.657436 0.889195
O O14 0.294538 0.710639 0.771120
O O15 0.500000 0.186210 0.250000
O O16 0.500000 0.000000 0.157801
O O17 0.781798 0.578640 0.179089
O O18 0.913364 0.833018 0.500000
O O19 0.000000 0.000000 0.426783
#
# Coordination Sequence:
#
# PCOD9394729 Si02
#       8
#     8   8   8   8   8   8   8   8
#     4  11  24  43  66 101 136 175 224 284 348 413
#     4  11  25  45  68  98 136 181 233 283 343 413
#     4  11  21  43  69  96 129 176 222 278 341 401
#     4  11  20  39  65  97 131 169 215 264 334 405
#     4  11  23  39  66 103 133 172 221 281 343 412
#     4  10  23  43  63  94 135 180 216 269 338 412
#     4  10  22  39  69  98 136 174 214 274 343 419
#     4  11  26  46  64  91 130 175 230 280 332 403
#
# _framework density 21.110990999999999
#
# number of rings (size 3 to 8) (size 9 to 14) (size 15 to 20)
#    0.000    1.250    3.750    3.750    5.250    2.500 
#    0.000    2.500    0.000    0.000    0.000    0.000 
#    0.000    0.000    0.000    0.000    0.000    0.000 
#
# Total GULP energy -356879.649116 kJ/mol
# GULP energy per Si atom -5576.244517 kJ/mol
# Density = 2.106294 g / cm^3
# Si number density = 21.110991 Si / 1000 Ang^3
#
#
#
# Elastic Constant Matrix: (Units=GPa)
#
#
# Indices 1 2 3 4 5 6 
#
# 1 81.3581 28.1270 20.9016 0.0000 0.0000 0.0000
# 2 28.1270 126.6987 31.7865 0.0000 0.0000 0.0000
# 3 20.9016 31.7865 80.5441 0.0000 0.0000 0.0000
# 4 0.0000 0.0000 0.0000 23.6959 0.0000 0.0000
# 5 0.0000 0.0000 0.0000 0.0000 12.2337 0.0000
# 6 0.0000 0.0000 0.0000 0.0000 0.0000 36.1056
#
#
#
# Elastic Compliance Matrix: (Units=1/GPa)
#
#
# Indices 1 2 3 4 5 6 
#
# 1 0.013798 -0.002403 -0.002632 0.000000 0.000000 0.000000
# 2 -0.002403 0.009178 -0.002999 0.000000 0.000000 0.000000
# 3 -0.002632 -0.002999 0.014282 0.000000 0.000000 0.000000
# 4 0.000000 0.000000 0.000000 0.042201 0.000000 0.000000
# 5 0.000000 0.000000 0.000000 0.000000 0.081741 0.000000
# 6 0.000000 0.000000 0.000000 0.000000 0.000000 0.027697
#
#
# Mechanical properties :
#
#
# Convention : Reuss Voigt Hill
#
# Bulk Modulus (GPa) = 47.18989 50.02568 48.60778
# Shear Modulus (GPa) = 23.58159 28.25944 25.92051
#
# Velocity S-wave (km/s) = 3.34582 3.66267 3.50783
# Velocity P-wave (km/s) = 6.10965 6.45251 6.28342
#
# Compressibility (1/GPa) = 0.02119098
#
# Stress axis : x y z
#
# Youngs Moduli (GPa) = 72.47251 108.95048 70.01747
#
# Poissons Ratio (x) = 0.26178 0.18432
# Poissons Ratio (y) = 0.17413 0.20996
# Poissons Ratio (z) = 0.19078 0.32671
#
# Static dielectric constant tensor:
#      x y z
#    x 1.788570 0.000000 0.000000 
#    y 0.000000 1.784850 0.000000 
#    z 0.000000 0.000000 1.821120 
# 
# From -- ./inp_files/23246.got.cif
#   From: 2010.05.17/outbox.cif.g08.bks.cpg/sg49_12_cif.got.tgz:23246.got - 2010.06.03 21:02:19.
