data_PCOD9394141
_publ_section_title
;
Structure prediction by ZEFSAII (Michael W. Deem and Ramdas Pophale) SiO2 
 PCOD9394141
Probable space group: P C C M
;
_chemical_formula_sum "Si O2"
_cell_formula_units_Z 64
_cell_length_a 14.264846
_cell_length_b 7.852681
_cell_length_c 25.833705
_cell_angle_alpha 90.000000
_cell_angle_beta 90.000000
_cell_angle_gamma 90.000000
_cell_volume 2893.821500
_symmetry_space_group_name_H-M "P C C M"
_symmetry_group_IT_number 49
_symmetry_cell_setting 'orthorhombic'
loop_
_space_group_symop_operation_xyz
x,y,z
-x,-y,z
x,-y,1/2-z
-x,y,1/2-z
-x,-y,-z
x,y,-z
-x,y,1/2+z
x,-y,1/2+z
loop_
_atom_site_type_symbol
_atom_site_label
_atom_site_fract_x
_atom_site_fract_y
_atom_site_fract_z
Si Si1 0.915206 0.271529 0.354074
Si Si2 0.196761 0.795845 0.251428
Si Si3 0.722610 0.401047 0.059765
Si Si4 0.125024 0.325494 0.359878
Si Si5 0.601949 0.801149 0.735810
Si Si6 0.576118 0.147041 0.443673
Si Si7 0.779905 0.196778 0.558058
Si Si8 0.451406 0.664788 0.867935
O O1 0.877194 0.243098 0.296271
O O2 0.898209 0.473128 0.362102
O O3 0.851875 0.171959 0.395582
O O4 0.024413 0.233863 0.362834
O O5 0.166815 0.722247 0.196011
O O6 0.303235 0.729704 0.261509
O O7 0.202179 0.000000 0.250000
O O8 0.800638 0.302614 0.093902
O O9 0.747737 0.603494 0.060765
O O10 0.622338 0.378513 0.086981
O O11 0.721251 0.346364 0.000000
O O12 0.500000 0.730759 0.750000
O O13 0.603663 0.774368 0.674236
O O14 0.599755 0.000000 0.750000
O O15 0.574596 0.239268 0.500000
O O16 0.683335 0.092533 0.436106
O O17 0.539845 0.246010 0.394350
O O18 0.500000 0.000000 0.447584
O O19 0.817945 0.168369 0.500000
O O20 0.500000 0.500000 0.843751
#
# Coordination Sequence:
#
# PCOD9394141 Si02
#       8
#     8   8   8   8   8   8   8   8
#     4  10  22  37  65  85 121 162 205 265 320 372
#     4  11  23  40  64  89 118 161 210 258 312 378
#     4  10  20  37  63  94 129 160 202 264 318 374
#     4  10  21  41  58  93 120 157 210 261 319 375
#     4  10  25  43  60  89 127 167 201 254 315 376
#     4  10  22  36  57  88 123 163 206 250 303 376
#     4   9  19  37  59  90 123 159 207 255 311 375
#     4  12  23  38  64  93 122 163 210 255 314 380
#
# _framework density 22.116085000000002
#
# number of rings (size 3 to 8) (size 9 to 14) (size 15 to 20)
#    0.000    1.750    2.500    1.125    3.500    4.250 
#    2.250    2.500    0.000    0.000    0.000    1.750 
#    0.000    0.000    0.000    0.000    0.000    0.000 
#
# Total GULP energy -357335.373986 kJ/mol
# GULP energy per Si atom -5583.365219 kJ/mol
# Density = 2.206575 g / cm^3
# Si number density = 22.116085 Si / 1000 Ang^3
#
#
#
# Elastic Constant Matrix: (Units=GPa)
#
#
# Indices 1 2 3 4 5 6 
#
# 1 151.0963 9.7343 55.9484 0.0000 0.0000 0.0000
# 2 9.7343 28.3524 17.9958 0.0000 0.0000 0.0000
# 3 55.9484 17.9958 122.2507 0.0000 0.0000 0.0000
# 4 0.0000 0.0000 0.0000 9.3552 0.0000 0.0000
# 5 0.0000 0.0000 0.0000 0.0000 52.8870 0.0000
# 6 0.0000 0.0000 0.0000 0.0000 0.0000 23.4204
#
#
#
# Elastic Compliance Matrix: (Units=1/GPa)
#
#
# Indices 1 2 3 4 5 6 
#
# 1 0.007974 -0.000465 -0.003581 0.000000 0.000000 0.000000
# 2 -0.000465 0.038933 -0.005518 0.000000 0.000000 0.000000
# 3 -0.003581 -0.005518 0.010631 0.000000 0.000000 0.000000
# 4 0.000000 0.000000 0.000000 0.106893 0.000000 0.000000
# 5 0.000000 0.000000 0.000000 0.000000 0.018908 0.000000
# 6 0.000000 0.000000 0.000000 0.000000 0.000000 0.042698
#
#
# Mechanical properties :
#
#
# Convention : Reuss Voigt Hill
#
# Bulk Modulus (GPa) = 26.03517 52.11736 39.07627
# Shear Modulus (GPa) = 19.38226 31.66726 25.52476
#
# Velocity S-wave (km/s) = 2.96360 3.78810 3.40093
# Velocity P-wave (km/s) = 4.84852 6.53831 5.75576
#
# Compressibility (1/GPa) = 0.03840958
#
# Stress axis : x y z
#
# Youngs Moduli (GPa) = 125.40396 25.68543 94.06376
#
# Poissons Ratio (x) = 0.01194 0.33684
# Poissons Ratio (y) = 0.05830 0.51907
# Poissons Ratio (z) = 0.44907 0.14174
#
# Static dielectric constant tensor:
#      x y z
#    x 1.816870 0.000000 0.000000 
#    y 0.000000 1.894130 0.000000 
#    z 0.000000 0.000000 1.816700 
# 
# From -- ./inp_files/23229.got.cif
#   From: 2010.05.17/outbox.cif.g08.bks.cpg/sg49_12_cif.got.tgz:23229.got - 2010.06.03 21:02:19.
