data_PCOD9394404
_publ_section_title
;
Structure prediction by ZEFSAII (Michael W. Deem and Ramdas Pophale) SiO2 
 PCOD9394404
Probable space group: P C C M
;
_chemical_formula_sum "Si O2"
_cell_formula_units_Z 64
_cell_length_a 15.135469
_cell_length_b 25.325308
_cell_length_c 8.781068
_cell_angle_alpha 90.000000
_cell_angle_beta 90.000000
_cell_angle_gamma 90.000000
_cell_volume 3365.874812
_symmetry_space_group_name_H-M "P C C M"
_symmetry_group_IT_number 49
_symmetry_cell_setting 'orthorhombic'
loop_
_space_group_symop_operation_xyz
x,y,z
-x,-y,z
x,-y,1/2-z
-x,y,1/2-z
-x,-y,-z
x,y,-z
-x,y,1/2+z
x,-y,1/2+z
loop_
_atom_site_type_symbol
_atom_site_label
_atom_site_fract_x
_atom_site_fract_y
_atom_site_fract_z
Si Si1 0.598553 0.158917 0.684257
Si Si2 0.089675 0.795578 0.318167
Si Si3 0.908041 0.080512 0.682631
Si Si4 0.755646 0.630911 0.319175
Si Si5 0.411695 0.442266 0.320664
Si Si6 0.289703 0.054646 0.184114
Si Si7 0.901608 0.556638 0.817240
Si Si8 0.725233 0.255146 0.315551
O O1 0.500000 0.157075 0.750000
O O2 0.594570 0.158606 0.500000
O O3 0.655746 0.107034 0.729408
O O4 0.650623 0.212488 0.729632
O O5 0.084423 0.792574 0.500000
O O6 0.094935 0.857320 0.277338
O O7 0.179659 0.768403 0.269831
O O8 0.000000 0.772600 0.250000
O O9 0.912068 0.075322 0.500000
O O10 0.813155 0.058881 0.734661
O O11 0.000000 0.059467 0.750000
O O12 0.773266 0.634057 0.500000
O O13 0.674589 0.591456 0.291866
O O14 0.839417 0.604590 0.235943
O O15 0.724147 0.687259 0.256683
O O16 0.401254 0.500000 0.250000
O O17 0.500000 0.417567 0.250000
O O18 0.424515 0.447548 0.500000
O O19 0.326817 0.000000 0.250000
O O20 0.290059 0.052907 0.000000
O O21 0.869047 0.500000 0.750000
O O22 0.000000 0.563838 0.750000
O O23 0.904535 0.553288 0.000000
O O24 0.722546 0.259153 0.500000
#
# Coordination Sequence:
#
# PCOD9394404 Si02
#       8
#     8   8   8   8   8   8   8   8
#     4  10  22  42  64  84 111 148 192 242 298 358
#     4   9  17  32  55  80 106 141 182 222 269 325
#     4   9  17  32  54  80 112 148 184 223 270 328
#     4  11  24  39  57  87 122 155 197 246 293 351
#     4  10  21  37  59  84 113 147 185 232 284 341
#     4  10  21  38  59  84 117 152 188 236 289 349
#     4  11  22  39  63  90 123 165 209 254 302 353
#     4  10  21  39  60  81 111 153 192 233 292 351
#
# _framework density 19.014372999999999
#
# number of rings (size 3 to 8) (size 9 to 14) (size 15 to 20)
#    0.000    2.000    1.250    3.000    0.000    6.500 
#    0.000    6.250    0.000    0.000    0.000    0.000 
#    0.000    0.000    0.000    0.000    0.000    0.000 
#
# Total GULP energy -357218.466432 kJ/mol
# GULP energy per Si atom -5581.538538 kJ/mol
# Density = 1.897110 g / cm^3
# Si number density = 19.014373 Si / 1000 Ang^3
#
#
#
# Elastic Constant Matrix: (Units=GPa)
#
#
# Indices 1 2 3 4 5 6 
#
# 1 131.5876 69.1175 48.9316 0.0000 0.0000 0.0000
# 2 69.1175 120.6471 47.3675 0.0000 0.0000 0.0000
# 3 48.9316 47.3675 41.1963 0.0000 0.0000 0.0000
# 4 0.0000 0.0000 0.0000 28.8803 0.0000 0.0000
# 5 0.0000 0.0000 0.0000 0.0000 31.6493 0.0000
# 6 0.0000 0.0000 0.0000 0.0000 0.0000 -5.0574
#
#
#
# Elastic Compliance Matrix: (Units=1/GPa)
#
#
# Indices 1 2 3 4 5 6 
#
# 1 0.014090 -0.002737 -0.013589 0.000000 0.000000 0.000000
# 2 -0.002737 0.015641 -0.014733 0.000000 0.000000 0.000000
# 3 -0.013589 -0.014733 0.057355 0.000000 0.000000 0.000000
# 4 0.000000 0.000000 0.000000 0.034626 0.000000 0.000000
# 5 0.000000 0.000000 0.000000 0.000000 0.031596 0.000000
# 6 0.000000 0.000000 0.000000 0.000000 0.000000 -0.197729
#
#
# Mechanical properties :
#
#
# Convention : Reuss Voigt Hill
#
# Bulk Modulus (GPa) = 40.05152 69.36270 54.70711
# Shear Modulus (GPa) = 192.15488 19.62871 105.89180
#
# Velocity S-wave (km/s) = 10.06365 3.21644 7.47070
# Velocity P-wave (km/s) = 12.49583 7.09593 10.16115
#
# Compressibility (1/GPa) = 0.02496784
#
# Stress axis : x y z
#
# Youngs Moduli (GPa) = 70.97098 63.93430 17.43530
#
# Poissons Ratio (x) = 0.17499 0.23693
# Poissons Ratio (y) = 0.19425 0.25688
# Poissons Ratio (z) = 0.96442 0.94196
#
# Static dielectric constant tensor:
#      x y z
#    x 1.659950 0.000000 0.000000 
#    y 0.000000 1.666500 0.000000 
#    z 0.000000 0.000000 1.647350 
# 
# From -- ./inp_files/4294.got.cif
#   From: 2010.05.17/outbox.cif.g08.bks.cpg/sg49_3_cif.got.tgz:4294.got - 2010.06.03 21:02:19.
