data_PCOD9394218
_publ_section_title
;
Structure prediction by ZEFSAII (Michael W. Deem and Ramdas Pophale) SiO2 
 PCOD9394218
Probable space group: P C C M
;
_chemical_formula_sum "Si O2"
_cell_formula_units_Z 64
_cell_length_a 11.496768
_cell_length_b 14.827474
_cell_length_c 18.068461
_cell_angle_alpha 90.000000
_cell_angle_beta 90.000000
_cell_angle_gamma 90.000000
_cell_volume 3080.094927
_symmetry_space_group_name_H-M "P C C M"
_symmetry_group_IT_number 49
_symmetry_cell_setting 'orthorhombic'
loop_
_space_group_symop_operation_xyz
x,y,z
-x,-y,z
x,-y,1/2-z
-x,y,1/2-z
-x,-y,-z
x,y,-z
-x,y,1/2+z
x,-y,1/2+z
loop_
_atom_site_type_symbol
_atom_site_label
_atom_site_fract_x
_atom_site_fract_y
_atom_site_fract_z
Si Si1 0.297566 0.721614 0.185409
Si Si2 0.759512 0.333828 0.410260
Si Si3 0.711750 0.022966 0.415559
Si Si4 0.091576 0.159506 0.085923
Si Si5 0.367079 0.097519 0.226979
Si Si6 0.832853 0.155490 0.911742
Si Si7 0.876345 0.601469 0.222656
Si Si8 0.486474 0.604950 0.660238
O O1 0.320236 0.810299 0.237006
O O2 0.214582 0.752153 0.119463
O O3 0.228385 0.652481 0.236827
O O4 0.409213 0.675672 0.147292
O O5 0.755657 0.342517 0.500000
O O6 0.817725 0.236666 0.389357
O O7 0.849644 0.396889 0.364935
O O8 0.632205 0.355315 0.375455
O O9 0.669892 0.027510 0.500000
O O10 0.840257 0.066166 0.411855
O O11 0.637075 0.085000 0.361547
O O12 0.736280 0.920396 0.392766
O O13 0.963980 0.147445 0.119766
O O14 0.072426 0.183110 0.000000
O O15 0.500000 0.095737 0.250000
O O16 0.311230 0.000000 0.250000
O O17 0.838731 0.150169 0.000000
O O18 0.873692 0.500000 0.250000
O O19 0.000000 0.641030 0.250000
O O20 0.500000 0.500000 0.635280
O O21 0.500000 0.601376 0.750000
#
# Coordination Sequence:
#
# PCOD9394218 Si02
#       8
#     8   8   8   8   8   8   8   8
#     4  12  23  40  69  95 133 180 219 282 336 410
#     4  11  23  42  69 103 135 172 230 290 343 411
#     4  10  20  39  64  91 126 175 229 271 320 392
#     4   9  19  36  63  94 131 171 217 277 333 389
#     4  11  24  41  59  91 133 172 211 264 329 387
#     4  10  21  39  62  96 134 175 222 273 335 398
#     4  11  24  44  69 101 136 181 229 279 355 430
#     4  11  24  44  70  97 130 175 228 281 349 413
#
# _framework density 20.778580000000002
#
# number of rings (size 3 to 8) (size 9 to 14) (size 15 to 20)
#    0.000    1.375    2.500    3.000    1.750    2.250 
#    0.000    5.000    0.000    0.000    0.000    0.000 
#    0.000    0.000    0.000    0.000    0.000    0.000 
#
# Total GULP energy -356350.478021 kJ/mol
# GULP energy per Si atom -5567.976219 kJ/mol
# Density = 2.073129 g / cm^3
# Si number density = 20.778580 Si / 1000 Ang^3
#
#
#
# Elastic Constant Matrix: (Units=GPa)
#
#
# Indices 1 2 3 4 5 6 
#
# 1 95.7454 8.6305 45.8625 0.0000 0.0000 0.0000
# 2 8.6305 68.6295 18.8686 0.0000 0.0000 0.0000
# 3 45.8625 18.8686 80.9983 0.0000 0.0000 0.0000
# 4 0.0000 0.0000 0.0000 22.5852 0.0000 0.0000
# 5 0.0000 0.0000 0.0000 0.0000 19.7842 0.0000
# 6 0.0000 0.0000 0.0000 0.0000 0.0000 14.7559
#
#
#
# Elastic Compliance Matrix: (Units=1/GPa)
#
#
# Indices 1 2 3 4 5 6 
#
# 1 0.014345 0.000459 -0.008229 0.000000 0.000000 0.000000
# 2 0.000459 0.015583 -0.003890 0.000000 0.000000 0.000000
# 3 -0.008229 -0.003890 0.017911 0.000000 0.000000 0.000000
# 4 0.000000 0.000000 0.000000 0.044277 0.000000 0.000000
# 5 0.000000 0.000000 0.000000 0.000000 0.050545 0.000000
# 6 0.000000 0.000000 0.000000 0.000000 0.000000 0.067769
#
#
# Mechanical properties :
#
#
# Convention : Reuss Voigt Hill
#
# Bulk Modulus (GPa) = 40.78529 43.56626 42.17577
# Shear Modulus (GPa) = 20.66767 22.89251 21.78009
#
# Velocity S-wave (km/s) = 3.15725 3.32284 3.24110
# Velocity P-wave (km/s) = 5.74126 5.97780 5.86073
#
# Compressibility (1/GPa) = 0.02451864
#
# Stress axis : x y z
#
# Youngs Moduli (GPa) = 69.71171 64.17365 55.83016
#
# Poissons Ratio (x) = -0.02943 0.45943
# Poissons Ratio (y) = -0.03196 0.21716
# Poissons Ratio (z) = 0.57366 0.24961
#
# Static dielectric constant tensor:
#      x y z
#    x 1.766440 0.000000 0.000000 
#    y 0.000000 1.822420 0.000000 
#    z 0.000000 0.000000 1.809800 
# 
# From -- ./inp_files/17326.got.cif
#   From: 2010.05.17/outbox.cif.g08.bks.cpg/sg49_9_cif.got.tgz:17326.got - 2010.06.03 21:02:19.
