data_PCOD9394441
_publ_section_title
;
Structure prediction by ZEFSAII (Michael W. Deem and Ramdas Pophale) SiO2 
 PCOD9394441
Probable space group: P C C M
;
_chemical_formula_sum "Si O2"
_cell_formula_units_Z 38
_cell_length_a 9.422436
_cell_length_b 22.358581
_cell_length_c 9.316824
_cell_angle_alpha 90.000000
_cell_angle_beta 90.000000
_cell_angle_gamma 90.000000
_cell_volume 1962.796727
_symmetry_space_group_name_H-M "P C C M"
_symmetry_group_IT_number 49
_symmetry_cell_setting 'orthorhombic'
loop_
_space_group_symop_operation_xyz
x,y,z
-x,-y,z
x,-y,1/2-z
-x,y,1/2-z
-x,-y,-z
x,y,-z
-x,y,1/2+z
x,-y,1/2+z
loop_
_atom_site_type_symbol
_atom_site_label
_atom_site_fract_x
_atom_site_fract_y
_atom_site_fract_z
Si Si1 0.150209 0.730607 0.670170
Si Si2 0.364190 0.376652 0.168209
Si Si3 0.650630 0.173768 0.829374
Si Si4 0.856491 0.062373 0.170494
Si Si5 0.231911 0.500000 0.750000
Si Si6 0.000000 0.500000 0.000000
O O1 0.134262 0.744475 0.500000
O O2 0.229227 0.666876 0.681833
O O3 0.250399 0.778066 0.749974
O O4 0.000000 0.729235 0.750000
O O5 0.500000 0.350520 0.250000
O O6 0.326044 0.440899 0.232025
O O7 0.396800 0.382322 0.000000
O O8 0.500000 0.172195 0.750000
O O9 0.732105 0.110518 0.815608
O O10 0.635405 0.187008 0.000000
O O11 0.000000 0.084623 0.250000
O O12 0.822134 0.000000 0.250000
O O13 0.882694 0.053338 0.000000
O O14 0.124925 0.494695 0.619764
#
# Coordination Sequence:
#
# PCOD9394441 Si02
#       6
#     8   8   8   8   4   2
#     4  11  25  43  66  93 122 161 206 255 306 366
#     4  11  26  43  63  92 126 162 204 251 308 367
#     4  11  24  42  63  91 126 165 206 255 308 366
#     4  10  21  37  61  91 124 161 206 253 304 359
#     4  11  23  42  64  92 126 160 202 254 308 364
#     4  10  24  38  66  94 124 158 202 254 302 366
#
# _framework density 19.360130999999999
#
# number of rings (size 3 to 8) (size 9 to 14) (size 15 to 20)
#    0.000    1.263    1.053    4.105    4.421    9.684 
#    0.000    2.105    0.000    0.000    0.000    0.000 
#    0.000    0.000    0.000    0.000    0.000    0.000 
#
# Total GULP energy -211835.261404 kJ/mol
# GULP energy per Si atom -5574.612142 kJ/mol
# Density = 1.931607 g / cm^3
# Si number density = 19.360131 Si / 1000 Ang^3
#
#
#
# Elastic Constant Matrix: (Units=GPa)
#
#
# Indices 1 2 3 4 5 6 
#
# 1 150.8426 47.4754 87.4813 0.0000 0.0000 0.0000
# 2 47.4754 67.1010 49.9728 0.0000 0.0000 0.0000
# 3 87.4813 49.9728 184.2323 0.0000 0.0000 0.0000
# 4 0.0000 0.0000 0.0000 31.1381 0.0000 0.0000
# 5 0.0000 0.0000 0.0000 0.0000 55.1407 0.0000
# 6 0.0000 0.0000 0.0000 0.0000 0.0000 4.8297
#
#
#
# Elastic Compliance Matrix: (Units=1/GPa)
#
#
# Indices 1 2 3 4 5 6 
#
# 1 0.010124 -0.004490 -0.003590 0.000000 0.000000 0.000000
# 2 -0.004490 0.020667 -0.003474 0.000000 0.000000 0.000000
# 3 -0.003590 -0.003474 0.008075 0.000000 0.000000 0.000000
# 4 0.000000 0.000000 0.000000 0.032115 0.000000 0.000000
# 5 0.000000 0.000000 0.000000 0.000000 0.018135 0.000000
# 6 0.000000 0.000000 0.000000 0.000000 0.000000 0.207054
#
#
# Mechanical properties :
#
#
# Convention : Reuss Voigt Hill
#
# Bulk Modulus (GPa) = 63.45531 85.78167 74.61849
# Shear Modulus (GPa) = 15.40692 32.70480 24.05586
#
# Velocity S-wave (km/s) = 2.82407 4.11455 3.52880
# Velocity P-wave (km/s) = 6.59403 8.18397 7.43164
#
# Compressibility (1/GPa) = 0.01575912
#
# Stress axis : x y z
#
# Youngs Moduli (GPa) = 98.77195 48.38705 123.84379
#
# Poissons Ratio (x) = 0.21725 0.44455
# Poissons Ratio (y) = 0.44347 0.43021
# Poissons Ratio (z) = 0.35455 0.16809
#
# Static dielectric constant tensor:
#      x y z
#    x 1.649320 0.000000 0.000000 
#    y 0.000000 1.688310 0.000000 
#    z 0.000000 0.000000 1.649450 
# 
# From -- ./inp_files/1776.got.cif
#   From: 2010.05.17/outbox.cif.g08.bks.cpg/sg49_1_cif.got.tgz:1776.got - 2010.06.03 21:02:19.
