data_PCOD9394263
_publ_section_title
;
Structure prediction by ZEFSAII (Michael W. Deem and Ramdas Pophale) SiO2 
 PCOD9394263
Probable space group: P C C M
;
_chemical_formula_sum "Si O2"
_cell_formula_units_Z 42
_cell_length_a 11.507136
_cell_length_b 7.990713
_cell_length_c 26.365358
_cell_angle_alpha 90.000000
_cell_angle_beta 90.000000
_cell_angle_gamma 90.000000
_cell_volume 2424.300501
_symmetry_space_group_name_H-M "P C C M"
_symmetry_group_IT_number 49
_symmetry_cell_setting 'orthorhombic'
loop_
_space_group_symop_operation_xyz
x,y,z
-x,-y,z
x,-y,1/2-z
-x,y,1/2-z
-x,-y,-z
x,y,-z
-x,y,1/2+z
x,-y,1/2+z
loop_
_atom_site_type_symbol
_atom_site_label
_atom_site_fract_x
_atom_site_fract_y
_atom_site_fract_z
Si Si1 0.616544 0.344975 0.655577
Si Si2 0.760048 0.796709 0.000000
Si Si3 0.362737 0.312144 0.608105
Si Si4 0.719514 0.420192 0.000000
Si Si5 0.248265 0.954132 0.611481
Si Si6 0.000000 0.000000 0.589405
Si Si7 0.037910 0.244101 0.500000
Si Si8 0.500000 0.500000 0.250000
O O1 0.498406 0.310574 0.623310
O O2 0.677630 0.514873 0.635129
O O3 0.692322 0.183355 0.646508
O O4 0.576124 0.386038 0.712441
O O5 0.696685 0.618657 0.000000
O O6 0.735033 0.898221 0.948146
O O7 0.897215 0.742699 0.000000
O O8 0.337625 0.340393 0.549283
O O9 0.300554 0.137804 0.621641
O O10 0.859412 0.380130 0.000000
O O11 0.110348 0.942108 0.620276
O O12 0.054358 0.137377 0.551147
#
# Coordination Sequence:
#
# PCOD9394263 Si02
#       8
#     8   4   8   4   8   4   4   2
#     4  10  22  40  58  82 106 133 190 227 287 344
#     4  10  21  29  50  76 117 164 194 220 262 304
#     4  10  21  33  53  78 115 148 182 228 263 321
#     4  12  17  32  47  76 118 155 193 225 266 306
#     4  11  19  36  53  83 117 153 188 221 266 322
#     4   9  18  30  52  76 117 152 188 229 252 297
#     4   9  17  30  44  70 115 162 201 220 240 305
#     4   8  20  44  66  82 102 130 168 252 290 336
#
# _framework density 17.324584000000002
#
# number of rings (size 3 to 8) (size 9 to 14) (size 15 to 20)
#    0.000    2.095    3.810    2.000    0.000    2.286 
#    0.000   10.476    0.000    0.000    0.000   16.000 
#    0.000    0.000    0.000    0.000    0.000    0.000 
#
# Total GULP energy -233889.940849 kJ/mol
# GULP energy per Si atom -5568.808115 kJ/mol
# Density = 1.728515 g / cm^3
# Si number density = 17.324584 Si / 1000 Ang^3
#
#
#
# Elastic Constant Matrix: (Units=GPa)
#
#
# Indices 1 2 3 4 5 6 
#
# 1 63.7020 43.6199 33.0928 0.0000 0.0000 0.0000
# 2 43.6199 133.4468 40.3250 0.0000 0.0000 0.0000
# 3 33.0928 40.3250 92.0676 0.0000 0.0000 0.0000
# 4 0.0000 0.0000 0.0000 5.4477 0.0000 0.0000
# 5 0.0000 0.0000 0.0000 0.0000 5.3323 0.0000
# 6 0.0000 0.0000 0.0000 0.0000 0.0000 30.3091
#
#
#
# Elastic Compliance Matrix: (Units=1/GPa)
#
#
# Indices 1 2 3 4 5 6 
#
# 1 0.022482 -0.005655 -0.005604 0.000000 0.000000 0.000000
# 2 -0.005655 0.010059 -0.002373 0.000000 0.000000 0.000000
# 3 -0.005604 -0.002373 0.013915 0.000000 0.000000 0.000000
# 4 0.000000 0.000000 0.000000 0.183563 0.000000 0.000000
# 5 0.000000 0.000000 0.000000 0.000000 0.187535 0.000000
# 6 0.000000 0.000000 0.000000 0.000000 0.000000 0.032993
#
#
# Mechanical properties :
#
#
# Convention : Reuss Voigt Hill
#
# Bulk Modulus (GPa) = 52.10592 58.14354 55.12473
# Shear Modulus (GPa) = 10.32611 19.69642 15.01127
#
# Velocity S-wave (km/s) = 2.44404 3.37546 2.94678
# Velocity P-wave (km/s) = 6.17301 6.98755 6.59287
#
# Compressibility (1/GPa) = 0.01919168
#
# Stress axis : x y z
#
# Youngs Moduli (GPa) = 44.48067 99.41067 71.86346
#
# Poissons Ratio (x) = 0.56219 0.40271
# Poissons Ratio (y) = 0.25155 0.17055
# Poissons Ratio (z) = 0.24926 0.23592
#
# Static dielectric constant tensor:
#      x y z
#    x 1.617950 0.000000 0.000000 
#    y 0.000000 1.633340 0.000000 
#    z 0.000000 0.000000 1.565310 
# 
# From -- ./inp_files/22831.got.cif
#   From: 2010.05.17/outbox.cif.g08.bks.cpg/sg49_12_cif.got.tgz:22831.got - 2010.06.03 21:02:19.
