data_PCOD9394448
_publ_section_title
;
Structure prediction by ZEFSAII (Michael W. Deem and Ramdas Pophale) SiO2 
 PCOD9394448
Probable space group: P C C M
;
_chemical_formula_sum "Si O2"
_cell_formula_units_Z 48
_cell_length_a 15.177771
_cell_length_b 19.564681
_cell_length_c 8.468150
_cell_angle_alpha 90.000000
_cell_angle_beta 90.000000
_cell_angle_gamma 90.000000
_cell_volume 2514.602306
_symmetry_space_group_name_H-M "P C C M"
_symmetry_group_IT_number 49
_symmetry_cell_setting 'orthorhombic'
loop_
_space_group_symop_operation_xyz
x,y,z
-x,-y,z
x,-y,1/2-z
-x,y,1/2-z
-x,-y,-z
x,y,-z
-x,y,1/2+z
x,-y,1/2+z
loop_
_atom_site_type_symbol
_atom_site_label
_atom_site_fract_x
_atom_site_fract_y
_atom_site_fract_z
Si Si1 0.240143 0.810984 0.185702
Si Si2 0.091238 0.716764 0.310673
Si Si3 0.595813 0.726955 0.188920
Si Si4 0.854535 0.430177 0.688281
Si Si5 0.098149 0.077281 0.690342
Si Si6 0.349960 0.426329 0.190774
O O1 0.171710 0.750958 0.222582
O O2 0.330615 0.782122 0.258830
O O3 0.181618 0.876214 0.243736
O O4 0.254830 0.820542 0.000000
O O5 0.100286 0.723981 0.500000
O O6 0.095682 0.637565 0.264837
O O7 0.000000 0.746391 0.250000
O O8 0.500000 0.747377 0.250000
O O9 0.612588 0.647629 0.244204
O O10 0.597756 0.724422 0.000000
O O11 0.893398 0.500000 0.750000
O O12 0.852241 0.432405 0.500000
O O13 0.752701 0.425057 0.741930
O O14 0.095598 0.079348 0.500000
O O15 0.000000 0.098343 0.750000
O O16 0.110819 0.000000 0.750000
O O17 0.386570 0.500000 0.250000
O O18 0.354632 0.427689 0.000000
#
# Coordination Sequence:
#
# PCOD9394448 Si02
#       6
#     8   8   8   8   8   8
#     4  11  23  39  60  87 117 153 192 233 285 341
#     4  11  22  36  53  78 110 146 190 235 283 342
#     4  11  23  40  60  85 116 151 195 244 296 353
#     4   9  18  33  50  70  99 138 184 232 285 340
#     4  10  21  37  61  94 128 160 195 230 273 330
#     4   9  18  34  54  77 105 142 187 240 300 354
#
# _framework density 19.088505000000001
#
# number of rings (size 3 to 8) (size 9 to 14) (size 15 to 20)
#    0.000    1.833    1.667    3.000    0.000    7.333 
#    0.000    3.333    0.000    0.500    0.000    3.500 
#    0.000    0.000    0.000    0.000    0.000    0.000 
#
# Total GULP energy -267652.632107 kJ/mol
# GULP energy per Si atom -5576.096502 kJ/mol
# Density = 1.904506 g / cm^3
# Si number density = 19.088505 Si / 1000 Ang^3
#
#
#
# Elastic Constant Matrix: (Units=GPa)
#
#
# Indices 1 2 3 4 5 6 
#
# 1 142.2479 61.1160 20.9911 0.0000 0.0000 0.0000
# 2 61.1160 133.5561 23.4192 0.0000 0.0000 0.0000
# 3 20.9911 23.4192 21.2242 0.0000 0.0000 0.0000
# 4 0.0000 0.0000 0.0000 14.0688 0.0000 0.0000
# 5 0.0000 0.0000 0.0000 0.0000 24.4156 0.0000
# 6 0.0000 0.0000 0.0000 0.0000 0.0000 26.0207
#
#
#
# Elastic Compliance Matrix: (Units=1/GPa)
#
#
# Indices 1 2 3 4 5 6 
#
# 1 0.009249 -0.003259 -0.005552 0.000000 0.000000 0.000000
# 2 -0.003259 0.010432 -0.008288 0.000000 0.000000 0.000000
# 3 -0.005552 -0.008288 0.061752 0.000000 0.000000 0.000000
# 4 0.000000 0.000000 0.000000 0.071079 0.000000 0.000000
# 5 0.000000 0.000000 0.000000 0.000000 0.040957 0.000000
# 6 0.000000 0.000000 0.000000 0.000000 0.000000 0.038431
#
#
# Mechanical properties :
#
#
# Convention : Reuss Voigt Hill
#
# Bulk Modulus (GPa) = 21.17023 56.45342 38.81182
# Shear Modulus (GPa) = 17.74035 25.66781 21.70408
#
# Velocity S-wave (km/s) = 3.05187 3.67096 3.37564
# Velocity P-wave (km/s) = 4.85110 6.89976 5.96405
#
# Compressibility (1/GPa) = 0.04723614
#
# Stress axis : x y z
#
# Youngs Moduli (GPa) = 108.11398 95.85765 16.19391
#
# Poissons Ratio (x) = 0.31241 0.08990
# Poissons Ratio (y) = 0.35236 0.13421
# Poissons Ratio (z) = 0.60022 0.79444
#
# Static dielectric constant tensor:
#      x y z
#    x 1.651100 0.000000 0.000000 
#    y 0.000000 1.657620 0.000000 
#    z 0.000000 0.000000 1.650970 
# 
# From -- ./inp_files/3695.got.cif
#   From: 2010.05.17/outbox.cif.g08.bks.cpg/sg49_2_cif.got.tgz:3695.got - 2010.06.03 21:02:19.
