data_PCOD9394121
_publ_section_title
;
Structure prediction by ZEFSAII (Michael W. Deem and Ramdas Pophale) SiO2 
 PCOD9394121
Probable space group: P C C M
;
_chemical_formula_sum "Si O2"
_cell_formula_units_Z 50
_cell_length_a 8.058794
_cell_length_b 21.746667
_cell_length_c 14.645042
_cell_angle_alpha 90.000000
_cell_angle_beta 90.000000
_cell_angle_gamma 90.000000
_cell_volume 2566.571576
_symmetry_space_group_name_H-M "P C C M"
_symmetry_group_IT_number 49
_symmetry_cell_setting 'orthorhombic'
loop_
_space_group_symop_operation_xyz
x,y,z
-x,-y,z
x,-y,1/2-z
-x,y,1/2-z
-x,-y,-z
x,y,-z
-x,y,1/2+z
x,-y,1/2+z
loop_
_atom_site_type_symbol
_atom_site_label
_atom_site_fract_x
_atom_site_fract_y
_atom_site_fract_z
Si Si1 0.000000 0.500000 0.250000
Si Si2 0.803003 0.168845 0.605841
Si Si3 0.803003 0.831155 0.605841
Si Si4 0.316500 0.698799 0.610760
Si Si5 0.301176 0.929873 0.750000
Si Si6 0.316500 0.698799 0.889240
Si Si7 0.000000 0.384546 0.611310
O O1 0.000000 0.446137 0.330287
O O2 0.757792 0.159760 0.500000
O O3 0.715406 0.230989 0.640073
O O4 0.758526 0.109399 0.663660
O O5 0.000000 0.180154 0.610964
O O6 0.757792 0.840240 0.500000
O O7 0.758526 0.890601 0.663660
O O8 0.715405 0.769011 0.640073
O O9 0.314796 0.700477 0.500000
O O10 0.500000 0.678033 0.639735
O O11 0.164044 0.655100 0.635621
O O12 0.500000 0.930894 0.750000
O O13 0.240106 0.000000 0.750000
O O14 0.164045 0.655100 0.864379
O O15 0.314796 0.700477 0.000000
O O16 0.000000 0.393951 0.500000
#
# Coordination Sequence:
#
# PCOD9394121 Si02
#       7
#     2   8   8   8   8   8   8
#     4  12  26  40  62  86 116 166 200 228 278 338
#     4  10  20  37  62  90 117 147 194 253 305 357
#     4  10  20  37  62  90 117 147 194 253 305 357
#     4   9  17  34  63  92 117 149 190 242 300 348
#     4  11  25  40  53  77 117 164 207 244 293 360
#     4   9  17  34  63  92 117 149 190 242 300 348
#     4  10  21  41  61  86 121 153 191 238 285 342
#
# _framework density 19.48124
#
# number of rings (size 3 to 8) (size 9 to 14) (size 15 to 20)
#    0.000    2.080    1.600    1.680    0.000    5.120 
#    0.000    7.200    0.000    3.840    0.000    0.000 
#    0.000    0.000    0.000    0.000    0.000    0.000 
#
# Total GULP energy -278752.706658 kJ/mol
# GULP energy per Si atom -5575.054133 kJ/mol
# Density = 1.943690 g / cm^3
# Si number density = 19.481240 Si / 1000 Ang^3
#
#
#
# Elastic Constant Matrix: (Units=GPa)
#
#
# Indices 1 2 3 4 5 6 
#
# 1 123.1254 76.8250 36.6311 0.0000 0.0000 0.0000
# 2 76.8250 186.1577 60.8643 0.0000 0.0000 0.0000
# 3 36.6311 60.8643 105.2922 0.0000 0.0000 0.0000
# 4 0.0000 0.0000 0.0000 39.5881 0.0000 0.0000
# 5 0.0000 0.0000 0.0000 0.0000 23.4402 0.0000
# 6 0.0000 0.0000 0.0000 0.0000 0.0000 -3.3939
#
#
#
# Elastic Compliance Matrix: (Units=1/GPa)
#
#
# Indices 1 2 3 4 5 6 
#
# 1 0.011127 -0.004102 -0.001500 0.000000 0.000000 0.000000
# 2 -0.004102 0.008135 -0.003276 0.000000 0.000000 0.000000
# 3 -0.001500 -0.003276 0.011913 0.000000 0.000000 0.000000
# 4 0.000000 0.000000 0.000000 0.025260 0.000000 0.000000
# 5 0.000000 0.000000 0.000000 0.000000 0.042662 0.000000
# 6 0.000000 0.000000 0.000000 0.000000 0.000000 -0.294645
#
#
# Mechanical properties :
#
#
# Convention : Reuss Voigt Hill
#
# Bulk Modulus (GPa) = 74.51322 84.80179 79.65751
# Shear Modulus (GPa) = -28.84854 27.94389 -0.45233
#
# Velocity S-wave (km/s) = -3.85234 3.79146 -0.48238
# Velocity P-wave (km/s) = 4.30632 7.92410 6.37714
#
# Compressibility (1/GPa) = 0.01342044
#
# Stress axis : x y z
#
# Youngs Moduli (GPa) = 89.86845 122.91814 83.94263
#
# Poissons Ratio (x) = 0.50416 0.12594
# Poissons Ratio (y) = 0.36861 0.27498
# Poissons Ratio (z) = 0.13483 0.40265
#
# Static dielectric constant tensor:
#      x y z
#    x 1.692390 0.000000 0.000000 
#    y 0.000000 1.623950 0.000000 
#    z 0.000000 0.000000 1.706230 
# 
# From -- ./inp_files/11866.got.cif
#   From: 2010.05.17/outbox.cif.g08.bks.cpg/sg49_6_cif.got.tgz:11866.got - 2010.06.03 21:02:19.
