data_PCOD9394288
_publ_section_title
;
Structure prediction by ZEFSAII (Michael W. Deem and Ramdas Pophale) SiO2 
 PCOD9394288
Probable space group: P C C M
;
_chemical_formula_sum "Si O2"
_cell_formula_units_Z 48
_cell_length_a 5.135183
_cell_length_b 17.939369
_cell_length_c 28.222692
_cell_angle_alpha 90.000000
_cell_angle_beta 90.000000
_cell_angle_gamma 90.000000
_cell_volume 2599.929216
_symmetry_space_group_name_H-M "P C C M"
_symmetry_group_IT_number 49
_symmetry_cell_setting 'orthorhombic'
loop_
_space_group_symop_operation_xyz
x,y,z
-x,-y,z
x,-y,1/2-z
-x,y,1/2-z
-x,-y,-z
x,y,-z
-x,y,1/2+z
x,-y,1/2+z
loop_
_atom_site_type_symbol
_atom_site_label
_atom_site_fract_x
_atom_site_fract_y
_atom_site_fract_z
Si Si1 0.552739 0.080326 0.194379
Si Si2 0.375675 0.286552 0.555898
Si Si3 0.245966 0.453404 0.442494
Si Si4 0.251429 0.948029 0.444405
Si Si5 0.947646 0.825347 0.195009
Si Si6 0.885394 0.787959 0.095841
O O1 0.500000 0.071160 0.250000
O O2 0.845166 0.107824 0.187516
O O3 0.342689 0.144410 0.185186
O O4 0.500000 0.000000 0.171840
O O5 0.436592 0.290362 0.500000
O O6 0.274833 0.367727 0.572189
O O7 0.638516 0.262123 0.582053
O O8 0.138591 0.229568 0.564233
O O9 0.500000 0.500000 0.429866
O O10 0.228363 0.451329 0.500000
O O11 0.000000 0.500000 0.424825
O O12 0.275815 0.925520 0.500000
O O13 0.207108 0.872988 0.414437
O O14 0.500000 0.000000 0.433586
O O15 0.000000 0.000000 0.439092
O O16 0.000000 0.801287 0.250000
O O17 0.982225 0.772908 0.149737
#
# Coordination Sequence:
#
# PCOD9394288 Si02
#       6
#     8   8   8   8   8   8
#     4   9  17  31  50  69  91 122 162 214 279 337
#     4  11  22  36  56  82 112 143 176 216 261 317
#     4   9  17  31  52  79 111 143 168 195 245 314
#     4  10  21  36  51  68  96 136 182 230 273 312
#     4  10  21  35  50  71 101 134 171 223 276 326
#     4  12  23  36  54  77 105 142 187 229 274 322
#
# _framework density 18.462039999999998
#
# number of rings (size 3 to 8) (size 9 to 14) (size 15 to 20)
#    0.000    1.833    0.000    5.000    0.000    8.000 
#    0.000    0.000    0.000    0.000    0.000    0.000 
#    0.000   10.000    0.000    0.000    0.000    0.000 
#
# Total GULP energy -267615.115209 kJ/mol
# GULP energy per Si atom -5575.314900 kJ/mol
# Density = 1.842002 g / cm^3
# Si number density = 18.462040 Si / 1000 Ang^3
#
#
#
# Elastic Constant Matrix: (Units=GPa)
#
#
# Indices 1 2 3 4 5 6 
#
# 1 62.4524 6.7730 18.5584 0.0000 0.0000 0.0000
# 2 6.7730 52.1621 33.9723 0.0000 0.0000 0.0000
# 3 18.5584 33.9723 100.1113 0.0000 0.0000 0.0000
# 4 0.0000 0.0000 0.0000 -0.2426 0.0000 0.0000
# 5 0.0000 0.0000 0.0000 0.0000 14.5789 0.0000
# 6 0.0000 0.0000 0.0000 0.0000 0.0000 32.8791
#
#
#
# Elastic Compliance Matrix: (Units=1/GPa)
#
#
# Indices 1 2 3 4 5 6 
#
# 1 0.016947 -0.000198 -0.003074 0.000000 0.000000 0.000000
# 2 -0.000198 0.024612 -0.008315 0.000000 0.000000 0.000000
# 3 -0.003074 -0.008315 0.013381 0.000000 0.000000 0.000000
# 4 0.000000 0.000000 0.000000 -4.122055 0.000000 0.000000
# 5 0.000000 0.000000 0.000000 0.000000 0.068592 0.000000
# 6 0.000000 0.000000 0.000000 0.000000 0.000000 0.030414
#
#
# Mechanical properties :
#
#
# Convention : Reuss Voigt Hill
#
# Bulk Modulus (GPa) = 31.48187 37.03702 34.25944
# Shear Modulus (GPa) = -1.27086 19.80456 9.26685
#
# Velocity S-wave (km/s) = -0.83058 3.27879 2.24283
# Velocity P-wave (km/s) = 4.02112 5.86845 5.03031
#
# Compressibility (1/GPa) = 0.03176432
#
# Stress axis : x y z
#
# Youngs Moduli (GPa) = 59.00654 40.62991 74.73523
#
# Poissons Ratio (x) = 0.00805 0.22976
# Poissons Ratio (y) = 0.01170 0.62145
# Poissons Ratio (z) = 0.18141 0.33785
#
# Static dielectric constant tensor:
#      x y z
#    x 0.633370 0.000000 0.000000 
#    y 0.000000 1.655260 0.000000 
#    z 0.000000 0.000000 1.625360 
# 
# From -- ./inp_files/23933.got.cif
#   From: 2010.05.17/outbox.cif.g08.bks.cpg/sg49_12_cif.got.tgz:23933.got - 2010.06.03 21:02:19.
