data_PCOD9394653
_publ_section_title
;
Structure prediction by ZEFSAII (Michael W. Deem and Ramdas Pophale) SiO2 
 PCOD9394653
Probable space group: P C C M
;
_chemical_formula_sum "Si O2"
_cell_formula_units_Z 18
_cell_length_a 4.976378
_cell_length_b 5.342417
_cell_length_c 27.433654
_cell_angle_alpha 90.000000
_cell_angle_beta 90.000000
_cell_angle_gamma 90.000000
_cell_volume 729.348009
_symmetry_space_group_name_H-M "P C C M"
_symmetry_group_IT_number 49
_symmetry_cell_setting 'orthorhombic'
loop_
_space_group_symop_operation_xyz
x,y,z
-x,-y,z
x,-y,1/2-z
-x,y,1/2-z
-x,-y,-z
x,y,-z
-x,y,1/2+z
x,-y,1/2+z
loop_
_atom_site_type_symbol
_atom_site_label
_atom_site_fract_x
_atom_site_fract_y
_atom_site_fract_z
Si Si1 0.335397 0.236079 0.892938
Si Si2 0.500000 0.500000 0.750000
Si Si3 0.752283 0.316673 0.500000
Si Si4 0.000000 0.500000 0.318578
O O1 0.500000 0.500000 0.894679
O O2 0.100085 0.286277 0.854977
O O3 0.500000 0.000000 0.875430
O O4 0.249348 0.176424 0.948568
O O5 0.735955 0.592958 0.712016
O O6 0.500000 0.500000 0.500000
O O7 0.000000 0.500000 0.500000
#
# Coordination Sequence:
#
# PCOD9394653 Si02
#       4
#     8   2   4   4
#     4  11  24  45  75 109 152 198 248 306 376 459
#     4  10  24  46  78 104 146 190 258 330 390 456
#     4  10  21  42  66 111 153 199 244 300 364 453
#     4  11  22  47  76 106 148 193 258 317 398 450
#
# _framework density 24.679580000000001
#
# number of rings (size 3 to 8) (size 9 to 14) (size 15 to 20)
#    0.000    1.333    4.444    0.667    0.000    1.778 
#    0.000    5.556    9.778    0.000    0.000    0.000 
#    0.000    0.000    0.000    0.000    0.000    0.000 
#
# Total GULP energy -100364.175020 kJ/mol
# GULP energy per Si atom -5575.787501 kJ/mol
# Density = 2.462341 g / cm^3
# Si number density = 24.679580 Si / 1000 Ang^3
#
#
#
# Elastic Constant Matrix: (Units=GPa)
#
#
# Indices 1 2 3 4 5 6 
#
# 1 220.6909 66.9122 80.9304 0.0000 0.0000 0.0000
# 2 66.9122 123.7097 36.3521 0.0000 0.0000 0.0000
# 3 80.9304 36.3521 205.3641 0.0000 0.0000 0.0000
# 4 0.0000 0.0000 0.0000 -8.9170 0.0000 0.0000
# 5 0.0000 0.0000 0.0000 0.0000 91.2581 0.0000
# 6 0.0000 0.0000 0.0000 0.0000 0.0000 62.3243
#
#
#
# Elastic Compliance Matrix: (Units=1/GPa)
#
#
# Indices 1 2 3 4 5 6 
#
# 1 0.006053 -0.002714 -0.001905 0.000000 0.000000 0.000000
# 2 -0.002714 0.009744 -0.000655 0.000000 0.000000 0.000000
# 3 -0.001905 -0.000655 0.005736 0.000000 0.000000 0.000000
# 4 0.000000 0.000000 0.000000 -0.112146 0.000000 0.000000
# 5 0.000000 0.000000 0.000000 0.000000 0.010958 0.000000
# 6 0.000000 0.000000 0.000000 0.000000 0.000000 0.016045
#
#
# Mechanical properties :
#
#
# Convention : Reuss Voigt Hill
#
# Bulk Modulus (GPa) = 91.03796 102.01714 96.52755
# Shear Modulus (GPa) = -101.21404 53.30440 -23.95482
#
# Velocity S-wave (km/s) = -6.41095 4.65247 -3.11888
# Velocity P-wave (km/s) = 4.22283 8.38374 5.12126
#
# Compressibility (1/GPa) = 0.01098443
#
# Stress axis : x y z
#
# Youngs Moduli (GPa) = 165.21767 102.62782 174.33615
#
# Poissons Ratio (x) = 0.27853 0.33208
# Poissons Ratio (y) = 0.44840 0.11424
# Poissons Ratio (z) = 0.31471 0.06725
#
# Static dielectric constant tensor:
#      x y z
#    x 2.065610 0.000000 0.000000 
#    y 0.000000 1.939470 0.000000 
#    z 0.000000 0.000000 2.076050 
# 
# From -- ./inp_files/23464.got.cif
#   From: 2010.05.17/outbox.cif.g08.bks.cpg/sg49_12_cif.got.tgz:23464.got - 2010.06.03 21:02:19.
