data_PCOD9394968
_publ_section_title
;
Structure prediction by ZEFSAII (Michael W. Deem and Ramdas Pophale) SiO2 
 PCOD9394968
Probable space group: P C C M
;
_chemical_formula_sum "Si O2"
_cell_formula_units_Z 56
_cell_length_a 9.085795
_cell_length_b 15.471406
_cell_length_c 20.661939
_cell_angle_alpha 90.000000
_cell_angle_beta 90.000000
_cell_angle_gamma 90.000000
_cell_volume 2904.449246
_symmetry_space_group_name_H-M "P C C M"
_symmetry_group_IT_number 49
_symmetry_cell_setting 'orthorhombic'
loop_
_space_group_symop_operation_xyz
x,y,z
-x,-y,z
x,-y,1/2-z
-x,y,1/2-z
-x,-y,-z
x,y,-z
-x,y,1/2+z
x,-y,1/2+z
loop_
_atom_site_type_symbol
_atom_site_label
_atom_site_fract_x
_atom_site_fract_y
_atom_site_fract_z
Si Si1 0.256933 0.450134 0.926376
Si Si2 0.420700 0.368307 0.427490
Si Si3 0.156429 0.584982 0.286613
Si Si4 0.723636 0.219889 0.710778
Si Si5 0.588417 0.794544 0.650580
Si Si6 0.157742 0.955405 0.685620
Si Si7 0.337053 0.961362 0.927841
O O1 0.408163 0.394955 0.918368
O O2 0.319425 0.547391 0.924324
O O3 0.154697 0.434789 0.863971
O O4 0.199155 0.434156 0.000000
O O5 0.409533 0.331657 0.500000
O O6 0.372803 0.299663 0.375384
O O7 0.226935 0.500000 0.250000
O O8 0.232420 0.679443 0.283937
O O9 0.000000 0.593696 0.250000
O O10 0.587673 0.205953 0.661513
O O11 0.662549 0.192392 0.780480
O O12 0.845844 0.148340 0.693115
O O13 0.644144 0.866081 0.601297
O O14 0.227220 0.000000 0.750000
O O15 0.247154 0.981647 0.622589
O O16 0.000000 0.000000 0.680166
O O17 0.500000 0.000000 0.930818
O O18 0.273290 0.960593 0.000000
#
# Coordination Sequence:
#
# PCOD9394968 Si02
#       7
#     8   8   8   8   8   8   8
#     4   9  18  36  59  86 121 163 207 254 312 373
#     4   9  17  32  58  90 124 157 197 254 319 380
#     4  11  24  41  59  87 130 168 208 260 307 371
#     4  11  23  37  62  93 123 163 212 261 313 378
#     4  11  20  35  59  94 126 158 203 262 323 378
#     4  11  24  43  66  89 120 173 219 260 307 380
#     4  11  23  39  62  93 130 161 200 268 331 374
#
# _framework density 19.280763
#
# number of rings (size 3 to 8) (size 9 to 14) (size 15 to 20)
#    0.000    1.571    4.286    2.143    2.000    0.571 
#    0.000    2.143    0.000    3.429    0.000    0.000 
#    0.000    0.000    0.000    0.000    0.000    0.000 
#
# Total GULP energy -312224.511635 kJ/mol
# GULP energy per Si atom -5575.437708 kJ/mol
# Density = 1.923688 g / cm^3
# Si number density = 19.280763 Si / 1000 Ang^3
#
#
#
# Elastic Constant Matrix: (Units=GPa)
#
#
# Indices 1 2 3 4 5 6 
#
# 1 50.5532 21.0586 33.2683 0.0000 0.0000 0.0000
# 2 21.0586 127.7488 36.1628 0.0000 0.0000 0.0000
# 3 33.2683 36.1628 141.8118 0.0000 0.0000 0.0000
# 4 0.0000 0.0000 0.0000 35.5350 0.0000 0.0000
# 5 0.0000 0.0000 0.0000 0.0000 36.7379 0.0000
# 6 0.0000 0.0000 0.0000 0.0000 0.0000 20.7266
#
#
#
# Elastic Compliance Matrix: (Units=1/GPa)
#
#
# Indices 1 2 3 4 5 6 
#
# 1 0.024146 -0.002562 -0.005011 0.000000 0.000000 0.000000
# 2 -0.002562 0.008709 -0.001620 0.000000 0.000000 0.000000
# 3 -0.005011 -0.001620 0.008640 0.000000 0.000000 0.000000
# 4 0.000000 0.000000 0.000000 0.028141 0.000000 0.000000
# 5 0.000000 0.000000 0.000000 0.000000 0.027220 0.000000
# 6 0.000000 0.000000 0.000000 0.000000 0.000000 0.048247
#
#
# Mechanical properties :
#
#
# Convention : Reuss Voigt Hill
#
# Bulk Modulus (GPa) = 43.27244 55.67705 49.47475
# Shear Modulus (GPa) = 29.20694 33.90817 31.55755
#
# Velocity S-wave (km/s) = 3.89629 4.19818 4.05005
# Velocity P-wave (km/s) = 6.53709 7.24150 6.89829
#
# Compressibility (1/GPa) = 0.02310940
#
# Stress axis : x y z
#
# Youngs Moduli (GPa) = 41.41453 114.82801 115.73702
#
# Poissons Ratio (x) = 0.29416 0.57999
# Poissons Ratio (y) = 0.10609 0.18747
# Poissons Ratio (z) = 0.20754 0.18600
#
# Static dielectric constant tensor:
#      x y z
#    x 1.673760 0.000000 0.000000 
#    y 0.000000 1.688890 0.000000 
#    z 0.000000 0.000000 1.687410 
# 
# From -- ./inp_files/19913.got.cif
#   From: 2010.05.17/outbox.cif.g08.bks.cpg/sg49_10_cif.got.tgz:19913.got - 2010.06.03 21:02:19.
