data_PCOD9394873
_publ_section_title
;
Structure prediction by ZEFSAII (Michael W. Deem and Ramdas Pophale) SiO2 
 PCOD9394873
Probable space group: P C C M
;
_chemical_formula_sum "Si O2"
_cell_formula_units_Z 64
_cell_length_a 8.914123
_cell_length_b 18.615050
_cell_length_c 20.534632
_cell_angle_alpha 90.000000
_cell_angle_beta 90.000000
_cell_angle_gamma 90.000000
_cell_volume 3407.452055
_symmetry_space_group_name_H-M "P C C M"
_symmetry_group_IT_number 49
_symmetry_cell_setting 'orthorhombic'
loop_
_space_group_symop_operation_xyz
x,y,z
-x,-y,z
x,-y,1/2-z
-x,y,1/2-z
-x,-y,-z
x,y,-z
-x,y,1/2+z
x,-y,1/2+z
loop_
_atom_site_type_symbol
_atom_site_label
_atom_site_fract_x
_atom_site_fract_y
_atom_site_fract_z
Si Si1 0.138124 0.458874 0.859859
Si Si2 0.633528 0.558504 0.429055
Si Si3 0.979179 0.315070 0.575203
Si Si4 0.760020 0.180863 0.427403
Si Si5 0.564914 0.620090 0.181596
Si Si6 0.751220 0.791733 0.579772
Si Si7 0.957352 0.923961 0.574732
Si Si8 0.468353 0.213971 0.824185
O O1 0.215317 0.516171 0.909723
O O2 0.063202 0.387377 0.888850
O O3 0.286379 0.427272 0.826408
O O4 0.000000 0.500000 0.826126
O O5 0.500000 0.500000 0.434476
O O6 0.650086 0.593899 0.500000
O O7 0.562919 0.607970 0.373260
O O8 0.996327 0.333940 0.500000
O O9 0.843578 0.257570 0.579393
O O10 0.128766 0.271673 0.594272
O O11 0.687896 0.179475 0.500000
O O12 0.891318 0.122577 0.426937
O O13 0.650864 0.170084 0.366956
O O14 0.500000 0.597557 0.250000
O O15 0.595377 0.704950 0.183062
O O16 0.724815 0.791027 0.500000
O O17 0.611496 0.782773 0.627722
O O18 0.830758 0.867992 0.597620
O O19 0.911290 0.940319 0.500000
O O20 0.000000 0.000000 0.606860
O O21 0.500000 0.188952 0.750000
#
# Coordination Sequence:
#
# PCOD9394873 Si02
#       8
#     8   8   8   8   8   8   8   8
#     4  11  22  36  58  82 107 140 185 242 296 347
#     4   9  20  36  55  79 105 140 182 229 293 353
#     4   9  18  34  55  81 114 140 178 237 285 336
#     4   9  17  33  60  87 111 148 190 228 278 333
#     4  10  23  43  60  73 109 153 191 236 292 355
#     4   9  19  35  60  89 114 148 191 232 281 335
#     4   8  15  32  60  93 125 150 180 229 284 335
#     4  11  22  37  58  80 112 153 194 240 281 329
#
# _framework density 18.782364000000001
#
# number of rings (size 3 to 8) (size 9 to 14) (size 15 to 20)
#    0.000    2.500    1.250    2.250    1.750    4.750 
#    0.000    4.375    0.000    5.250    0.000    0.000 
#    0.000    0.000    0.000    0.000    0.000    0.000 
#
# Total GULP energy -356286.113753 kJ/mol
# GULP energy per Si atom -5566.970527 kJ/mol
# Density = 1.873961 g / cm^3
# Si number density = 18.782364 Si / 1000 Ang^3
#
#
#
# Elastic Constant Matrix: (Units=GPa)
#
#
# Indices 1 2 3 4 5 6 
#
# 1 86.0725 28.0477 50.3755 0.0000 0.0000 0.0000
# 2 28.0477 65.9349 9.1644 0.0000 0.0000 0.0000
# 3 50.3755 9.1644 92.5379 0.0000 0.0000 0.0000
# 4 0.0000 0.0000 0.0000 8.6633 0.0000 0.0000
# 5 0.0000 0.0000 0.0000 0.0000 3.4107 0.0000
# 6 0.0000 0.0000 0.0000 0.0000 0.0000 7.3435
#
#
#
# Elastic Compliance Matrix: (Units=1/GPa)
#
#
# Indices 1 2 3 4 5 6 
#
# 1 0.019813 -0.007026 -0.010090 0.000000 0.000000 0.000000
# 2 -0.007026 0.017869 0.002055 0.000000 0.000000 0.000000
# 3 -0.010090 0.002055 0.016096 0.000000 0.000000 0.000000
# 4 0.000000 0.000000 0.000000 0.115430 0.000000 0.000000
# 5 0.000000 0.000000 0.000000 0.000000 0.293191 0.000000
# 6 0.000000 0.000000 0.000000 0.000000 0.000000 0.136175
#
#
# Mechanical properties :
#
#
# Convention : Reuss Voigt Hill
#
# Bulk Modulus (GPa) = 42.27142 46.63562 44.45352
# Shear Modulus (GPa) = 7.85447 14.34735 11.10091
#
# Velocity S-wave (km/s) = 2.04717 2.76682 2.43374
# Velocity P-wave (km/s) = 5.30496 5.92372 5.62286
#
# Compressibility (1/GPa) = 0.02365664
#
# Stress axis : x y z
#
# Youngs Moduli (GPa) = 50.47257 55.96135 62.12905
#
# Poissons Ratio (x) = 0.39316 0.62687
# Poissons Ratio (y) = 0.35460 -0.12767
# Poissons Ratio (z) = 0.50926 -0.11500
#
# Static dielectric constant tensor:
#      x y z
#    x 1.695400 0.000000 0.000000 
#    y 0.000000 1.672680 0.000000 
#    z 0.000000 0.000000 1.667700 
# 
# From -- ./inp_files/19987.got.cif
#   From: 2010.05.17/outbox.cif.g08.bks.cpg/sg49_10_cif.got.tgz:19987.got - 2010.06.03 21:02:19.
