data_PCOD9394332
_publ_section_title
;
Structure prediction by ZEFSAII (Michael W. Deem and Ramdas Pophale) SiO2 
 PCOD9394332
Probable space group: P C C M
;
_chemical_formula_sum "Si O2"
_cell_formula_units_Z 64
_cell_length_a 29.692222
_cell_length_b 11.660851
_cell_length_c 8.564200
_cell_angle_alpha 90.000000
_cell_angle_beta 90.000000
_cell_angle_gamma 90.000000
_cell_volume 2965.239289
_symmetry_space_group_name_H-M "P C C M"
_symmetry_group_IT_number 49
_symmetry_cell_setting 'orthorhombic'
loop_
_space_group_symop_operation_xyz
x,y,z
-x,-y,z
x,-y,1/2-z
-x,y,1/2-z
-x,-y,-z
x,y,-z
-x,y,1/2+z
x,-y,1/2+z
loop_
_atom_site_type_symbol
_atom_site_label
_atom_site_fract_x
_atom_site_fract_y
_atom_site_fract_z
Si Si1 0.670560 0.143316 0.181318
Si Si2 0.195011 0.375631 0.812090
Si Si3 0.547169 0.349326 0.818580
Si Si4 0.092740 0.623892 0.188481
Si Si5 0.948906 0.124059 0.187855
Si Si6 0.644664 0.601325 0.323272
Si Si7 0.769189 0.879290 0.186504
Si Si8 0.427670 0.882841 0.316667
O O1 0.669186 0.280229 0.178621
O O2 0.717270 0.114023 0.259849
O O3 0.626116 0.115525 0.281260
O O4 0.666397 0.103491 0.000000
O O5 0.213283 0.500000 0.750000
O O6 0.143321 0.373148 0.755274
O O7 0.214337 0.249062 0.762387
O O8 0.197845 0.379591 0.000000
O O9 0.500000 0.386367 0.750000
O O10 0.595140 0.386462 0.744816
O O11 0.551180 0.214655 0.790030
O O12 0.546548 0.376534 0.000000
O O13 0.073043 0.500000 0.250000
O O14 0.071787 0.749842 0.231705
O O15 0.092914 0.617670 0.000000
O O16 0.000000 0.127031 0.250000
O O17 0.929626 0.000000 0.250000
O O18 0.947939 0.117716 0.000000
O O19 0.672150 0.500000 0.250000
O O20 0.636062 0.569832 0.500000
O O21 0.790422 0.000000 0.250000
O O22 0.772710 0.882897 0.000000
O O23 0.435600 0.864531 0.500000
O O24 0.445965 0.000000 0.250000
#
# Coordination Sequence:
#
# PCOD9394332 Si02
#       8
#     8   8   8   8   8   8   8   8
#     4  10  21  38  57  80 110 143 177 220 271 325
#     4  10  22  40  62  87 118 157 201 247 300 357
#     4  10  21  37  53  75 103 133 170 212 258 309
#     4  10  21  37  59  86 116 154 201 250 303 359
#     4  10  21  36  56  84 118 158 202 251 306 365
#     4   9  20  36  55  78 105 136 174 216 261 316
#     4  11  24  40  60  89 120 154 195 240 290 348
#     4  11  21  35  55  77 102 134 168 208 256 312
#
# _framework density 21.583418999999999
#
# number of rings (size 3 to 8) (size 9 to 14) (size 15 to 20)
#    0.000    1.875    0.000    5.625    0.000    8.750 
#    0.000    8.750    0.000    0.000    0.000    0.000 
#    0.000    0.000    0.000    0.000    0.000    0.000 
#
# Total GULP energy -356459.577388 kJ/mol
# GULP energy per Si atom -5569.680897 kJ/mol
# Density = 2.153429 g / cm^3
# Si number density = 21.583419 Si / 1000 Ang^3
#
#
#
# Elastic Constant Matrix: (Units=GPa)
#
#
# Indices 1 2 3 4 5 6 
#
# 1 55.2822 42.7741 6.8476 0.0000 0.0000 0.0000
# 2 42.7741 213.2108 42.8279 0.0000 0.0000 0.0000
# 3 6.8476 42.8279 47.1336 0.0000 0.0000 0.0000
# 4 0.0000 0.0000 0.0000 36.1393 0.0000 0.0000
# 5 0.0000 0.0000 0.0000 0.0000 10.5502 0.0000
# 6 0.0000 0.0000 0.0000 0.0000 0.0000 -11.2061
#
#
#
# Elastic Compliance Matrix: (Units=1/GPa)
#
#
# Indices 1 2 3 4 5 6 
#
# 1 0.021449 -0.004498 0.000971 0.000000 0.000000 0.000000
# 2 -0.004498 0.006681 -0.005417 0.000000 0.000000 0.000000
# 3 0.000971 -0.005417 0.025997 0.000000 0.000000 0.000000
# 4 0.000000 0.000000 0.000000 0.027671 0.000000 0.000000
# 5 0.000000 0.000000 0.000000 0.000000 0.094785 0.000000
# 6 0.000000 0.000000 0.000000 0.000000 0.000000 -0.089237
#
#
# Mechanical properties :
#
#
# Convention : Reuss Voigt Hill
#
# Bulk Modulus (GPa) = 27.59447 55.61398 41.60423
# Shear Modulus (GPa) = 42.62074 21.97514 32.29794
#
# Velocity S-wave (km/s) = 4.44858 3.19431 3.87256
# Velocity P-wave (km/s) = 6.26093 6.27915 6.27005
#
# Compressibility (1/GPa) = 0.03623915
#
# Stress axis : x y z
#
# Youngs Moduli (GPa) = 46.62199 149.68455 38.46554
#
# Poissons Ratio (x) = 0.67331 -0.03735
# Poissons Ratio (y) = 0.20971 0.20837
# Poissons Ratio (z) = -0.04527 0.81083
#
# Static dielectric constant tensor:
#      x y z
#    x 1.796580 0.000000 0.000000 
#    y 0.000000 1.832770 0.000000 
#    z 0.000000 0.000000 1.779310 
# 
# From -- ./inp_files/7012.got.cif
#   From: 2010.05.17/outbox.cif.g08.bks.cpg/sg49_4_cif.got.tgz:7012.got - 2010.06.03 21:02:19.
