data_PCOD9394231
_publ_section_title
;
Structure prediction by ZEFSAII (Michael W. Deem and Ramdas Pophale) SiO2 
 PCOD9394231
Probable space group: P C C M
;
_chemical_formula_sum "Si O2"
_cell_formula_units_Z 48
_cell_length_a 14.223535
_cell_length_b 10.225517
_cell_length_c 15.073282
_cell_angle_alpha 90.000000
_cell_angle_beta 90.000000
_cell_angle_gamma 90.000000
_cell_volume 2192.303338
_symmetry_space_group_name_H-M "P C C M"
_symmetry_group_IT_number 49
_symmetry_cell_setting 'orthorhombic'
loop_
_space_group_symop_operation_xyz
x,y,z
-x,-y,z
x,-y,1/2-z
-x,y,1/2-z
-x,-y,-z
x,y,-z
-x,y,1/2+z
x,-y,1/2+z
loop_
_atom_site_type_symbol
_atom_site_label
_atom_site_fract_x
_atom_site_fract_y
_atom_site_fract_z
Si Si1 0.592702 0.723562 0.634635
Si Si2 0.276163 0.508279 0.357262
Si Si3 0.072589 0.395179 0.396026
Si Si4 0.711140 0.019284 0.101719
Si Si5 0.082846 0.901410 0.108838
Si Si6 0.617649 0.241500 0.655229
O O1 0.642257 0.588632 0.608736
O O2 0.653368 0.846224 0.602678
O O3 0.483832 0.739233 0.610233
O O4 0.600842 0.726929 0.741518
O O5 0.271934 0.500000 0.250000
O O6 0.176634 0.455261 0.389995
O O7 0.305607 0.655733 0.380185
O O8 0.048118 0.380391 0.500000
O O9 0.069588 0.247794 0.358931
O O10 0.000000 0.500000 0.356824
O O11 0.815122 0.047060 0.137925
O O12 0.654718 0.905358 0.149834
O O13 0.720898 0.975010 0.000000
O O14 0.085432 0.898078 0.000000
O O15 0.000000 0.000000 0.134687
#
# Coordination Sequence:
#
# PCOD9394231 Si02
#       6
#     8   8   8   8   8   8
#     4  10  20  40  59  79 114 154 194 228 277 339
#     4  10  21  38  60  85 114 148 189 239 282 329
#     4  10  21  37  60  85 112 148 188 229 282 344
#     4  11  22  36  58  86 116 147 187 237 285 332
#     4   9  19  36  57  81 110 146 184 226 276 336
#     4  10  22  36  59  85 111 153 193 230 276 340
#
# _framework density 21.894780000000001
#
# number of rings (size 3 to 8) (size 9 to 14) (size 15 to 20)
#    0.000    2.000    1.667    1.500    2.333    5.667 
#    0.000    0.000    0.000    5.000    0.000    0.000 
#    0.000    0.000    0.000    0.000    0.000    0.000 
#
# Total GULP energy -268237.521331 kJ/mol
# GULP energy per Si atom -5588.281694 kJ/mol
# Density = 2.184495 g / cm^3
# Si number density = 21.894780 Si / 1000 Ang^3
#
#
#
# Elastic Constant Matrix: (Units=GPa)
#
#
# Indices 1 2 3 4 5 6 
#
# 1 125.2492 38.9871 -5.2847 0.0000 0.0000 0.0000
# 2 38.9871 100.6662 -3.7357 0.0000 0.0000 0.0000
# 3 -5.2847 -3.7357 36.6028 0.0000 0.0000 0.0000
# 4 0.0000 0.0000 0.0000 3.1200 0.0000 0.0000
# 5 0.0000 0.0000 0.0000 0.0000 6.5919 0.0000
# 6 0.0000 0.0000 0.0000 0.0000 0.0000 37.4640
#
#
#
# Elastic Compliance Matrix: (Units=1/GPa)
#
#
# Indices 1 2 3 4 5 6 
#
# 1 0.009112 -0.003493 0.000959 0.000000 0.000000 0.000000
# 2 -0.003493 0.011311 0.000650 0.000000 0.000000 0.000000
# 3 0.000959 0.000650 0.027525 0.000000 0.000000 0.000000
# 4 0.000000 0.000000 0.000000 0.320510 0.000000 0.000000
# 5 0.000000 0.000000 0.000000 0.000000 0.151701 0.000000
# 6 0.000000 0.000000 0.000000 0.000000 0.000000 0.026692
#
#
# Mechanical properties :
#
#
# Convention : Reuss Voigt Hill
#
# Bulk Modulus (GPa) = 22.63502 35.82797 29.23149
# Shear Modulus (GPa) = 8.84414 24.93863 16.89138
#
# Velocity S-wave (km/s) = 2.01200 3.37860 2.78057
# Velocity P-wave (km/s) = 3.96964 5.62309 4.86709
#
# Compressibility (1/GPa) = 0.04417933
#
# Stress axis : x y z
#
# Youngs Moduli (GPa) = 109.74592 88.41028 36.33043
#
# Poissons Ratio (x) = 0.30885 -0.03484
# Poissons Ratio (y) = 0.38339 -0.02362
# Poissons Ratio (z) = -0.10525 -0.05747
#
# Static dielectric constant tensor:
#      x y z
#    x 1.762950 0.000000 0.000000 
#    y 0.000000 1.757070 0.000000 
#    z 0.000000 0.000000 1.871670 
# 
# From -- ./inp_files/16322.got.cif
#   From: 2010.05.17/outbox.cif.g08.bks.cpg/sg49_9_cif.got.tgz:16322.got - 2010.06.03 21:02:19.
