data_PCOD9394300
_publ_section_title
;
Structure prediction by ZEFSAII (Michael W. Deem and Ramdas Pophale) SiO2 
 PCOD9394300
Probable space group: P C C M
;
_chemical_formula_sum "Si O2"
_cell_formula_units_Z 64
_cell_length_a 23.805993
_cell_length_b 8.889446
_cell_length_c 14.914825
_cell_angle_alpha 90.000000
_cell_angle_beta 90.000000
_cell_angle_gamma 90.000000
_cell_volume 3156.306427
_symmetry_space_group_name_H-M "P C C M"
_symmetry_group_IT_number 49
_symmetry_cell_setting 'orthorhombic'
loop_
_space_group_symop_operation_xyz
x,y,z
-x,-y,z
x,-y,1/2-z
-x,y,1/2-z
-x,-y,-z
x,y,-z
-x,y,1/2+z
x,-y,1/2+z
loop_
_atom_site_type_symbol
_atom_site_label
_atom_site_fract_x
_atom_site_fract_y
_atom_site_fract_z
Si Si1 0.108891 0.662761 0.720389
Si Si2 0.942121 0.938038 0.148149
Si Si3 0.658678 0.593260 0.104429
Si Si4 0.221538 0.298621 0.896689
Si Si5 0.742370 0.035215 0.144289
Si Si6 0.565362 0.318050 0.739248
Si Si7 0.635958 0.234433 0.900174
Si Si8 0.142935 0.826597 0.901412
O O1 0.089428 0.500000 0.750000
O O2 0.066047 0.760813 0.660546
O O3 0.167961 0.666186 0.665629
O O4 0.118496 0.740685 0.816602
O O5 0.940796 0.000000 0.250000
O O6 0.888810 0.012402 0.100781
O O7 0.000000 0.000000 0.108365
O O8 0.720947 0.627932 0.140360
O O9 0.608938 0.684221 0.154961
O O10 0.652953 0.411776 0.107631
O O11 0.657571 0.637440 0.000000
O O12 0.238180 0.122577 0.897626
O O13 0.211348 0.347798 0.000000
O O14 0.685914 0.115375 0.111805
O O15 0.792085 0.149249 0.119698
O O16 0.739591 0.000000 0.250000
O O17 0.564715 0.500000 0.750000
O O18 0.500000 0.275580 0.750000
O O19 0.594068 0.222980 0.817793
O O20 0.611616 0.216079 0.000000
O O21 0.135012 0.758738 0.000000
#
# Coordination Sequence:
#
# PCOD9394300 Si02
#       8
#     8   8   8   8   8   8   8   8
#     4  11  24  39  61  95 128 163 203 258 316 366
#     4   9  19  41  65  88 120 163 212 254 298 360
#     4   9  20  36  54  82 119 157 197 247 309 369
#     4  11  22  37  57  85 123 163 200 245 306 371
#     4  12  21  36  57  83 120 158 200 249 294 360
#     4   9  18  33  55  82 113 153 201 254 308 368
#     4  10  21  35  55  85 116 151 196 252 307 363
#     4  11  22  39  60  89 124 163 208 248 298 364
#
# _framework density 20.276865000000001
#
# number of rings (size 3 to 8) (size 9 to 14) (size 15 to 20)
#    0.000    1.750    2.500    2.250    1.750    1.750 
#    0.000    7.500    0.000    4.125    0.000    5.250 
#    0.000    0.000    0.000    0.000    0.000    0.000 
#
# Total GULP energy -356579.773573 kJ/mol
# GULP energy per Si atom -5571.558962 kJ/mol
# Density = 2.023071 g / cm^3
# Si number density = 20.276865 Si / 1000 Ang^3
#
#
#
# Elastic Constant Matrix: (Units=GPa)
#
#
# Indices 1 2 3 4 5 6 
#
# 1 100.2634 20.8115 30.5551 0.0000 0.0000 0.0000
# 2 20.8115 37.4806 0.7435 0.0000 0.0000 0.0000
# 3 30.5551 0.7435 101.8008 0.0000 0.0000 0.0000
# 4 0.0000 0.0000 0.0000 158.3443 0.0000 0.0000
# 5 0.0000 0.0000 0.0000 0.0000 -35.6026 0.0000
# 6 0.0000 0.0000 0.0000 0.0000 0.0000 13.9894
#
#
#
# Elastic Compliance Matrix: (Units=1/GPa)
#
#
# Indices 1 2 3 4 5 6 
#
# 1 0.012534 -0.006886 -0.003712 0.000000 0.000000 0.000000
# 2 -0.006886 0.030467 0.001844 0.000000 0.000000 0.000000
# 3 -0.003712 0.001844 0.010924 0.000000 0.000000 0.000000
# 4 0.000000 0.000000 0.000000 0.006315 0.000000 0.000000
# 5 0.000000 0.000000 0.000000 0.000000 -0.028088 0.000000
# 6 0.000000 0.000000 0.000000 0.000000 0.000000 0.071483
#
#
# Mechanical properties :
#
#
# Convention : Reuss Voigt Hill
#
# Bulk Modulus (GPa) = 27.45881 38.19613 32.82747
# Shear Modulus (GPa) = 37.51440 39.84187 38.67813
#
# Velocity S-wave (km/s) = 4.30595 4.43752 4.37223
# Velocity P-wave (km/s) = 6.18813 6.71816 6.45858
#
# Compressibility (1/GPa) = 0.03641818
#
# Stress axis : x y z
#
# Youngs Moduli (GPa) = 79.78141 32.82188 91.54389
#
# Poissons Ratio (x) = 0.22602 0.33979
# Poissons Ratio (y) = 0.54939 -0.16884
# Poissons Ratio (z) = 0.29613 -0.06053
#
# Static dielectric constant tensor:
#      x y z
#    x 1.758910 0.000000 0.000000 
#    y 0.000000 1.769000 0.000000 
#    z 0.000000 0.000000 1.752260 
# 
# From -- ./inp_files/14553.got.cif
#   From: 2010.05.17/outbox.cif.g08.bks.cpg/sg49_8_cif.got.tgz:14553.got - 2010.06.03 21:02:19.
