data_PCOD9394751
_publ_section_title
;
Structure prediction by ZEFSAII (Michael W. Deem and Ramdas Pophale) SiO2 
 PCOD9394751
Probable space group: P C C M
;
_chemical_formula_sum "Si O2"
_cell_formula_units_Z 64
_cell_length_a 10.502087
_cell_length_b 15.680074
_cell_length_c 18.081280
_cell_angle_alpha 90.000000
_cell_angle_beta 90.000000
_cell_angle_gamma 90.000000
_cell_volume 2977.507686
_symmetry_space_group_name_H-M "P C C M"
_symmetry_group_IT_number 49
_symmetry_cell_setting 'orthorhombic'
loop_
_space_group_symop_operation_xyz
x,y,z
-x,-y,z
x,-y,1/2-z
-x,y,1/2-z
-x,-y,-z
x,y,-z
-x,y,1/2+z
x,-y,1/2+z
loop_
_atom_site_type_symbol
_atom_site_label
_atom_site_fract_x
_atom_site_fract_y
_atom_site_fract_z
Si Si1 0.130416 0.969330 0.631966
Si Si2 0.798652 0.544433 0.584610
Si Si3 0.121942 0.327467 0.704051
Si Si4 0.554342 0.206802 0.177480
Si Si5 0.179337 0.863008 0.772862
Si Si6 0.531376 0.364437 0.915611
Si Si7 0.308521 0.576352 0.306438
Si Si8 0.596231 0.079153 0.581147
O O1 0.135185 0.888595 0.689598
O O2 0.259533 0.953683 0.587196
O O3 0.146694 0.053024 0.681971
O O4 0.000000 0.000000 0.591881
O O5 0.839673 0.531803 0.500000
O O6 0.867657 0.621451 0.627493
O O7 0.648687 0.570258 0.583481
O O8 0.798455 0.462775 0.638116
O O9 0.119470 0.225422 0.699132
O O10 0.244081 0.352949 0.754261
O O11 0.000000 0.356589 0.750000
O O12 0.500000 0.252190 0.250000
O O13 0.671911 0.152061 0.207936
O O14 0.587513 0.275430 0.115062
O O15 0.446707 0.146567 0.142175
O O16 0.421850 0.391487 0.858518
O O17 0.483471 0.357163 0.000000
O O18 0.345471 0.500000 0.250000
O O19 0.577468 0.118090 0.500000
O O20 0.500000 0.000000 0.588233
#
# Coordination Sequence:
#
# PCOD9394751 Si02
#       8
#     8   8   8   8   8   8   8   8
#     4  11  23  40  66  96 126 167 216 268 324 387
#     4  10  22  40  63  92 126 165 212 265 327 400
#     4  11  23  42  64  91 125 167 221 274 323 380
#     4  12  22  37  66  95 124 164 216 267 322 385
#     4  11  21  40  65  93 124 162 214 270 313 376
#     4  11  23  40  62  94 133 168 204 264 337 396
#     4  10  23  38  62  94 126 169 216 265 324 395
#     4  11  24  41  61  91 131 169 208 262 327 395
#
# _framework density 21.494485999999998
#
# number of rings (size 3 to 8) (size 9 to 14) (size 15 to 20)
#    0.000    1.125    3.750    3.375    1.750    5.250 
#    0.000    2.500    0.000    2.250    0.000    0.000 
#    0.000    0.000    0.000    0.000    0.000    0.000 
#
# Total GULP energy -357190.129092 kJ/mol
# GULP energy per Si atom -5581.095767 kJ/mol
# Density = 2.144556 g / cm^3
# Si number density = 21.494486 Si / 1000 Ang^3
#
#
#
# Elastic Constant Matrix: (Units=GPa)
#
#
# Indices 1 2 3 4 5 6 
#
# 1 94.1578 11.0101 21.4387 0.0000 0.0000 0.0000
# 2 11.0101 72.6741 29.7852 0.0000 0.0000 0.0000
# 3 21.4387 29.7852 137.4523 0.0000 0.0000 0.0000
# 4 0.0000 0.0000 0.0000 52.6494 0.0000 0.0000
# 5 0.0000 0.0000 0.0000 0.0000 12.1481 0.0000
# 6 0.0000 0.0000 0.0000 0.0000 0.0000 19.8367
#
#
#
# Elastic Compliance Matrix: (Units=1/GPa)
#
#
# Indices 1 2 3 4 5 6 
#
# 1 0.011086 -0.001065 -0.001498 0.000000 0.000000 0.000000
# 2 -0.001065 0.015204 -0.003128 0.000000 0.000000 0.000000
# 3 -0.001498 -0.003128 0.008187 0.000000 0.000000 0.000000
# 4 0.000000 0.000000 0.000000 0.018994 0.000000 0.000000
# 5 0.000000 0.000000 0.000000 0.000000 0.082317 0.000000
# 6 0.000000 0.000000 0.000000 0.000000 0.000000 0.050412
#
#
# Mechanical properties :
#
#
# Convention : Reuss Voigt Hill
#
# Bulk Modulus (GPa) = 43.30420 47.63912 45.47166
# Shear Modulus (GPa) = 24.35690 33.06354 28.71022
#
# Velocity S-wave (km/s) = 3.36991 3.92629 3.65869
# Velocity P-wave (km/s) = 5.94408 6.53956 6.24892
#
# Compressibility (1/GPa) = 0.02309245
#
# Stress axis : x y z
#
# Youngs Moduli (GPa) = 90.20231 65.77377 122.14730
#
# Poissons Ratio (x) = 0.07008 0.18301
# Poissons Ratio (y) = 0.09611 0.38212
# Poissons Ratio (z) = 0.13515 0.20576
#
# Static dielectric constant tensor:
#      x y z
#    x 1.870810 0.000000 0.000000 
#    y 0.000000 1.766160 0.000000 
#    z 0.000000 0.000000 1.771560 
# 
# From -- ./inp_files/17319.got.cif
#   From: 2010.05.17/outbox.cif.g08.bks.cpg/sg49_9_cif.got.tgz:17319.got - 2010.06.03 21:02:19.
