data_PCOD9394757
_publ_section_title
;
Structure prediction by ZEFSAII (Michael W. Deem and Ramdas Pophale) SiO2 
 PCOD9394757
Probable space group: P C C M
;
_chemical_formula_sum "Si O2"
_cell_formula_units_Z 60
_cell_length_a 11.893169
_cell_length_b 12.062764
_cell_length_c 18.866395
_cell_angle_alpha 90.000000
_cell_angle_beta 90.000000
_cell_angle_gamma 90.000000
_cell_volume 2706.657753
_symmetry_space_group_name_H-M "P C C M"
_symmetry_group_IT_number 49
_symmetry_cell_setting 'orthorhombic'
loop_
_space_group_symop_operation_xyz
x,y,z
-x,-y,z
x,-y,1/2-z
-x,y,1/2-z
-x,-y,-z
x,y,-z
-x,y,1/2+z
x,-y,1/2+z
loop_
_atom_site_type_symbol
_atom_site_label
_atom_site_fract_x
_atom_site_fract_y
_atom_site_fract_z
Si Si1 0.667646 0.036162 0.915187
Si Si2 0.119974 0.945688 0.175058
Si Si3 0.768863 0.573784 0.359594
Si Si4 0.807335 0.347764 0.299930
Si Si5 0.572520 0.276508 0.085003
Si Si6 0.663529 0.798992 0.878707
Si Si7 0.140439 0.780691 0.500000
Si Si8 0.029881 0.718939 0.872371
O O1 0.795316 0.029128 0.888178
O O2 0.623716 0.156615 0.893446
O O3 0.617009 0.924535 0.882148
O O4 0.657418 0.027993 0.000000
O O5 0.096045 0.815031 0.170269
O O6 0.157677 0.000000 0.250000
O O7 0.000000 0.000000 0.160945
O O8 0.767307 0.441096 0.356977
O O9 0.788325 0.608469 0.278250
O O10 0.655261 0.628520 0.387592
O O11 0.878095 0.628248 0.397077
O O12 0.732000 0.238493 0.309912
O O13 0.936421 0.330749 0.320151
O O14 0.444542 0.278624 0.110940
O O15 0.571239 0.279238 0.000000
O O16 0.758742 0.788873 0.939096
O O17 0.042578 0.767352 0.562532
#
# Coordination Sequence:
#
# PCOD9394757 Si02
#       8
#     8   8   8   8   8   8   4   8
#     4  11  23  40  66  97 133 176 221 269 332 412
#     4  11  25  36  58  98 141 176 215 274 333 396
#     4  11  24  45  69  99 130 179 228 284 336 397
#     4  10  25  45  69  96 132 178 233 276 339 402
#     4  11  24  43  69  99 135 175 224 281 333 408
#     4  11  22  44  67  95 135 178 224 274 338 395
#     4  10  22  40  65  99 136 176 218 275 332 415
#     4  11  23  41  69  95 139 178 224 274 341 407
#
# _framework density 22.167560999999999
#
# number of rings (size 3 to 8) (size 9 to 14) (size 15 to 20)
#    0.000    1.200    2.667    2.800    7.467    3.467 
#    4.800    4.667    0.000    2.400    0.000    0.000 
#    0.000    0.000    0.000    0.000    0.000    0.000 
#
# Total GULP energy -334189.581774 kJ/mol
# GULP energy per Si atom -5569.826363 kJ/mol
# Density = 2.211711 g / cm^3
# Si number density = 22.167561 Si / 1000 Ang^3
#
#
#
# Elastic Constant Matrix: (Units=GPa)
#
#
# Indices 1 2 3 4 5 6 
#
# 1 98.3734 29.0922 11.8114 0.0000 0.0000 0.0000
# 2 29.0922 72.9701 4.0309 0.0000 0.0000 0.0000
# 3 11.8114 4.0309 29.6891 0.0000 0.0000 0.0000
# 4 0.0000 0.0000 0.0000 17.5502 0.0000 0.0000
# 5 0.0000 0.0000 0.0000 0.0000 9.6018 0.0000
# 6 0.0000 0.0000 0.0000 0.0000 0.0000 14.0844
#
#
#
# Elastic Compliance Matrix: (Units=1/GPa)
#
#
# Indices 1 2 3 4 5 6 
#
# 1 0.012013 -0.004560 -0.004160 0.000000 0.000000 0.000000
# 2 -0.004560 0.015538 -0.000296 0.000000 0.000000 0.000000
# 3 -0.004160 -0.000296 0.035378 0.000000 0.000000 0.000000
# 4 0.000000 0.000000 0.000000 0.056980 0.000000 0.000000
# 5 0.000000 0.000000 0.000000 0.000000 0.104148 0.000000
# 6 0.000000 0.000000 0.000000 0.000000 0.000000 0.071001
#
#
# Mechanical properties :
#
#
# Convention : Reuss Voigt Hill
#
# Bulk Modulus (GPa) = 22.27264 32.32240 27.29752
# Shear Modulus (GPa) = 15.24138 18.65380 16.94759
#
# Velocity S-wave (km/s) = 2.62497 2.90399 2.76800
# Velocity P-wave (km/s) = 4.38822 5.08496 4.74939
#
# Compressibility (1/GPa) = 0.04489813
#
# Stress axis : x y z
#
# Youngs Moduli (GPa) = 83.24091 64.35637 28.26650
#
# Poissons Ratio (x) = 0.29345 0.11760
# Poissons Ratio (y) = 0.37956 0.00836
# Poissons Ratio (z) = 0.34630 0.01903
#
# Static dielectric constant tensor:
#      x y z
#    x 1.806760 0.000000 0.000000 
#    y 0.000000 1.962750 0.000000 
#    z 0.000000 0.000000 1.793630 
# 
# From -- ./inp_files/20595.got.cif
#   From: 2010.05.17/outbox.cif.g08.bks.cpg/sg49_11_cif.got.tgz:20595.got - 2010.06.03 21:02:19.
