data_PCOD9394795
_publ_section_title
;
Structure prediction by ZEFSAII (Michael W. Deem and Ramdas Pophale) SiO2 
 PCOD9394795
Probable space group: P C C M
;
_chemical_formula_sum "Si O2"
_cell_formula_units_Z 54
_cell_length_a 31.228847
_cell_length_b 5.223259
_cell_length_c 14.784755
_cell_angle_alpha 90.000000
_cell_angle_beta 90.000000
_cell_angle_gamma 90.000000
_cell_volume 2411.635362
_symmetry_space_group_name_H-M "P C C M"
_symmetry_group_IT_number 49
_symmetry_cell_setting 'orthorhombic'
loop_
_space_group_symop_operation_xyz
x,y,z
-x,-y,z
x,-y,1/2-z
-x,y,1/2-z
-x,-y,-z
x,y,-z
-x,y,1/2+z
x,-y,1/2+z
loop_
_atom_site_type_symbol
_atom_site_label
_atom_site_fract_x
_atom_site_fract_y
_atom_site_fract_z
Si Si1 0.975121 0.249211 0.108598
Si Si2 0.286361 0.939865 0.856660
Si Si3 0.118571 0.248327 0.312200
Si Si4 0.207233 0.425335 0.355388
Si Si5 0.383420 0.111111 0.351803
Si Si6 0.756024 0.743348 0.000000
Si Si7 0.564609 0.374431 0.398259
Si Si8 0.500000 0.500000 0.250000
O O1 0.925546 0.239804 0.134101
O O2 0.000000 0.500000 0.141904
O O3 0.977768 0.250723 0.000000
O O4 0.000000 0.000000 0.142259
O O5 0.248018 0.747301 0.883882
O O6 0.281903 0.000000 0.750000
O O7 0.333807 0.837382 0.874417
O O8 0.278596 0.182025 0.919974
O O9 0.116641 0.500000 0.250000
O O10 0.162710 0.277551 0.367061
O O11 0.122102 0.000000 0.250000
O O12 0.211847 0.500000 0.250000
O O13 0.209392 0.666691 0.420297
O O14 0.405324 0.873927 0.401955
O O15 0.383382 0.000000 0.250000
O O16 0.409537 0.371005 0.367930
O O17 0.547696 0.415979 0.500000
O O18 0.529150 0.338546 0.319782
#
# Coordination Sequence:
#
# PCOD9394795 Si02
#       8
#     8   8   8   8   8   4   8   2
#     4  10  22  42  65  97 134 175 227 292 358 429
#     4  11  25  44  71 102 148 188 243 301 352 435
#     4  11  25  43  69  98 136 182 232 297 356 426
#     4  11  25  46  68 103 146 187 245 302 358 436
#     4  11  25  47  74 108 150 190 236 299 364 419
#     4  12  26  44  74 104 134 210 235 292 378 430
#     4  12  27  47  76 109 141 191 238 298 356 432
#     4  12  26  54  76 104 152 182 246 294 364 432
#
# _framework density 22.391444
#
# number of rings (size 3 to 8) (size 9 to 14) (size 15 to 20)
#    0.000    0.889    2.963    2.444    7.259    2.963 
#    0.000    1.481    0.000    0.000    0.000    0.000 
#    0.000    0.000    0.000    0.000    0.000    0.000 
#
# Total GULP energy -300946.633876 kJ/mol
# GULP energy per Si atom -5573.085813 kJ/mol
# Density = 2.234048 g / cm^3
# Si number density = 22.391444 Si / 1000 Ang^3
#
#
#
# Elastic Constant Matrix: (Units=GPa)
#
#
# Indices 1 2 3 4 5 6 
#
# 1 175.6258 56.0028 44.9000 0.0000 0.0000 0.0000
# 2 56.0028 114.7821 11.6238 0.0000 0.0000 0.0000
# 3 44.9000 11.6238 139.5836 0.0000 0.0000 0.0000
# 4 0.0000 0.0000 0.0000 -32.6371 0.0000 0.0000
# 5 0.0000 0.0000 0.0000 0.0000 -57.1572 0.0000
# 6 0.0000 0.0000 0.0000 0.0000 0.0000 26.4391
#
#
#
# Elastic Compliance Matrix: (Units=1/GPa)
#
#
# Indices 1 2 3 4 5 6 
#
# 1 0.007290 -0.003347 -0.002066 0.000000 0.000000 0.000000
# 2 -0.003347 0.010323 0.000217 0.000000 0.000000 0.000000
# 3 -0.002066 0.000217 0.007811 0.000000 0.000000 0.000000
# 4 0.000000 0.000000 0.000000 -0.030640 0.000000 0.000000
# 5 0.000000 0.000000 0.000000 0.000000 -0.017496 0.000000
# 6 0.000000 0.000000 0.000000 0.000000 0.000000 0.037823
#
#
# Mechanical properties :
#
#
# Convention : Reuss Voigt Hill
#
# Bulk Modulus (GPa) = 66.52987 72.78274 69.65631
# Shear Modulus (GPa) = 163.86029 8.49328 86.17679
#
# Velocity S-wave (km/s) = 8.56380 1.94970 6.21048
# Velocity P-wave (km/s) = 11.29432 6.13545 9.08860
#
# Compressibility (1/GPa) = 0.01503084
#
# Stress axis : x y z
#
# Youngs Moduli (GPa) = 137.18313 96.86751 128.02972
#
# Poissons Ratio (x) = 0.32425 0.26452
# Poissons Ratio (y) = 0.45920 -0.02779
# Poissons Ratio (z) = 0.28343 -0.02103
#
# Static dielectric constant tensor:
#      x y z
#    x 1.832250 0.000000 0.000000 
#    y 0.000000 1.875620 0.000000 
#    z 0.000000 0.000000 1.828430 
# 
# From -- ./inp_files/14643.got.cif
#   From: 2010.05.17/outbox.cif.g08.bks.cpg/sg49_8_cif.got.tgz:14643.got - 2010.06.03 21:02:19.
