data_PCOD9394167
_publ_section_title
;
Structure prediction by ZEFSAII (Michael W. Deem and Ramdas Pophale) SiO2 
 PCOD9394167
Probable space group: P C C M
;
_chemical_formula_sum "Si O2"
_cell_formula_units_Z 56
_cell_length_a 14.281815
_cell_length_b 20.401916
_cell_length_c 9.742330
_cell_angle_alpha 90.000000
_cell_angle_beta 90.000000
_cell_angle_gamma 90.000000
_cell_volume 2838.684945
_symmetry_space_group_name_H-M "P C C M"
_symmetry_group_IT_number 49
_symmetry_cell_setting 'orthorhombic'
loop_
_space_group_symop_operation_xyz
x,y,z
-x,-y,z
x,-y,1/2-z
-x,y,1/2-z
-x,-y,-z
x,y,-z
-x,y,1/2+z
x,-y,1/2+z
loop_
_atom_site_type_symbol
_atom_site_label
_atom_site_fract_x
_atom_site_fract_y
_atom_site_fract_z
Si Si1 0.204403 0.939149 0.161115
Si Si2 0.203812 0.190119 0.158100
Si Si3 0.390273 0.765692 0.217057
Si Si4 0.235757 0.560692 0.336122
Si Si5 0.595605 0.618324 0.339621
Si Si6 0.417607 0.088159 0.355920
Si Si7 0.910029 0.679577 0.159310
O O1 0.186823 0.870736 0.240398
O O2 0.317813 0.945280 0.162367
O O3 0.165977 0.000000 0.250000
O O4 0.176080 0.938493 0.000000
O O5 0.310305 0.218524 0.170928
O O6 0.137107 0.250777 0.194433
O O7 0.189200 0.170103 0.000000
O O8 0.500000 0.759337 0.250000
O O9 0.369521 0.694365 0.156078
O O10 0.390951 0.834710 0.139573
O O11 0.194128 0.500000 0.250000
O O12 0.251884 0.547445 0.500000
O O13 0.329116 0.578800 0.250418
O O14 0.166965 0.622707 0.327440
O O15 0.500000 0.615039 0.250000
O O16 0.584371 0.597292 0.500000
O O17 0.500000 0.078047 0.250000
O O18 0.459189 0.068949 0.500000
O O19 0.000000 0.666366 0.250000
O O20 0.937741 0.682644 0.000000
#
# Coordination Sequence:
#
# PCOD9394167 Si02
#       7
#     8   8   8   8   8   8   8
#     4  10  21  35  52  79 113 153 199 245 296 359
#     4  10  20  38  62  87 120 160 199 249 303 357
#     4   9  18  30  51  83 117 153 199 244 297 350
#     4  11  24  44  65  92 127 164 207 252 304 362
#     4  11  22  36  58  88 124 168 211 255 303 356
#     4   9  18  30  44  68 103 145 194 243 290 342
#     4  10  23  43  68  96 125 156 196 247 306 370
#
# _framework density 19.727443999999998
#
# number of rings (size 3 to 8) (size 9 to 14) (size 15 to 20)
#    0.000    2.000    1.429    1.714    0.000   11.143 
#    0.000    4.286    0.000    0.429    0.000    3.000 
#    0.000    0.000    0.000    0.000    0.000    0.000 
#
# Total GULP energy -311866.783144 kJ/mol
# GULP energy per Si atom -5569.049699 kJ/mol
# Density = 1.968254 g / cm^3
# Si number density = 19.727444 Si / 1000 Ang^3
#
#
#
# Elastic Constant Matrix: (Units=GPa)
#
#
# Indices 1 2 3 4 5 6 
#
# 1 45.6364 16.5712 40.3331 0.0000 0.0000 0.0000
# 2 16.5712 95.7214 74.9961 0.0000 0.0000 0.0000
# 3 40.3331 74.9961 157.1359 0.0000 0.0000 0.0000
# 4 0.0000 0.0000 0.0000 15.8443 0.0000 0.0000
# 5 0.0000 0.0000 0.0000 0.0000 27.9401 0.0000
# 6 0.0000 0.0000 0.0000 0.0000 0.0000 38.0141
#
#
#
# Elastic Compliance Matrix: (Units=1/GPa)
#
#
# Indices 1 2 3 4 5 6 
#
# 1 0.028438 0.001271 -0.007906 0.000000 0.000000 0.000000
# 2 0.001271 0.016743 -0.008317 0.000000 0.000000 0.000000
# 3 -0.007906 -0.008317 0.012363 0.000000 0.000000 0.000000
# 4 0.000000 0.000000 0.000000 0.063114 0.000000 0.000000
# 5 0.000000 0.000000 0.000000 0.000000 0.035791 0.000000
# 6 0.000000 0.000000 0.000000 0.000000 0.000000 0.026306
#
#
# Mechanical properties :
#
#
# Convention : Reuss Voigt Hill
#
# Bulk Modulus (GPa) = 36.17990 62.47718 49.32854
# Shear Modulus (GPa) = 22.53538 27.46594 25.00066
#
# Velocity S-wave (km/s) = 3.38351 3.73536 3.56378
# Velocity P-wave (km/s) = 5.80034 7.09527 6.48023
#
# Compressibility (1/GPa) = 0.02763966
#
# Stress axis : x y z
#
# Youngs Moduli (GPa) = 35.16415 59.72481 80.88762
#
# Poissons Ratio (x) = -0.07591 0.63950
# Poissons Ratio (y) = -0.04470 0.67277
# Poissons Ratio (z) = 0.27801 0.49675
#
# Static dielectric constant tensor:
#      x y z
#    x 2.864150 0.000000 0.000000 
#    y 0.000000 1.731570 0.000000 
#    z 0.000000 0.000000 1.737960 
# 
# From -- ./inp_files/4046.got.cif
#   From: 2010.05.17/outbox.cif.g08.bks.cpg/sg49_3_cif.got.tgz:4046.got - 2010.06.03 21:02:19.
