data_PCOD9394054
_publ_section_title
;
Structure prediction by ZEFSAII (Michael W. Deem and Ramdas Pophale) SiO2 
 PCOD9394054
Probable space group: P C C M
;
_chemical_formula_sum "Si O2"
_cell_formula_units_Z 64
_cell_length_a 19.579900
_cell_length_b 11.554331
_cell_length_c 14.364074
_cell_angle_alpha 90.000000
_cell_angle_beta 90.000000
_cell_angle_gamma 90.000000
_cell_volume 3249.622462
_symmetry_space_group_name_H-M "P C C M"
_symmetry_group_IT_number 49
_symmetry_cell_setting 'orthorhombic'
loop_
_space_group_symop_operation_xyz
x,y,z
-x,-y,z
x,-y,1/2-z
-x,y,1/2-z
-x,-y,-z
x,y,-z
-x,y,1/2+z
x,-y,1/2+z
loop_
_atom_site_type_symbol
_atom_site_label
_atom_site_fract_x
_atom_site_fract_y
_atom_site_fract_z
Si Si1 0.076677 0.800196 0.742900
Si Si2 0.887241 0.993381 0.608228
Si Si3 0.607381 0.036633 0.351053
Si Si4 0.784419 0.323302 0.270378
Si Si5 0.750419 0.883220 0.100897
Si Si6 0.277098 0.533725 0.112569
Si Si7 0.516850 0.818749 0.606959
Si Si8 0.566367 0.572104 0.387168
O O1 0.081871 0.891291 0.656615
O O2 0.134800 0.702911 0.734983
O O3 0.000000 0.754830 0.750000
O O4 0.092387 0.882387 0.831716
O O5 0.905959 0.984006 0.500000
O O6 0.805717 0.015791 0.615274
O O7 0.673959 0.073180 0.404060
O O8 0.551339 0.138249 0.342343
O O9 0.630915 0.000000 0.250000
O O10 0.567885 0.927025 0.392521
O O11 0.755155 0.206424 0.315141
O O12 0.753812 0.357763 0.169988
O O13 0.762071 0.424718 0.341814
O O14 0.768852 0.828502 0.000000
O O15 0.358143 0.527217 0.137135
O O16 0.270129 0.540190 0.000000
O O17 0.495547 0.796560 0.500000
O O18 0.553242 0.704055 0.643170
O O19 0.500000 0.500000 0.356918
O O20 0.566224 0.570963 0.500000
#
# Coordination Sequence:
#
# PCOD9394054 Si02
#       8
#     8   8   8   8   8   8   8   8
#     4  10  21  37  60  89 126 162 197 247 299 358
#     4   9  19  35  57  90 127 161 200 242 293 359
#     4  11  23  34  52  79 116 158 197 247 303 363
#     4  10  23  40  62  90 116 152 202 248 301 375
#     4  10  21  36  59  85 116 161 203 245 297 360
#     4  10  22  43  64  87 118 153 194 256 318 357
#     4  10  20  37  54  75 112 153 201 251 306 373
#     4   9  20  37  60  86 112 148 198 254 312 364
#
# _framework density 19.694597000000002
#
# number of rings (size 3 to 8) (size 9 to 14) (size 15 to 20)
#    0.000    2.125    0.000    3.375    7.000    2.000 
#    0.000    5.000    0.000    0.750    0.000    0.000 
#    0.000    0.000    0.000    0.000    0.000    0.000 
#
# Total GULP energy -357122.297413 kJ/mol
# GULP energy per Si atom -5580.035897 kJ/mol
# Density = 1.964977 g / cm^3
# Si number density = 19.694597 Si / 1000 Ang^3
#
#
#
# Elastic Constant Matrix: (Units=GPa)
#
#
# Indices 1 2 3 4 5 6 
#
# 1 175.1112 60.8202 36.7349 0.0000 0.0000 0.0000
# 2 60.8202 68.5227 31.7886 0.0000 0.0000 0.0000
# 3 36.7349 31.7886 132.0784 0.0000 0.0000 0.0000
# 4 0.0000 0.0000 0.0000 24.0921 0.0000 0.0000
# 5 0.0000 0.0000 0.0000 0.0000 6.2115 0.0000
# 6 0.0000 0.0000 0.0000 0.0000 0.0000 12.9507
#
#
#
# Elastic Compliance Matrix: (Units=1/GPa)
#
#
# Indices 1 2 3 4 5 6 
#
# 1 0.008298 -0.007086 -0.000603 0.000000 0.000000 0.000000
# 2 -0.007086 0.022479 -0.003439 0.000000 0.000000 0.000000
# 3 -0.000603 -0.003439 0.008567 0.000000 0.000000 0.000000
# 4 0.000000 0.000000 0.000000 0.041507 0.000000 0.000000
# 5 0.000000 0.000000 0.000000 0.000000 0.160991 0.000000
# 6 0.000000 0.000000 0.000000 0.000000 0.000000 0.077216
#
#
# Mechanical properties :
#
#
# Convention : Reuss Voigt Hill
#
# Bulk Modulus (GPa) = 58.52096 70.48886 64.50491
# Shear Modulus (GPa) = 14.40885 25.07543 19.74214
#
# Velocity S-wave (km/s) = 2.70777 3.57208 3.16953
# Velocity P-wave (km/s) = 6.28926 7.27198 6.79840
#
# Compressibility (1/GPa) = 0.01708789
#
# Stress axis : x y z
#
# Youngs Moduli (GPa) = 120.50914 44.48678 116.73201
#
# Poissons Ratio (x) = 0.31523 0.07034
# Poissons Ratio (y) = 0.85391 0.40148
# Poissons Ratio (z) = 0.07261 0.15301
#
# Static dielectric constant tensor:
#      x y z
#    x 1.691350 0.000000 0.000000 
#    y 0.000000 1.694880 0.000000 
#    z 0.000000 0.000000 1.734300 
# 
# From -- ./inp_files/14172.got.cif
#   From: 2010.05.17/outbox.cif.g08.bks.cpg/sg49_8_cif.got.tgz:14172.got - 2010.06.03 21:02:19.
