data_PCOD9394034
_publ_section_title
;
Structure prediction by ZEFSAII (Michael W. Deem and Ramdas Pophale) SiO2 
 PCOD9394034
Probable space group: P C C M
;
_chemical_formula_sum "Si O2"
_cell_formula_units_Z 36
_cell_length_a 11.384369
_cell_length_b 6.273751
_cell_length_c 26.575279
_cell_angle_alpha 90.000000
_cell_angle_beta 90.000000
_cell_angle_gamma 90.000000
_cell_volume 1898.078084
_symmetry_space_group_name_H-M "P C C M"
_symmetry_group_IT_number 49
_symmetry_cell_setting 'orthorhombic'
loop_
_space_group_symop_operation_xyz
x,y,z
-x,-y,z
x,-y,1/2-z
-x,y,1/2-z
-x,-y,-z
x,y,-z
-x,y,1/2+z
x,-y,1/2+z
loop_
_atom_site_type_symbol
_atom_site_label
_atom_site_fract_x
_atom_site_fract_y
_atom_site_fract_z
Si Si1 0.000000 0.500000 0.383498
Si Si2 0.809730 0.809845 0.369099
Si Si3 0.371840 0.073890 0.807734
Si Si4 0.631208 0.568779 0.117979
Si Si5 0.820427 0.189518 0.559660
O O1 0.921261 0.668861 0.352857
O O2 0.912007 0.360231 0.417565
O O3 0.710750 0.639785 0.383577
O O4 0.743744 0.961275 0.329940
O O5 0.845173 0.959957 0.415625
O O6 0.364660 0.318288 0.826750
O O7 0.500000 0.000000 0.828959
O O8 0.374453 0.000000 0.750000
O O9 0.500000 0.500000 0.105846
O O10 0.692330 0.735715 0.080046
O O11 0.825580 0.184476 0.500000
#
# Coordination Sequence:
#
# PCOD9394034 Si02
#       5
#     4   8   8   8   8
#     4  10  21  38  62  83 114 160 200 253 301 354
#     4  10  21  37  58  85 121 154 196 245 301 352
#     4  10  20  36  61  90 116 150 194 248 299 358
#     4  10  20  37  58  84 124 156 191 240 302 359
#     4  10  22  37  59  87 116 156 205 251 295 354
#
# _framework density 18.966556000000001
#
# number of rings (size 3 to 8) (size 9 to 14) (size 15 to 20)
#    0.000    2.000    2.222    1.000    0.000    6.667 
#    0.000    1.111    0.000   38.667    0.000    0.000 
#    0.000    0.000    0.000    0.000    0.000    0.000 
#
# Total GULP energy -200531.474041 kJ/mol
# GULP energy per Si atom -5570.318723 kJ/mol
# Density = 1.892339 g / cm^3
# Si number density = 18.966556 Si / 1000 Ang^3
#
#
#
# Elastic Constant Matrix: (Units=GPa)
#
#
# Indices 1 2 3 4 5 6 
#
# 1 127.2311 37.9578 22.8683 0.0000 0.0000 0.0000
# 2 37.9578 97.3122 12.2584 0.0000 0.0000 0.0000
# 3 22.8683 12.2584 49.2437 0.0000 0.0000 0.0000
# 4 0.0000 0.0000 0.0000 6.5254 0.0000 0.0000
# 5 0.0000 0.0000 0.0000 0.0000 11.6611 0.0000
# 6 0.0000 0.0000 0.0000 0.0000 0.0000 23.8597
#
#
#
# Elastic Compliance Matrix: (Units=1/GPa)
#
#
# Indices 1 2 3 4 5 6 
#
# 1 0.009473 -0.003242 -0.003592 0.000000 0.000000 0.000000
# 2 -0.003242 0.011719 -0.001411 0.000000 0.000000 0.000000
# 3 -0.003592 -0.001411 0.022327 0.000000 0.000000 0.000000
# 4 0.000000 0.000000 0.000000 0.153247 0.000000 0.000000
# 5 0.000000 0.000000 0.000000 0.000000 0.085756 0.000000
# 6 0.000000 0.000000 0.000000 0.000000 0.000000 0.041912
#
#
# Mechanical properties :
#
#
# Convention : Reuss Voigt Hill
#
# Bulk Modulus (GPa) = 37.00074 46.66178 41.83126
# Shear Modulus (GPa) = 14.28847 21.78939 18.03893
#
# Velocity S-wave (km/s) = 2.74770 3.39312 3.08732
# Velocity P-wave (km/s) = 5.44217 6.32507 5.90016
#
# Compressibility (1/GPa) = 0.02702649
#
# Stress axis : x y z
#
# Youngs Moduli (GPa) = 105.56699 85.33321 44.78973
#
# Poissons Ratio (x) = 0.27669 0.16088
# Poissons Ratio (y) = 0.34230 0.06322
# Poissons Ratio (z) = 0.37918 0.12044
#
# Static dielectric constant tensor:
#      x y z
#    x 1.693630 0.000000 0.000000 
#    y 0.000000 1.698040 0.000000 
#    z 0.000000 0.000000 1.642050 
# 
# From -- ./inp_files/22718.got.cif
#   From: 2010.05.17/outbox.cif.g08.bks.cpg/sg49_12_cif.got.tgz:22718.got - 2010.06.03 21:02:19.
