data_PCOD9394706
_publ_section_title
;
Structure prediction by ZEFSAII (Michael W. Deem and Ramdas Pophale) SiO2 
 PCOD9394706
Probable space group: P C C M
;
_chemical_formula_sum "Si O2"
_cell_formula_units_Z 32
_cell_length_a 8.081038
_cell_length_b 12.127822
_cell_length_c 17.554767
_cell_angle_alpha 90.000000
_cell_angle_beta 90.000000
_cell_angle_gamma 90.000000
_cell_volume 1720.461794
_symmetry_space_group_name_H-M "P C C M"
_symmetry_group_IT_number 49
_symmetry_cell_setting 'orthorhombic'
loop_
_space_group_symop_operation_xyz
x,y,z
-x,-y,z
x,-y,1/2-z
-x,y,1/2-z
-x,-y,-z
x,y,-z
-x,y,1/2+z
x,-y,1/2+z
loop_
_atom_site_type_symbol
_atom_site_label
_atom_site_fract_x
_atom_site_fract_y
_atom_site_fract_z
Si Si1 0.702829 0.999851 0.085853
Si Si2 0.807957 0.378385 0.728923
Si Si3 0.689183 0.249632 0.410300
Si Si4 0.379464 0.813200 0.183365
O O1 0.736999 0.093399 0.147527
O O2 0.500000 0.000000 0.084678
O O3 0.758256 0.875220 0.103220
O O4 0.757264 0.028250 0.000000
O O5 0.743605 0.500000 0.750000
O O6 0.776181 0.340416 0.642103
O O7 0.717173 0.285860 0.778218
O O8 0.000000 0.376502 0.750000
O O9 0.697243 0.271232 0.500000
O O10 0.500021 0.237066 0.381251
O O11 0.500000 0.859987 0.250000
#
# Coordination Sequence:
#
# PCOD9394706 Si02
#       4
#     8   8   8   8
#     4   8  14  27  48  77 108 130 154 198 256 309
#     4  10  22  39  52  68 101 142 178 212 253 300
#     4   9  18  34  56  80 105 131 164 209 256 302
#     4   9  17  29  52  79 101 131 170 209 250 298
#
# _framework density 18.599656
#
# number of rings (size 3 to 8) (size 9 to 14) (size 15 to 20)
#    0.000    3.000    0.000    2.250    0.000   16.000 
#    0.000   11.250    0.000    3.000    0.000    0.000 
#    0.000    0.000    0.000    0.000    0.000    0.000 
#
# Total GULP energy -178278.165047 kJ/mol
# GULP energy per Si atom -5571.192658 kJ/mol
# Density = 1.855732 g / cm^3
# Si number density = 18.599656 Si / 1000 Ang^3
#
#
#
# Elastic Constant Matrix: (Units=GPa)
#
#
# Indices 1 2 3 4 5 6 
#
# 1 16.4983 15.6079 20.6784 0.0000 0.0000 0.0000
# 2 15.6079 120.8101 93.0777 0.0000 0.0000 0.0000
# 3 20.6784 93.0777 148.7264 0.0000 0.0000 0.0000
# 4 0.0000 0.0000 0.0000 -127.0341 0.0000 0.0000
# 5 0.0000 0.0000 0.0000 0.0000 8.2534 0.0000
# 6 0.0000 0.0000 0.0000 0.0000 0.0000 35.6738
#
#
#
# Elastic Compliance Matrix: (Units=1/GPa)
#
#
# Indices 1 2 3 4 5 6 
#
# 1 0.074021 -0.003155 -0.008317 0.000000 0.000000 0.000000
# 2 -0.003155 0.016119 -0.009649 0.000000 0.000000 0.000000
# 3 -0.008317 -0.009649 0.013919 0.000000 0.000000 0.000000
# 4 0.000000 0.000000 0.000000 -0.007872 0.000000 0.000000
# 5 0.000000 0.000000 0.000000 0.000000 0.121162 0.000000
# 6 0.000000 0.000000 0.000000 0.000000 0.000000 0.028032
#
#
# Mechanical properties :
#
#
# Convention : Reuss Voigt Hill
#
# Bulk Modulus (GPa) = 16.17691 60.52918 38.35304
# Shear Modulus (GPa) = 16.22165 -6.17666 5.02250
#
# Velocity S-wave (km/s) = 2.95642 -1.82430 1.64505
# Velocity P-wave (km/s) = 4.51333 5.30815 4.92679
#
# Compressibility (1/GPa) = 0.06181650
#
# Stress axis : x y z
#
# Youngs Moduli (GPa) = 13.50963 62.03712 71.84440
#
# Poissons Ratio (x) = 0.19574 0.59753
# Poissons Ratio (y) = 0.04263 0.69325
# Poissons Ratio (z) = 0.11236 0.59862
#
# Static dielectric constant tensor:
#      x y z
#    x 1.660710 0.000000 0.000000 
#    y 0.000000 1.676050 0.000000 
#    z 0.000000 0.000000 1.670810 
# 
# From -- ./inp_files/11206.got.cif
#   From: 2010.05.17/outbox.cif.g08.bks.cpg/sg49_6_cif.got.tgz:11206.got - 2010.06.03 21:02:19.
