data_PCOD9394548
_publ_section_title
;
Structure prediction by ZEFSAII (Michael W. Deem and Ramdas Pophale) SiO2 
 PCOD9394548
Probable space group: P C C M
;
_chemical_formula_sum "Si O2"
_cell_formula_units_Z 48
_cell_length_a 9.308756
_cell_length_b 10.278839
_cell_length_c 24.504562
_cell_angle_alpha 90.000000
_cell_angle_beta 90.000000
_cell_angle_gamma 90.000000
_cell_volume 2344.675010
_symmetry_space_group_name_H-M "P C C M"
_symmetry_group_IT_number 49
_symmetry_cell_setting 'orthorhombic'
loop_
_space_group_symop_operation_xyz
x,y,z
-x,-y,z
x,-y,1/2-z
-x,y,1/2-z
-x,-y,-z
x,y,-z
-x,y,1/2+z
x,-y,1/2+z
loop_
_atom_site_type_symbol
_atom_site_label
_atom_site_fract_x
_atom_site_fract_y
_atom_site_fract_z
Si Si1 0.697297 0.798504 0.560597
Si Si2 0.668796 0.969759 0.332488
Si Si3 0.079931 0.636535 0.122537
Si Si4 0.208570 0.254489 0.848974
Si Si5 0.414699 0.632442 0.439067
Si Si6 0.837479 0.749748 0.732526
O O1 0.733924 0.847234 0.500000
O O2 0.695296 0.901925 0.608973
O O3 0.805820 0.682565 0.578008
O O4 0.537119 0.741820 0.559261
O O5 0.740334 0.870009 0.289013
O O6 0.500000 0.000000 0.322610
O O7 0.745116 0.107844 0.337432
O O8 0.152153 0.649325 0.182263
O O9 0.000000 0.500000 0.113884
O O10 0.951487 0.740717 0.127167
O O11 0.306094 0.329575 0.891964
O O12 0.216926 0.314998 0.788361
O O13 0.500000 0.500000 0.427853
O O14 0.348993 0.622066 0.500000
O O15 0.000000 0.793086 0.750000
#
# Coordination Sequence:
#
# PCOD9394548 Si02
#       6
#     8   8   8   8   8   8
#     4  10  22  40  62  91 126 164 207 260 315 367
#     4  11  22  40  62  90 127 164 208 260 310 373
#     4  10  22  41  63  89 126 163 206 256 312 372
#     4  11  22  37  62  88 117 161 207 249 310 376
#     4  10  21  39  61  87 121 160 204 256 308 365
#     4   9  22  39  61  88 122 161 205 252 313 369
#
# _framework density 20.471920000000001
#
# number of rings (size 3 to 8) (size 9 to 14) (size 15 to 20)
#    0.000    1.833    1.667    1.500    0.000   14.333 
#    0.000    0.833    0.000    0.000    0.000    0.000 
#    0.000    0.000    0.000    0.000    0.000    0.000 
#
# Total GULP energy -267904.007397 kJ/mol
# GULP energy per Si atom -5581.333487 kJ/mol
# Density = 2.042533 g / cm^3
# Si number density = 20.471920 Si / 1000 Ang^3
#
#
#
# Elastic Constant Matrix: (Units=GPa)
#
#
# Indices 1 2 3 4 5 6 
#
# 1 76.4823 12.7597 54.4428 0.0000 0.0000 0.0000
# 2 12.7597 41.8214 17.4511 0.0000 0.0000 0.0000
# 3 54.4428 17.4511 163.9599 0.0000 0.0000 0.0000
# 4 0.0000 0.0000 0.0000 13.2119 0.0000 0.0000
# 5 0.0000 0.0000 0.0000 0.0000 60.3900 0.0000
# 6 0.0000 0.0000 0.0000 0.0000 0.0000 30.9001
#
#
#
# Elastic Compliance Matrix: (Units=1/GPa)
#
#
# Indices 1 2 3 4 5 6 
#
# 1 0.017485 -0.003047 -0.005482 0.000000 0.000000 0.000000
# 2 -0.003047 0.025554 -0.001708 0.000000 0.000000 0.000000
# 3 -0.005482 -0.001708 0.008101 0.000000 0.000000 0.000000
# 4 0.000000 0.000000 0.000000 0.075689 0.000000 0.000000
# 5 0.000000 0.000000 0.000000 0.000000 0.016559 0.000000
# 6 0.000000 0.000000 0.000000 0.000000 0.000000 0.032362
#
#
# Mechanical properties :
#
#
# Convention : Reuss Voigt Hill
#
# Bulk Modulus (GPa) = 32.60933 50.17453 41.39193
# Shear Modulus (GPa) = 24.21933 34.07441 29.14687
#
# Velocity S-wave (km/s) = 3.44328 4.08419 3.77735
# Velocity P-wave (km/s) = 5.63663 6.84127 6.26796
#
# Compressibility (1/GPa) = 0.03066607
#
# Stress axis : x y z
#
# Youngs Moduli (GPa) = 57.19067 39.13335 123.44127
#
# Poissons Ratio (x) = 0.11926 0.67666
# Poissons Ratio (y) = 0.17428 0.21083
# Poissons Ratio (z) = 0.31350 0.06684
#
# Static dielectric constant tensor:
#      x y z
#    x 1.747010 0.000000 0.000000 
#    y 0.000000 1.727570 0.000000 
#    z 0.000000 0.000000 1.765400 
# 
# From -- ./inp_files/22415.got.cif
#   From: 2010.05.17/outbox.cif.g08.bks.cpg/sg49_12_cif.got.tgz:22415.got - 2010.06.03 21:02:19.
