data_PCOD9394546
_publ_section_title
;
Structure prediction by ZEFSAII (Michael W. Deem and Ramdas Pophale) SiO2 
 PCOD9394546
Probable space group: P C C M
;
_chemical_formula_sum "Si O2"
_cell_formula_units_Z 38
_cell_length_a 20.422087
_cell_length_b 5.288565
_cell_length_c 15.619067
_cell_angle_alpha 90.000000
_cell_angle_beta 90.000000
_cell_angle_gamma 90.000000
_cell_volume 1686.914442
_symmetry_space_group_name_H-M "P C C M"
_symmetry_group_IT_number 49
_symmetry_cell_setting 'orthorhombic'
loop_
_space_group_symop_operation_xyz
x,y,z
-x,-y,z
x,-y,1/2-z
-x,y,1/2-z
-x,-y,-z
x,y,-z
-x,y,1/2+z
x,-y,1/2+z
loop_
_atom_site_type_symbol
_atom_site_label
_atom_site_fract_x
_atom_site_fract_y
_atom_site_fract_z
Si Si1 0.169956 0.103181 0.398029
Si Si2 0.028648 0.245714 0.346894
Si Si3 0.619003 0.203508 0.325102
Si Si4 0.451302 0.770475 0.500000
Si Si5 0.250801 0.397546 0.897065
Si Si6 0.500000 0.500000 0.250000
O O1 0.154451 0.099163 0.500000
O O2 0.105911 0.201197 0.348578
O O3 0.223428 0.321621 0.384345
O O4 0.198789 0.827016 0.375380
O O5 0.000000 0.500000 0.386989
O O6 0.000000 0.247722 0.250000
O O7 0.000000 0.000000 0.391847
O O8 0.597687 0.159581 0.422089
O O9 0.685171 0.359956 0.339508
O O10 0.550768 0.332655 0.300096
O O11 0.630584 0.000000 0.250000
O O12 0.500000 0.500000 0.500000
O O13 0.500000 0.000000 0.500000
O O14 0.263702 0.370831 0.000000
#
# Coordination Sequence:
#
# PCOD9394546 Si02
#       6
#     8   8   8   4   8   2
#     4  10  22  42  68  98 134 179 232 289 352 432
#     4  10  21  39  60  93 132 171 218 278 345 414
#     4  12  27  48  72 110 149 193 253 313 376 450
#     4  12  26  48  78 108 146 204 242 308 388 450
#     4  10  23  45  70  99 138 185 235 292 366 439
#     4  12  26  46  68 106 148 186 248 310 370 444
#
# _framework density 22.526333000000001
#
# number of rings (size 3 to 8) (size 9 to 14) (size 15 to 20)
#    0.000    1.263    2.105    2.842    2.947    0.842 
#   11.368    0.000    0.000    0.000    0.000    0.000 
#    0.000    0.000    0.000    0.000    0.000    0.000 
#
# Total GULP energy -211592.558951 kJ/mol
# GULP energy per Si atom -5568.225236 kJ/mol
# Density = 2.247506 g / cm^3
# Si number density = 22.526333 Si / 1000 Ang^3
#
#
#
# Elastic Constant Matrix: (Units=GPa)
#
#
# Indices 1 2 3 4 5 6 
#
# 1 81.1946 -17.7282 18.3992 0.0000 0.0000 0.0000
# 2 -17.7282 102.0166 1.3962 0.0000 0.0000 0.0000
# 3 18.3992 1.3962 95.2182 0.0000 0.0000 0.0000
# 4 0.0000 0.0000 0.0000 8.7062 0.0000 0.0000
# 5 0.0000 0.0000 0.0000 0.0000 41.7143 0.0000
# 6 0.0000 0.0000 0.0000 0.0000 0.0000 -30.5966
#
#
#
# Elastic Compliance Matrix: (Units=1/GPa)
#
#
# Indices 1 2 3 4 5 6 
#
# 1 0.013429 0.002370 -0.002630 0.000000 0.000000 0.000000
# 2 0.002370 0.010222 -0.000608 0.000000 0.000000 0.000000
# 3 -0.002630 -0.000608 0.011019 0.000000 0.000000 0.000000
# 4 0.000000 0.000000 0.000000 0.114861 0.000000 0.000000
# 5 0.000000 0.000000 0.000000 0.000000 0.023973 0.000000
# 6 0.000000 0.000000 0.000000 0.000000 0.000000 -0.032683
#
#
# Mechanical properties :
#
#
# Convention : Reuss Voigt Hill
#
# Bulk Modulus (GPa) = 30.36239 31.39597 30.87918
# Shear Modulus (GPa) = 32.56569 22.38890 27.47730
#
# Velocity S-wave (km/s) = 3.80632 3.15604 3.49633
# Velocity P-wave (km/s) = 5.72934 5.22001 5.48059
#
# Compressibility (1/GPa) = 0.03293548
#
# Stress axis : x y z
#
# Youngs Moduli (GPa) = 74.46344 97.82395 90.75023
#
# Poissons Ratio (x) = -0.23181 0.23865
# Poissons Ratio (y) = -0.17646 0.05516
# Poissons Ratio (z) = 0.19582 0.05946
#
# Static dielectric constant tensor:
#      x y z
#    x 1.869940 0.000000 0.000000 
#    y 0.000000 1.860160 0.000000 
#    z 0.000000 0.000000 1.564900 
# 
# From -- ./inp_files/18097.got.cif
#   From: 2010.05.17/outbox.cif.g08.bks.cpg/sg49_10_cif.got.tgz:18097.got - 2010.06.03 21:02:19.
