data_PCOD9394011
_publ_section_title
;
Structure prediction by ZEFSAII (Michael W. Deem and Ramdas Pophale) SiO2 
 PCOD9394011
Probable space group: P C C M
;
_chemical_formula_sum "Si O2"
_cell_formula_units_Z 40
_cell_length_a 13.561969
_cell_length_b 18.454603
_cell_length_c 9.166116
_cell_angle_alpha 90.000000
_cell_angle_beta 90.000000
_cell_angle_gamma 90.000000
_cell_volume 2294.102422
_symmetry_space_group_name_H-M "P C C M"
_symmetry_group_IT_number 49
_symmetry_cell_setting 'orthorhombic'
loop_
_space_group_symop_operation_xyz
x,y,z
-x,-y,z
x,-y,1/2-z
-x,y,1/2-z
-x,-y,-z
x,y,-z
-x,y,1/2+z
x,-y,1/2+z
loop_
_atom_site_type_symbol
_atom_site_label
_atom_site_fract_x
_atom_site_fract_y
_atom_site_fract_z
Si Si1 0.647255 0.942351 0.000000
Si Si2 0.603009 0.421233 0.823117
Si Si3 0.421277 0.893422 0.000000
Si Si4 0.098806 0.773833 0.831355
Si Si5 0.294151 0.158248 0.246465
Si Si6 0.250271 0.314315 0.833288
O O1 0.536940 0.908379 0.000000
O O2 0.701335 0.909555 0.860489
O O3 0.632062 0.027949 0.000000
O O4 0.620246 0.500000 0.750000
O O5 0.500000 0.395838 0.750000
O O6 0.688480 0.368032 0.768365
O O7 0.596218 0.425221 0.000000
O O8 0.381595 0.851242 0.860576
O O9 0.187166 0.832724 0.821227
O O10 0.146365 0.706210 0.742700
O O11 0.000000 0.797247 0.750000
O O12 0.080284 0.756952 0.000000
O O13 0.303914 0.235533 0.166236
O O14 0.241084 0.339897 0.000000
#
# Coordination Sequence:
#
# PCOD9394011 Si02
#       6
#     4   8   4   8   8   8
#     4  11  22  36  55  81 114 158 190 231 291 350
#     4  11  22  37  57  84 123 164 200 237 288 343
#     4  11  22  36  55  81 116 154 192 233 289 352
#     4  10  20  36  60  85 111 145 192 246 304 347
#     4  10  20  38  55  83 113 148 195 241 286 342
#     4  10  20  37  56  85 113 150 191 240 288 341
#
# _framework density 17.436014
#
# number of rings (size 3 to 8) (size 9 to 14) (size 15 to 20)
#    1.200    0.400    2.000    4.800    2.800    3.200 
#    0.000    0.000    0.000    4.200    0.000    4.200 
#    0.000    0.000    0.000    0.000    0.000    0.000 
#
# Total GULP energy -222735.834967 kJ/mol
# GULP energy per Si atom -5568.395874 kJ/mol
# Density = 1.739633 g / cm^3
# Si number density = 17.436014 Si / 1000 Ang^3
#
#
#
# Elastic Constant Matrix: (Units=GPa)
#
#
# Indices 1 2 3 4 5 6 
#
# 1 66.4603 17.2307 26.2310 0.0000 0.0000 0.0000
# 2 17.2307 28.1078 12.5671 0.0000 0.0000 0.0000
# 3 26.2310 12.5671 150.0606 0.0000 0.0000 0.0000
# 4 0.0000 0.0000 0.0000 30.7661 0.0000 0.0000
# 5 0.0000 0.0000 0.0000 0.0000 24.2923 0.0000
# 6 0.0000 0.0000 0.0000 0.0000 0.0000 6.8110
#
#
#
# Elastic Compliance Matrix: (Units=1/GPa)
#
#
# Indices 1 2 3 4 5 6 
#
# 1 0.018684 -0.010382 -0.002397 0.000000 0.000000 0.000000
# 2 -0.010382 0.042730 -0.001764 0.000000 0.000000 0.000000
# 3 -0.002397 -0.001764 0.007231 0.000000 0.000000 0.000000
# 4 0.000000 0.000000 0.000000 0.032503 0.000000 0.000000
# 5 0.000000 0.000000 0.000000 0.000000 0.041165 0.000000
# 6 0.000000 0.000000 0.000000 0.000000 0.000000 0.146821
#
#
# Mechanical properties :
#
#
# Convention : Reuss Voigt Hill
#
# Bulk Modulus (GPa) = 25.27800 39.63181 32.45491
# Shear Modulus (GPa) = 15.08719 24.94721 20.01720
#
# Velocity S-wave (km/s) = 2.94477 3.78668 3.39195
# Velocity P-wave (km/s) = 5.10796 6.47285 5.83048
#
# Compressibility (1/GPa) = 0.03956009
#
# Stress axis : x y z
#
# Youngs Moduli (GPa) = 53.52112 23.40256 138.30105
#
# Poissons Ratio (x) = 0.24297 0.33145
# Poissons Ratio (y) = 0.55567 0.24392
# Poissons Ratio (z) = 0.12827 0.04127
#
# Static dielectric constant tensor:
#      x y z
#    x 1.583610 0.000000 0.000000 
#    y 0.000000 1.576670 0.000000 
#    z 0.000000 0.000000 1.828150 
# 
# From -- ./inp_files/2818.got.cif
#   From: 2010.05.17/outbox.cif.g08.bks.cpg/sg49_2_cif.got.tgz:2818.got - 2010.06.03 21:02:19.
