data_PCOD9394210
_publ_section_title
;
Structure prediction by ZEFSAII (Michael W. Deem and Ramdas Pophale) SiO2 
 PCOD9394210
Probable space group: P C C M
;
_chemical_formula_sum "Si O2"
_cell_formula_units_Z 48
_cell_length_a 27.989067
_cell_length_b 5.150434
_cell_length_c 16.051506
_cell_angle_alpha 90.000000
_cell_angle_beta 90.000000
_cell_angle_gamma 90.000000
_cell_volume 2313.918368
_symmetry_space_group_name_H-M "P C C M"
_symmetry_group_IT_number 49
_symmetry_cell_setting 'orthorhombic'
loop_
_space_group_symop_operation_xyz
x,y,z
-x,-y,z
x,-y,1/2-z
-x,y,1/2-z
-x,-y,-z
x,y,-z
-x,y,1/2+z
x,-y,1/2+z
loop_
_atom_site_type_symbol
_atom_site_label
_atom_site_fract_x
_atom_site_fract_y
_atom_site_fract_z
Si Si1 0.054142 0.940063 0.847987
Si Si2 0.723286 0.929066 0.598698
Si Si3 0.215449 0.585708 0.599201
Si Si4 0.372009 0.755777 0.806139
Si Si5 0.891872 0.563989 0.097267
Si Si6 0.470204 0.748411 0.100445
O O1 0.073197 0.649542 0.862473
O O2 0.056300 0.000000 0.750000
O O3 0.087479 0.148326 0.893325
O O4 0.000000 0.000000 0.875875
O O5 0.712403 0.964764 0.500000
O O6 0.760160 0.692488 0.606985
O O7 0.675617 0.843381 0.645588
O O8 0.749275 0.189271 0.631848
O O9 0.210539 0.645494 0.500000
O O10 0.161802 0.570551 0.633532
O O11 0.364147 0.500000 0.750000
O O12 0.416596 0.719366 0.867234
O O13 0.385666 0.000000 0.750000
O O14 0.888906 0.491986 0.000000
O O15 0.500000 0.500000 0.128125
O O16 0.500000 0.000000 0.128682
O O17 0.468742 0.755382 0.000000
#
# Coordination Sequence:
#
# PCOD9394210 Si02
#       6
#     8   8   8   8   8   8
#     4  11  24  41  59  84 123 164 198 238 298 368
#     4  10  20  39  62  82 112 156 198 232 282 350
#     4   9  19  36  61  88 113 147 192 244 293 341
#     4  12  25  39  58  88 124 155 190 241 298 346
#     4  11  22  39  64  92 118 149 201 257 301 351
#     4  10  22  41  64  88 115 153 201 243 284 348
#
# _framework density 20.744031
#
# number of rings (size 3 to 8) (size 9 to 14) (size 15 to 20)
#    0.000    1.500    0.000    5.000    0.000    8.000 
#    0.000   15.000    0.000    0.000    0.000    0.000 
#    0.000    0.000    0.000    0.000    0.000    0.000 
#
# Total GULP energy -268320.096354 kJ/mol
# GULP energy per Si atom -5590.002007 kJ/mol
# Density = 2.069682 g / cm^3
# Si number density = 20.744031 Si / 1000 Ang^3
#
#
#
# Elastic Constant Matrix: (Units=GPa)
#
#
# Indices 1 2 3 4 5 6 
#
# 1 93.4750 -11.7876 6.8634 0.0000 0.0000 0.0000
# 2 -11.7876 85.4849 4.6750 0.0000 0.0000 0.0000
# 3 6.8634 4.6750 20.7788 0.0000 0.0000 0.0000
# 4 0.0000 0.0000 0.0000 41.1989 0.0000 0.0000
# 5 0.0000 0.0000 0.0000 0.0000 69.8997 0.0000
# 6 0.0000 0.0000 0.0000 0.0000 0.0000 -12.7067
#
#
#
# Elastic Compliance Matrix: (Units=1/GPa)
#
#
# Indices 1 2 3 4 5 6 
#
# 1 0.011223 0.001772 -0.004106 0.000000 0.000000 0.000000
# 2 0.001772 0.012124 -0.003313 0.000000 0.000000 0.000000
# 3 -0.004106 -0.003313 0.050228 0.000000 0.000000 0.000000
# 4 0.000000 0.000000 0.000000 0.024272 0.000000 0.000000
# 5 0.000000 0.000000 0.000000 0.000000 0.014306 0.000000
# 6 0.000000 0.000000 0.000000 0.000000 0.000000 -0.078699
#
#
# Mechanical properties :
#
#
# Convention : Reuss Voigt Hill
#
# Bulk Modulus (GPa) = 16.05632 22.13781 19.09707
# Shear Modulus (GPa) = 76.32679 33.01091 54.66885
#
# Velocity S-wave (km/s) = 6.07243 3.99349 5.13919
# Velocity P-wave (km/s) = 7.54473 5.65323 6.66641
#
# Compressibility (1/GPa) = 0.06228075
#
# Stress axis : x y z
#
# Youngs Moduli (GPa) = 89.10289 82.48437 19.90937
#
# Poissons Ratio (x) = -0.14617 0.08174
# Poissons Ratio (y) = -0.15790 0.06596
# Poissons Ratio (z) = 0.36583 0.27327
#
# Static dielectric constant tensor:
#      x y z
#    x 1.719600 0.000000 0.000000 
#    y 0.000000 1.670070 0.000000 
#    z 0.000000 0.000000 1.755430 
# 
# From -- ./inp_files/14580.got.cif
#   From: 2010.05.17/outbox.cif.g08.bks.cpg/sg49_8_cif.got.tgz:14580.got - 2010.06.03 21:02:19.
