data_PCOD9394437
_publ_section_title
;
Structure prediction by ZEFSAII (Michael W. Deem and Ramdas Pophale) SiO2 
 PCOD9394437
Probable space group: P C C M
;
_chemical_formula_sum "Si O2"
_cell_formula_units_Z 34
_cell_length_a 9.578377
_cell_length_b 20.568490
_cell_length_c 8.916314
_cell_angle_alpha 90.000000
_cell_angle_beta 90.000000
_cell_angle_gamma 90.000000
_cell_volume 1756.627555
_symmetry_space_group_name_H-M "P C C M"
_symmetry_group_IT_number 49
_symmetry_cell_setting 'orthorhombic'
loop_
_space_group_symop_operation_xyz
x,y,z
-x,-y,z
x,-y,1/2-z
-x,y,1/2-z
-x,-y,-z
x,y,-z
-x,y,1/2+z
x,-y,1/2+z
loop_
_atom_site_type_symbol
_atom_site_label
_atom_site_fract_x
_atom_site_fract_y
_atom_site_fract_z
Si Si1 0.652978 0.319843 0.680196
Si Si2 0.852024 0.801794 0.177833
Si Si3 0.775646 0.936418 0.667952
Si Si4 0.150417 0.428724 0.318763
Si Si5 0.500000 0.000000 0.750000
O O1 0.500000 0.315074 0.750000
O O2 0.647516 0.329894 0.500000
O O3 0.738672 0.253700 0.709600
O O4 0.735757 0.378233 0.759813
O O5 0.804946 0.871096 0.242872
O O6 0.000000 0.783781 0.250000
O O7 0.868532 0.807015 0.000000
O O8 0.829339 0.930143 0.500000
O O9 0.835873 0.000000 0.750000
O O10 0.609541 0.953615 0.664941
O O11 0.179742 0.500000 0.250000
O O12 0.144120 0.431162 0.500000
O O13 0.000000 0.409147 0.250000
#
# Coordination Sequence:
#
# PCOD9394437 Si02
#       5
#     8   8   8   8   2
#     4  11  25  43  64  94 128 166 209 259 313 372
#     4  11  25  43  64  90 123 163 208 256 311 370
#     4  10  21  37  61  88 120 157 201 251 305 366
#     4  11  22  40  67  97 130 169 211 257 307 369
#     4   8  22  36  60  88 122 160 198 248 306 368
#
# _framework density 19.355270000000001
#
# number of rings (size 3 to 8) (size 9 to 14) (size 15 to 20)
#    0.706    0.706    0.000    6.000    1.647    6.588 
#    0.000    4.706    0.000    0.000    0.000    0.000 
#    0.000    0.000    0.000    0.000    0.000    0.000 
#
# Total GULP energy -189885.301942 kJ/mol
# GULP energy per Si atom -5584.861822 kJ/mol
# Density = 1.931122 g / cm^3
# Si number density = 19.355270 Si / 1000 Ang^3
#
#
#
# Elastic Constant Matrix: (Units=GPa)
#
#
# Indices 1 2 3 4 5 6 
#
# 1 155.3789 101.3977 91.0188 0.0000 0.0000 0.0000
# 2 101.3977 125.3460 92.8261 0.0000 0.0000 0.0000
# 3 91.0188 92.8261 161.4174 0.0000 0.0000 0.0000
# 4 0.0000 0.0000 0.0000 29.4582 0.0000 0.0000
# 5 0.0000 0.0000 0.0000 0.0000 32.0723 0.0000
# 6 0.0000 0.0000 0.0000 0.0000 0.0000 65.3672
#
#
#
# Elastic Compliance Matrix: (Units=1/GPa)
#
#
# Indices 1 2 3 4 5 6 
#
# 1 0.014161 -0.009653 -0.002434 0.000000 0.000000 0.000000
# 2 -0.009653 0.020476 -0.006332 0.000000 0.000000 0.000000
# 3 -0.002434 -0.006332 0.011209 0.000000 0.000000 0.000000
# 4 0.000000 0.000000 0.000000 0.033946 0.000000 0.000000
# 5 0.000000 0.000000 0.000000 0.000000 0.031180 0.000000
# 6 0.000000 0.000000 0.000000 0.000000 0.000000 0.015298
#
#
# Mechanical properties :
#
#
# Convention : Reuss Voigt Hill
#
# Bulk Modulus (GPa) = 111.01226 112.51416 111.76321
# Shear Modulus (GPa) = 30.10055 35.83952 32.97003
#
# Velocity S-wave (km/s) = 3.94783 4.30777 4.13172
# Velocity P-wave (km/s) = 8.84647 9.11042 8.97941
#
# Compressibility (1/GPa) = 0.00900801
#
# Stress axis : x y z
#
# Youngs Moduli (GPa) = 70.61662 48.83816 89.21571
#
# Poissons Ratio (x) = 0.47143 0.21714
# Poissons Ratio (y) = 0.68166 0.56491
# Poissons Ratio (z) = 0.17187 0.30924
#
# Static dielectric constant tensor:
#      x y z
#    x 1.680350 0.000000 0.000000 
#    y 0.000000 1.649050 0.000000 
#    z 0.000000 0.000000 1.659170 
# 
# From -- ./inp_files/1511.got.cif
#   From: 2010.05.17/outbox.cif.g08.bks.cpg/sg49_1_cif.got.tgz:1511.got - 2010.06.03 21:02:19.
