data_PCOD9394868
_publ_section_title
;
Structure prediction by ZEFSAII (Michael W. Deem and Ramdas Pophale) SiO2 
 PCOD9394868
Probable space group: P C C M
;
_chemical_formula_sum "Si O2"
_cell_formula_units_Z 40
_cell_length_a 24.471145
_cell_length_b 9.239278
_cell_length_c 9.397118
_cell_angle_alpha 90.000000
_cell_angle_beta 90.000000
_cell_angle_gamma 90.000000
_cell_volume 2124.648082
_symmetry_space_group_name_H-M "P C C M"
_symmetry_group_IT_number 49
_symmetry_cell_setting 'orthorhombic'
loop_
_space_group_symop_operation_xyz
x,y,z
-x,-y,z
x,-y,1/2-z
-x,y,1/2-z
-x,-y,-z
x,y,-z
-x,y,1/2+z
x,-y,1/2+z
loop_
_atom_site_type_symbol
_atom_site_label
_atom_site_fract_x
_atom_site_fract_y
_atom_site_fract_z
Si Si1 0.052069 0.812446 0.500000
Si Si2 0.557013 0.342663 0.176471
Si Si3 0.922071 0.851186 0.500000
Si Si4 0.754561 0.646929 0.164210
Si Si5 0.349841 0.153728 0.827387
Si Si6 0.877985 0.674093 0.761964
O O1 0.075981 0.724934 0.630389
O O2 0.986908 0.817997 0.500000
O O3 0.077674 0.974398 0.500000
O O4 0.566177 0.500000 0.250000
O O5 0.500000 0.292944 0.250000
O O6 0.604267 0.241960 0.240085
O O7 0.555019 0.348283 0.000000
O O8 0.892270 0.773030 0.628987
O O9 0.745410 0.500000 0.250000
O O10 0.707453 0.762658 0.191432
O O11 0.815568 0.704079 0.193361
O O12 0.751950 0.605855 0.000000
O O13 0.346390 0.000000 0.750000
O O14 0.360817 0.145249 0.000000
O O15 0.881237 0.500000 0.750000
#
# Coordination Sequence:
#
# PCOD9394868 Si02
#       6
#     4   8   4   8   8   8
#     4  11  23  43  61  87 131 155 212 247 318 389
#     4  11  22  40  66  97 130 172 218 267 319 377
#     4  11  25  39  63  91 119 173 196 257 316 385
#     4  10  23  42  65  90 122 161 204 257 312 372
#     4  11  24  42  62  94 130 168 214 262 318 379
#     4  11  23  41  63  93 121 159 209 263 315 374
#
# _framework density 18.826646
#
# number of rings (size 3 to 8) (size 9 to 14) (size 15 to 20)
#    0.000    1.200    1.000    5.400    4.200    9.200 
#    0.000    2.000    0.000    0.000    0.000    0.000 
#    0.000    0.000    0.000    0.000    0.000    0.000 
#
# Total GULP energy -223099.046843 kJ/mol
# GULP energy per Si atom -5577.476171 kJ/mol
# Density = 1.878380 g / cm^3
# Si number density = 18.826646 Si / 1000 Ang^3
#
#
#
# Elastic Constant Matrix: (Units=GPa)
#
#
# Indices 1 2 3 4 5 6 
#
# 1 108.9118 69.8814 31.6674 0.0000 0.0000 0.0000
# 2 69.8814 77.7589 23.4241 0.0000 0.0000 0.0000
# 3 31.6674 23.4241 80.8587 0.0000 0.0000 0.0000
# 4 0.0000 0.0000 0.0000 576.6283 0.0000 0.0000
# 5 0.0000 0.0000 0.0000 0.0000 36.0379 0.0000
# 6 0.0000 0.0000 0.0000 0.0000 0.0000 241.4546
#
#
#
# Elastic Compliance Matrix: (Units=1/GPa)
#
#
# Indices 1 2 3 4 5 6 
#
# 1 0.022430 -0.019186 -0.003227 0.000000 0.000000 0.000000
# 2 -0.019186 0.030501 -0.001322 0.000000 0.000000 0.000000
# 3 -0.003227 -0.001322 0.014014 0.000000 0.000000 0.000000
# 4 0.000000 0.000000 0.000000 0.001734 0.000000 0.000000
# 5 0.000000 0.000000 0.000000 0.000000 0.027749 0.000000
# 6 0.000000 0.000000 0.000000 0.000000 0.000000 0.004142
#
#
# Mechanical properties :
#
#
# Convention : Reuss Voigt Hill
#
# Bulk Modulus (GPa) = 51.34490 57.49722 54.42106
# Shear Modulus (GPa) = 32.35622 180.32793 106.34208
#
# Velocity S-wave (km/s) = 4.15015 9.79751 7.52380
# Velocity P-wave (km/s) = 7.09201 12.59345 10.21987
#
# Compressibility (1/GPa) = 0.01947613
#
# Stress axis : x y z
#
# Youngs Moduli (GPa) = 44.58272 32.78611 71.35817
#
# Poissons Ratio (x) = 0.62903 0.23024
# Poissons Ratio (y) = 0.85536 0.09432
# Poissons Ratio (z) = 0.14385 0.04334
#
# Static dielectric constant tensor:
#      x y z
#    x 1.637010 0.000000 0.000000 
#    y 0.000000 1.619320 0.000000 
#    z 0.000000 0.000000 1.618090 
# 
# From -- ./inp_files/1956.got.cif
#   From: 2010.05.17/outbox.cif.g08.bks.cpg/sg49_1_cif.got.tgz:1956.got - 2010.06.03 21:02:19.
