data_PCOD9394384
_publ_section_title
;
Structure prediction by ZEFSAII (Michael W. Deem and Ramdas Pophale) SiO2 
 PCOD9394384
Probable space group: P C C M
;
_chemical_formula_sum "Si O2"
_cell_formula_units_Z 34
_cell_length_a 12.360803
_cell_length_b 13.773178
_cell_length_c 9.095787
_cell_angle_alpha 90.000000
_cell_angle_beta 90.000000
_cell_angle_gamma 90.000000
_cell_volume 1548.535361
_symmetry_space_group_name_H-M "P C C M"
_symmetry_group_IT_number 49
_symmetry_cell_setting 'orthorhombic'
loop_
_space_group_symop_operation_xyz
x,y,z
-x,-y,z
x,-y,1/2-z
-x,y,1/2-z
-x,-y,-z
x,y,-z
-x,y,1/2+z
x,-y,1/2+z
loop_
_atom_site_type_symbol
_atom_site_label
_atom_site_fract_x
_atom_site_fract_y
_atom_site_fract_z
Si Si1 0.101262 0.644898 0.168009
Si Si2 0.652237 0.598138 0.670995
Si Si3 0.389851 0.193060 0.176487
Si Si4 0.000000 0.000000 0.750000
Si Si5 0.179035 0.148466 0.668341
O O1 0.216825 0.593826 0.170730
O O2 0.126104 0.752533 0.228429
O O3 0.000000 0.601751 0.250000
O O4 0.067885 0.656027 0.000000
O O5 0.614844 0.500000 0.750000
O O6 0.616666 0.604902 0.500000
O O7 0.623571 0.696711 0.758683
O O8 0.500000 0.154934 0.250000
O O9 0.285250 0.133105 0.233098
O O10 0.395270 0.194723 0.000000
O O11 0.085069 0.069020 0.667075
O O12 0.215745 0.166881 0.500000
#
# Coordination Sequence:
#
# PCOD9394384 Si02
#       5
#     8   8   8   2   8
#     4   9  18  33  52  77 116 161 203 249 300 361
#     4  10  21  37  56  86 122 160 209 262 310 363
#     4  11  23  42  67  91 122 166 210 258 313 370
#     4  12  22  40  70 102 132 164 200 252 306 364
#     4  10  22  39  61  94 130 164 205 253 307 371
#
# _framework density 21.956232
#
# number of rings (size 3 to 8) (size 9 to 14) (size 15 to 20)
#    0.000    1.882    1.176    4.588    0.000    7.529 
#    0.000    5.294    0.000    2.824    0.000    0.000 
#    0.000    0.000    0.000    0.000    0.000    0.000 
#
# Total GULP energy -189797.875980 kJ/mol
# GULP energy per Si atom -5582.290470 kJ/mol
# Density = 2.190626 g / cm^3
# Si number density = 21.956232 Si / 1000 Ang^3
#
#
#
# Elastic Constant Matrix: (Units=GPa)
#
#
# Indices 1 2 3 4 5 6 
#
# 1 164.5894 20.9923 71.5841 0.0000 0.0000 0.0000
# 2 20.9923 67.8660 18.0294 0.0000 0.0000 0.0000
# 3 71.5841 18.0294 138.0823 0.0000 0.0000 0.0000
# 4 0.0000 0.0000 0.0000 -7.2440 0.0000 0.0000
# 5 0.0000 0.0000 0.0000 0.0000 29.3915 0.0000
# 6 0.0000 0.0000 0.0000 0.0000 0.0000 64.8625
#
#
#
# Elastic Compliance Matrix: (Units=1/GPa)
#
#
# Indices 1 2 3 4 5 6 
#
# 1 0.007974 -0.001417 -0.003949 0.000000 0.000000 0.000000
# 2 -0.001417 0.015516 -0.001291 0.000000 0.000000 0.000000
# 3 -0.003949 -0.001291 0.009458 0.000000 0.000000 0.000000
# 4 0.000000 0.000000 0.000000 -0.138046 0.000000 0.000000
# 5 0.000000 0.000000 0.000000 0.000000 0.034023 0.000000
# 6 0.000000 0.000000 0.000000 0.000000 0.000000 0.015417
#
#
# Mechanical properties :
#
#
# Convention : Reuss Voigt Hill
#
# Bulk Modulus (GPa) = 50.93373 65.74993 58.34183
# Shear Modulus (GPa) = -139.67311 34.73081 -52.47115
#
# Velocity S-wave (km/s) = -7.98451 3.98153 -4.89387
# Velocity P-wave (km/s) = 7.85844 7.15176 2.30298
#
# Compressibility (1/GPa) = 0.01963335
#
# Stress axis : x y z
#
# Youngs Moduli (GPa) = 125.40894 64.44807 105.73371
#
# Poissons Ratio (x) = 0.09135 0.41751
# Poissons Ratio (y) = 0.17776 0.13652
# Poissons Ratio (z) = 0.49521 0.08321
#
# Static dielectric constant tensor:
#      x y z
#    x 1.832610 0.000000 0.000000 
#    y 0.000000 1.843940 0.000000 
#    z 0.000000 0.000000 1.780360 
# 
# From -- ./inp_files/2562.got.cif
#   From: 2010.05.17/outbox.cif.g08.bks.cpg/sg49_2_cif.got.tgz:2562.got - 2010.06.03 21:02:19.
