data_PCOD9394709
_publ_section_title
;
Structure prediction by ZEFSAII (Michael W. Deem and Ramdas Pophale) SiO2 
 PCOD9394709
Probable space group: P C C M
;
_chemical_formula_sum "Si O2"
_cell_formula_units_Z 56
_cell_length_a 24.109994
_cell_length_b 8.123591
_cell_length_c 15.090656
_cell_angle_alpha 90.000000
_cell_angle_beta 90.000000
_cell_angle_gamma 90.000000
_cell_volume 2955.651814
_symmetry_space_group_name_H-M "P C C M"
_symmetry_group_IT_number 49
_symmetry_cell_setting 'orthorhombic'
loop_
_space_group_symop_operation_xyz
x,y,z
-x,-y,z
x,-y,1/2-z
-x,y,1/2-z
-x,-y,-z
x,y,-z
-x,y,1/2+z
x,-y,1/2+z
loop_
_atom_site_type_symbol
_atom_site_label
_atom_site_fract_x
_atom_site_fract_y
_atom_site_fract_z
Si Si1 0.561326 0.802464 0.100346
Si Si2 0.859357 0.192927 0.393923
Si Si3 0.767020 0.805308 0.250000
Si Si4 0.936837 0.499999 0.392515
Si Si5 0.642343 0.690716 0.250000
Si Si6 0.140643 0.807071 0.106077
Si Si7 0.438674 0.197535 0.399654
O O1 0.611221 0.760650 0.164449
O O2 0.500000 0.744993 0.131259
O O3 0.558678 1.000000 0.096999
O O4 0.569652 0.741631 0.000000
O O5 0.849796 0.205590 0.500000
O O6 0.804799 0.229975 0.336102
O O7 0.904336 0.332081 0.368343
O O8 0.875077 0.999999 0.376019
O O9 0.707749 0.721105 0.249999
O O10 0.804799 0.770024 0.336102
O O11 0.756162 0.000000 0.250000
O O12 0.938499 0.499999 0.500000
O O13 0.904335 0.667917 0.368343
O O14 0.000000 0.500000 0.360174
O O15 0.631404 0.500000 0.250000
O O16 0.611222 0.760650 0.335551
O O17 0.150204 0.794409 0.000000
O O18 0.430347 0.258369 0.500000
#
# Coordination Sequence:
#
# PCOD9394709 Si02
#       7
#     8   8   8   8   8   8   8
#     4   9  19  38  62  83 107 145 189 231 278 334
#     4   9  19  36  57  80 109 147 186 229 281 330
#     4  10  22  39  57  77 104 144 193 232 266 320
#     4   9  18  33  57  87 114 145 183 224 276 336
#     4  12  25  35  52  85 117 147 183 230 287 340
#     4   9  19  36  57  80 109 147 186 229 281 330
#     4   9  19  38  62  83 107 145 189 231 278 334
#
# _framework density 18.946752
#
# number of rings (size 3 to 8) (size 9 to 14) (size 15 to 20)
#    0.000    2.429    0.000    2.571    2.000    4.571 
#    0.000    8.571    0.000    2.571    0.000    0.000 
#    0.000    0.000    0.000    0.000    0.000    0.000 
#
# Total GULP energy -312279.122455 kJ/mol
# GULP energy per Si atom -5576.412901 kJ/mol
# Density = 1.890363 g / cm^3
# Si number density = 18.946752 Si / 1000 Ang^3
#
#
#
# Elastic Constant Matrix: (Units=GPa)
#
#
# Indices 1 2 3 4 5 6 
#
# 1 119.8888 63.1492 54.7017 0.0000 0.0000 0.0000
# 2 63.1492 78.3873 36.9202 0.0000 0.0000 0.0000
# 3 54.7017 36.9202 77.7220 0.0000 0.0000 0.0000
# 4 0.0000 0.0000 0.0000 27.7535 0.0000 0.0000
# 5 0.0000 0.0000 0.0000 0.0000 -3.0413 0.0000
# 6 0.0000 0.0000 0.0000 0.0000 0.0000 43.5495
#
#
#
# Elastic Compliance Matrix: (Units=1/GPa)
#
#
# Indices 1 2 3 4 5 6 
#
# 1 0.017039 -0.010406 -0.007049 0.000000 0.000000 0.000000
# 2 -0.010406 0.022790 -0.003502 0.000000 0.000000 0.000000
# 3 -0.007049 -0.003502 0.019491 0.000000 0.000000 0.000000
# 4 0.000000 0.000000 0.000000 0.036032 0.000000 0.000000
# 5 0.000000 0.000000 0.000000 0.000000 -0.328806 0.000000
# 6 0.000000 0.000000 0.000000 0.000000 0.000000 0.022962
#
#
# Mechanical properties :
#
#
# Convention : Reuss Voigt Hill
#
# Bulk Modulus (GPa) = 57.45244 65.06004 61.25624
# Shear Modulus (GPa) = -30.71673 21.73414 -4.49130
#
# Velocity S-wave (km/s) = -4.03080 3.39059 -1.54131
# Velocity P-wave (km/s) = 2.95395 7.05273 5.40679
#
# Compressibility (1/GPa) = 0.01740570
#
# Stress axis : x y z
#
# Youngs Moduli (GPa) = 58.69052 43.87897 51.30670
#
# Poissons Ratio (x) = 0.45663 0.36164
# Poissons Ratio (y) = 0.61076 0.17966
# Poissons Ratio (z) = 0.41368 0.15365
#
# Static dielectric constant tensor:
#      x y z
#    x 1.629190 0.000000 0.000000 
#    y 0.000000 1.661710 0.000000 
#    z 0.000000 0.000000 1.819480 
# 
# From -- ./inp_files/14411.got.cif
#   From: 2010.05.17/outbox.cif.g08.bks.cpg/sg49_8_cif.got.tgz:14411.got - 2010.06.03 21:02:19.
