data_PCOD9394882
_publ_section_title
;
Structure prediction by ZEFSAII (Michael W. Deem and Ramdas Pophale) SiO2 
 PCOD9394882
Probable space group: P C C M
;
_chemical_formula_sum "Si O2"
_cell_formula_units_Z 26
_cell_length_a 6.738727
_cell_length_b 7.025172
_cell_length_c 23.048583
_cell_angle_alpha 90.000000
_cell_angle_beta 90.000000
_cell_angle_gamma 90.000000
_cell_volume 1091.136427
_symmetry_space_group_name_H-M "P C C M"
_symmetry_group_IT_number 49
_symmetry_cell_setting 'orthorhombic'
loop_
_space_group_symop_operation_xyz
x,y,z
-x,-y,z
x,-y,1/2-z
-x,y,1/2-z
-x,-y,-z
x,y,-z
-x,y,1/2+z
x,-y,1/2+z
loop_
_atom_site_type_symbol
_atom_site_label
_atom_site_fract_x
_atom_site_fract_y
_atom_site_fract_z
Si Si1 0.177237 0.724731 0.500000
Si Si2 0.500000 0.000000 0.750000
Si Si3 0.297825 0.429724 0.400801
Si Si4 0.122511 0.815025 0.807413
Si Si5 0.716688 0.148901 0.000000
O O1 0.220293 0.593520 0.444080
O O2 0.949868 0.790269 0.500000
O O3 0.296207 0.922750 0.500000
O O4 0.344242 0.879194 0.788468
O O5 0.500000 0.500000 0.371267
O O6 0.146759 0.345056 0.354923
O O7 0.358586 0.254622 0.442774
O O8 0.000000 0.757238 0.750000
O O9 0.000000 0.000000 0.830067
#
# Coordination Sequence:
#
# PCOD9394882 Si02
#       5
#     4   2   8   8   4
#     4  10  23  44  70 102 141 184 239 281 359 430
#     4   8  18  44  70 100 136 186 242 284 354 428
#     4  11  23  41  71 110 138 179 238 294 352 427
#     4   9  21  44  74 104 143 194 240 293 362 425
#     4  10  23  44  69  99 141 190 228 290 351 427
#
# _framework density 23.828368999999999
#
# number of rings (size 3 to 8) (size 9 to 14) (size 15 to 20)
#    0.000    2.462    0.000    3.692    4.308    4.923 
#   16.615    0.769    0.000    1.846    0.000    0.000 
#    0.000    0.000    0.000    0.000    0.000    0.000 
#
# Total GULP energy -145506.368505 kJ/mol
# GULP energy per Si atom -5596.398789 kJ/mol
# Density = 2.377413 g / cm^3
# Si number density = 23.828369 Si / 1000 Ang^3
#
#
#
# Elastic Constant Matrix: (Units=GPa)
#
#
# Indices 1 2 3 4 5 6 
#
# 1 150.5422 72.3100 61.1571 0.0000 0.0000 0.0000
# 2 72.3100 198.7673 94.4156 0.0000 0.0000 0.0000
# 3 61.1571 94.4156 115.9661 0.0000 0.0000 0.0000
# 4 0.0000 0.0000 0.0000 25.4255 0.0000 0.0000
# 5 0.0000 0.0000 0.0000 0.0000 9.8862 0.0000
# 6 0.0000 0.0000 0.0000 0.0000 0.0000 41.2720
#
#
#
# Elastic Compliance Matrix: (Units=1/GPa)
#
#
# Indices 1 2 3 4 5 6 
#
# 1 0.008762 -0.001619 -0.003303 0.000000 0.000000 0.000000
# 2 -0.001619 0.008503 -0.006069 0.000000 0.000000 0.000000
# 3 -0.003303 -0.006069 0.015306 0.000000 0.000000 0.000000
# 4 0.000000 0.000000 0.000000 0.039331 0.000000 0.000000
# 5 0.000000 0.000000 0.000000 0.000000 0.101151 0.000000
# 6 0.000000 0.000000 0.000000 0.000000 0.000000 0.024229
#
#
# Mechanical properties :
#
#
# Convention : Reuss Voigt Hill
#
# Bulk Modulus (GPa) = 94.43092 102.33789 98.38441
# Shear Modulus (GPa) = 22.44235 31.14293 26.79264
#
# Velocity S-wave (km/s) = 3.07226 3.61912 3.35685
# Velocity P-wave (km/s) = 7.23192 7.77851 7.51019
#
# Compressibility (1/GPa) = 0.01058975
#
# Stress axis : x y z
#
# Youngs Moduli (GPa) = 114.13008 117.61071 65.33284
#
# Poissons Ratio (x) = 0.19036 0.21579
# Poissons Ratio (y) = 0.18473 0.39650
# Poissons Ratio (z) = 0.37697 0.71377
#
# Static dielectric constant tensor:
#      x y z
#    x 1.999790 0.000000 0.000000 
#    y 0.000000 1.897190 0.000000 
#    z 0.000000 0.000000 1.887100 
# 
# From -- ./inp_files/21478.got.cif
#   From: 2010.05.17/outbox.cif.g08.bks.cpg/sg49_11_cif.got.tgz:21478.got - 2010.06.03 21:02:19.
