data_PCOD9394330
_publ_section_title
;
Structure prediction by ZEFSAII (Michael W. Deem and Ramdas Pophale) SiO2 
 PCOD9394330
Probable space group: P C C M
;
_chemical_formula_sum "Si O2"
_cell_formula_units_Z 60
_cell_length_a 5.211871
_cell_length_b 22.878818
_cell_length_c 25.643094
_cell_angle_alpha 90.000000
_cell_angle_beta 90.000000
_cell_angle_gamma 90.000000
_cell_volume 3057.719661
_symmetry_space_group_name_H-M "P C C M"
_symmetry_group_IT_number 49
_symmetry_cell_setting 'orthorhombic'
loop_
_space_group_symop_operation_xyz
x,y,z
-x,-y,z
x,-y,1/2-z
-x,y,1/2-z
-x,-y,-z
x,y,-z
-x,y,1/2+z
x,-y,1/2+z
loop_
_atom_site_type_symbol
_atom_site_label
_atom_site_fract_x
_atom_site_fract_y
_atom_site_fract_z
Si Si1 0.042496 0.605060 0.937872
Si Si2 0.382958 0.913525 0.441390
Si Si3 0.472657 0.679542 0.311985
Si Si4 0.500000 0.000000 0.356531
Si Si5 0.552183 0.565342 0.877905
Si Si6 0.020766 0.280267 0.627866
Si Si7 0.102567 0.933698 0.806459
Si Si8 0.094160 0.147927 0.402895
O O1 0.314468 0.584546 0.914557
O O2 0.996966 0.671437 0.917787
O O3 0.812507 0.568600 0.911505
O O4 0.038233 0.600797 0.000000
O O5 0.420008 0.935149 0.500000
O O6 0.637280 0.878312 0.423525
O O7 0.137440 0.872092 0.439311
O O8 0.331642 0.965156 0.399621
O O9 0.500000 0.683443 0.250000
O O10 0.428542 0.613075 0.331925
O O11 0.738181 0.700766 0.337109
O O12 0.236813 0.716044 0.337076
O O13 0.399120 0.050766 0.318179
O O14 0.500000 0.500000 0.858896
O O15 0.081863 0.216784 0.605267
O O16 0.039786 0.883974 0.847613
O O17 0.000000 0.917592 0.750000
O O18 0.000000 0.000000 0.816132
#
# Coordination Sequence:
#
# PCOD9394330 Si02
#       8
#     8   8   8   4   8   8   8   8
#     4  10  21  36  56  83 116 159 196 237 292 339
#     4  11  23  39  62  87 114 150 190 233 290 348
#     4  10  21  39  62  86 115 157 194 239 292 340
#     4  10  21  41  58  82 120 148 186 236 286 352
#     4  10  21  36  56  87 121 152 195 241 285 343
#     4  10  22  40  60  84 119 151 197 246 287 342
#     4  10  21  38  58  84 114 153 188 234 296 354
#     4  11  23  42  60  89 118 150 195 245 290 347
#
# _framework density 19.622465999999999
#
# number of rings (size 3 to 8) (size 9 to 14) (size 15 to 20)
#    0.000    1.733    1.333    2.600    0.000    5.067 
#    0.000    2.000    0.000    4.800    0.000    0.000 
#    0.000    0.000    0.000    0.000    0.000    0.000 
#
# Total GULP energy -334660.725661 kJ/mol
# GULP energy per Si atom -5577.678761 kJ/mol
# Density = 1.957780 g / cm^3
# Si number density = 19.622466 Si / 1000 Ang^3
#
#
#
# Elastic Constant Matrix: (Units=GPa)
#
#
# Indices 1 2 3 4 5 6 
#
# 1 83.4608 -11.2768 20.0695 0.0000 0.0000 0.0000
# 2 -11.2768 59.9209 -1.0795 0.0000 0.0000 0.0000
# 3 20.0695 -1.0795 95.5523 0.0000 0.0000 0.0000
# 4 0.0000 0.0000 0.0000 6.3575 0.0000 0.0000
# 5 0.0000 0.0000 0.0000 0.0000 21.6645 0.0000
# 6 0.0000 0.0000 0.0000 0.0000 0.0000 14.4092
#
#
#
# Elastic Compliance Matrix: (Units=1/GPa)
#
#
# Indices 1 2 3 4 5 6 
#
# 1 0.012952 0.002389 -0.002693 0.000000 0.000000 0.000000
# 2 0.002389 0.017133 -0.000308 0.000000 0.000000 0.000000
# 3 -0.002693 -0.000308 0.011028 0.000000 0.000000 0.000000
# 4 0.000000 0.000000 0.000000 0.157293 0.000000 0.000000
# 5 0.000000 0.000000 0.000000 0.000000 0.046159 0.000000
# 6 0.000000 0.000000 0.000000 0.000000 0.000000 0.069400
#
#
# Mechanical properties :
#
#
# Convention : Reuss Voigt Hill
#
# Bulk Modulus (GPa) = 25.07066 28.26226 26.66646
# Shear Modulus (GPa) = 15.22135 23.90096 19.56115
#
# Velocity S-wave (km/s) = 2.78818 3.49383 3.16076
# Velocity P-wave (km/s) = 4.81347 5.54167 5.19036
#
# Compressibility (1/GPa) = 0.03988726
#
# Stress axis : x y z
#
# Youngs Moduli (GPa) = 77.20727 58.36788 90.68068
#
# Poissons Ratio (x) = -0.13944 0.24424
# Poissons Ratio (y) = -0.18445 0.02795
# Poissons Ratio (z) = 0.20795 0.01799
#
# Static dielectric constant tensor:
#      x y z
#    x 1.893900 0.000000 0.000000 
#    y 0.000000 1.684990 0.000000 
#    z 0.000000 0.000000 1.627890 
# 
# From -- ./inp_files/21920.got.cif
#   From: 2010.05.17/outbox.cif.g08.bks.cpg/sg49_11_cif.got.tgz:21920.got - 2010.06.03 21:02:19.
