data_PCOD9394021
_publ_section_title
;
Structure prediction by ZEFSAII (Michael W. Deem and Ramdas Pophale) SiO2 
 PCOD9394021
Probable space group: P C C M
;
_chemical_formula_sum "Si O2"
_cell_formula_units_Z 56
_cell_length_a 22.247437
_cell_length_b 14.164120
_cell_length_c 8.979831
_cell_angle_alpha 90.000000
_cell_angle_beta 90.000000
_cell_angle_gamma 90.000000
_cell_volume 2829.682744
_symmetry_space_group_name_H-M "P C C M"
_symmetry_group_IT_number 49
_symmetry_cell_setting 'orthorhombic'
loop_
_space_group_symop_operation_xyz
x,y,z
-x,-y,z
x,-y,1/2-z
-x,y,1/2-z
-x,-y,-z
x,y,-z
-x,y,1/2+z
x,-y,1/2+z
loop_
_atom_site_type_symbol
_atom_site_label
_atom_site_fract_x
_atom_site_fract_y
_atom_site_fract_z
Si Si1 0.562661 0.361871 0.330653
Si Si2 0.561013 0.868508 0.170376
Si Si3 0.686141 0.353372 0.168527
Si Si4 0.185905 0.298457 0.679318
Si Si5 0.799388 0.095454 0.674711
Si Si6 0.059418 0.603186 0.822129
Si Si7 0.679728 0.125262 0.166860
O O1 0.500000 0.389054 0.250000
O O2 0.561562 0.396469 0.500000
O O3 0.562388 0.246795 0.333889
O O4 0.626682 0.387710 0.254887
O O5 0.500000 0.895280 0.250000
O O6 0.614769 0.900193 0.275340
O O7 0.566000 0.900938 0.000000
O O8 0.754831 0.358353 0.230781
O O9 0.680052 0.239385 0.160383
O O10 0.684777 0.391760 0.000000
O O11 0.193258 0.288495 0.500000
O O12 0.182298 0.194421 0.750273
O O13 0.122701 0.347573 0.709619
O O14 0.810932 0.095812 0.500000
O O15 0.728382 0.095771 0.711924
O O16 0.824477 0.000000 0.750000
O O17 0.062990 0.500000 0.750000
O O18 0.000000 0.649789 0.750000
O O19 0.051736 0.597212 0.000000
O O20 0.694428 0.091376 0.000000
#
# Coordination Sequence:
#
# PCOD9394021 Si02
#       7
#     8   8   8   8   8   8   8
#     4   9  15  21  31  50  79 116 159 207 259 313
#     4   9  15  22  33  51  74 105 149 202 262 323
#     4   8  14  25  40  59  87 123 164 211 263 313
#     4   9  19  35  54  78 110 147 184 226 274 322
#     4  11  21  33  51  74 101 135 177 224 271 320
#     4  10  20  36  60  90 124 157 188 220 259 313
#     4   9  16  27  41  58  83 116 158 210 265 319
#
# _framework density 19.790205
#
# number of rings (size 3 to 8) (size 9 to 14) (size 15 to 20)
#    0.000    2.714    0.000    4.286    0.000    8.000 
#    0.000    0.000    0.000    0.857    0.000    6.000 
#    0.000    0.571    0.000    6.571    0.000    7.000 
#
# Total GULP energy -312314.192476 kJ/mol
# GULP energy per Si atom -5577.039151 kJ/mol
# Density = 1.974516 g / cm^3
# Si number density = 19.790205 Si / 1000 Ang^3
#
#
#
# Elastic Constant Matrix: (Units=GPa)
#
#
# Indices 1 2 3 4 5 6 
#
# 1 175.0004 34.5102 60.2623 0.0000 0.0000 0.0000
# 2 34.5102 50.7538 15.9165 0.0000 0.0000 0.0000
# 3 60.2623 15.9165 82.4596 0.0000 0.0000 0.0000
# 4 0.0000 0.0000 0.0000 3.2277 0.0000 0.0000
# 5 0.0000 0.0000 0.0000 0.0000 22.9472 0.0000
# 6 0.0000 0.0000 0.0000 0.0000 0.0000 -10.8994
#
#
#
# Elastic Compliance Matrix: (Units=1/GPa)
#
#
# Indices 1 2 3 4 5 6 
#
# 1 0.008335 -0.003999 -0.005319 0.000000 0.000000 0.000000
# 2 -0.003999 0.022891 -0.001496 0.000000 0.000000 0.000000
# 3 -0.005319 -0.001496 0.016303 0.000000 0.000000 0.000000
# 4 0.000000 0.000000 0.000000 0.309818 0.000000 0.000000
# 5 0.000000 0.000000 0.000000 0.000000 0.043578 0.000000
# 6 0.000000 0.000000 0.000000 0.000000 0.000000 -0.091748
#
#
# Mechanical properties :
#
#
# Convention : Reuss Voigt Hill
#
# Bulk Modulus (GPa) = 38.60888 58.84352 48.72620
# Shear Modulus (GPa) = 14.73019 16.22342 15.47681
#
# Velocity S-wave (km/s) = 2.73118 2.86627 2.79954
# Velocity P-wave (km/s) = 5.43113 6.38375 5.92661
#
# Compressibility (1/GPa) = 0.02590078
#
# Stress axis : x y z
#
# Youngs Moduli (GPa) = 119.98283 43.68485 61.33794
#
# Poissons Ratio (x) = 0.17470 0.32626
# Poissons Ratio (y) = 0.47981 0.09176
# Poissons Ratio (z) = 0.63820 0.06535
#
# Static dielectric constant tensor:
#      x y z
#    x 1.765390 0.000000 0.000000 
#    y 0.000000 1.758740 0.000000 
#    z 0.000000 0.000000 1.679760 
# 
# From -- ./inp_files/5886.got.cif
#   From: 2010.05.17/outbox.cif.g08.bks.cpg/sg49_3_cif.got.tgz:5886.got - 2010.06.03 21:02:19.
