data_PCOD9394830
_publ_section_title
;
Structure prediction by ZEFSAII (Michael W. Deem and Ramdas Pophale) SiO2 
 PCOD9394830
Probable space group: P C C M
;
_chemical_formula_sum "Si O2"
_cell_formula_units_Z 30
_cell_length_a 5.433037
_cell_length_b 10.914436
_cell_length_c 23.194914
_cell_angle_alpha 90.000000
_cell_angle_beta 90.000000
_cell_angle_gamma 90.000000
_cell_volume 1375.424411
_symmetry_space_group_name_H-M "P C C M"
_symmetry_group_IT_number 49
_symmetry_cell_setting 'orthorhombic'
loop_
_space_group_symop_operation_xyz
x,y,z
-x,-y,z
x,-y,1/2-z
-x,y,1/2-z
-x,-y,-z
x,y,-z
-x,y,1/2+z
x,-y,1/2+z
loop_
_atom_site_type_symbol
_atom_site_label
_atom_site_fract_x
_atom_site_fract_y
_atom_site_fract_z
Si Si1 0.309414 0.392392 0.500000
Si Si2 0.128552 0.315782 0.308912
Si Si3 0.000000 0.500000 0.604131
Si Si4 0.760562 0.927265 0.627925
Si Si5 0.500000 0.500000 0.250000
Si Si6 0.317930 0.115695 0.500000
O O1 0.500000 0.500000 0.500000
O O2 0.163263 0.422305 0.441260
O O3 0.417881 0.255372 0.500000
O O4 0.940153 0.388497 0.351353
O O5 0.251905 0.200774 0.339287
O O6 0.331162 0.414450 0.289774
O O7 0.000000 0.275932 0.250000
O O8 0.817492 0.896782 0.560754
O O9 0.500000 0.000000 0.631742
O O10 0.000000 0.000000 0.650181
O O11 0.500000 0.000000 0.500000
#
# Coordination Sequence:
#
# PCOD9394830 Si02
#       6
#     4   8   4   8   2   4
#     4  11  25  41  73 107 145 186 240 312 372 448
#     4  12  26  46  72 103 144 193 244 304 366 439
#     4  11  23  44  64 106 143 177 244 296 376 429
#     4  11  27  49  75 107 147 194 247 305 366 446
#     4  12  26  44  74 104 140 192 250 294 368 436
#     4  10  22  45  71 109 143 200 246 299 381 447
#
# _framework density 21.811449
#
# number of rings (size 3 to 8) (size 9 to 14) (size 15 to 20)
#    0.000    0.800    5.333    0.400    5.600    4.800 
#    0.000    0.000    0.000    0.000    0.000    0.000 
#    0.000    0.000    0.000    0.000    0.000    0.000 
#
# Total GULP energy -167191.398071 kJ/mol
# GULP energy per Si atom -5573.046602 kJ/mol
# Density = 2.176180 g / cm^3
# Si number density = 21.811449 Si / 1000 Ang^3
#
#
#
# Elastic Constant Matrix: (Units=GPa)
#
#
# Indices 1 2 3 4 5 6 
#
# 1 68.7937 54.1816 29.1560 0.0000 0.0000 0.0000
# 2 54.1816 196.2475 64.1655 0.0000 0.0000 0.0000
# 3 29.1560 64.1655 144.9561 0.0000 0.0000 0.0000
# 4 0.0000 0.0000 0.0000 40.8303 0.0000 0.0000
# 5 0.0000 0.0000 0.0000 0.0000 1.0370 0.0000
# 6 0.0000 0.0000 0.0000 0.0000 0.0000 36.2582
#
#
#
# Elastic Compliance Matrix: (Units=1/GPa)
#
#
# Indices 1 2 3 4 5 6 
#
# 1 0.018947 -0.004659 -0.001748 0.000000 0.000000 0.000000
# 2 -0.004659 0.007104 -0.002207 0.000000 0.000000 0.000000
# 3 -0.001748 -0.002207 0.008227 0.000000 0.000000 0.000000
# 4 0.000000 0.000000 0.000000 0.024492 0.000000 0.000000
# 5 0.000000 0.000000 0.000000 0.000000 0.964295 0.000000
# 6 0.000000 0.000000 0.000000 0.000000 0.000000 0.027580
#
#
# Mechanical properties :
#
#
# Convention : Reuss Voigt Hill
#
# Bulk Modulus (GPa) = 58.65856 78.33369 68.49613
# Shear Modulus (GPa) = 4.65741 33.12472 18.89106
#
# Velocity S-wave (km/s) = 1.46285 3.90126 2.94616
# Velocity P-wave (km/s) = 5.45941 7.50234 6.56088
#
# Compressibility (1/GPa) = 0.01704781
#
# Stress axis : x y z
#
# Youngs Moduli (GPa) = 52.77908 140.77157 121.54508
#
# Poissons Ratio (x) = 0.65590 0.21251
# Poissons Ratio (y) = 0.24592 0.26829
# Poissons Ratio (z) = 0.09228 0.31073
#
# Static dielectric constant tensor:
#      x y z
#    x 1.844690 0.000000 0.000000 
#    y 0.000000 1.769430 0.000000 
#    z 0.000000 0.000000 1.710810 
# 
# From -- ./inp_files/18765.got.cif
#   From: 2010.05.17/outbox.cif.g08.bks.cpg/sg49_10_cif.got.tgz:18765.got - 2010.06.03 21:02:19.
