data_PCOD9394793
_publ_section_title
;
Structure prediction by ZEFSAII (Michael W. Deem and Ramdas Pophale) SiO2 
 PCOD9394793
Probable space group: P C C M
;
_chemical_formula_sum "Si O2"
_cell_formula_units_Z 30
_cell_length_a 13.607287
_cell_length_b 5.245292
_cell_length_c 19.045690
_cell_angle_alpha 90.000000
_cell_angle_beta 90.000000
_cell_angle_gamma 90.000000
_cell_volume 1359.370766
_symmetry_space_group_name_H-M "P C C M"
_symmetry_group_IT_number 49
_symmetry_cell_setting 'orthorhombic'
loop_
_space_group_symop_operation_xyz
x,y,z
-x,-y,z
x,-y,1/2-z
-x,y,1/2-z
-x,-y,-z
x,y,-z
-x,y,1/2+z
x,-y,1/2+z
loop_
_atom_site_type_symbol
_atom_site_label
_atom_site_fract_x
_atom_site_fract_y
_atom_site_fract_z
Si Si1 0.604944 0.137440 0.146764
Si Si2 0.500000 0.500000 0.250000
Si Si3 0.184575 0.038012 0.831480
Si Si4 0.882434 0.464389 0.082610
Si Si5 0.567886 0.746282 0.500000
O O1 0.575082 0.346551 0.202067
O O2 0.696686 0.972161 0.168994
O O3 0.629182 0.252047 0.070863
O O4 0.500000 0.000000 0.140136
O O5 0.145842 0.800059 0.878411
O O6 0.151446 0.000000 0.750000
O O7 0.156336 0.300287 0.870064
O O8 0.000000 0.500000 0.081661
O O9 0.850149 0.471298 0.000000
O O10 0.500000 0.500000 0.500000
O O11 0.500000 0.000000 0.500000
#
# Coordination Sequence:
#
# PCOD9394793 Si02
#       5
#     8   2   8   8   4
#     4  11  26  43  66 100 145 191 237 285 349 419
#     4  12  22  42  68  90 154 198 234 288 346 418
#     4  12  27  45  75 110 146 190 240 298 364 432
#     4  11  27  51  77 106 142 186 239 302 372 440
#     4  10  22  42  62  92 129 182 243 288 330 400
#
# _framework density 22.069037000000002
#
# number of rings (size 3 to 8) (size 9 to 14) (size 15 to 20)
#    0.000    0.800    1.333    4.400   11.200    5.333 
#    0.000    0.000    0.000    0.000    0.000    0.000 
#    0.000    0.000    0.000    0.000    0.000    0.000 
#
# Total GULP energy -167651.050783 kJ/mol
# GULP energy per Si atom -5588.368359 kJ/mol
# Density = 2.201881 g / cm^3
# Si number density = 22.069037 Si / 1000 Ang^3
#
#
#
# Elastic Constant Matrix: (Units=GPa)
#
#
# Indices 1 2 3 4 5 6 
#
# 1 87.8534 12.9666 20.1571 0.0000 0.0000 0.0000
# 2 12.9666 122.5113 56.4814 0.0000 0.0000 0.0000
# 3 20.1571 56.4814 213.1868 0.0000 0.0000 0.0000
# 4 0.0000 0.0000 0.0000 73.9228 0.0000 0.0000
# 5 0.0000 0.0000 0.0000 0.0000 6.5706 0.0000
# 6 0.0000 0.0000 0.0000 0.0000 0.0000 42.7249
#
#
#
# Elastic Compliance Matrix: (Units=1/GPa)
#
#
# Indices 1 2 3 4 5 6 
#
# 1 0.011709 -0.000830 -0.000887 0.000000 0.000000 0.000000
# 2 -0.000830 0.009357 -0.002401 0.000000 0.000000 0.000000
# 3 -0.000887 -0.002401 0.005411 0.000000 0.000000 0.000000
# 4 0.000000 0.000000 0.000000 0.013528 0.000000 0.000000
# 5 0.000000 0.000000 0.000000 0.000000 0.152194 0.000000
# 6 0.000000 0.000000 0.000000 0.000000 0.000000 0.023406
#
#
# Mechanical properties :
#
#
# Convention : Reuss Voigt Hill
#
# Bulk Modulus (GPa) = 54.82294 66.97353 60.89823
# Shear Modulus (GPa) = 21.74673 46.90674 34.32673
#
# Velocity S-wave (km/s) = 3.14251 4.61527 3.94817
# Velocity P-wave (km/s) = 6.16949 7.66903 6.95977
#
# Compressibility (1/GPa) = 0.01824054
#
# Stress axis : x y z
#
# Youngs Moduli (GPa) = 85.40673 106.87054 184.82238
#
# Poissons Ratio (x) = 0.08873 0.16396
# Poissons Ratio (y) = 0.07091 0.44368
# Poissons Ratio (z) = 0.07576 0.25655
#
# Static dielectric constant tensor:
#      x y z
#    x 2.042710 0.000000 0.000000 
#    y 0.000000 1.787860 0.000000 
#    z 0.000000 0.000000 1.895320 
# 
# From -- ./inp_files/17464.got.cif
#   From: 2010.05.17/outbox.cif.g08.bks.cpg/sg49_9_cif.got.tgz:17464.got - 2010.06.03 21:02:19.
