data_PCOD9394597
_publ_section_title
;
Structure prediction by ZEFSAII (Michael W. Deem and Ramdas Pophale) SiO2 
 PCOD9394597
Probable space group: P C C M
;
_chemical_formula_sum "Si O2"
_cell_formula_units_Z 54
_cell_length_a 5.655734
_cell_length_b 23.424303
_cell_length_c 19.353738
_cell_angle_alpha 90.000000
_cell_angle_beta 90.000000
_cell_angle_gamma 90.000000
_cell_volume 2564.014697
_symmetry_space_group_name_H-M "P C C M"
_symmetry_group_IT_number 49
_symmetry_cell_setting 'orthorhombic'
loop_
_space_group_symop_operation_xyz
x,y,z
-x,-y,z
x,-y,1/2-z
-x,y,1/2-z
-x,-y,-z
x,y,-z
-x,y,1/2+z
x,-y,1/2+z
loop_
_atom_site_type_symbol
_atom_site_label
_atom_site_fract_x
_atom_site_fract_y
_atom_site_fract_z
Si Si1 0.574281 0.111462 0.580309
Si Si2 0.365434 0.410629 0.355541
Si Si3 0.390944 0.763662 0.074526
Si Si4 0.066317 0.066517 0.582168
Si Si5 0.500000 0.500000 0.250000
Si Si6 0.120136 0.703628 0.177800
Si Si7 0.264524 0.344944 0.077473
Si Si8 0.755112 0.535531 0.500000
O O1 0.586044 0.090888 0.500000
O O2 0.544299 0.179599 0.578836
O O3 0.831048 0.097220 0.611371
O O4 0.328459 0.084103 0.608993
O O5 0.348420 0.460780 0.300982
O O6 0.281082 0.352941 0.317985
O O7 0.634636 0.397334 0.378498
O O8 0.249338 0.426966 0.429258
O O9 0.245595 0.757952 0.144544
O O10 0.535597 0.704441 0.072547
O O11 0.259219 0.767177 0.000000
O O12 0.080348 0.080910 0.500000
O O13 0.000000 0.000000 0.588478
O O14 0.000000 0.715095 0.250000
O O15 0.941266 0.684683 0.118378
O O16 0.205057 0.362525 0.000000
O O17 0.500000 0.500000 0.500000
O O18 0.000000 0.500000 0.500000
#
# Coordination Sequence:
#
# PCOD9394597 Si02
#       8
#     8   8   8   8   2   8   8   4
#     4   9  17  28  47  74 114 159 210 256 303 364
#     4  11  25  42  64  92 122 161 204 257 309 381
#     4   9  20  36  55  86 115 159 211 259 316 374
#     4   9  16  26  43  72 114 165 209 251 306 366
#     4  12  24  46  66  88 138 158 210 248 316 374
#     4  11  24  39  61  89 120 161 201 257 323 384
#     4  10  21  39  65  86 117 154 204 250 312 378
#     4  12  28  46  70 100 126 162 208 260 307 370
#
# _framework density 21.060721999999998
#
# number of rings (size 3 to 8) (size 9 to 14) (size 15 to 20)
#    0.000    1.926    1.481    1.778    6.222    4.741 
#    0.000    0.741    0.000    0.000    0.000    0.000 
#    0.000    0.593    0.889    0.000    0.296    0.000 
#
# Total GULP energy -301032.467443 kJ/mol
# GULP energy per Si atom -5574.675323 kJ/mol
# Density = 2.101279 g / cm^3
# Si number density = 21.060722 Si / 1000 Ang^3
#
#
#
# Elastic Constant Matrix: (Units=GPa)
#
#
# Indices 1 2 3 4 5 6 
#
# 1 63.9400 9.7977 11.6511 0.0000 0.0000 0.0000
# 2 9.7977 45.9233 16.9165 0.0000 0.0000 0.0000
# 3 11.6511 16.9165 83.8708 0.0000 0.0000 0.0000
# 4 0.0000 0.0000 0.0000 -19.4867 0.0000 0.0000
# 5 0.0000 0.0000 0.0000 0.0000 45.4377 0.0000
# 6 0.0000 0.0000 0.0000 0.0000 0.0000 23.0313
#
#
#
# Elastic Compliance Matrix: (Units=1/GPa)
#
#
# Indices 1 2 3 4 5 6 
#
# 1 0.016389 -0.002871 -0.001698 0.000000 0.000000 0.000000
# 2 -0.002871 0.024026 -0.004447 0.000000 0.000000 0.000000
# 3 -0.001698 -0.004447 0.013056 0.000000 0.000000 0.000000
# 4 0.000000 0.000000 0.000000 -0.051317 0.000000 0.000000
# 5 0.000000 0.000000 0.000000 0.000000 0.022008 0.000000
# 6 0.000000 0.000000 0.000000 0.000000 0.000000 0.043419
#
#
# Mechanical properties :
#
#
# Convention : Reuss Voigt Hill
#
# Bulk Modulus (GPa) = 28.21744 30.05165 29.13454
# Shear Modulus (GPa) = 51.32093 20.15440 35.73767
#
# Velocity S-wave (km/s) = 4.94176 3.09684 4.12380
# Velocity P-wave (km/s) = 6.78148 5.20454 6.04466
#
# Compressibility (1/GPa) = 0.03543908
#
# Stress axis : x y z
#
# Youngs Moduli (GPa) = 61.01667 41.62127 76.59376
#
# Poissons Ratio (x) = 0.11951 0.13002
# Poissons Ratio (y) = 0.17519 0.34062
# Poissons Ratio (z) = 0.10358 0.18510
#
# Static dielectric constant tensor:
#      x y z
#    x 1.863210 0.000000 0.000000 
#    y 0.000000 1.786100 0.000000 
#    z 0.000000 0.000000 1.742390 
# 
# From -- ./inp_files/19073.got.cif
#   From: 2010.05.17/outbox.cif.g08.bks.cpg/sg49_10_cif.got.tgz:19073.got - 2010.06.03 21:02:19.
