data_PCOD9394705
_publ_section_title
;
Structure prediction by ZEFSAII (Michael W. Deem and Ramdas Pophale) SiO2 
 PCOD9394705
Probable space group: P C C M
;
_chemical_formula_sum "Si O2"
_cell_formula_units_Z 48
_cell_length_a 8.804625
_cell_length_b 15.150360
_cell_length_c 16.138868
_cell_angle_alpha 90.000000
_cell_angle_beta 90.000000
_cell_angle_gamma 90.000000
_cell_volume 2152.815867
_symmetry_space_group_name_H-M "P C C M"
_symmetry_group_IT_number 49
_symmetry_cell_setting 'orthorhombic'
loop_
_space_group_symop_operation_xyz
x,y,z
-x,-y,z
x,-y,1/2-z
-x,y,1/2-z
-x,-y,-z
x,y,-z
-x,y,1/2+z
x,-y,1/2+z
loop_
_atom_site_type_symbol
_atom_site_label
_atom_site_fract_x
_atom_site_fract_y
_atom_site_fract_z
Si Si1 0.165669 0.631217 0.283049
Si Si2 0.599552 0.726342 0.671783
Si Si3 0.157910 0.804267 0.399301
Si Si4 0.175183 0.134874 0.405222
Si Si5 0.613074 0.581937 0.092084
Si Si6 0.669690 0.971649 0.153780
O O1 0.271741 0.660899 0.207358
O O2 0.159740 0.713715 0.347843
O O3 0.259976 0.563421 0.338747
O O4 0.000000 0.608652 0.250000
O O5 0.500000 0.755421 0.750000
O O6 0.691843 0.808702 0.637000
O O7 0.486799 0.669243 0.614187
O O8 0.168618 0.795141 0.500000
O O9 0.287178 0.871323 0.366818
O O10 0.994023 0.845176 0.375111
O O11 0.177386 0.162539 0.500000
O O12 0.213551 0.032771 0.395770
O O13 0.500000 0.500000 0.092296
O O14 0.678491 0.591877 0.000000
O O15 0.500000 0.000000 0.128715
O O16 0.686356 0.000000 0.250000
#
# Coordination Sequence:
#
# PCOD9394705 Si02
#       6
#     8   8   8   8   8   8
#     4  11  22  41  70 102 134 174 224 278 339 404
#     4  10  22  38  66  95 131 174 224 276 334 409
#     4  11  24  42  64  92 132 177 227 281 344 407
#     4  11  23  40  62  89 126 172 222 279 342 401
#     4  10  23  45  71 101 140 181 220 271 340 414
#     4  11  26  40  60  90 128 175 230 290 342 402
#
# _framework density 22.296379999999999
#
# number of rings (size 3 to 8) (size 9 to 14) (size 15 to 20)
#    0.000    1.333    1.667    3.000    7.000    6.333 
#    0.000    1.667    0.000    2.000    0.000    0.000 
#    0.000    0.000    0.000    0.000    0.000    0.000 
#
# Total GULP energy -268511.034484 kJ/mol
# GULP energy per Si atom -5593.979885 kJ/mol
# Density = 2.224563 g / cm^3
# Si number density = 22.296380 Si / 1000 Ang^3
#
#
#
# Elastic Constant Matrix: (Units=GPa)
#
#
# Indices 1 2 3 4 5 6 
#
# 1 119.7595 11.8649 17.5593 0.0000 0.0000 0.0000
# 2 11.8649 74.9487 13.7141 0.0000 0.0000 0.0000
# 3 17.5593 13.7141 55.7123 0.0000 0.0000 0.0000
# 4 0.0000 0.0000 0.0000 27.5554 0.0000 0.0000
# 5 0.0000 0.0000 0.0000 0.0000 25.9428 0.0000
# 6 0.0000 0.0000 0.0000 0.0000 0.0000 31.0197
#
#
#
# Elastic Compliance Matrix: (Units=1/GPa)
#
#
# Indices 1 2 3 4 5 6 
#
# 1 0.008816 -0.000929 -0.002550 0.000000 0.000000 0.000000
# 2 -0.000929 0.014070 -0.003171 0.000000 0.000000 0.000000
# 3 -0.002550 -0.003171 0.019533 0.000000 0.000000 0.000000
# 4 0.000000 0.000000 0.000000 0.036291 0.000000 0.000000
# 5 0.000000 0.000000 0.000000 0.000000 0.038546 0.000000
# 6 0.000000 0.000000 0.000000 0.000000 0.000000 0.032238
#
#
# Mechanical properties :
#
#
# Convention : Reuss Voigt Hill
#
# Bulk Modulus (GPa) = 34.34053 37.41080 35.87566
# Shear Modulus (GPa) = 28.98562 30.72239 29.85400
#
# Velocity S-wave (km/s) = 3.60948 3.71605 3.66315
# Velocity P-wave (km/s) = 5.72769 5.93526 5.83240
#
# Compressibility (1/GPa) = 0.02912011
#
# Stress axis : x y z
#
# Youngs Moduli (GPa) = 113.43033 71.07475 51.19414
#
# Poissons Ratio (x) = 0.06603 0.13054
# Poissons Ratio (y) = 0.10538 0.16231
# Poissons Ratio (z) = 0.28924 0.22535
#
# Static dielectric constant tensor:
#      x y z
#    x 1.839420 0.000000 0.000000 
#    y 0.000000 1.879330 0.000000 
#    z 0.000000 0.000000 1.820550 
# 
# From -- ./inp_files/16301.got.cif
#   From: 2010.05.17/outbox.cif.g08.bks.cpg/sg49_9_cif.got.tgz:16301.got - 2010.06.03 21:02:19.
