data_PCOD9394716
_publ_section_title
;
Structure prediction by ZEFSAII (Michael W. Deem and Ramdas Pophale) SiO2 
 PCOD9394716
Probable space group: P C C M
;
_chemical_formula_sum "Si O2"
_cell_formula_units_Z 32
_cell_length_a 17.432912
_cell_length_b 4.959411
_cell_length_c 18.112202
_cell_angle_alpha 90.000000
_cell_angle_beta 90.000000
_cell_angle_gamma 90.000000
_cell_volume 1565.926205
_symmetry_space_group_name_H-M "P C C M"
_symmetry_group_IT_number 49
_symmetry_cell_setting 'orthorhombic'
loop_
_space_group_symop_operation_xyz
x,y,z
-x,-y,z
x,-y,1/2-z
-x,y,1/2-z
-x,-y,-z
x,y,-z
-x,y,1/2+z
x,-y,1/2+z
loop_
_atom_site_type_symbol
_atom_site_label
_atom_site_fract_x
_atom_site_fract_y
_atom_site_fract_z
Si Si1 0.445984 0.258583 0.084401
Si Si2 0.909409 0.963438 0.913907
Si Si3 0.684827 0.265984 0.299654
Si Si4 0.848242 0.468177 0.166404
O O1 0.500000 0.500000 0.112266
O O2 0.372356 0.203296 0.134160
O O3 0.500000 0.000000 0.083251
O O4 0.422708 0.325022 0.000000
O O5 0.860203 0.166074 0.862713
O O6 0.891372 0.660115 0.890456
O O7 0.892006 0.011467 0.000000
O O8 0.000000 0.000000 0.902073
O O9 0.646835 0.500000 0.250000
O O10 0.762120 0.412360 0.328487
O O11 0.700803 0.000000 0.250000
O O12 0.879107 0.500000 0.250000
#
# Coordination Sequence:
#
# PCOD9394716 Si02
#       4
#     8   8   8   8
#     4  10  22  39  59  87 121 157 202 252 302 362
#     4  11  24  41  62  90 122 157 201 250 301 363
#     4  11  23  40  61  88 121 157 202 252 303 364
#     4  11  23  41  62  89 123 158 201 250 302 364
#
# _framework density 20.435189000000001
#
# number of rings (size 3 to 8) (size 9 to 14) (size 15 to 20)
#    0.000    1.250    0.000    6.750    0.000   10.000 
#    0.000    2.500    0.000    0.000    0.000    0.000 
#    0.000    0.000    0.000    0.000    0.000    0.000 
#
# Total GULP energy -178782.267704 kJ/mol
# GULP energy per Si atom -5586.945866 kJ/mol
# Density = 2.038868 g / cm^3
# Si number density = 20.435189 Si / 1000 Ang^3
#
#
#
# Elastic Constant Matrix: (Units=GPa)
#
#
# Indices 1 2 3 4 5 6 
#
# 1 60.6477 -4.3403 41.0814 0.0000 0.0000 0.0000
# 2 -4.3403 78.4530 -3.4248 0.0000 0.0000 0.0000
# 3 41.0814 -3.4248 79.8532 0.0000 0.0000 0.0000
# 4 0.0000 0.0000 0.0000 43.1713 0.0000 0.0000
# 5 0.0000 0.0000 0.0000 0.0000 29.8787 0.0000
# 6 0.0000 0.0000 0.0000 0.0000 0.0000 23.8686
#
#
#
# Elastic Compliance Matrix: (Units=1/GPa)
#
#
# Indices 1 2 3 4 5 6 
#
# 1 0.025363 0.000835 -0.013012 0.000000 0.000000 0.000000
# 2 0.000835 0.012798 0.000119 0.000000 0.000000 0.000000
# 3 -0.013012 0.000119 0.019222 0.000000 0.000000 0.000000
# 4 0.000000 0.000000 0.000000 0.023164 0.000000 0.000000
# 5 0.000000 0.000000 0.000000 0.000000 0.033469 0.000000
# 6 0.000000 0.000000 0.000000 0.000000 0.000000 0.041896
#
#
# Mechanical properties :
#
#
# Convention : Reuss Voigt Hill
#
# Bulk Modulus (GPa) = 30.05970 31.73182 30.89576
# Shear Modulus (GPa) = 26.16212 31.75956 28.96084
#
# Velocity S-wave (km/s) = 3.58194 3.94656 3.76866
# Velocity P-wave (km/s) = 5.64347 6.02734 5.83856
#
# Compressibility (1/GPa) = 0.03326713
#
# Stress axis : x y z
#
# Youngs Moduli (GPa) = 39.42808 78.13782 52.02263
#
# Poissons Ratio (x) = -0.06526 0.67693
# Poissons Ratio (y) = -0.03293 -0.00620
# Poissons Ratio (z) = 0.51305 -0.00932
#
# Static dielectric constant tensor:
#      x y z
#    x 1.713020 0.000000 0.000000 
#    y 0.000000 1.694210 0.000000 
#    z 0.000000 0.000000 1.742780 
# 
# From -- ./inp_files/10517.got.cif
#   From: 2010.05.17/outbox.cif.g08.bks.cpg/sg49_6_cif.got.tgz:10517.got - 2010.06.03 21:02:19.
