data_PCOD9394642
_publ_section_title
;
Structure prediction by ZEFSAII (Michael W. Deem and Ramdas Pophale) SiO2 
 PCOD9394642
Probable space group: P C C M
;
_chemical_formula_sum "Si O2"
_cell_formula_units_Z 26
_cell_length_a 6.138164
_cell_length_b 8.498376
_cell_length_c 23.404195
_cell_angle_alpha 90.000000
_cell_angle_beta 90.000000
_cell_angle_gamma 90.000000
_cell_volume 1220.866389
_symmetry_space_group_name_H-M "P C C M"
_symmetry_group_IT_number 49
_symmetry_cell_setting 'orthorhombic'
loop_
_space_group_symop_operation_xyz
x,y,z
-x,-y,z
x,-y,1/2-z
-x,y,1/2-z
-x,-y,-z
x,y,-z
-x,y,1/2+z
x,-y,1/2+z
loop_
_atom_site_type_symbol
_atom_site_label
_atom_site_fract_x
_atom_site_fract_y
_atom_site_fract_z
Si Si1 0.321630 0.266838 0.936064
Si Si2 0.704017 0.768801 0.342462
Si Si3 0.000000 0.500000 0.629300
Si Si4 0.500000 0.000000 0.250000
Si Si5 0.000000 0.000000 0.587848
O O1 0.507109 0.255390 0.887575
O O2 0.190695 0.101836 0.940836
O O3 0.151238 0.395079 0.912313
O O4 0.403943 0.305786 0.000000
O O5 0.832864 0.605317 0.333243
O O6 0.630501 0.877320 0.289924
O O7 0.879421 0.873860 0.374238
#
# Coordination Sequence:
#
# PCOD9394642 Si02
#       5
#     8   8   4   2   4
#     4  11  22  41  68 104 144 179 221 279 342 418
#     4  11  24  45  71  99 135 178 230 283 341 407
#     4  10  25  44  67 102 138 180 224 274 354 418
#     4  12  24  50  76  92 138 182 240 296 348 402
#     4  10  21  41  66 104 134 177 227 274 340 408
#
# _framework density 21.296353
#
# number of rings (size 3 to 8) (size 9 to 14) (size 15 to 20)
#    0.000    1.231    3.077    1.846    0.000   10.462 
#    0.000    4.615    0.000    0.000    0.000    0.000 
#    0.000    0.000    0.000    0.000    0.000    0.000 
#
# Total GULP energy -144984.314530 kJ/mol
# GULP energy per Si atom -5576.319790 kJ/mol
# Density = 2.124788 g / cm^3
# Si number density = 21.296353 Si / 1000 Ang^3
#
#
#
# Elastic Constant Matrix: (Units=GPa)
#
#
# Indices 1 2 3 4 5 6 
#
# 1 117.3059 49.5231 58.5320 0.0000 0.0000 0.0000
# 2 49.5231 127.8075 49.1869 0.0000 0.0000 0.0000
# 3 58.5320 49.1869 121.7857 0.0000 0.0000 0.0000
# 4 0.0000 0.0000 0.0000 9.7856 0.0000 0.0000
# 5 0.0000 0.0000 0.0000 0.0000 -158.7174 0.0000
# 6 0.0000 0.0000 0.0000 0.0000 0.0000 55.6494
#
#
#
# Elastic Compliance Matrix: (Units=1/GPa)
#
#
# Indices 1 2 3 4 5 6 
#
# 1 0.012053 -0.002890 -0.004626 0.000000 0.000000 0.000000
# 2 -0.002890 0.009957 -0.002633 0.000000 0.000000 0.000000
# 3 -0.004626 -0.002633 0.011497 0.000000 0.000000 0.000000
# 4 0.000000 0.000000 0.000000 0.102191 0.000000 0.000000
# 5 0.000000 0.000000 0.000000 0.000000 -0.006301 0.000000
# 6 0.000000 0.000000 0.000000 0.000000 0.000000 0.017970
#
#
# Mechanical properties :
#
#
# Convention : Reuss Voigt Hill
#
# Bulk Modulus (GPa) = 75.69295 75.70923 75.70109
# Shear Modulus (GPa) = 29.05825 -4.67936 12.18944
#
# Velocity S-wave (km/s) = 3.69788 -1.48392 2.39503
# Velocity P-wave (km/s) = 7.33841 5.71764 6.57814
#
# Compressibility (1/GPa) = 0.01321127
#
# Stress axis : x y z
#
# Youngs Moduli (GPa) = 82.96803 100.42924 86.97575
#
# Poissons Ratio (x) = 0.29025 0.40231
# Poissons Ratio (y) = 0.23979 0.22896
# Poissons Ratio (z) = 0.38377 0.26438
#
# Static dielectric constant tensor:
#      x y z
#    x 1.790440 0.000000 0.000000 
#    y 0.000000 1.750600 0.000000 
#    z 0.000000 0.000000 1.794710 
# 
# From -- ./inp_files/21487.got.cif
#   From: 2010.05.17/outbox.cif.g08.bks.cpg/sg49_11_cif.got.tgz:21487.got - 2010.06.03 21:02:19.
