data_PCOD9394480
_publ_section_title
;
Structure prediction by ZEFSAII (Michael W. Deem and Ramdas Pophale) SiO2 
 PCOD9394480
Probable space group: P C C M
;
_chemical_formula_sum "Si O2"
_cell_formula_units_Z 48
_cell_length_a 31.003334
_cell_length_b 9.570947
_cell_length_c 8.691221
_cell_angle_alpha 90.000000
_cell_angle_beta 90.000000
_cell_angle_gamma 90.000000
_cell_volume 2578.957015
_symmetry_space_group_name_H-M "P C C M"
_symmetry_group_IT_number 49
_symmetry_cell_setting 'orthorhombic'
loop_
_space_group_symop_operation_xyz
x,y,z
-x,-y,z
x,-y,1/2-z
-x,y,1/2-z
-x,-y,-z
x,y,-z
-x,y,1/2+z
x,-y,1/2+z
loop_
_atom_site_type_symbol
_atom_site_label
_atom_site_fract_x
_atom_site_fract_y
_atom_site_fract_z
Si Si1 0.045095 0.656235 0.816316
Si Si2 0.219960 0.155077 0.816028
Si Si3 0.377937 0.844395 0.815013
Si Si4 0.120404 0.845276 0.684405
Si Si5 0.451997 0.348673 0.815477
Si Si6 0.704930 0.344543 0.815959
O O1 0.048949 0.500000 0.750000
O O2 0.085835 0.743692 0.759848
O O3 0.000000 0.715050 0.750000
O O4 0.042902 0.651850 0.000000
O O5 0.170192 0.191951 0.779145
O O6 0.253016 0.265979 0.747513
O O7 0.228588 0.000000 0.750000
O O8 0.224411 0.150016 0.000000
O O9 0.419566 0.769145 0.743400
O O10 0.336507 0.749760 0.774530
O O11 0.372897 0.000000 0.750000
O O12 0.381758 0.849042 0.000000
O O13 0.115589 0.844854 0.500000
O O14 0.113315 0.000000 0.750000
O O15 0.437788 0.500000 0.750000
O O16 0.500000 0.324382 0.750000
O O17 0.453154 0.353999 0.000000
O O18 0.701006 0.500000 0.750000
O O19 0.707283 0.352084 0.000000
#
# Coordination Sequence:
#
# PCOD9394480 Si02
#       6
#     8   8   8   8   8   8
#     4  11  22  38  59  83 113 150 190 236 286 341
#     4  10  21  38  61  86 117 152 190 235 286 342
#     4  11  24  41  61  88 119 155 196 241 291 345
#     4  10  21  38  59  86 116 150 190 235 285 340
#     4  11  22  39  63  90 121 157 196 241 290 345
#     4  11  24  40  61  87 118 153 194 240 288 342
#
# _framework density 18.612175000000001
#
# number of rings (size 3 to 8) (size 9 to 14) (size 15 to 20)
#    0.000    1.333    0.000    7.000    0.000    8.667 
#    0.000    3.333    0.000    0.000    0.000    0.000 
#    0.000    0.000    0.000    0.000    0.000    0.000 
#
# Total GULP energy -268435.025767 kJ/mol
# GULP energy per Si atom -5592.396370 kJ/mol
# Density = 1.856981 g / cm^3
# Si number density = 18.612175 Si / 1000 Ang^3
#
#
#
# Elastic Constant Matrix: (Units=GPa)
#
#
# Indices 1 2 3 4 5 6 
#
# 1 124.1288 109.0732 71.3566 0.0000 0.0000 0.0000
# 2 109.0732 153.8068 71.8666 0.0000 0.0000 0.0000
# 3 71.3566 71.8666 122.5432 0.0000 0.0000 0.0000
# 4 0.0000 0.0000 0.0000 39.1514 0.0000 0.0000
# 5 0.0000 0.0000 0.0000 0.0000 25.4695 0.0000
# 6 0.0000 0.0000 0.0000 0.0000 0.0000 49.8067
#
#
#
# Elastic Compliance Matrix: (Units=1/GPa)
#
#
# Indices 1 2 3 4 5 6 
#
# 1 0.023750 -0.014299 -0.005444 0.000000 0.000000 0.000000
# 2 -0.014299 0.017565 -0.001975 0.000000 0.000000 0.000000
# 3 -0.005444 -0.001975 0.012488 0.000000 0.000000 0.000000
# 4 0.000000 0.000000 0.000000 0.025542 0.000000 0.000000
# 5 0.000000 0.000000 0.000000 0.000000 0.039263 0.000000
# 6 0.000000 0.000000 0.000000 0.000000 0.000000 0.020078
#
#
# Mechanical properties :
#
#
# Convention : Reuss Voigt Hill
#
# Bulk Modulus (GPa) = 96.44951 100.56351 98.50651
# Shear Modulus (GPa) = 26.94302 32.76434 29.85368
#
# Velocity S-wave (km/s) = 3.80886 4.20023 4.00933
# Velocity P-wave (km/s) = 8.44254 8.81311 8.62981
#
# Compressibility (1/GPa) = 0.01036812
#
# Stress axis : x y z
#
# Youngs Moduli (GPa) = 42.10462 56.93283 80.07402
#
# Poissons Ratio (x) = 0.81408 0.43592
# Poissons Ratio (y) = 0.60205 0.15811
# Poissons Ratio (z) = 0.22922 0.11242
#
# Static dielectric constant tensor:
#      x y z
#    x 1.635530 0.000000 0.000000 
#    y 0.000000 1.594500 0.000000 
#    z 0.000000 0.000000 1.619900 
# 
# From -- ./inp_files/2113.got.cif
#   From: 2010.05.17/outbox.cif.g08.bks.cpg/sg49_2_cif.got.tgz:2113.got - 2010.06.03 21:02:19.
