data_PCOD9394936
_publ_section_title
;
Structure prediction by ZEFSAII (Michael W. Deem and Ramdas Pophale) SiO2 
 PCOD9394936
Probable space group: P C C M
;
_chemical_formula_sum "Si O2"
_cell_formula_units_Z 20
_cell_length_a 5.609842
_cell_length_b 5.160796
_cell_length_c 26.487334
_cell_angle_alpha 90.000000
_cell_angle_beta 90.000000
_cell_angle_gamma 90.000000
_cell_volume 766.841433
_symmetry_space_group_name_H-M "P C C M"
_symmetry_group_IT_number 49
_symmetry_cell_setting 'orthorhombic'
loop_
_space_group_symop_operation_xyz
x,y,z
-x,-y,z
x,-y,1/2-z
-x,y,1/2-z
-x,-y,-z
x,y,-z
-x,y,1/2+z
x,-y,1/2+z
loop_
_atom_site_type_symbol
_atom_site_label
_atom_site_fract_x
_atom_site_fract_y
_atom_site_fract_z
Si Si1 0.745406 0.104521 0.192382
Si Si2 0.000000 0.500000 0.863194
Si Si3 0.330037 0.248950 0.943151
O O1 0.790836 0.399557 0.175052
O O2 0.500000 0.000000 0.170371
O O3 0.738239 0.000000 0.250000
O O4 0.000000 0.000000 0.175314
O O5 0.874533 0.697853 0.902403
O O6 0.500000 0.500000 0.940501
O O7 0.500000 0.000000 0.936521
O O8 0.227832 0.233078 0.000000
#
# Coordination Sequence:
#
# PCOD9394936 Si02
#       3
#     8   4   8
#     4  10  26  50  75 112 161 210 272 345 412 487
#     4  12  27  43  84 116 158 218 281 335 416 508
#     4  10  25  48  76 117 166 213 272 345 416 497
#
# _framework density 26.081014
#
# number of rings (size 3 to 8) (size 9 to 14) (size 15 to 20)
#    0.000    1.600    0.000    0.600   11.200    3.200 
#    0.000   22.000    0.000    3.600    0.000    0.000 
#    0.000    0.000    0.000    0.000    0.000    0.000 
#
# Total GULP energy -111630.522678 kJ/mol
# GULP energy per Si atom -5581.526134 kJ/mol
# Density = 2.602165 g / cm^3
# Si number density = 26.081014 Si / 1000 Ang^3
#
#
#
# Elastic Constant Matrix: (Units=GPa)
#
#
# Indices 1 2 3 4 5 6 
#
# 1 190.3596 62.5463 56.1529 0.0000 0.0000 0.0000
# 2 62.5463 149.0924 68.1599 0.0000 0.0000 0.0000
# 3 56.1529 68.1599 250.3745 0.0000 0.0000 0.0000
# 4 0.0000 0.0000 0.0000 -65.0499 0.0000 0.0000
# 5 0.0000 0.0000 0.0000 0.0000 81.6406 0.0000
# 6 0.0000 0.0000 0.0000 0.0000 0.0000 59.6184
#
#
#
# Elastic Compliance Matrix: (Units=1/GPa)
#
#
# Indices 1 2 3 4 5 6 
#
# 1 0.006224 -0.002254 -0.000783 0.000000 0.000000 0.000000
# 2 -0.002254 0.008477 -0.001802 0.000000 0.000000 0.000000
# 3 -0.000783 -0.001802 0.004660 0.000000 0.000000 0.000000
# 4 0.000000 0.000000 0.000000 -0.015373 0.000000 0.000000
# 5 0.000000 0.000000 0.000000 0.000000 0.012249 0.000000
# 6 0.000000 0.000000 0.000000 0.000000 0.000000 0.016773
#
#
# Mechanical properties :
#
#
# Convention : Reuss Voigt Hill
#
# Bulk Modulus (GPa) = 103.25548 107.06053 105.15800
# Shear Modulus (GPa) = 108.89665 42.10633 75.50149
#
# Velocity S-wave (km/s) = 6.46868 4.02237 5.38625
# Velocity P-wave (km/s) = 9.77078 7.91903 8.89323
#
# Compressibility (1/GPa) = 0.00968472
#
# Stress axis : x y z
#
# Youngs Moduli (GPa) = 160.65595 117.97300 214.58652
#
# Poissons Ratio (x) = 0.26585 0.16792
# Poissons Ratio (y) = 0.36204 0.38672
# Poissons Ratio (z) = 0.12572 0.21261
#
# Static dielectric constant tensor:
#      x y z
#    x 2.015800 0.000000 0.000000 
#    y 0.000000 3.369290 0.000000 
#    z 0.000000 0.000000 2.191810 
# 
# From -- ./inp_files/23494.got.cif
#   From: 2010.05.17/outbox.cif.g08.bks.cpg/sg49_12_cif.got.tgz:23494.got - 2010.06.03 21:02:19.
