data_PCOD9394410
_publ_section_title
;
Structure prediction by ZEFSAII (Michael W. Deem and Ramdas Pophale) SiO2 
 PCOD9394410
Probable space group: P C C M
;
_chemical_formula_sum "Si O2"
_cell_formula_units_Z 64
_cell_length_a 18.028538
_cell_length_b 5.710840
_cell_length_c 30.357964
_cell_angle_alpha 90.000000
_cell_angle_beta 90.000000
_cell_angle_gamma 90.000000
_cell_volume 3125.598170
_symmetry_space_group_name_H-M "P C C M"
_symmetry_group_IT_number 49
_symmetry_cell_setting 'orthorhombic'
loop_
_space_group_symop_operation_xyz
x,y,z
-x,-y,z
x,-y,1/2-z
-x,y,1/2-z
-x,-y,-z
x,y,-z
-x,y,1/2+z
x,-y,1/2+z
loop_
_atom_site_type_symbol
_atom_site_label
_atom_site_fract_x
_atom_site_fract_y
_atom_site_fract_z
Si Si1 0.753757 0.693959 0.636559
Si Si2 0.720417 0.551586 0.050071
Si Si3 0.306737 0.346078 0.209167
Si Si4 0.456907 0.749107 0.321330
Si Si5 0.028659 0.745733 0.698421
Si Si6 0.441543 0.689308 0.049679
Si Si7 0.173361 0.032477 0.199650
Si Si8 0.638362 0.065300 0.398787
O O1 0.767954 0.575866 0.588524
O O2 0.714916 0.500152 0.666906
O O3 0.819148 0.820229 0.664869
O O4 0.690146 0.885848 0.627355
O O5 0.640445 0.423398 0.048112
O O6 0.694096 0.803252 0.068210
O O7 0.750242 0.556285 0.000000
O O8 0.280833 0.500000 0.250000
O O9 0.392380 0.279913 0.214952
O O10 0.256478 0.120145 0.205288
O O11 0.500000 0.500000 0.322048
O O12 0.406462 0.773068 0.365151
O O13 0.500000 0.000000 0.316893
O O14 0.116094 0.763637 0.686972
O O15 0.000000 0.500000 0.679798
O O16 0.000000 0.740176 0.750000
O O17 0.000000 0.000000 0.682190
O O18 0.500000 0.500000 0.067478
O O19 0.424716 0.921496 0.076204
O O20 0.466229 0.741345 0.000000
O O21 0.146433 0.000000 0.250000
#
# Coordination Sequence:
#
# PCOD9394410 Si02
#       8
#     8   8   8   8   8   8   8   8
#     4  11  22  41  61  94 126 165 231 274 332 403
#     4  10  21  37  59  85 121 159 207 283 354 412
#     4  12  26  43  64  90 120 171 230 280 342 404
#     4  12  28  45  64  85 119 167 219 296 353 398
#     4  10  22  38  60  99 146 182 216 252 312 392
#     4   9  20  34  51  79 110 146 197 261 341 433
#     4  12  23  38  68  97 133 186 216 270 315 400
#     4  11  22  37  59  81 113 156 214 276 352 419
#
# _framework density 20.47608
#
# number of rings (size 3 to 8) (size 9 to 14) (size 15 to 20)
#    0.000    1.125    5.000    1.125    7.000    0.750 
#    0.000    3.750    0.000    1.125    0.000    0.000 
#    0.000    1.000    0.000    0.250    0.000    0.125 
#
# Total GULP energy -356811.829608 kJ/mol
# GULP energy per Si atom -5575.184838 kJ/mol
# Density = 2.042948 g / cm^3
# Si number density = 20.476080 Si / 1000 Ang^3
#
#
#
# Elastic Constant Matrix: (Units=GPa)
#
#
# Indices 1 2 3 4 5 6 
#
# 1 57.4819 33.5745 15.2893 0.0000 0.0000 0.0000
# 2 33.5745 111.6342 32.8031 0.0000 0.0000 0.0000
# 3 15.2893 32.8031 85.5454 0.0000 0.0000 0.0000
# 4 0.0000 0.0000 0.0000 0.6874 0.0000 0.0000
# 5 0.0000 0.0000 0.0000 0.0000 -0.3504 0.0000
# 6 0.0000 0.0000 0.0000 0.0000 0.0000 30.6270
#
#
#
# Elastic Compliance Matrix: (Units=1/GPa)
#
#
# Indices 1 2 3 4 5 6 
#
# 1 0.021278 -0.005953 -0.001520 0.000000 0.000000 0.000000
# 2 -0.005953 0.011761 -0.003446 0.000000 0.000000 0.000000
# 3 -0.001520 -0.003446 0.013283 0.000000 0.000000 0.000000
# 4 0.000000 0.000000 0.000000 1.454743 0.000000 0.000000
# 5 0.000000 0.000000 0.000000 0.000000 -2.853801 0.000000
# 6 0.000000 0.000000 0.000000 0.000000 0.000000 0.032651
#
#
# Mechanical properties :
#
#
# Convention : Reuss Voigt Hill
#
# Bulk Modulus (GPa) = 40.84345 46.44390 43.64368
# Shear Modulus (GPa) = -3.87571 17.72578 6.92504
#
# Velocity S-wave (km/s) = -1.37728 2.94544 1.84102
# Velocity P-wave (km/s) = 4.17864 5.85651 5.08723
#
# Compressibility (1/GPa) = 0.02448373
#
# Stress axis : x y z
#
# Youngs Moduli (GPa) = 46.99667 85.02923 75.28560
#
# Poissons Ratio (x) = 0.50616 0.11446
# Poissons Ratio (y) = 0.27976 0.25942
# Poissons Ratio (z) = 0.07145 0.29299
#
# Static dielectric constant tensor:
#      x y z
#    x 1.763730 0.000000 0.000000 
#    y 0.000000 1.833750 0.000000 
#    z 0.000000 0.000000 1.818100 
# 
# From -- ./inp_files/26907.got.cif
#   From: 2010.05.17/outbox.cif.g08.bks.cpg/sg49_14_cif.got.tgz:26907.got - 2010.06.03 21:02:19.
