data_PCOD9394158
_publ_section_title
;
Structure prediction by ZEFSAII (Michael W. Deem and Ramdas Pophale) SiO2 
 PCOD9394158
Probable space group: P C C M
;
_chemical_formula_sum "Si O2"
_cell_formula_units_Z 64
_cell_length_a 15.345507
_cell_length_b 12.573943
_cell_length_c 17.636431
_cell_angle_alpha 90.000000
_cell_angle_beta 90.000000
_cell_angle_gamma 90.000000
_cell_volume 3403.011624
_symmetry_space_group_name_H-M "P C C M"
_symmetry_group_IT_number 49
_symmetry_cell_setting 'orthorhombic'
loop_
_space_group_symop_operation_xyz
x,y,z
-x,-y,z
x,-y,1/2-z
-x,y,1/2-z
-x,-y,-z
x,y,-z
-x,y,1/2+z
x,-y,1/2+z
loop_
_atom_site_type_symbol
_atom_site_label
_atom_site_fract_x
_atom_site_fract_y
_atom_site_fract_z
Si Si1 0.406279 0.556895 0.089512
Si Si2 0.632341 0.817546 0.910519
Si Si3 0.139988 0.968119 0.908510
Si Si4 0.677836 0.038628 0.165016
Si Si5 0.063669 0.405206 0.092731
Si Si6 0.969675 0.165702 0.407965
Si Si7 0.738457 0.616403 0.092178
Si Si8 0.544431 0.765458 0.667439
O O1 0.500000 0.500000 0.096867
O O2 0.332050 0.473001 0.111297
O O3 0.405386 0.659864 0.142197
O O4 0.395332 0.584828 0.000000
O O5 0.702296 0.730789 0.880689
O O6 0.536088 0.777481 0.890367
O O7 0.642961 0.934452 0.877662
O O8 0.643805 0.823251 0.000000
O O9 0.109547 0.087439 0.885078
O O10 0.230193 0.932996 0.872596
O O11 0.147794 0.967568 0.000000
O O12 0.059861 0.891540 0.887174
O O13 0.608148 0.133482 0.164038
O O14 0.692881 0.000000 0.250000
O O15 0.035051 0.287032 0.117485
O O16 0.164534 0.414468 0.116576
O O17 0.000000 0.500000 0.118143
O O18 0.061960 0.406665 0.000000
O O19 0.966780 0.166833 0.500000
O O20 0.740413 0.622651 0.000000
O O21 0.500000 0.757910 0.750000
#
# Coordination Sequence:
#
# PCOD9394158 Si02
#       8
#     8   8   8   8   8   8   8   8
#     4  10  20  38  61  85 113 147 197 252 291 341
#     4  11  22  39  64  85 110 155 203 241 294 357
#     4   9  18  34  58  84 110 148 197 243 287 342
#     4  12  25  39  55  82 123 155 192 250 302 355
#     4   9  16  26  46  79 119 153 176 219 297 355
#     4   8  15  31  54  82 116 148 188 242 288 340
#     4   9  18  34  57  88 119 147 191 248 291 342
#     4  12  25  41  57  80 119 157 194 247 307 355
#
# _framework density 18.806871999999998
#
# number of rings (size 3 to 8) (size 9 to 14) (size 15 to 20)
#    0.000    2.000    2.500    2.625    0.000    5.750 
#    0.000    3.750    0.000    0.000    0.000    0.000 
#    0.000    0.000    0.000    0.000    0.000    0.000 
#
# Total GULP energy -357171.097430 kJ/mol
# GULP energy per Si atom -5580.798397 kJ/mol
# Density = 1.876407 g / cm^3
# Si number density = 18.806872 Si / 1000 Ang^3
#
#
#
# Elastic Constant Matrix: (Units=GPa)
#
#
# Indices 1 2 3 4 5 6 
#
# 1 75.5301 74.8664 14.5904 0.0000 0.0000 0.0000
# 2 74.8664 159.5109 40.8381 0.0000 0.0000 0.0000
# 3 14.5904 40.8381 33.4828 0.0000 0.0000 0.0000
# 4 0.0000 0.0000 0.0000 25.7059 0.0000 0.0000
# 5 0.0000 0.0000 0.0000 0.0000 2686.3137 0.0000
# 6 0.0000 0.0000 0.0000 0.0000 0.0000 27.9600
#
#
#
# Elastic Compliance Matrix: (Units=1/GPa)
#
#
# Indices 1 2 3 4 5 6 
#
# 1 0.025328 -0.013177 0.005034 0.000000 0.000000 0.000000
# 2 -0.013177 0.015971 -0.013737 0.000000 0.000000 0.000000
# 3 0.005034 -0.013737 0.044427 0.000000 0.000000 0.000000
# 4 0.000000 0.000000 0.000000 0.038902 0.000000 0.000000
# 5 0.000000 0.000000 0.000000 0.000000 0.000372 0.000000
# 6 0.000000 0.000000 0.000000 0.000000 0.000000 0.035765
#
#
# Mechanical properties :
#
#
# Convention : Reuss Voigt Hill
#
# Bulk Modulus (GPa) = 23.82830 58.79039 41.30934
# Shear Modulus (GPa) = 22.88195 557.21118 290.04656
#
# Velocity S-wave (km/s) = 3.49188 17.23148 12.43216
# Velocity P-wave (km/s) = 5.38100 20.66945 15.10267
#
# Compressibility (1/GPa) = 0.04196691
#
# Stress axis : x y z
#
# Youngs Moduli (GPa) = 39.48177 62.61506 22.50881
#
# Poissons Ratio (x) = 0.82506 -0.11332
# Poissons Ratio (y) = 0.52024 0.30921
# Poissons Ratio (z) = -0.19876 0.86015
#
# Static dielectric constant tensor:
#      x y z
#    x 1.649400 0.000000 0.000000 
#    y 0.000000 1.659930 0.000000 
#    z 0.000000 0.000000 1.666490 
# 
# From -- ./inp_files/17980.got.cif
#   From: 2010.05.17/outbox.cif.g08.bks.cpg/sg49_9_cif.got.tgz:17980.got - 2010.06.03 21:02:19.
