data_PCOD9394999
_publ_section_title
;
Structure prediction by ZEFSAII (Michael W. Deem and Ramdas Pophale) SiO2 
 PCOD9394999
Probable space group: P C C M
;
_chemical_formula_sum "Si O2"
_cell_formula_units_Z 64
_cell_length_a 17.897098
_cell_length_b 12.508741
_cell_length_c 14.751279
_cell_angle_alpha 90.000000
_cell_angle_beta 90.000000
_cell_angle_gamma 90.000000
_cell_volume 3302.371242
_symmetry_space_group_name_H-M "P C C M"
_symmetry_group_IT_number 49
_symmetry_cell_setting 'orthorhombic'
loop_
_space_group_symop_operation_xyz
x,y,z
-x,-y,z
x,-y,1/2-z
-x,y,1/2-z
-x,-y,-z
x,y,-z
-x,y,1/2+z
x,-y,1/2+z
loop_
_atom_site_type_symbol
_atom_site_label
_atom_site_fract_x
_atom_site_fract_y
_atom_site_fract_z
Si Si1 0.914476 0.986996 0.858910
Si Si2 0.811604 0.815740 0.397649
Si Si3 0.808403 0.203975 0.604718
Si Si4 0.925199 0.364237 0.889547
Si Si5 0.408880 0.500633 0.103574
Si Si6 0.092765 0.608626 0.389571
Si Si7 0.589762 0.326057 0.250615
Si Si8 0.309080 0.874429 0.749404
O O1 0.863787 0.080073 0.899101
O O2 0.909784 0.000000 0.750000
O O3 0.879452 0.874804 0.887418
O O4 0.000000 0.000000 0.886352
O O5 0.788717 0.787861 0.500000
O O6 0.864825 0.722070 0.359149
O O7 0.741896 0.844147 0.335551
O O8 0.786034 0.212707 0.500000
O O9 0.838598 0.317956 0.639391
O O10 0.743557 0.152453 0.663865
O O11 0.903614 0.484752 0.863003
O O12 0.011261 0.347248 0.860549
O O13 0.925687 0.359536 0.000000
O O14 0.500000 0.500000 0.101705
O O15 0.386619 0.604384 0.162470
O O16 0.386549 0.396408 0.161769
O O17 0.382104 0.500959 0.000000
O O18 0.092590 0.611348 0.500000
O O19 0.500000 0.322539 0.250000
O O20 0.623094 0.208402 0.252052
O O21 0.327912 0.000000 0.750000
#
# Coordination Sequence:
#
# PCOD9394999 Si02
#       8
#     8   8   8   8   8   8   8   8
#     4  11  21  35  57  82 107 142 198 258 302 347
#     4  11  21  37  57  78 110 153 194 242 301 352
#     4  11  21  37  57  78 110 153 194 242 301 352
#     4   8  15  30  52  77 105 139 183 234 288 350
#     4   8  15  35  68 101 127 148 179 231 289 345
#     4   8  15  30  52  77 105 139 183 234 288 350
#     4   9  20  39  65  95 124 156 194 236 287 352
#     4  12  25  42  56  81 120 158 202 249 290 344
#
# _framework density 19.380013999999999
#
# number of rings (size 3 to 8) (size 9 to 14) (size 15 to 20)
#    0.000    2.250    2.500    2.625    0.000    3.250 
#    4.500    0.000    0.000    1.500    0.000    5.250 
#    0.000    0.000    0.000    0.000    0.000    0.000 
#
# Total GULP energy -357345.639559 kJ/mol
# GULP energy per Si atom -5583.525618 kJ/mol
# Density = 1.933590 g / cm^3
# Si number density = 19.380014 Si / 1000 Ang^3
#
#
#
# Elastic Constant Matrix: (Units=GPa)
#
#
# Indices 1 2 3 4 5 6 
#
# 1 34.6035 35.2781 14.5589 0.0000 0.0000 0.0000
# 2 35.2781 127.1736 18.9785 0.0000 0.0000 0.0000
# 3 14.5589 18.9785 98.6880 0.0000 0.0000 0.0000
# 4 0.0000 0.0000 0.0000 32.6411 0.0000 0.0000
# 5 0.0000 0.0000 0.0000 0.000011633.4354 0.0000
# 6 0.0000 0.0000 0.0000 0.0000 0.0000 23.2492
#
#
#
# Elastic Compliance Matrix: (Units=1/GPa)
#
#
# Indices 1 2 3 4 5 6 
#
# 1 0.041813 -0.010994 -0.004054 0.000000 0.000000 0.000000
# 2 -0.010994 0.010986 -0.000491 0.000000 0.000000 0.000000
# 3 -0.004054 -0.000491 0.010825 0.000000 0.000000 0.000000
# 4 0.000000 0.000000 0.000000 0.030636 0.000000 0.000000
# 5 0.000000 0.000000 0.000000 0.000000 0.000086 0.000000
# 6 0.000000 0.000000 0.000000 0.000000 0.000000 0.043012
#
#
# Mechanical properties :
#
#
# Convention : Reuss Voigt Hill
#
# Bulk Modulus (GPa) = 30.72524 44.23289 37.47907
# Shear Modulus (GPa) = 27.88844 2350.64176 1189.26510
#
# Velocity S-wave (km/s) = 3.79757 34.86479 24.79894
# Velocity P-wave (km/s) = 5.92598 40.54148 28.97179
#
# Compressibility (1/GPa) = 0.03254653
#
# Stress axis : x y z
#
# Youngs Moduli (GPa) = 23.91613 91.02307 92.37495
#
# Poissons Ratio (x) = 1.00070 0.37451
# Poissons Ratio (y) = 0.26293 0.04534
# Poissons Ratio (z) = 0.09696 0.04468
#
# Static dielectric constant tensor:
#      x y z
#    x 1.646230 0.000000 0.000000 
#    y 0.000000 1.667190 0.000000 
#    z 0.000000 0.000000 1.739480 
# 
# From -- ./inp_files/14168.got.cif
#   From: 2010.05.17/outbox.cif.g08.bks.cpg/sg49_8_cif.got.tgz:14168.got - 2010.06.03 21:02:19.
