data_PCOD9394005
_publ_section_title
;
Structure prediction by ZEFSAII (Michael W. Deem and Ramdas Pophale) SiO2 
 PCOD9394005
Probable space group: P C C M
;
_chemical_formula_sum "Si O2"
_cell_formula_units_Z 22
_cell_length_a 8.291558
_cell_length_b 4.998558
_cell_length_c 26.625992
_cell_angle_alpha 90.000000
_cell_angle_beta 90.000000
_cell_angle_gamma 90.000000
_cell_volume 1103.536433
_symmetry_space_group_name_H-M "P C C M"
_symmetry_group_IT_number 49
_symmetry_cell_setting 'orthorhombic'
loop_
_space_group_symop_operation_xyz
x,y,z
-x,-y,z
x,-y,1/2-z
-x,y,1/2-z
-x,-y,-z
x,y,-z
-x,y,1/2+z
x,-y,1/2+z
loop_
_atom_site_type_symbol
_atom_site_label
_atom_site_fract_x
_atom_site_fract_y
_atom_site_fract_z
Si Si1 0.381131 0.749521 0.500000
Si Si2 0.675641 0.356558 0.389655
Si Si3 0.838231 0.132442 0.152971
Si Si4 0.000000 0.000000 0.250000
O O1 0.500000 0.500000 0.500000
O O2 0.290834 0.732724 0.447072
O O3 0.500000 0.000000 0.500000
O O4 0.500000 0.500000 0.387149
O O5 0.794457 0.587077 0.370851
O O6 0.700653 0.090380 0.356494
O O7 0.000000 0.000000 0.130056
O O8 0.886642 0.162061 0.211542
#
# Coordination Sequence:
#
# PCOD9394005 Si02
#       4
#     4   8   8   2
#     4  10  20  36  59  88 129 164 185 238 321 362
#     4  11  21  38  62  92 118 154 204 247 289 360
#     4  10  22  40  62  83 118 166 196 242 308 366
#     4   8  24  42  66  72 128 162 198 230 348 348
#
# _framework density 19.935908000000001
#
# number of rings (size 3 to 8) (size 9 to 14) (size 15 to 20)
#    1.091    0.727    0.000    6.545    0.000    2.909 
#    0.000   10.909    0.000    0.000    0.000    0.000 
#    0.000    0.000    0.000    0.000    0.000    0.000 
#
# Total GULP energy -122552.420580 kJ/mol
# GULP energy per Si atom -5570.564572 kJ/mol
# Density = 1.989053 g / cm^3
# Si number density = 19.935908 Si / 1000 Ang^3
#
#
#
# Elastic Constant Matrix: (Units=GPa)
#
#
# Indices 1 2 3 4 5 6 
#
# 1 55.0473 18.6173 45.6934 0.0000 0.0000 0.0000
# 2 18.6173 143.0155 63.5143 0.0000 0.0000 0.0000
# 3 45.6934 63.5143 167.1237 0.0000 0.0000 0.0000
# 4 0.0000 0.0000 0.0000 -39.3699 0.0000 0.0000
# 5 0.0000 0.0000 0.0000 0.0000 49.4191 0.0000
# 6 0.0000 0.0000 0.0000 0.0000 0.0000 28.9091
#
#
#
# Elastic Compliance Matrix: (Units=1/GPa)
#
#
# Indices 1 2 3 4 5 6 
#
# 1 0.023507 -0.000248 -0.006333 0.000000 0.000000 0.000000
# 2 -0.000248 0.008415 -0.003130 0.000000 0.000000 0.000000
# 3 -0.006333 -0.003130 0.008905 0.000000 0.000000 0.000000
# 4 0.000000 0.000000 0.000000 -0.025400 0.000000 0.000000
# 5 0.000000 0.000000 0.000000 0.000000 0.020235 0.000000
# 6 0.000000 0.000000 0.000000 0.000000 0.000000 0.034591
#
#
# Mechanical properties :
#
#
# Convention : Reuss Voigt Hill
#
# Bulk Modulus (GPa) = 46.71882 68.98181 57.85032
# Shear Modulus (GPa) = 51.64840 23.61576 37.63208
#
# Velocity S-wave (km/s) = 5.09544 3.44551 4.34943
# Velocity P-wave (km/s) = 7.62255 7.10673 7.36916
#
# Compressibility (1/GPa) = 0.02140465
#
# Stress axis : x y z
#
# Youngs Moduli (GPa) = 42.54112 118.84046 112.30021
#
# Poissons Ratio (x) = 0.02942 0.71119
# Poissons Ratio (y) = 0.01053 0.35153
# Poissons Ratio (z) = 0.26941 0.37200
#
# Static dielectric constant tensor:
#      x y z
#    x 1.758640 0.000000 0.000000 
#    y 0.000000 1.693220 0.000000 
#    z 0.000000 0.000000 1.736860 
# 
# From -- ./inp_files/23559.got.cif
#   From: 2010.05.17/outbox.cif.g08.bks.cpg/sg49_12_cif.got.tgz:23559.got - 2010.06.03 21:02:19.
