data_PCOD9394790
_publ_section_title
;
Structure prediction by ZEFSAII (Michael W. Deem and Ramdas Pophale) SiO2 
 PCOD9394790
Probable space group: P C C M
;
_chemical_formula_sum "Si O2"
_cell_formula_units_Z 56
_cell_length_a 22.734912
_cell_length_b 8.369238
_cell_length_c 14.237538
_cell_angle_alpha 90.000000
_cell_angle_beta 90.000000
_cell_angle_gamma 90.000000
_cell_volume 2709.031731
_symmetry_space_group_name_H-M "P C C M"
_symmetry_group_IT_number 49
_symmetry_cell_setting 'orthorhombic'
loop_
_space_group_symop_operation_xyz
x,y,z
-x,-y,z
x,-y,1/2-z
-x,y,1/2-z
-x,-y,-z
x,y,-z
-x,y,1/2+z
x,-y,1/2+z
loop_
_atom_site_type_symbol
_atom_site_label
_atom_site_fract_x
_atom_site_fract_y
_atom_site_fract_z
Si Si1 0.048404 0.722592 0.610594
Si Si2 0.150844 0.180249 0.232024
Si Si3 0.741614 0.215954 0.391382
Si Si4 0.324297 0.884639 0.895296
Si Si5 0.363764 0.322427 0.221726
Si Si6 0.441403 0.903020 0.607076
Si Si7 0.083601 0.352502 0.389235
O O1 0.053767 0.755335 0.500000
O O2 0.091620 0.829727 0.670088
O O3 0.071228 0.540580 0.626962
O O4 0.979467 0.728533 0.633971
O O5 0.202980 0.257972 0.172363
O O6 0.133556 0.279044 0.324259
O O7 0.169331 0.000000 0.250000
O O8 0.756091 0.239876 0.500000
O O9 0.684478 0.315514 0.361138
O O10 0.721735 0.029496 0.379778
O O11 0.330749 0.764251 0.809031
O O12 0.387266 0.973400 0.896796
O O13 0.313661 0.816063 0.000000
O O14 0.379567 0.500000 0.250000
O O15 0.419944 0.225495 0.183085
O O16 0.448131 0.837180 0.500000
O O17 0.500000 0.000000 0.630633
O O18 0.095018 0.330789 0.500000
#
# Coordination Sequence:
#
# PCOD9394790 Si02
#       7
#     8   8   8   8   8   8   8
#     4   9  19  38  59  78 106 150 195 236 289 359
#     4  12  23  34  54  85 115 145 188 246 305 354
#     4  10  22  42  61  78 109 156 203 243 289 356
#     4   9  19  37  59  81 113 159 201 233 278 345
#     4  11  22  36  60  94 125 152 190 250 307 344
#     4   9  18  36  62  87 117 164 210 238 271 334
#     4   9  20  38  58  79 109 150 194 236 289 362
#
# _framework density 20.671593000000001
#
# number of rings (size 3 to 8) (size 9 to 14) (size 15 to 20)
#    0.000    2.143    0.000    6.000    0.000    6.857 
#    0.000    3.571    0.000    2.571    0.000    0.000 
#    0.000    0.000    0.000    0.000    0.000    0.000 
#
# Total GULP energy -312799.452718 kJ/mol
# GULP energy per Si atom -5585.704513 kJ/mol
# Density = 2.062454 g / cm^3
# Si number density = 20.671593 Si / 1000 Ang^3
#
#
#
# Elastic Constant Matrix: (Units=GPa)
#
#
# Indices 1 2 3 4 5 6 
#
# 1 100.1259 16.1946 56.9867 0.0000 0.0000 0.0000
# 2 16.1946 28.6062 37.5621 0.0000 0.0000 0.0000
# 3 56.9867 37.5621 112.0497 0.0000 0.0000 0.0000
# 4 0.0000 0.0000 0.0000 19.2142 0.0000 0.0000
# 5 0.0000 0.0000 0.0000 0.0000 32.0950 0.0000
# 6 0.0000 0.0000 0.0000 0.0000 0.0000 3.0482
#
#
#
# Elastic Compliance Matrix: (Units=1/GPa)
#
#
# Indices 1 2 3 4 5 6 
#
# 1 0.014161 0.002572 -0.008065 0.000000 0.000000 0.000000
# 2 0.002572 0.062911 -0.022398 0.000000 0.000000 0.000000
# 3 -0.008065 -0.022398 0.020534 0.000000 0.000000 0.000000
# 4 0.000000 0.000000 0.000000 0.052045 0.000000 0.000000
# 5 0.000000 0.000000 0.000000 0.000000 0.031158 0.000000
# 6 0.000000 0.000000 0.000000 0.000000 0.000000 0.328064
#
#
# Mechanical properties :
#
#
# Convention : Reuss Voigt Hill
#
# Bulk Modulus (GPa) = 23.90807 51.36319 37.63563
# Shear Modulus (GPa) = 8.64162 19.54070 14.09116
#
# Velocity S-wave (km/s) = 2.04683 3.07790 2.61371
# Velocity P-wave (km/s) = 4.14449 6.12637 5.23016
#
# Compressibility (1/GPa) = 0.04182689
#
# Stress axis : x y z
#
# Youngs Moduli (GPa) = 70.61494 15.89546 48.69866
#
# Poissons Ratio (x) = -0.04089 0.39273
# Poissons Ratio (y) = -0.18164 1.09074
# Poissons Ratio (z) = 0.56948 0.35602
#
# Static dielectric constant tensor:
#      x y z
#    x 1.718780 0.000000 0.000000 
#    y 0.000000 1.750360 0.000000 
#    z 0.000000 0.000000 1.783730 
# 
# From -- ./inp_files/14403.got.cif
#   From: 2010.05.17/outbox.cif.g08.bks.cpg/sg49_8_cif.got.tgz:14403.got - 2010.06.03 21:02:19.
