data_PCOD9394708
_publ_section_title
;
Structure prediction by ZEFSAII (Michael W. Deem and Ramdas Pophale) SiO2 
 PCOD9394708
Probable space group: P C C M
;
_chemical_formula_sum "Si O2"
_cell_formula_units_Z 64
_cell_length_a 11.996940
_cell_length_b 15.239628
_cell_length_c 17.474761
_cell_angle_alpha 90.000000
_cell_angle_beta 90.000000
_cell_angle_gamma 90.000000
_cell_volume 3194.891379
_symmetry_space_group_name_H-M "P C C M"
_symmetry_group_IT_number 49
_symmetry_cell_setting 'orthorhombic'
loop_
_space_group_symop_operation_xyz
x,y,z
-x,-y,z
x,-y,1/2-z
-x,y,1/2-z
-x,-y,-z
x,y,-z
-x,y,1/2+z
x,-y,1/2+z
loop_
_atom_site_type_symbol
_atom_site_label
_atom_site_fract_x
_atom_site_fract_y
_atom_site_fract_z
Si Si1 0.586865 0.067634 0.587908
Si Si2 0.956677 0.204765 0.337864
Si Si3 0.255879 0.676305 0.650117
Si Si4 0.182454 0.836456 0.088894
Si Si5 0.814333 0.970883 0.837757
Si Si6 0.332039 0.303983 0.324927
Si Si7 0.469933 0.739126 0.417447
Si Si8 0.630464 0.494488 0.157632
O O1 0.617019 0.042432 0.500000
O O2 0.696327 0.070223 0.638406
O O3 0.520060 0.157290 0.583299
O O4 0.500000 0.000000 0.621631
O O5 0.866408 0.281204 0.354281
O O6 0.901732 0.108144 0.348562
O O7 0.000000 0.211519 0.250000
O O8 0.063443 0.207157 0.392224
O O9 0.297680 0.696030 0.736710
O O10 0.339222 0.723990 0.592334
O O11 0.288246 0.574558 0.635225
O O12 0.271318 0.777386 0.134781
O O13 0.174625 0.938007 0.115704
O O14 0.209645 0.833758 0.000000
O O15 0.818079 0.000000 0.750000
O O16 0.462722 0.296294 0.345257
O O17 0.310762 0.401327 0.358743
O O18 0.509054 0.703899 0.500000
O O19 0.500000 0.500000 0.128961
O O20 0.621229 0.500000 0.250000
#
# Coordination Sequence:
#
# PCOD9394708 Si02
#       8
#     8   8   8   8   8   8   8   8
#     4  10  22  39  56  84 130 172 210 259 321 394
#     4  12  24  44  66  93 130 175 224 278 323 383
#     4  11  21  41  68  95 126 166 220 270 329 385
#     4  12  27  43  66  96 130 177 222 274 342 395
#     4  12  23  40  66  95 126 167 223 277 322 388
#     4  11  21  41  67  92 133 169 212 270 332 401
#     4  11  22  36  59  92 129 168 209 261 332 401
#     4   9  18  35  66 102 126 159 214 271 327 398
#
# _framework density 20.031979
#
# number of rings (size 3 to 8) (size 9 to 14) (size 15 to 20)
#    0.000    1.000    5.000    2.250    0.000    3.250 
#    2.250    2.500    0.000    0.750    0.000    0.000 
#    0.000    0.000    0.000    0.000    0.000    0.000 
#
# Total GULP energy -357030.964421 kJ/mol
# GULP energy per Si atom -5578.608819 kJ/mol
# Density = 1.998639 g / cm^3
# Si number density = 20.031979 Si / 1000 Ang^3
#
#
#
# Elastic Constant Matrix: (Units=GPa)
#
#
# Indices 1 2 3 4 5 6 
#
# 1 67.5665 25.2990 -2.9680 0.0000 0.0000 0.0000
# 2 25.2990 105.2188 3.8563 0.0000 0.0000 0.0000
# 3 -2.9680 3.8563 37.5504 0.0000 0.0000 0.0000
# 4 0.0000 0.0000 0.0000 -117.1866 0.0000 0.0000
# 5 0.0000 0.0000 0.0000 0.0000 12.0588 0.0000
# 6 0.0000 0.0000 0.0000 0.0000 0.0000 30.7644
#
#
#
# Elastic Compliance Matrix: (Units=1/GPa)
#
#
# Indices 1 2 3 4 5 6 
#
# 1 0.016373 -0.003999 0.001705 0.000000 0.000000 0.000000
# 2 -0.003999 0.010517 -0.001396 0.000000 0.000000 0.000000
# 3 0.001705 -0.001396 0.026909 0.000000 0.000000 0.000000
# 4 0.000000 0.000000 0.000000 -0.008533 0.000000 0.000000
# 5 0.000000 0.000000 0.000000 0.000000 0.082927 0.000000
# 6 0.000000 0.000000 0.000000 0.000000 0.000000 0.032505
#
#
# Mechanical properties :
#
#
# Convention : Reuss Voigt Hill
#
# Bulk Modulus (GPa) = 21.54365 29.19002 25.36684
# Shear Modulus (GPa) = 27.24052 -2.59612 12.32220
#
# Velocity S-wave (km/s) = 3.69162 -1.13965 2.48287
# Velocity P-wave (km/s) = 5.38040 3.58770 4.57276
#
# Compressibility (1/GPa) = 0.04641739
#
# Stress axis : x y z
#
# Youngs Moduli (GPa) = 61.07792 95.08661 37.16226
#
# Poissons Ratio (x) = 0.38026 -0.06335
# Poissons Ratio (y) = 0.24426 0.05188
# Poissons Ratio (z) = -0.10413 0.13275
#
# Static dielectric constant tensor:
#      x y z
#    x 1.735740 0.000000 0.000000 
#    y 0.000000 1.794670 0.000000 
#    z 0.000000 0.000000 1.753760 
# 
# From -- ./inp_files/17344.got.cif
#   From: 2010.05.17/outbox.cif.g08.bks.cpg/sg49_9_cif.got.tgz:17344.got - 2010.06.03 21:02:19.
