data_PCOD9394623
_publ_section_title
;
Structure prediction by ZEFSAII (Michael W. Deem and Ramdas Pophale) SiO2 
 PCOD9394623
Probable space group: P C C M
;
_chemical_formula_sum "Si O2"
_cell_formula_units_Z 48
_cell_length_a 17.524900
_cell_length_b 9.420727
_cell_length_c 14.460477
_cell_angle_alpha 90.000000
_cell_angle_beta 90.000000
_cell_angle_gamma 90.000000
_cell_volume 2387.385689
_symmetry_space_group_name_H-M "P C C M"
_symmetry_group_IT_number 49
_symmetry_cell_setting 'orthorhombic'
loop_
_space_group_symop_operation_xyz
x,y,z
-x,-y,z
x,-y,1/2-z
-x,y,1/2-z
-x,-y,-z
x,y,-z
-x,y,1/2+z
x,-y,1/2+z
loop_
_atom_site_type_symbol
_atom_site_label
_atom_site_fract_x
_atom_site_fract_y
_atom_site_fract_z
Si Si1 0.590586 0.841205 0.752322
Si Si2 0.152515 0.321538 0.696062
Si Si3 0.972419 0.160854 0.106401
Si Si4 0.424707 0.591747 0.607005
Si Si5 0.887695 0.384530 0.609349
Si Si6 0.682347 0.670759 0.393851
O O1 0.500000 0.854448 0.750000
O O2 0.599092 0.730955 0.836686
O O3 0.624362 0.766280 0.662944
O O4 0.623662 0.000000 0.750000
O O5 0.097528 0.191849 0.673606
O O6 0.105725 0.453494 0.647347
O O7 0.165563 0.330867 0.806409
O O8 0.233887 0.320456 0.648136
O O9 0.039307 0.279472 0.116618
O O10 0.945528 0.173606 0.000000
O O11 0.000000 0.000000 0.119580
O O12 0.500000 0.500000 0.639405
O O13 0.440949 0.627876 0.500000
O O14 0.353119 0.486062 0.612077
O O15 0.865459 0.386422 0.500000
O O16 0.684608 0.713576 0.500000
#
# Coordination Sequence:
#
# PCOD9394623 Si02
#       6
#     8   8   8   8   8   8
#     4  11  24  41  65  96 132 173 213 263 326 392
#     4  11  23  40  64  92 128 167 208 272 331 381
#     4  10  21  40  65  93 126 169 219 266 318 385
#     4  10  21  40  68  97 127 169 221 271 318 383
#     4  10  22  39  61  90 120 161 217 265 313 380
#     4  11  24  42  65  96 131 171 217 272 333 390
#
# _framework density 20.105675999999999
#
# number of rings (size 3 to 8) (size 9 to 14) (size 15 to 20)
#    0.000    1.500    1.667    3.000    4.667    4.667 
#    3.000    1.667    0.000    0.000    0.000    0.000 
#    0.000    0.000    0.000    0.000    0.000    0.000 
#
# Total GULP energy -267566.268665 kJ/mol
# GULP energy per Si atom -5574.297264 kJ/mol
# Density = 2.005992 g / cm^3
# Si number density = 20.105676 Si / 1000 Ang^3
#
#
#
# Elastic Constant Matrix: (Units=GPa)
#
#
# Indices 1 2 3 4 5 6 
#
# 1 62.5606 26.3271 53.0231 0.0000 0.0000 0.0000
# 2 26.3271 72.7355 64.6562 0.0000 0.0000 0.0000
# 3 53.0231 64.6562 181.8758 0.0000 0.0000 0.0000
# 4 0.0000 0.0000 0.0000 3.9419 0.0000 0.0000
# 5 0.0000 0.0000 0.0000 0.0000 33.0537 0.0000
# 6 0.0000 0.0000 0.0000 0.0000 0.0000 -13.9358
#
#
#
# Elastic Compliance Matrix: (Units=1/GPa)
#
#
# Indices 1 2 3 4 5 6 
#
# 1 0.021749 -0.003269 -0.005179 0.000000 0.000000 0.000000
# 2 -0.003269 0.020592 -0.006367 0.000000 0.000000 0.000000
# 3 -0.005179 -0.006367 0.009272 0.000000 0.000000 0.000000
# 4 0.000000 0.000000 0.000000 0.253688 0.000000 0.000000
# 5 0.000000 0.000000 0.000000 0.000000 0.030254 0.000000
# 6 0.000000 0.000000 0.000000 0.000000 0.000000 -0.071758
#
#
# Mechanical properties :
#
#
# Convention : Reuss Voigt Hill
#
# Bulk Modulus (GPa) = 45.48993 67.24276 56.36634
# Shear Modulus (GPa) = 16.62493 16.15632 16.39062
#
# Velocity S-wave (km/s) = 2.87867 2.83781 2.85831
# Velocity P-wave (km/s) = 5.80719 6.65243 6.24413
#
# Compressibility (1/GPa) = 0.02198289
#
# Stress axis : x y z
#
# Youngs Moduli (GPa) = 45.97865 48.56335 107.85713
#
# Poissons Ratio (x) = 0.15875 0.55854
# Poissons Ratio (y) = 0.15030 0.68675
# Poissons Ratio (z) = 0.23810 0.30922
#
# Static dielectric constant tensor:
#      x y z
#    x 1.696370 0.000000 0.000000 
#    y 0.000000 1.775910 0.000000 
#    z 0.000000 0.000000 1.743640 
# 
# From -- ./inp_files/14030.got.cif
#   From: 2010.05.17/outbox.cif.g08.bks.cpg/sg49_8_cif.got.tgz:14030.got - 2010.06.03 21:02:19.
