data_PCOD9394733
_publ_section_title
;
Structure prediction by ZEFSAII (Michael W. Deem and Ramdas Pophale) SiO2 
 PCOD9394733
Probable space group: P C C M
;
_chemical_formula_sum "Si O2"
_cell_formula_units_Z 64
_cell_length_a 12.621466
_cell_length_b 15.050660
_cell_length_c 18.338273
_cell_angle_alpha 90.000000
_cell_angle_beta 90.000000
_cell_angle_gamma 90.000000
_cell_volume 3483.563893
_symmetry_space_group_name_H-M "P C C M"
_symmetry_group_IT_number 49
_symmetry_cell_setting 'orthorhombic'
loop_
_space_group_symop_operation_xyz
x,y,z
-x,-y,z
x,-y,1/2-z
-x,y,1/2-z
-x,-y,-z
x,y,-z
-x,y,1/2+z
x,-y,1/2+z
loop_
_atom_site_type_symbol
_atom_site_label
_atom_site_fract_x
_atom_site_fract_y
_atom_site_fract_z
Si Si1 0.763058 0.547753 0.170114
Si Si2 0.175999 0.007869 0.661946
Si Si3 0.393288 0.947112 0.087926
Si Si4 0.468131 0.600635 0.334455
Si Si5 0.005718 0.860841 0.661723
Si Si6 0.191099 0.379284 0.413774
Si Si7 0.024155 0.341241 0.163947
Si Si8 0.382046 0.740640 0.912148
O O1 0.767322 0.500000 0.250000
O O2 0.658575 0.607160 0.164001
O O3 0.752614 0.469029 0.111855
O O4 0.868427 0.603953 0.155070
O O5 0.289609 0.011477 0.624986
O O6 0.106337 0.094860 0.640468
O O7 0.186543 0.000000 0.750000
O O8 0.101103 0.925659 0.639498
O O9 0.398344 0.842972 0.109270
O O10 0.500000 0.000000 0.107791
O O11 0.382250 0.951013 0.000000
O O12 0.500000 0.500000 0.357463
O O13 0.500000 0.608579 0.250000
O O14 0.530332 0.674883 0.379206
O O15 0.027744 0.760873 0.638027
O O16 0.000000 0.861567 0.750000
O O17 0.178762 0.375000 0.500000
O O18 0.266669 0.297944 0.389446
O O19 0.077217 0.381594 0.375967
O O20 0.000000 0.341253 0.250000
O O21 0.386579 0.735698 0.000000
#
# Coordination Sequence:
#
# PCOD9394733 Si02
#       8
#     8   8   8   8   8   8   8   8
#     4  12  22  37  56  82 113 155 197 234 291 348
#     4   9  17  36  61  82 115 144 188 238 283 343
#     4  10  22  40  59  83 120 156 190 238 295 353
#     4  11  21  39  60  85 120 150 197 255 290 334
#     4   8  17  34  56  86 111 147 185 234 288 335
#     4  11  23  38  58  84 115 149 196 244 283 337
#     4  11  22  34  57  82 115 154 193 229 287 359
#     4  10  22  41  64  86 113 160 202 236 296 357
#
# _framework density 18.371988999999999
#
# number of rings (size 3 to 8) (size 9 to 14) (size 15 to 20)
#    0.000    1.750    3.750    1.875    0.000    3.000 
#    2.250    1.875    0.000    0.000    0.000    0.000 
#    0.000    0.000    0.000    0.000    0.000    0.000 
#
# Total GULP energy -357144.834265 kJ/mol
# GULP energy per Si atom -5580.388035 kJ/mol
# Density = 1.833017 g / cm^3
# Si number density = 18.371989 Si / 1000 Ang^3
#
#
#
# Elastic Constant Matrix: (Units=GPa)
#
#
# Indices 1 2 3 4 5 6 
#
# 1 172.6300 52.0528 34.1354 0.0000 0.0000 0.0000
# 2 52.0528 74.1592 14.9585 0.0000 0.0000 0.0000
# 3 34.1354 14.9585 26.3612 0.0000 0.0000 0.0000
# 4 0.0000 0.0000 0.0000 19.9579 0.0000 0.0000
# 5 0.0000 0.0000 0.0000 0.0000 14.0706 0.0000
# 6 0.0000 0.0000 0.0000 0.0000 0.0000 30.4490
#
#
#
# Elastic Compliance Matrix: (Units=1/GPa)
#
#
# Indices 1 2 3 4 5 6 
#
# 1 0.008916 -0.004437 -0.009027 0.000000 0.000000 0.000000
# 2 -0.004437 0.017436 -0.004148 0.000000 0.000000 0.000000
# 3 -0.009027 -0.004148 0.051978 0.000000 0.000000 0.000000
# 4 0.000000 0.000000 0.000000 0.050105 0.000000 0.000000
# 5 0.000000 0.000000 0.000000 0.000000 0.071070 0.000000
# 6 0.000000 0.000000 0.000000 0.000000 0.000000 0.032842
#
#
# Mechanical properties :
#
#
# Convention : Reuss Voigt Hill
#
# Bulk Modulus (GPa) = 23.19957 52.82710 38.01333
# Shear Modulus (GPa) = 17.73431 24.36241 21.04836
#
# Velocity S-wave (km/s) = 3.11028 3.64547 3.38846
# Velocity P-wave (km/s) = 5.05506 6.82172 6.00372
#
# Compressibility (1/GPa) = 0.04310425
#
# Stress axis : x y z
#
# Youngs Moduli (GPa) = 112.16226 57.35381 19.23903
#
# Poissons Ratio (x) = 0.25448 0.17367
# Poissons Ratio (y) = 0.49768 0.07981
# Poissons Ratio (z) = 1.01251 0.23791
#
# Static dielectric constant tensor:
#      x y z
#    x 1.628280 0.000000 0.000000 
#    y 0.000000 1.649110 0.000000 
#    z 0.000000 0.000000 1.620020 
# 
# From -- ./inp_files/17343.got.cif
#   From: 2010.05.17/outbox.cif.g08.bks.cpg/sg49_9_cif.got.tgz:17343.got - 2010.06.03 21:02:19.
