data_PCOD9394383
_publ_section_title
;
Structure prediction by ZEFSAII (Michael W. Deem and Ramdas Pophale) SiO2 
 PCOD9394383
Probable space group: P C C M
;
_chemical_formula_sum "Si O2"
_cell_formula_units_Z 34
_cell_length_a 12.651789
_cell_length_b 13.783998
_cell_length_c 8.993492
_cell_angle_alpha 90.000000
_cell_angle_beta 90.000000
_cell_angle_gamma 90.000000
_cell_volume 1568.395164
_symmetry_space_group_name_H-M "P C C M"
_symmetry_group_IT_number 49
_symmetry_cell_setting 'orthorhombic'
loop_
_space_group_symop_operation_xyz
x,y,z
-x,-y,z
x,-y,1/2-z
-x,y,1/2-z
-x,-y,-z
x,y,-z
-x,y,1/2+z
x,-y,1/2+z
loop_
_atom_site_type_symbol
_atom_site_label
_atom_site_fract_x
_atom_site_fract_y
_atom_site_fract_z
Si Si1 0.394822 0.685879 0.824042
Si Si2 0.158959 0.660487 0.832137
Si Si3 0.108711 0.146405 0.175923
Si Si4 0.329480 0.096406 0.677948
Si Si5 0.000000 0.500000 0.250000
O O1 0.500000 0.645379 0.750000
O O2 0.280894 0.637513 0.792474
O O3 0.380650 0.799843 0.780903
O O4 0.409977 0.682537 0.000000
O O5 0.118355 0.738826 0.713798
O O6 0.080373 0.570641 0.834800
O O7 0.161247 0.704830 0.000000
O O8 0.210859 0.103841 0.257481
O O9 0.000000 0.112692 0.250000
O O10 0.110655 0.129074 0.000000
O O11 0.328955 0.088119 0.500000
O O12 0.377781 0.000000 0.750000
#
# Coordination Sequence:
#
# PCOD9394383 Si02
#       5
#     8   8   8   8   2
#     4   9  20  39  61  84 118 159 201 249 296 353
#     4  10  22  39  59  90 124 154 196 248 300 356
#     4  11  21  35  56  81 116 160 200 243 298 359
#     4  10  21  37  56  84 119 154 201 254 298 348
#     4  12  22  36  70  94 124 156 194 242 310 356
#
# _framework density 21.678211000000001
#
# number of rings (size 3 to 8) (size 9 to 14) (size 15 to 20)
#    0.000    1.882    1.176    4.588    0.000    6.588 
#    0.000    5.294    0.000    2.824    0.000    0.000 
#    0.000    0.000    0.000    0.000    0.000    0.000 
#
# Total GULP energy -189873.010883 kJ/mol
# GULP energy per Si atom -5584.500320 kJ/mol
# Density = 2.162887 g / cm^3
# Si number density = 21.678211 Si / 1000 Ang^3
#
#
#
# Elastic Constant Matrix: (Units=GPa)
#
#
# Indices 1 2 3 4 5 6 
#
# 1 175.4137 26.2083 30.0022 0.0000 0.0000 0.0000
# 2 26.2083 66.9208 10.1309 0.0000 0.0000 0.0000
# 3 30.0022 10.1309 63.9183 0.0000 0.0000 0.0000
# 4 0.0000 0.0000 0.0000 57.7908 0.0000 0.0000
# 5 0.0000 0.0000 0.0000 0.0000 15.4199 0.0000
# 6 0.0000 0.0000 0.0000 0.0000 0.0000 -10.1229
#
#
#
# Elastic Compliance Matrix: (Units=1/GPa)
#
#
# Indices 1 2 3 4 5 6 
#
# 1 0.006482 -0.002129 -0.002705 0.000000 0.000000 0.000000
# 2 -0.002129 0.016010 -0.001538 0.000000 0.000000 0.000000
# 3 -0.002705 -0.001538 0.017158 0.000000 0.000000 0.000000
# 4 0.000000 0.000000 0.000000 0.017304 0.000000 0.000000
# 5 0.000000 0.000000 0.000000 0.000000 0.064851 0.000000
# 6 0.000000 0.000000 0.000000 0.000000 0.000000 -0.098786
#
#
# Mechanical properties :
#
#
# Convention : Reuss Voigt Hill
#
# Bulk Modulus (GPa) = 37.16704 48.77062 42.96883
# Shear Modulus (GPa) = 111.77984 28.61166 70.19575
#
# Velocity S-wave (km/s) = 7.18854 3.63689 5.69659
# Velocity P-wave (km/s) = 9.27806 6.33896 7.94559
#
# Compressibility (1/GPa) = 0.02690556
#
# Stress axis : x y z
#
# Youngs Moduli (GPa) = 154.28475 62.46239 58.28043
#
# Poissons Ratio (x) = 0.13298 0.15764
# Poissons Ratio (y) = 0.32845 0.08965
# Poissons Ratio (z) = 0.41732 0.09608
#
# Static dielectric constant tensor:
#      x y z
#    x 1.803090 0.000000 0.000000 
#    y 0.000000 1.863080 0.000000 
#    z 0.000000 0.000000 1.759240 
# 
# From -- ./inp_files/3346.got.cif
#   From: 2010.05.17/outbox.cif.g08.bks.cpg/sg49_2_cif.got.tgz:3346.got - 2010.06.03 21:02:19.
