data_PCOD9394190
_publ_section_title
;
Structure prediction by ZEFSAII (Michael W. Deem and Ramdas Pophale) SiO2 
 PCOD9394190
Probable space group: P C C M
;
_chemical_formula_sum "Si O2"
_cell_formula_units_Z 64
_cell_length_a 11.548274
_cell_length_b 19.016663
_cell_length_c 14.409575
_cell_angle_alpha 90.000000
_cell_angle_beta 90.000000
_cell_angle_gamma 90.000000
_cell_volume 3164.481505
_symmetry_space_group_name_H-M "P C C M"
_symmetry_group_IT_number 49
_symmetry_cell_setting 'orthorhombic'
loop_
_space_group_symop_operation_xyz
x,y,z
-x,-y,z
x,-y,1/2-z
-x,y,1/2-z
-x,-y,-z
x,y,-z
-x,y,1/2+z
x,-y,1/2+z
loop_
_atom_site_type_symbol
_atom_site_label
_atom_site_fract_x
_atom_site_fract_y
_atom_site_fract_z
Si Si1 0.728595 0.683481 0.103607
Si Si2 0.572913 0.933008 0.610983
Si Si3 0.134897 0.772380 0.736518
Si Si4 0.166054 0.058385 0.610948
Si Si5 0.360694 0.418448 0.250940
Si Si6 0.487625 0.221046 0.858918
Si Si7 0.280956 0.700151 0.105531
Si Si8 0.910858 0.102387 0.611723
O O1 0.831840 0.711402 0.165232
O O2 0.677140 0.616834 0.155159
O O3 0.630563 0.744402 0.107448
O O4 0.762764 0.669076 0.000000
O O5 0.585664 0.942475 0.500000
O O6 0.705098 0.925918 0.648258
O O7 0.501828 0.861740 0.626250
O O8 0.500000 0.000000 0.645081
O O9 0.203311 0.752883 0.830839
O O10 0.156390 0.844007 0.678207
O O11 0.000000 0.769181 0.750000
O O12 0.169746 0.070095 0.500000
O O13 0.048229 0.099089 0.639110
O O14 0.138355 0.976015 0.625469
O O15 0.326889 0.500000 0.250000
O O16 0.500000 0.413896 0.250000
O O17 0.306783 0.370736 0.334328
O O18 0.500000 0.235171 0.750000
O O19 0.596285 0.260659 0.902323
O O20 0.237184 0.688617 0.000000
O O21 0.902311 0.118428 0.500000
#
# Coordination Sequence:
#
# PCOD9394190 Si02
#       8
#     8   8   8   8   8   8   8   8
#     4  11  22  40  65  96 132 171 208 254 316 381
#     4  10  22  35  54  84 118 162 214 265 320 389
#     4  11  25  40  60  92 121 163 221 274 315 374
#     4   8  17  34  56  84 117 156 208 268 338 403
#     4  10  20  38  65 105 144 170 204 250 302 377
#     4  12  22  40  61  88 125 167 215 264 323 385
#     4  11  23  42  65  92 132 177 213 256 319 386
#     4   9  18  36  61  84 114 158 209 275 342 391
#
# _framework density 20.224484
#
# number of rings (size 3 to 8) (size 9 to 14) (size 15 to 20)
#    0.000    1.750    3.750    2.250    3.500    1.750 
#    0.000    2.500    0.000    6.000    0.000    8.750 
#    0.000    0.000    0.000    0.000    0.000    0.000 
#
# Total GULP energy -357406.146744 kJ/mol
# GULP energy per Si atom -5584.471043 kJ/mol
# Density = 2.017845 g / cm^3
# Si number density = 20.224484 Si / 1000 Ang^3
#
#
#
# Elastic Constant Matrix: (Units=GPa)
#
#
# Indices 1 2 3 4 5 6 
#
# 1 62.1128 35.1773 25.9199 0.0000 0.0000 0.0000
# 2 35.1773 116.1929 25.5332 0.0000 0.0000 0.0000
# 3 25.9199 25.5332 130.4730 0.0000 0.0000 0.0000
# 4 0.0000 0.0000 0.0000 66.9000 0.0000 0.0000
# 5 0.0000 0.0000 0.0000 0.0000 -27.9829 0.0000
# 6 0.0000 0.0000 0.0000 0.0000 0.0000 19.5747
#
#
#
# Elastic Compliance Matrix: (Units=1/GPa)
#
#
# Indices 1 2 3 4 5 6 
#
# 1 0.020486 -0.005546 -0.002984 0.000000 0.000000 0.000000
# 2 -0.005546 0.010495 -0.000952 0.000000 0.000000 0.000000
# 3 -0.002984 -0.000952 0.008444 0.000000 0.000000 0.000000
# 4 0.000000 0.000000 0.000000 0.014948 0.000000 0.000000
# 5 0.000000 0.000000 0.000000 0.000000 -0.035736 0.000000
# 6 0.000000 0.000000 0.000000 0.000000 0.000000 0.051086
#
#
# Mechanical properties :
#
#
# Convention : Reuss Voigt Hill
#
# Bulk Modulus (GPa) = 48.87788 53.55994 51.21891
# Shear Modulus (GPa) = 52.35169 26.50823 39.42996
#
# Velocity S-wave (km/s) = 5.09328 3.62429 4.42023
# Velocity P-wave (km/s) = 7.66869 6.63733 7.17157
#
# Compressibility (1/GPa) = 0.02045915
#
# Stress axis : x y z
#
# Youngs Moduli (GPa) = 48.81300 95.28589 118.43286
#
# Poissons Ratio (x) = 0.52849 0.35345
# Poissons Ratio (y) = 0.27074 0.11274
# Poissons Ratio (z) = 0.14568 0.09071
#
# Static dielectric constant tensor:
#      x y z
#    x 1.724390 0.000000 0.000000 
#    y 0.000000 1.719960 0.000000 
#    z 0.000000 0.000000 1.769500 
# 
# From -- ./inp_files/13122.got.cif
#   From: 2010.05.17/outbox.cif.g08.bks.cpg/sg49_7_cif.got.tgz:13122.got - 2010.06.03 21:02:19.
