data_PCOD9394397
_publ_section_title
;
Structure prediction by ZEFSAII (Michael W. Deem and Ramdas Pophale) SiO2 
 PCOD9394397
Probable space group: P C C M
;
_chemical_formula_sum "Si O2"
_cell_formula_units_Z 40
_cell_length_a 9.469778
_cell_length_b 12.417959
_cell_length_c 14.294960
_cell_angle_alpha 90.000000
_cell_angle_beta 90.000000
_cell_angle_gamma 90.000000
_cell_volume 1681.020323
_symmetry_space_group_name_H-M "P C C M"
_symmetry_group_IT_number 49
_symmetry_cell_setting 'orthorhombic'
loop_
_space_group_symop_operation_xyz
x,y,z
-x,-y,z
x,-y,1/2-z
-x,y,1/2-z
-x,-y,-z
x,y,-z
-x,y,1/2+z
x,-y,1/2+z
loop_
_atom_site_type_symbol
_atom_site_label
_atom_site_fract_x
_atom_site_fract_y
_atom_site_fract_z
Si Si1 0.305966 0.755831 0.897252
Si Si2 0.859602 0.169927 0.285901
Si Si3 0.085935 0.610894 0.386873
Si Si4 0.653739 0.507173 0.389808
Si Si5 0.561143 0.888224 0.144986
O O1 0.226872 0.805523 0.809347
O O2 0.290838 0.628049 0.886504
O O3 0.472057 0.788836 0.896909
O O4 0.249138 0.786561 0.000000
O O5 0.929160 0.273417 0.339197
O O6 0.731440 0.121944 0.350616
O O7 0.000000 0.110057 0.250000
O O8 0.076530 0.622507 0.500000
O O9 0.240523 0.578453 0.349420
O O10 0.000000 0.500000 0.365651
O O11 0.500000 0.500000 0.349645
O O12 0.645606 0.479688 0.500000
O O13 0.500000 0.889053 0.250000
O O14 0.500000 0.000000 0.103789
#
# Coordination Sequence:
#
# PCOD9394397 Si02
#       5
#     8   8   8   8   8
#     4  10  21  38  59  86 122 163 211 264 317 381
#     4  11  23  38  62  94 125 162 208 260 323 390
#     4  10  21  37  57  85 127 173 209 248 306 378
#     4   9  17  30  50  77 111 154 202 248 291 346
#     4   9  20  41  63  85 117 160 214 272 332 391
#
# _framework density 23.795072999999999
#
# number of rings (size 3 to 8) (size 9 to 14) (size 15 to 20)
#    0.000    2.200    0.000    2.400    0.000    8.000 
#    0.000    9.000    0.000    1.800    0.000    0.000 
#    0.000    0.000    0.000    0.000    0.000    0.000 
#
# Total GULP energy -222955.926288 kJ/mol
# GULP energy per Si atom -5573.898157 kJ/mol
# Density = 2.374091 g / cm^3
# Si number density = 23.795073 Si / 1000 Ang^3
#
#
#
# Elastic Constant Matrix: (Units=GPa)
#
#
# Indices 1 2 3 4 5 6 
#
# 1 155.4794 38.2593 10.7795 0.0000 0.0000 0.0000
# 2 38.2593 92.9563 20.5405 0.0000 0.0000 0.0000
# 3 10.7795 20.5405 114.9641 0.0000 0.0000 0.0000
# 4 0.0000 0.0000 0.0000 33.3790 0.0000 0.0000
# 5 0.0000 0.0000 0.0000 0.0000 12.6832 0.0000
# 6 0.0000 0.0000 0.0000 0.0000 0.0000 15.2432
#
#
#
# Elastic Compliance Matrix: (Units=1/GPa)
#
#
# Indices 1 2 3 4 5 6 
#
# 1 0.007159 -0.002913 -0.000151 0.000000 0.000000 0.000000
# 2 -0.002913 0.012385 -0.001940 0.000000 0.000000 0.000000
# 3 -0.000151 -0.001940 0.009059 0.000000 0.000000 0.000000
# 4 0.000000 0.000000 0.000000 0.029959 0.000000 0.000000
# 5 0.000000 0.000000 0.000000 0.000000 0.078844 0.000000
# 6 0.000000 0.000000 0.000000 0.000000 0.000000 0.065603
#
#
# Mechanical properties :
#
#
# Convention : Reuss Voigt Hill
#
# Bulk Modulus (GPa) = 53.77479 55.83983 54.80731
# Shear Modulus (GPa) = 22.80857 31.84912 27.32885
#
# Velocity S-wave (km/s) = 3.09939 3.66249 3.39264
# Velocity P-wave (km/s) = 5.95454 6.43452 6.19917
#
# Compressibility (1/GPa) = 0.01859608
#
# Stress axis : x y z
#
# Youngs Moduli (GPa) = 139.68356 80.74023 110.38660
#
# Poissons Ratio (x) = 0.23521 0.01664
# Poissons Ratio (y) = 0.40693 0.21412
# Poissons Ratio (z) = 0.02106 0.15661
#
# Static dielectric constant tensor:
#      x y z
#    x 1.999290 0.000000 0.000000 
#    y 0.000000 1.944990 0.000000 
#    z 0.000000 0.000000 1.922260 
# 
# From -- ./inp_files/16020.got.cif
#   From: 2010.05.17/outbox.cif.g08.bks.cpg/sg49_9_cif.got.tgz:16020.got - 2010.06.03 21:02:19.
