data_PCOD9394180
_publ_section_title
;
Structure prediction by ZEFSAII (Michael W. Deem and Ramdas Pophale) SiO2 
 PCOD9394180
Probable space group: P C C M
;
_chemical_formula_sum "Si O2"
_cell_formula_units_Z 48
_cell_length_a 15.786780
_cell_length_b 8.331983
_cell_length_c 15.619069
_cell_angle_alpha 90.000000
_cell_angle_beta 90.000000
_cell_angle_gamma 90.000000
_cell_volume 2054.457093
_symmetry_space_group_name_H-M "P C C M"
_symmetry_group_IT_number 49
_symmetry_cell_setting 'orthorhombic'
loop_
_space_group_symop_operation_xyz
x,y,z
-x,-y,z
x,-y,1/2-z
-x,y,1/2-z
-x,-y,-z
x,y,-z
-x,y,1/2+z
x,-y,1/2+z
loop_
_atom_site_type_symbol
_atom_site_label
_atom_site_fract_x
_atom_site_fract_y
_atom_site_fract_z
Si Si1 0.635864 0.197113 0.903845
Si Si2 0.803773 0.363617 0.103042
Si Si3 0.537558 0.323173 0.602616
Si Si4 0.986149 0.684332 0.351222
Si Si5 0.164509 0.263747 0.099465
Si Si6 0.320950 0.113244 0.169030
O O1 0.715370 0.291510 0.862896
O O2 0.541563 0.213705 0.868767
O O3 0.658577 0.011590 0.906332
O O4 0.627868 0.265287 0.000000
O O5 0.889365 0.271940 0.130061
O O6 0.817956 0.550263 0.125541
O O7 0.800723 0.354028 0.000000
O O8 0.500000 0.500000 0.617757
O O9 0.555778 0.309053 0.500000
O O10 0.619641 0.267155 0.654702
O O11 0.000000 0.500000 0.382911
O O12 0.000000 0.685722 0.250000
O O13 0.065343 0.775805 0.391759
O O14 0.223758 0.160575 0.160168
O O15 0.189821 0.247137 0.000000
O O16 0.338442 0.000000 0.250000
#
# Coordination Sequence:
#
# PCOD9394180 Si02
#       6
#     8   8   8   8   8   8
#     4  10  21  38  62  89 123 166 208 261 324 395
#     4   9  18  35  62  94 124 161 218 274 323 384
#     4  10  21  42  71  97 121 162 221 275 321 387
#     4   9  18  32  58  92 126 162 209 272 333 380
#     4  10  20  38  63  90 122 169 223 271 316 385
#     4  12  26  40  59  91 132 174 208 264 334 402
#
# _framework density 23.363838000000001
#
# number of rings (size 3 to 8) (size 9 to 14) (size 15 to 20)
#    0.000    2.000    0.000    3.500    2.333    7.333 
#    0.000    4.167    0.000    3.000    0.000    0.000 
#    0.000    0.000    0.000    0.000    0.000    0.000 
#
# Total GULP energy -268042.007583 kJ/mol
# GULP energy per Si atom -5584.208491 kJ/mol
# Density = 2.331066 g / cm^3
# Si number density = 23.363838 Si / 1000 Ang^3
#
#
#
# Elastic Constant Matrix: (Units=GPa)
#
#
# Indices 1 2 3 4 5 6 
#
# 1 109.9449 8.2723 20.6714 0.0000 0.0000 0.0000
# 2 8.2723 44.7818 15.2544 0.0000 0.0000 0.0000
# 3 20.6714 15.2544 60.5400 0.0000 0.0000 0.0000
# 4 0.0000 0.0000 0.0000 16.0216 0.0000 0.0000
# 5 0.0000 0.0000 0.0000 0.0000 23.9684 0.0000
# 6 0.0000 0.0000 0.0000 0.0000 0.0000 30.8772
#
#
#
# Elastic Compliance Matrix: (Units=1/GPa)
#
#
# Indices 1 2 3 4 5 6 
#
# 1 0.009741 -0.000729 -0.003142 0.000000 0.000000 0.000000
# 2 -0.000729 0.024482 -0.005920 0.000000 0.000000 0.000000
# 3 -0.003142 -0.005920 0.019083 0.000000 0.000000 0.000000
# 4 0.000000 0.000000 0.000000 0.062416 0.000000 0.000000
# 5 0.000000 0.000000 0.000000 0.000000 0.041722 0.000000
# 6 0.000000 0.000000 0.000000 0.000000 0.000000 0.032386
#
#
# Mechanical properties :
#
#
# Convention : Reuss Voigt Hill
#
# Bulk Modulus (GPa) = 29.65335 33.74033 31.69684
# Shear Modulus (GPa) = 22.66002 25.57798 24.11900
#
# Velocity S-wave (km/s) = 3.11766 3.31232 3.21646
# Velocity P-wave (km/s) = 5.06747 5.39455 5.23357
#
# Compressibility (1/GPa) = 0.03372300
#
# Stress axis : x y z
#
# Youngs Moduli (GPa) = 102.65736 40.84683 52.40367
#
# Poissons Ratio (x) = 0.02978 0.16468
# Poissons Ratio (y) = 0.07484 0.31022
# Poissons Ratio (z) = 0.32259 0.24181
#
# Static dielectric constant tensor:
#      x y z
#    x 1.906960 0.000000 0.000000 
#    y 0.000000 1.897910 0.000000 
#    z 0.000000 0.000000 1.982870 
# 
# From -- ./inp_files/17725.got.cif
#   From: 2010.05.17/outbox.cif.g08.bks.cpg/sg49_9_cif.got.tgz:17725.got - 2010.06.03 21:02:19.
