data_PCOD9394742
_publ_section_title
;
Structure prediction by ZEFSAII (Michael W. Deem and Ramdas Pophale) SiO2 
 PCOD9394742
Probable space group: P C C M
;
_chemical_formula_sum "Si O2"
_cell_formula_units_Z 64
_cell_length_a 15.812076
_cell_length_b 24.258793
_cell_length_c 8.651449
_cell_angle_alpha 90.000000
_cell_angle_beta 90.000000
_cell_angle_gamma 90.000000
_cell_volume 3318.539060
_symmetry_space_group_name_H-M "P C C M"
_symmetry_group_IT_number 49
_symmetry_cell_setting 'orthorhombic'
loop_
_space_group_symop_operation_xyz
x,y,z
-x,-y,z
x,-y,1/2-z
-x,y,1/2-z
-x,-y,-z
x,y,-z
-x,y,1/2+z
x,-y,1/2+z
loop_
_atom_site_type_symbol
_atom_site_label
_atom_site_fract_x
_atom_site_fract_y
_atom_site_fract_z
Si Si1 0.089084 0.635367 0.685174
Si Si2 0.091531 0.132147 0.313916
Si Si3 0.649641 0.745102 0.815245
Si Si4 0.251870 0.438521 0.185496
Si Si5 0.747233 0.061392 0.813423
Si Si6 0.839892 0.252253 0.814047
Si Si7 0.410279 0.138456 0.685809
Si Si8 0.410177 0.370778 0.684393
O O1 0.085130 0.640094 0.500000
O O2 0.167576 0.595949 0.725917
O O3 0.107891 0.695202 0.757307
O O4 0.000000 0.614500 0.750000
O O5 0.088899 0.130463 0.500000
O O6 0.166866 0.091916 0.261677
O O7 0.116110 0.194718 0.269407
O O8 0.000000 0.117211 0.250000
O O9 0.747172 0.745033 0.761020
O O10 0.608007 0.801014 0.753161
O O11 0.605977 0.691197 0.744692
O O12 0.644753 0.742792 0.000000
O O13 0.246368 0.500000 0.250000
O O14 0.333058 0.407646 0.254642
O O15 0.259064 0.439350 0.000000
O O16 0.666623 0.098409 0.768032
O O17 0.741669 0.000000 0.750000
O O18 0.748335 0.059702 0.000000
O O19 0.831050 0.253369 0.000000
O O20 0.500000 0.118556 0.750000
O O21 0.412500 0.141720 0.500000
O O22 0.500000 0.390400 0.750000
O O23 0.411545 0.371046 0.500000
#
# Coordination Sequence:
#
# PCOD9394742 Si02
#       8
#     8   8   8   8   8   8   8   8
#     4  11  24  41  64  95 131 167 212 261 314 376
#     4  10  22  40  61  90 124 161 203 252 306 367
#     4  12  23  38  63  96 130 165 207 252 310 378
#     4  11  25  45  67  94 127 167 217 267 316 373
#     4  10  23  43  63  86 121 161 207 258 310 366
#     4  11  21  38  64  92 128 167 205 253 317 375
#     4  11  23  42  64  91 126 162 205 255 310 372
#     4  12  25  43  68  96 130 169 209 259 316 374
#
# _framework density 19.285594
#
# number of rings (size 3 to 8) (size 9 to 14) (size 15 to 20)
#    0.000    1.000    2.500    4.500    0.000    6.000 
#    0.000    5.000    0.000    0.000    0.000    0.000 
#    0.000    0.000    0.000    0.000    0.000    0.000 
#
# Total GULP energy -358108.441423 kJ/mol
# GULP energy per Si atom -5595.444397 kJ/mol
# Density = 1.924170 g / cm^3
# Si number density = 19.285594 Si / 1000 Ang^3
#
#
#
# Elastic Constant Matrix: (Units=GPa)
#
#
# Indices 1 2 3 4 5 6 
#
# 1 178.7052 65.7998 57.2016 0.0000 0.0000 0.0000
# 2 65.7998 135.5705 46.0027 0.0000 0.0000 0.0000
# 3 57.2016 46.0027 85.3781 0.0000 0.0000 0.0000
# 4 0.0000 0.0000 0.0000 31.4364 0.0000 0.0000
# 5 0.0000 0.0000 0.0000 0.0000 116.9467 0.0000
# 6 0.0000 0.0000 0.0000 0.0000 0.0000 -5.2383
#
#
#
# Elastic Compliance Matrix: (Units=1/GPa)
#
#
# Indices 1 2 3 4 5 6 
#
# 1 0.007732 -0.002441 -0.003865 0.000000 0.000000 0.000000
# 2 -0.002441 0.009797 -0.003643 0.000000 0.000000 0.000000
# 3 -0.003865 -0.003643 0.016265 0.000000 0.000000 0.000000
# 4 0.000000 0.000000 0.000000 0.031810 0.000000 0.000000
# 5 0.000000 0.000000 0.000000 0.000000 0.008551 0.000000
# 6 0.000000 0.000000 0.000000 0.000000 0.000000 -0.190901
#
#
# Mechanical properties :
#
#
# Convention : Reuss Voigt Hill
#
# Bulk Modulus (GPa) = 71.96608 81.96243 76.96425
# Shear Modulus (GPa) = -54.22094 44.00560 -5.10767
#
# Velocity S-wave (km/s) = -5.30809 4.78199 -1.62917
# Velocity P-wave (km/s) = 0.41317 8.54877 6.03783
#
# Compressibility (1/GPa) = 0.01389543
#
# Stress axis : x y z
#
# Youngs Moduli (GPa) = 129.33702 102.06805 61.48174
#
# Poissons Ratio (x) = 0.24917 0.23761
# Poissons Ratio (y) = 0.31574 0.22400
# Poissons Ratio (z) = 0.49985 0.37187
#
# Static dielectric constant tensor:
#      x y z
#    x 1.678300 0.000000 0.000000 
#    y 0.000000 1.641540 0.000000 
#    z 0.000000 0.000000 1.647510 
# 
# From -- ./inp_files/4320.got.cif
#   From: 2010.05.17/outbox.cif.g08.bks.cpg/sg49_3_cif.got.tgz:4320.got - 2010.06.03 21:02:19.
