data_PCOD9394596
_publ_section_title
;
Structure prediction by ZEFSAII (Michael W. Deem and Ramdas Pophale) SiO2 
 PCOD9394596
Probable space group: P C C M
;
_chemical_formula_sum "Si O2"
_cell_formula_units_Z 58
_cell_length_a 7.938666
_cell_length_b 11.772389
_cell_length_c 28.957950
_cell_angle_alpha 90.000000
_cell_angle_beta 90.000000
_cell_angle_gamma 90.000000
_cell_volume 2706.324995
_symmetry_space_group_name_H-M "P C C M"
_symmetry_group_IT_number 49
_symmetry_cell_setting 'orthorhombic'
loop_
_space_group_symop_operation_xyz
x,y,z
-x,-y,z
x,-y,1/2-z
-x,y,1/2-z
-x,-y,-z
x,y,-z
-x,y,1/2+z
x,-y,1/2+z
loop_
_atom_site_type_symbol
_atom_site_label
_atom_site_fract_x
_atom_site_fract_y
_atom_site_fract_z
Si Si1 0.556014 0.380321 0.679516
Si Si2 0.100864 0.117480 0.950024
Si Si3 0.930215 0.321473 0.090672
Si Si4 0.757020 0.791748 0.669774
Si Si5 0.500000 0.500000 0.500000
Si Si6 0.311755 0.178307 0.768506
Si Si7 0.197954 0.967377 0.355846
Si Si8 0.726087 0.458426 0.584459
O O1 0.500000 0.500000 0.700193
O O2 0.398490 0.295793 0.671388
O O3 0.676138 0.306603 0.712235
O O4 0.639564 0.416965 0.631345
O O5 0.212231 0.104905 0.903352
O O6 0.960476 0.214451 0.942129
O O7 0.185266 0.135198 0.000000
O O8 0.000000 0.000000 0.951685
O O9 0.904449 0.269851 0.141647
O O10 0.776372 0.407669 0.082548
O O11 0.098695 0.392458 0.083829
O O12 0.799453 0.824588 0.722361
O O13 0.712691 0.909349 0.643748
O O14 0.611332 0.437242 0.540665
O O15 0.500000 0.146430 0.750000
O O16 0.258183 0.100566 0.811019
O O17 0.000000 0.000000 0.350924
#
# Coordination Sequence:
#
# PCOD9394596 Si02
#       8
#     8   8   8   8   2   8   8   8
#     4  11  22  44  64  94 140 187 223 288 350 420
#     4  10  21  39  65 101 135 175 216 272 354 411
#     4  11  22  43  68 102 135 176 228 293 342 411
#     4  11  22  40  66  97 135 182 229 277 353 412
#     4  12  24  46  64 104 128 182 236 276 368 408
#     4  10  25  41  68  99 134 190 237 279 353 424
#     4  11  22  43  65 101 142 176 236 303 336 411
#     4  11  25  42  69  97 136 175 233 293 345 408
#
# _framework density 21.431277999999999
#
# number of rings (size 3 to 8) (size 9 to 14) (size 15 to 20)
#    0.000    1.241    4.828    1.241    1.931    8.000 
#    0.000    0.000    0.000    3.310    0.000    5.793 
#    0.000    0.000    0.000    0.000    0.000    0.000 
#
# Total GULP energy -323257.348133 kJ/mol
# GULP energy per Si atom -5573.402554 kJ/mol
# Density = 2.138250 g / cm^3
# Si number density = 21.431278 Si / 1000 Ang^3
#
#
#
# Elastic Constant Matrix: (Units=GPa)
#
#
# Indices 1 2 3 4 5 6 
#
# 1 44.1053 16.2845 38.3723 0.0000 0.0000 0.0000
# 2 16.2845 132.8423 36.5368 0.0000 0.0000 0.0000
# 3 38.3723 36.5368 176.4928 0.0000 0.0000 0.0000
# 4 0.0000 0.0000 0.0000 85.0156 0.0000 0.0000
# 5 0.0000 0.0000 0.0000 0.0000 17.5589 0.0000
# 6 0.0000 0.0000 0.0000 0.0000 0.0000 28.8154
#
#
#
# Elastic Compliance Matrix: (Units=1/GPa)
#
#
# Indices 1 2 3 4 5 6 
#
# 1 0.028403 -0.001891 -0.005784 0.000000 0.000000 0.000000
# 2 -0.001891 0.008108 -0.001267 0.000000 0.000000 0.000000
# 3 -0.005784 -0.001267 0.007186 0.000000 0.000000 0.000000
# 4 0.000000 0.000000 0.000000 0.011763 0.000000 0.000000
# 5 0.000000 0.000000 0.000000 0.000000 0.056951 0.000000
# 6 0.000000 0.000000 0.000000 0.000000 0.000000 0.034704
#
#
# Mechanical properties :
#
#
# Convention : Reuss Voigt Hill
#
# Bulk Modulus (GPa) = 38.74061 59.53638 49.13849
# Shear Modulus (GPa) = 28.80126 43.76109 36.28118
#
# Velocity S-wave (km/s) = 3.66989 4.52367 4.11896
# Velocity P-wave (km/s) = 6.00611 7.42464 6.75272
#
# Compressibility (1/GPa) = 0.02581271
#
# Stress axis : x y z
#
# Youngs Moduli (GPa) = 35.20722 123.33332 139.16310
#
# Poissons Ratio (x) = 0.23323 0.80490
# Poissons Ratio (y) = 0.06658 0.17637
# Poissons Ratio (z) = 0.20363 0.15631
#
# Static dielectric constant tensor:
#      x y z
#    x 1.972320 0.000000 0.000000 
#    y 0.000000 1.885450 0.000000 
#    z 0.000000 0.000000 1.801650 
# 
# From -- ./inp_files/24570.got.cif
#   From: 2010.05.17/outbox.cif.g08.bks.cpg/sg49_13_cif.got.tgz:24570.got - 2010.06.03 21:02:19.
