data_PCOD9394268
_publ_section_title
;
Structure prediction by ZEFSAII (Michael W. Deem and Ramdas Pophale) SiO2 
 PCOD9394268
Probable space group: P C C M
;
_chemical_formula_sum "Si O2"
_cell_formula_units_Z 48
_cell_length_a 7.786682
_cell_length_b 15.069341
_cell_length_c 18.900215
_cell_angle_alpha 90.000000
_cell_angle_beta 90.000000
_cell_angle_gamma 90.000000
_cell_volume 2217.754372
_symmetry_space_group_name_H-M "P C C M"
_symmetry_group_IT_number 49
_symmetry_cell_setting 'orthorhombic'
loop_
_space_group_symop_operation_xyz
x,y,z
-x,-y,z
x,-y,1/2-z
-x,y,1/2-z
-x,-y,-z
x,y,-z
-x,y,1/2+z
x,-y,1/2+z
loop_
_atom_site_type_symbol
_atom_site_label
_atom_site_fract_x
_atom_site_fract_y
_atom_site_fract_z
Si Si1 0.419640 0.136954 0.000000
Si Si2 0.779939 0.959018 0.500000
Si Si3 0.784066 0.581370 0.080838
Si Si4 0.301843 0.769719 0.361925
Si Si5 0.195944 0.615415 0.916767
Si Si6 0.813235 0.746153 0.714802
Si Si7 0.972104 0.097600 0.140966
O O1 0.412973 0.191232 0.073536
O O2 0.596465 0.085913 0.000000
O O3 0.265133 0.063871 0.000000
O O4 0.883645 0.925001 0.433004
O O5 0.714518 0.666472 0.119266
O O6 0.735873 0.482293 0.104600
O O7 0.990011 0.598208 0.081547
O O8 0.727139 0.585673 0.000000
O O9 0.321779 0.759452 0.277742
O O10 0.134205 0.835632 0.367003
O O11 0.229414 0.685561 0.853768
O O12 0.242763 0.637271 0.000000
O O13 0.844280 0.844869 0.687163
O O14 0.000000 0.715758 0.750000
O O15 0.000000 0.000000 0.171988
#
# Coordination Sequence:
#
# PCOD9394268 Si02
#       7
#     4   4   8   8   8   8   8
#     4  11  23  42  59  80 116 151 202 243 275 359
#     4  11  24  39  60  86 104 156 203 232 294 333
#     4   9  16  27  48  77 117 158 184 227 296 345
#     4  11  20  35  58  85 120 155 187 237 294 345
#     4   9  17  29  45  77 125 153 183 236 290 349
#     4  10  21  32  50  87 121 151 190 232 298 356
#     4  11  21  36  57  86 113 145 189 243 286 345
#
# _framework density 21.643516000000002
#
# number of rings (size 3 to 8) (size 9 to 14) (size 15 to 20)
#    0.000    1.833    5.833    1.750    1.167    3.667 
#    0.000    0.833    0.000    2.000    0.000    2.333 
#    0.000    8.000    0.000    0.000    0.000    0.000 
#
# Total GULP energy -267270.543882 kJ/mol
# GULP energy per Si atom -5568.136331 kJ/mol
# Density = 2.159425 g / cm^3
# Si number density = 21.643516 Si / 1000 Ang^3
#
#
#
# Elastic Constant Matrix: (Units=GPa)
#
#
# Indices 1 2 3 4 5 6 
#
# 1 43.9050 20.7567 37.3168 0.0000 0.0000 0.0000
# 2 20.7567 188.1863 108.4174 0.0000 0.0000 0.0000
# 3 37.3168 108.4174 168.9542 0.0000 0.0000 0.0000
# 4 0.0000 0.0000 0.0000 -31.9295 0.0000 0.0000
# 5 0.0000 0.0000 0.0000 0.0000 -0.2611 0.0000
# 6 0.0000 0.0000 0.0000 0.0000 0.0000 5.3105
#
#
#
# Elastic Compliance Matrix: (Units=1/GPa)
#
#
# Indices 1 2 3 4 5 6 
#
# 1 0.028108 0.000756 -0.006693 0.000000 0.000000 0.000000
# 2 0.000756 0.008451 -0.005590 0.000000 0.000000 0.000000
# 3 -0.006693 -0.005590 0.010984 0.000000 0.000000 0.000000
# 4 0.000000 0.000000 0.000000 -0.031319 0.000000 0.000000
# 5 0.000000 0.000000 0.000000 0.000000 -3.830340 0.000000
# 6 0.000000 0.000000 0.000000 0.000000 0.000000 0.188307
#
#
# Mechanical properties :
#
#
# Convention : Reuss Voigt Hill
#
# Bulk Modulus (GPa) = 40.83557 81.55859 61.19708
# Shear Modulus (GPa) = -1.39098 10.26097 4.43500
#
# Velocity S-wave (km/s) = -0.80254 2.17972 1.43302
# Velocity P-wave (km/s) = 4.24848 6.64074 5.57445
#
# Compressibility (1/GPa) = 0.02448846
#
# Stress axis : x y z
#
# Youngs Moduli (GPa) = 35.57713 118.33006 91.04091
#
# Poissons Ratio (x) = -0.08943 0.60935
# Poissons Ratio (y) = -0.02689 0.50891
# Poissons Ratio (z) = 0.23812 0.66145
#
# Static dielectric constant tensor:
#      x y z
#    x 1.849400 0.000000 0.000000 
#    y 0.000000 1.865680 0.000000 
#    z 0.000000 0.000000 1.854010 
# 
# From -- ./inp_files/16374.got.cif
#   From: 2010.05.17/outbox.cif.g08.bks.cpg/sg49_9_cif.got.tgz:16374.got - 2010.06.03 21:02:19.
