data_PCOD9394776
_publ_section_title
;
Structure prediction by ZEFSAII (Michael W. Deem and Ramdas Pophale) SiO2 
 PCOD9394776
Probable space group: P C C M
;
_chemical_formula_sum "Si O2"
_cell_formula_units_Z 48
_cell_length_a 5.130699
_cell_length_b 21.849133
_cell_length_c 20.147926
_cell_angle_alpha 90.000000
_cell_angle_beta 90.000000
_cell_angle_gamma 90.000000
_cell_volume 2258.609197
_symmetry_space_group_name_H-M "P C C M"
_symmetry_group_IT_number 49
_symmetry_cell_setting 'orthorhombic'
loop_
_space_group_symop_operation_xyz
x,y,z
-x,-y,z
x,-y,1/2-z
-x,y,1/2-z
-x,-y,-z
x,y,-z
-x,y,1/2+z
x,-y,1/2+z
loop_
_atom_site_type_symbol
_atom_site_label
_atom_site_fract_x
_atom_site_fract_y
_atom_site_fract_z
Si Si1 0.901505 0.636548 0.419563
Si Si2 0.114853 0.117651 0.570766
Si Si3 0.518722 0.838339 0.176562
Si Si4 0.597464 0.433394 0.419121
Si Si5 0.204052 0.242306 0.074204
Si Si6 0.764571 0.959907 0.849337
O O1 0.892009 0.636985 0.500000
O O2 0.112443 0.585363 0.398997
O O3 0.028236 0.701419 0.401780
O O4 0.613475 0.617644 0.397551
O O5 0.253244 0.106559 0.500000
O O6 0.297394 0.125820 0.634635
O O7 0.975539 0.182866 0.566681
O O8 0.893809 0.066585 0.582848
O O9 0.500000 0.812260 0.250000
O O10 0.593107 0.782786 0.127616
O O11 0.715601 0.895759 0.187665
O O12 0.500000 0.500000 0.397559
O O13 0.598735 0.434213 0.500000
O O14 0.313919 0.257038 0.000000
O O15 0.500000 0.000000 0.854437
O O16 0.000000 0.000000 0.821036
#
# Coordination Sequence:
#
# PCOD9394776 Si02
#       6
#     8   8   8   8   8   8
#     4   9  17  28  47  74 108 153 197 236 283 341
#     4  10  22  41  65  89 121 157 195 245 304 363
#     4  11  24  42  63  89 121 158 197 249 309 363
#     4   9  16  26  42  70 111 156 196 233 281 340
#     4   9  20  36  58  87 118 157 205 250 300 363
#     4  11  23  45  62  92 117 154 196 246 294 362
#
# _framework density 21.252016999999999
#
# number of rings (size 3 to 8) (size 9 to 14) (size 15 to 20)
#    0.000    2.167    1.667    1.000    2.333    6.333 
#    3.000    0.000    0.000    0.000    0.000    0.000 
#    0.000    0.667    1.000    0.000    0.333    0.000 
#
# Total GULP energy -267329.982730 kJ/mol
# GULP energy per Si atom -5569.374640 kJ/mol
# Density = 2.120365 g / cm^3
# Si number density = 21.252017 Si / 1000 Ang^3
#
#
#
# Elastic Constant Matrix: (Units=GPa)
#
#
# Indices 1 2 3 4 5 6 
#
# 1 77.0225 -6.1302 22.2236 0.0000 0.0000 0.0000
# 2 -6.1302 63.6997 3.7121 0.0000 0.0000 0.0000
# 3 22.2236 3.7121 93.4277 0.0000 0.0000 0.0000
# 4 0.0000 0.0000 0.0000 -1.2635 0.0000 0.0000
# 5 0.0000 0.0000 0.0000 0.0000 29.0445 0.0000
# 6 0.0000 0.0000 0.0000 0.0000 0.0000 32.0249
#
#
#
# Elastic Compliance Matrix: (Units=1/GPa)
#
#
# Indices 1 2 3 4 5 6 
#
# 1 0.014092 0.001555 -0.003414 0.000000 0.000000 0.000000
# 2 0.001555 0.015907 -0.001002 0.000000 0.000000 0.000000
# 3 -0.003414 -0.001002 0.011555 0.000000 0.000000 0.000000
# 4 0.000000 0.000000 0.000000 -0.791452 0.000000 0.000000
# 5 0.000000 0.000000 0.000000 0.000000 0.034430 0.000000
# 6 0.000000 0.000000 0.000000 0.000000 0.000000 0.031226
#
#
# Mechanical properties :
#
#
# Convention : Reuss Voigt Hill
#
# Bulk Modulus (GPa) = 27.90749 30.41790 29.16270
# Shear Modulus (GPa) = -7.50101 26.25080 9.37489
#
# Velocity S-wave (km/s) = -1.88075 3.51837 2.10259
# Velocity P-wave (km/s) = 2.90584 5.55421 4.43245
#
# Compressibility (1/GPa) = 0.03583267
#
# Stress axis : x y z
#
# Youngs Moduli (GPa) = 70.96229 62.86656 86.54017
#
# Poissons Ratio (x) = -0.09776 0.29544
# Poissons Ratio (y) = -0.11035 0.08671
# Poissons Ratio (z) = 0.24225 0.06299
#
# Static dielectric constant tensor:
#      x y z
#    x 1.877120 0.000000 0.000000 
#    y 0.000000 1.795360 0.000000 
#    z 0.000000 0.000000 1.849550 
# 
# From -- ./inp_files/18968.got.cif
#   From: 2010.05.17/outbox.cif.g08.bks.cpg/sg49_10_cif.got.tgz:18968.got - 2010.06.03 21:02:19.
