data_PCOD9394779
_publ_section_title
;
Structure prediction by ZEFSAII (Michael W. Deem and Ramdas Pophale) SiO2 
 PCOD9394779
Probable space group: P C C M
;
_chemical_formula_sum "Si O2"
_cell_formula_units_Z 32
_cell_length_a 6.941996
_cell_length_b 12.675042
_cell_length_c 15.256258
_cell_angle_alpha 90.000000
_cell_angle_beta 90.000000
_cell_angle_gamma 90.000000
_cell_volume 1342.399528
_symmetry_space_group_name_H-M "P C C M"
_symmetry_group_IT_number 49
_symmetry_cell_setting 'orthorhombic'
loop_
_space_group_symop_operation_xyz
x,y,z
-x,-y,z
x,-y,1/2-z
-x,y,1/2-z
-x,-y,-z
x,y,-z
-x,y,1/2+z
x,-y,1/2+z
loop_
_atom_site_type_symbol
_atom_site_label
_atom_site_fract_x
_atom_site_fract_y
_atom_site_fract_z
Si Si1 0.682675 0.805367 0.400035
Si Si2 0.776080 0.029084 0.394703
Si Si3 0.904209 0.246180 0.655465
Si Si4 0.430468 0.385840 0.893531
O O1 0.612219 0.815255 0.500000
O O2 0.573637 0.705991 0.359817
O O3 0.908921 0.775626 0.403782
O O4 0.667063 0.923898 0.362024
O O5 0.748950 0.036100 0.500000
O O6 0.761787 0.145491 0.355176
O O7 0.000000 0.000000 0.378587
O O8 0.782589 0.349252 0.633029
O O9 0.000000 0.249363 0.750000
O O10 0.500000 0.500000 0.862812
O O11 0.438128 0.387134 0.000000
#
# Coordination Sequence:
#
# PCOD9394779 Si02
#       4
#     8   8   8   8
#     4   9  19  37  61  89 121 159 204 255 307 359
#     4   8  15  31  57  87 118 154 199 246 297 365
#     4  11  22  36  58  88 125 164 196 246 318 382
#     4  10  22  41  65  91 118 157 216 267 299 354
#
# _framework density 23.837911999999999
#
# number of rings (size 3 to 8) (size 9 to 14) (size 15 to 20)
#    0.000    2.500    0.000    3.750    0.000    7.500 
#    0.000   11.250    0.000    9.000    0.000    0.000 
#    0.000    0.000    0.000    0.000    0.000    0.000 
#
# Total GULP energy -178767.111250 kJ/mol
# GULP energy per Si atom -5586.472227 kJ/mol
# Density = 2.378366 g / cm^3
# Si number density = 23.837912 Si / 1000 Ang^3
#
#
#
# Elastic Constant Matrix: (Units=GPa)
#
#
# Indices 1 2 3 4 5 6 
#
# 1 84.1163 81.5176 -12.7674 0.0000 0.0000 0.0000
# 2 81.5176 219.2779 23.5734 0.0000 0.0000 0.0000
# 3 -12.7674 23.5734 39.7992 0.0000 0.0000 0.0000
# 4 0.0000 0.0000 0.0000 -8.5023 0.0000 0.0000
# 5 0.0000 0.0000 0.0000 0.0000 60.5977 0.0000
# 6 0.0000 0.0000 0.0000 0.0000 0.0000 47.7938
#
#
#
# Elastic Compliance Matrix: (Units=1/GPa)
#
#
# Indices 1 2 3 4 5 6 
#
# 1 0.024171 -0.010487 0.013966 0.000000 0.000000 0.000000
# 2 -0.010487 0.009421 -0.008944 0.000000 0.000000 0.000000
# 3 0.013966 -0.008944 0.034904 0.000000 0.000000 0.000000
# 4 0.000000 0.000000 0.000000 -0.117615 0.000000 0.000000
# 5 0.000000 0.000000 0.000000 0.000000 0.016502 0.000000
# 6 0.000000 0.000000 0.000000 0.000000 0.000000 0.020923
#
#
# Mechanical properties :
#
#
# Convention : Reuss Voigt Hill
#
# Bulk Modulus (GPa) = 17.37182 58.64895 38.01038
# Shear Modulus (GPa) = 271.36606 36.70250 154.03428
#
# Velocity S-wave (km/s) = 10.68106 3.92812 8.04721
# Velocity P-wave (km/s) = 12.62604 6.72533 10.11551
#
# Compressibility (1/GPa) = 0.05756451
#
# Stress axis : x y z
#
# Youngs Moduli (GPa) = 41.37163 106.15047 28.65002
#
# Poissons Ratio (x) = 1.11321 -0.40012
# Poissons Ratio (y) = 0.43387 0.25625
# Poissons Ratio (z) = -0.57778 0.94942
#
# Static dielectric constant tensor:
#      x y z
#    x 1.960890 0.000000 0.000000 
#    y 0.000000 1.914800 0.000000 
#    z 0.000000 0.000000 1.936850 
# 
# From -- ./inp_files/15887.got.cif
#   From: 2010.05.17/outbox.cif.g08.bks.cpg/sg49_8_cif.got.tgz:15887.got - 2010.06.03 21:02:19.
