data_PCOD9394056
_publ_section_title
;
Structure prediction by ZEFSAII (Michael W. Deem and Ramdas Pophale) SiO2 
 PCOD9394056
Probable space group: P C C M
;
_chemical_formula_sum "Si O2"
_cell_formula_units_Z 64
_cell_length_a 18.795554
_cell_length_b 10.500586
_cell_length_c 17.083550
_cell_angle_alpha 90.000000
_cell_angle_beta 90.000000
_cell_angle_gamma 90.000000
_cell_volume 3371.683420
_symmetry_space_group_name_H-M "P C C M"
_symmetry_group_IT_number 49
_symmetry_cell_setting 'orthorhombic'
loop_
_space_group_symop_operation_xyz
x,y,z
-x,-y,z
x,-y,1/2-z
-x,y,1/2-z
-x,-y,-z
x,y,-z
-x,y,1/2+z
x,-y,1/2+z
loop_
_atom_site_type_symbol
_atom_site_label
_atom_site_fract_x
_atom_site_fract_y
_atom_site_fract_z
Si Si1 0.709891 0.993781 0.907870
Si Si2 0.090972 0.358542 0.593420
Si Si3 0.297401 0.516904 0.661994
Si Si4 0.540903 0.616981 0.833623
Si Si5 0.788304 0.752996 0.152332
Si Si6 0.763436 0.256334 0.163601
Si Si7 0.442921 0.893856 0.405515
Si Si8 0.069540 0.659990 0.593752
O O1 0.736472 0.123613 0.870119
O O2 0.763105 0.878234 0.891516
O O3 0.633779 0.943427 0.877649
O O4 0.702767 0.015613 0.000000
O O5 0.100278 0.341453 0.500000
O O6 0.157148 0.295162 0.636654
O O7 0.085783 0.510344 0.608076
O O8 0.012035 0.309724 0.614643
O O9 0.267200 0.500000 0.750000
O O10 0.377291 0.569688 0.670631
O O11 0.250999 0.625238 0.619882
O O12 0.287009 0.372712 0.632930
O O13 0.500000 0.500000 0.875231
O O14 0.500000 0.630296 0.750000
O O15 0.540072 0.754012 0.873506
O O16 0.764609 0.759855 0.242609
O O17 0.871923 0.735988 0.141452
O O18 0.441899 0.886067 0.500000
O O19 0.500000 0.000000 0.382193
O O20 0.077583 0.680224 0.500000
#
# Coordination Sequence:
#
# PCOD9394056 Si02
#       8
#     8   8   8   8   8   8   8   8
#     4  11  24  43  62  84 121 164 206 251 306 370
#     4   9  18  35  58  90 124 159 205 250 300 366
#     4  10  20  37  56  90 123 151 195 244 298 355
#     4  11  22  39  64  91 119 155 197 248 297 360
#     4  11  21  38  60  88 123 161 201 249 304 365
#     4  11  23  37  61  90 127 159 198 258 302 359
#     4  10  24  44  61  84 119 156 201 251 302 363
#     4   9  18  34  59  88 122 162 204 249 302 365
#
# _framework density 18.981615000000001
#
# number of rings (size 3 to 8) (size 9 to 14) (size 15 to 20)
#    0.000    1.750    3.750    1.875    1.750    1.000 
#    2.250    3.125    0.000    3.750    0.000    0.000 
#    0.000    0.000    0.000    0.000    0.000    0.000 
#
# Total GULP energy -356978.099746 kJ/mol
# GULP energy per Si atom -5577.782809 kJ/mol
# Density = 1.893841 g / cm^3
# Si number density = 18.981615 Si / 1000 Ang^3
#
#
#
# Elastic Constant Matrix: (Units=GPa)
#
#
# Indices 1 2 3 4 5 6 
#
# 1 99.4159 41.8512 12.6466 0.0000 0.0000 0.0000
# 2 41.8512 131.1028 16.2191 0.0000 0.0000 0.0000
# 3 12.6466 16.2191 14.9873 0.0000 0.0000 0.0000
# 4 0.0000 0.0000 0.0000 9.3459 0.0000 0.0000
# 5 0.0000 0.0000 0.0000 0.0000 18.6890 0.0000
# 6 0.0000 0.0000 0.0000 0.0000 0.0000 25.7315
#
#
#
# Elastic Compliance Matrix: (Units=1/GPa)
#
#
# Indices 1 2 3 4 5 6 
#
# 1 0.012231 -0.003034 -0.007038 0.000000 0.000000 0.000000
# 2 -0.003034 0.009559 -0.007785 0.000000 0.000000 0.000000
# 3 -0.007038 -0.007785 0.081087 0.000000 0.000000 0.000000
# 4 0.000000 0.000000 0.000000 0.106999 0.000000 0.000000
# 5 0.000000 0.000000 0.000000 0.000000 0.053508 0.000000
# 6 0.000000 0.000000 0.000000 0.000000 0.000000 0.038863
#
#
# Mechanical properties :
#
#
# Convention : Reuss Voigt Hill
#
# Bulk Modulus (GPa) = 14.88892 42.99331 28.94111
# Shear Modulus (GPa) = 13.87551 22.40587 18.14069
#
# Velocity S-wave (km/s) = 2.70663 3.43942 3.09479
# Velocity P-wave (km/s) = 4.19865 6.20258 5.29626
#
# Compressibility (1/GPa) = 0.06716404
#
# Stress axis : x y z
#
# Youngs Moduli (GPa) = 81.75837 104.61182 12.33251
#
# Poissons Ratio (x) = 0.31737 0.08679
# Poissons Ratio (y) = 0.24804 0.09601
# Poissons Ratio (z) = 0.57540 0.81438
#
# Static dielectric constant tensor:
#      x y z
#    x 1.672490 0.000000 0.000000 
#    y 0.000000 1.689400 0.000000 
#    z 0.000000 0.000000 1.663630 
# 
# From -- ./inp_files/21102.got.cif
#   From: 2010.05.17/outbox.cif.g08.bks.cpg/sg49_11_cif.got.tgz:21102.got - 2010.06.03 21:02:19.
