data_PCOD9394932
_publ_section_title
;
Structure prediction by ZEFSAII (Michael W. Deem and Ramdas Pophale) SiO2 
 PCOD9394932
Probable space group: P C C M
;
_chemical_formula_sum "Si O2"
_cell_formula_units_Z 32
_cell_length_a 14.126027
_cell_length_b 10.742583
_cell_length_c 9.825057
_cell_angle_alpha 90.000000
_cell_angle_beta 90.000000
_cell_angle_gamma 90.000000
_cell_volume 1490.952572
_symmetry_space_group_name_H-M "P C C M"
_symmetry_group_IT_number 49
_symmetry_cell_setting 'orthorhombic'
loop_
_space_group_symop_operation_xyz
x,y,z
-x,-y,z
x,-y,1/2-z
-x,y,1/2-z
-x,-y,-z
x,y,-z
-x,y,1/2+z
x,-y,1/2+z
loop_
_atom_site_type_symbol
_atom_site_label
_atom_site_fract_x
_atom_site_fract_y
_atom_site_fract_z
Si Si1 0.087128 0.660071 0.000000
Si Si2 0.000000 0.000000 0.250000
Si Si3 0.136656 0.614187 0.500000
Si Si4 0.354088 0.885732 0.161586
Si Si5 0.500000 0.321887 0.750000
Si Si6 0.848939 0.803037 0.233877
Si Si7 0.500000 0.500000 0.500000
O O1 0.106615 0.739904 0.866822
O O2 0.151009 0.534250 0.000000
O O3 0.977092 0.626685 0.000000
O O4 0.924718 0.094561 0.321205
O O5 0.170928 0.691901 0.370774
O O6 0.416252 0.764665 0.192642
O O7 0.248342 0.862744 0.216726
O O8 0.392379 0.000000 0.250000
O O9 0.353146 0.911254 0.000000
O O10 0.533394 0.403145 0.621761
#
# Coordination Sequence:
#
# PCOD9394932 Si02
#       7
#     4   2   4   8   4   8   2
#     4  11  22  45  64  93 141 185 245 293 358 429
#     4  12  24  42  70 100 148 190 232 296 356 420
#     4  11  24  41  68  97 131 195 239 297 358 427
#     4  12  28  48  75 109 146 189 246 302 363 439
#     4  11  25  52  78 108 149 187 238 302 366 441
#     4  12  25  43  69 103 143 186 241 296 364 428
#     4  10  24  50  82 110 144 192 232 296 380 442
#
# _framework density 21.462788
#
# number of rings (size 3 to 8) (size 9 to 14) (size 15 to 20)
#    0.000    0.500    6.250    1.125    3.500    5.000 
#   13.500    0.000    0.000    0.000    0.000    0.000 
#    0.000    0.000    0.000    0.000    0.000    0.000 
#
# Total GULP energy -178229.490859 kJ/mol
# GULP energy per Si atom -5569.671589 kJ/mol
# Density = 2.141394 g / cm^3
# Si number density = 21.462788 Si / 1000 Ang^3
#
#
#
# Elastic Constant Matrix: (Units=GPa)
#
#
# Indices 1 2 3 4 5 6 
#
# 1 76.4762 15.8749 16.9222 0.0000 0.0000 0.0000
# 2 15.8749 101.4468 42.2426 0.0000 0.0000 0.0000
# 3 16.9222 42.2426 172.1420 0.0000 0.0000 0.0000
# 4 0.0000 0.0000 0.0000 -33.0979 0.0000 0.0000
# 5 0.0000 0.0000 0.0000 0.0000 27.1911 0.0000
# 6 0.0000 0.0000 0.0000 0.0000 0.0000 -31.0634
#
#
#
# Elastic Compliance Matrix: (Units=1/GPa)
#
#
# Indices 1 2 3 4 5 6 
#
# 1 0.013642 -0.001756 -0.000910 0.000000 0.000000 0.000000
# 2 -0.001756 0.011205 -0.002577 0.000000 0.000000 0.000000
# 3 -0.000910 -0.002577 0.006531 0.000000 0.000000 0.000000
# 4 0.000000 0.000000 0.000000 -0.030213 0.000000 0.000000
# 5 0.000000 0.000000 0.000000 0.000000 0.036777 0.000000
# 6 0.000000 0.000000 0.000000 0.000000 0.000000 -0.032192
#
#
# Mechanical properties :
#
#
# Convention : Reuss Voigt Hill
#
# Bulk Modulus (GPa) = 47.86514 55.57159 51.71836
# Shear Modulus (GPa) = 215.52380 10.94098 113.23239
#
# Velocity S-wave (km/s) = 10.03172 2.26025 7.27132
# Velocity P-wave (km/s) = 12.51121 5.72363 9.72857
#
# Compressibility (1/GPa) = 0.02089203
#
# Stress axis : x y z
#
# Youngs Moduli (GPa) = 73.30401 89.24395 153.11501
#
# Poissons Ratio (x) = 0.15669 0.13936
# Poissons Ratio (y) = 0.12870 0.39459
# Poissons Ratio (z) = 0.06672 0.22999
#
# Static dielectric constant tensor:
#      x y z
#    x 1.777890 0.000000 0.000000 
#    y 0.000000 1.830600 0.000000 
#    z 0.000000 0.000000 1.748180 
# 
# From -- ./inp_files/3304.got.cif
#   From: 2010.05.17/outbox.cif.g08.bks.cpg/sg49_2_cif.got.tgz:3304.got - 2010.06.03 21:02:19.
