data_PCOD9394467
_publ_section_title
;
Structure prediction by ZEFSAII (Michael W. Deem and Ramdas Pophale) SiO2 
 PCOD9394467
Probable space group: P C C M
;
_chemical_formula_sum "Si O2"
_cell_formula_units_Z 58
_cell_length_a 14.773112
_cell_length_b 25.802647
_cell_length_c 8.920560
_cell_angle_alpha 90.000000
_cell_angle_beta 90.000000
_cell_angle_gamma 90.000000
_cell_volume 3400.387179
_symmetry_space_group_name_H-M "P C C M"
_symmetry_group_IT_number 49
_symmetry_cell_setting 'orthorhombic'
loop_
_space_group_symop_operation_xyz
x,y,z
-x,-y,z
x,-y,1/2-z
-x,y,1/2-z
-x,-y,-z
x,y,-z
-x,y,1/2+z
x,-y,1/2+z
loop_
_atom_site_type_symbol
_atom_site_label
_atom_site_fract_x
_atom_site_fract_y
_atom_site_fract_z
Si Si1 0.899513 0.551065 0.179018
Si Si2 0.164205 0.946959 0.178395
Si Si3 0.100134 0.667199 0.680054
Si Si4 0.594505 0.192152 0.821133
Si Si5 0.500000 0.000000 0.250000
Si Si6 0.352564 0.917195 0.328868
Si Si7 0.912548 0.845750 0.174652
Si Si8 0.236372 0.757555 0.676310
O O1 0.854087 0.500000 0.250000
O O2 0.864228 0.608862 0.211840
O O3 0.000000 0.552572 0.250000
O O4 0.905110 0.544757 0.000000
O O5 0.266323 0.938389 0.239061
O O6 0.108176 0.898149 0.236877
O O7 0.129400 0.000000 0.250000
O O8 0.164354 0.949901 0.000000
O O9 0.089474 0.671925 0.500000
O O10 0.173438 0.709856 0.727268
O O11 0.000000 0.674015 0.750000
O O12 0.500000 0.209659 0.750000
O O13 0.614906 0.135382 0.750575
O O14 0.674969 0.230227 0.771453
O O15 0.588604 0.187676 0.000000
O O16 0.431614 0.960280 0.331423
O O17 0.325154 0.905569 0.500000
O O18 0.827005 0.808230 0.186517
O O19 0.000000 0.820085 0.250000
O O20 0.929340 0.856218 0.000000
O O21 0.259561 0.750182 0.500000
#
# Coordination Sequence:
#
# PCOD9394467 Si02
#       8
#     8   8   8   8   2   8   8   8
#     4   9  15  24  40  65 101 144 190 229 271 313
#     4  12  25  41  60  80 105 133 168 208 258 314
#     4   9  18  31  49  76 109 149 190 232 272 316
#     4  12  25  40  60  82 107 138 174 213 262 320
#     4  12  26  36  64  86 112 132 166 204 260 320
#     4  12  24  39  58  82 109 134 165 205 256 315
#     4  11  23  39  60  82 107 137 174 216 264 316
#     4  10  21  38  58  79 109 143 178 222 270 316
#
# _framework density 17.056881000000001
#
# number of rings (size 3 to 8) (size 9 to 14) (size 15 to 20)
#    0.000    1.241    2.759    4.759    0.000    3.034 
#    0.000    1.379    0.000    0.000    0.000    0.000 
#    0.000    0.552    0.000    6.345    0.000    1.931 
#
# Total GULP energy -323904.350073 kJ/mol
# GULP energy per Si atom -5584.557760 kJ/mol
# Density = 1.701806 g / cm^3
# Si number density = 17.056881 Si / 1000 Ang^3
#
#
#
# Elastic Constant Matrix: (Units=GPa)
#
#
# Indices 1 2 3 4 5 6 
#
# 1 71.3360 34.3432 38.5248 0.0000 0.0000 0.0000
# 2 34.3432 114.9545 47.3624 0.0000 0.0000 0.0000
# 3 38.5248 47.3624 127.8779 0.0000 0.0000 0.0000
# 4 0.0000 0.0000 0.0000 25.4969 0.0000 0.0000
# 5 0.0000 0.0000 0.0000 0.0000 19.5491 0.0000
# 6 0.0000 0.0000 0.0000 0.0000 0.0000 5.3762
#
#
#
# Elastic Compliance Matrix: (Units=1/GPa)
#
#
# Indices 1 2 3 4 5 6 
#
# 1 0.017988 -0.003707 -0.004046 0.000000 0.000000 0.000000
# 2 -0.003707 0.011030 -0.002968 0.000000 0.000000 0.000000
# 3 -0.004046 -0.002968 0.010138 0.000000 0.000000 0.000000
# 4 0.000000 0.000000 0.000000 0.039220 0.000000 0.000000
# 5 0.000000 0.000000 0.000000 0.000000 0.051153 0.000000
# 6 0.000000 0.000000 0.000000 0.000000 0.000000 0.186004
#
#
# Mechanical properties :
#
#
# Convention : Reuss Voigt Hill
#
# Bulk Modulus (GPa) = 56.45559 61.62544 59.04051
# Shear Modulus (GPa) = 14.58236 23.01366 18.79801
#
# Velocity S-wave (km/s) = 2.92708 3.67717 3.32336
# Velocity P-wave (km/s) = 6.67788 7.36455 7.02960
#
# Compressibility (1/GPa) = 0.01771304
#
# Stress axis : x y z
#
# Youngs Moduli (GPa) = 55.59295 90.66585 98.63612
#
# Poissons Ratio (x) = 0.33609 0.39910
# Poissons Ratio (y) = 0.20608 0.29278
# Poissons Ratio (z) = 0.22494 0.26912
#
# Static dielectric constant tensor:
#      x y z
#    x 1.589660 0.000000 0.000000 
#    y 0.000000 1.609610 0.000000 
#    z 0.000000 0.000000 1.574880 
# 
# From -- ./inp_files/4232.got.cif
#   From: 2010.05.17/outbox.cif.g08.bks.cpg/sg49_3_cif.got.tgz:4232.got - 2010.06.03 21:02:19.
