data_PCOD9394100
_publ_section_title
;
Structure prediction by ZEFSAII (Michael W. Deem and Ramdas Pophale) SiO2 
 PCOD9394100
Probable space group: P C C M
;
_chemical_formula_sum "Si O2"
_cell_formula_units_Z 58
_cell_length_a 18.762812
_cell_length_b 17.146535
_cell_length_c 8.975974
_cell_angle_alpha 90.000000
_cell_angle_beta 90.000000
_cell_angle_gamma 90.000000
_cell_volume 2887.725336
_symmetry_space_group_name_H-M "P C C M"
_symmetry_group_IT_number 49
_symmetry_cell_setting 'orthorhombic'
loop_
_space_group_symop_operation_xyz
x,y,z
-x,-y,z
x,-y,1/2-z
-x,y,1/2-z
-x,-y,-z
x,y,-z
-x,y,1/2+z
x,-y,1/2+z
loop_
_atom_site_type_symbol
_atom_site_label
_atom_site_fract_x
_atom_site_fract_y
_atom_site_fract_z
Si Si1 0.882661 0.873273 0.828083
Si Si2 0.168146 0.582392 0.672012
Si Si3 0.691532 0.675908 0.829180
Si Si4 0.726310 0.149832 0.321866
Si Si5 0.074723 0.286468 0.323427
Si Si6 0.000000 0.000000 0.750000
Si Si7 0.576734 0.581173 0.676566
Si Si8 0.427781 0.913455 0.318710
O O1 0.800891 0.891371 0.776455
O O2 0.907268 0.800993 0.728920
O O3 0.942451 0.940864 0.824557
O O4 0.877550 0.846306 0.000000
O O5 0.156877 0.500000 0.750000
O O6 0.144247 0.580533 0.500000
O O7 0.250642 0.607413 0.672863
O O8 0.129544 0.651007 0.760283
O O9 0.729080 0.757730 0.789640
O O10 0.628785 0.651009 0.720953
O O11 0.664858 0.684353 0.000000
O O12 0.723428 0.139615 0.500000
O O13 0.648354 0.122313 0.269957
O O14 0.071224 0.289292 0.500000
O O15 0.000000 0.307214 0.250000
O O16 0.603115 0.500000 0.750000
O O17 0.500000 0.595199 0.750000
O O18 0.570978 0.571755 0.500000
O O19 0.500000 0.875903 0.250000
O O20 0.432664 0.914351 0.500000
O O21 0.426280 0.000000 0.250000
#
# Coordination Sequence:
#
# PCOD9394100 Si02
#       8
#     8   8   8   8   8   2   8   8
#     4  11  23  44  66  96 137 175 217 266 328 389
#     4  11  23  41  66  94 129 168 213 264 320 385
#     4  10  20  38  62  88 120 163 206 256 316 377
#     4   9  20  39  63  88 124 169 207 254 319 381
#     4  12  25  43  68  95 128 169 214 264 323 382
#     4  12  26  36  76 110 138 172 222 264 318 396
#     4  11  22  37  57  84 120 162 209 263 315 375
#     4  10  20  37  61  87 121 162 208 258 315 377
#
# _framework density 20.085014000000001
#
# number of rings (size 3 to 8) (size 9 to 14) (size 15 to 20)
#    0.000    1.379    2.069    4.759    0.966    3.586 
#    0.000    5.517    0.000    0.000    0.000    0.000 
#    0.000    0.000    0.000    0.000    0.000    0.000 
#
# Total GULP energy -323566.565938 kJ/mol
# GULP energy per Si atom -5578.733895 kJ/mol
# Density = 2.003930 g / cm^3
# Si number density = 20.085014 Si / 1000 Ang^3
#
#
#
# Elastic Constant Matrix: (Units=GPa)
#
#
# Indices 1 2 3 4 5 6 
#
# 1 133.7886 36.6657 44.8585 0.0000 0.0000 0.0000
# 2 36.6657 74.6442 37.6114 0.0000 0.0000 0.0000
# 3 44.8585 37.6114 138.2325 0.0000 0.0000 0.0000
# 4 0.0000 0.0000 0.0000 17.3459 0.0000 0.0000
# 5 0.0000 0.0000 0.0000 0.0000 26.7436 0.0000
# 6 0.0000 0.0000 0.0000 0.0000 0.0000 40.4206
#
#
#
# Elastic Compliance Matrix: (Units=1/GPa)
#
#
# Indices 1 2 3 4 5 6 
#
# 1 0.009096 -0.003454 -0.002012 0.000000 0.000000 0.000000
# 2 -0.003454 0.016837 -0.003460 0.000000 0.000000 0.000000
# 3 -0.002012 -0.003460 0.008829 0.000000 0.000000 0.000000
# 4 0.000000 0.000000 0.000000 0.057651 0.000000 0.000000
# 5 0.000000 0.000000 0.000000 0.000000 0.037392 0.000000
# 6 0.000000 0.000000 0.000000 0.000000 0.000000 0.024740
#
#
# Mechanical properties :
#
#
# Convention : Reuss Voigt Hill
#
# Bulk Modulus (GPa) = 59.14057 64.99294 62.06676
# Shear Modulus (GPa) = 28.08475 32.07067 30.07771
#
# Velocity S-wave (km/s) = 3.74343 4.00027 3.87398
# Velocity P-wave (km/s) = 6.94215 7.33249 7.13999
#
# Compressibility (1/GPa) = 0.01690887
#
# Stress axis : x y z
#
# Youngs Moduli (GPa) = 109.94249 59.39264 113.26874
#
# Poissons Ratio (x) = 0.20515 0.22788
# Poissons Ratio (y) = 0.37975 0.39194
# Poissons Ratio (z) = 0.22119 0.20551
#
# Static dielectric constant tensor:
#      x y z
#    x 1.773320 0.000000 0.000000 
#    y 0.000000 1.712090 0.000000 
#    z 0.000000 0.000000 1.683340 
# 
# From -- ./inp_files/5076.got.cif
#   From: 2010.05.17/outbox.cif.g08.bks.cpg/sg49_3_cif.got.tgz:5076.got - 2010.06.03 21:02:19.
