data_PCOD9394773
_publ_section_title
;
Structure prediction by ZEFSAII (Michael W. Deem and Ramdas Pophale) SiO2 
 PCOD9394773
Probable space group: P C C M
;
_chemical_formula_sum "Si O2"
_cell_formula_units_Z 32
_cell_length_a 18.372911
_cell_length_b 5.039938
_cell_length_c 16.553953
_cell_angle_alpha 90.000000
_cell_angle_beta 90.000000
_cell_angle_gamma 90.000000
_cell_volume 1532.868441
_symmetry_space_group_name_H-M "P C C M"
_symmetry_group_IT_number 49
_symmetry_cell_setting 'orthorhombic'
loop_
_space_group_symop_operation_xyz
x,y,z
-x,-y,z
x,-y,1/2-z
-x,y,1/2-z
-x,-y,-z
x,y,-z
-x,y,1/2+z
x,-y,1/2+z
loop_
_atom_site_type_symbol
_atom_site_label
_atom_site_fract_x
_atom_site_fract_y
_atom_site_fract_z
Si Si1 0.667501 0.070888 0.592858
Si Si2 0.192233 0.755768 0.305047
Si Si3 0.950637 0.240254 0.406993
Si Si4 0.585858 0.556946 0.656200
O O1 0.683258 0.000080 0.500000
O O2 0.740264 0.130573 0.643438
O O3 0.624539 0.345871 0.598983
O O4 0.616518 0.845277 0.632878
O O5 0.211420 0.500000 0.250000
O O6 0.123660 0.695875 0.361359
O O7 0.168553 0.000000 0.250000
O O8 0.932632 0.168882 0.500000
O O9 0.000000 0.500000 0.406286
O O10 0.000000 0.000000 0.373205
O O11 0.500000 0.500000 0.648409
O O12 0.604527 0.500000 0.750000
#
# Coordination Sequence:
#
# PCOD9394773 Si02
#       4
#     8   8   8   8
#     4  12  25  42  65  93 128 167 212 263 317 382
#     4  12  25  41  64  92 127 168 214 266 320 383
#     4  10  22  41  64  91 126 166 210 263 323 385
#     4  11  24  43  67  94 127 166 208 259 320 384
#
# _framework density 20.875893999999999
#
# number of rings (size 3 to 8) (size 9 to 14) (size 15 to 20)
#    0.000    0.750    0.000    8.250    0.000    8.000 
#    0.000    7.500    0.000    0.000    0.000    0.000 
#    0.000    0.000    0.000    0.000    0.000    0.000 
#
# Total GULP energy -178962.500802 kJ/mol
# GULP energy per Si atom -5592.578150 kJ/mol
# Density = 2.082838 g / cm^3
# Si number density = 20.875894 Si / 1000 Ang^3
#
#
#
# Elastic Constant Matrix: (Units=GPa)
#
#
# Indices 1 2 3 4 5 6 
#
# 1 130.8324 15.4296 48.3788 0.0000 0.0000 0.0000
# 2 15.4296 91.0260 10.4197 0.0000 0.0000 0.0000
# 3 48.3788 10.4197 98.8384 0.0000 0.0000 0.0000
# 4 0.0000 0.0000 0.0000 14.8510 0.0000 0.0000
# 5 0.0000 0.0000 0.0000 0.0000 14.8916 0.0000
# 6 0.0000 0.0000 0.0000 0.0000 0.0000 35.9572
#
#
#
# Elastic Compliance Matrix: (Units=1/GPa)
#
#
# Indices 1 2 3 4 5 6 
#
# 1 0.009437 -0.001084 -0.004505 0.000000 0.000000 0.000000
# 2 -0.001084 0.011245 -0.000655 0.000000 0.000000 0.000000
# 3 -0.004505 -0.000655 0.012392 0.000000 0.000000 0.000000
# 4 0.000000 0.000000 0.000000 0.067336 0.000000 0.000000
# 5 0.000000 0.000000 0.000000 0.000000 0.067152 0.000000
# 6 0.000000 0.000000 0.000000 0.000000 0.000000 0.027811
#
#
# Mechanical properties :
#
#
# Convention : Reuss Voigt Hill
#
# Bulk Modulus (GPa) = 48.57728 52.12810 50.35269
# Shear Modulus (GPa) = 23.28605 29.57121 26.42863
#
# Velocity S-wave (km/s) = 3.34346 3.76776 3.56193
# Velocity P-wave (km/s) = 6.18264 6.62968 6.41006
#
# Compressibility (1/GPa) = 0.02058575
#
# Stress axis : x y z
#
# Youngs Moduli (GPa) = 105.96579 88.93180 80.69992
#
# Poissons Ratio (x) = 0.09640 0.36354
# Poissons Ratio (y) = 0.11486 0.05285
# Poissons Ratio (z) = 0.47736 0.05824
#
# Static dielectric constant tensor:
#      x y z
#    x 2.395030 0.000000 0.000000 
#    y 0.000000 1.729340 0.000000 
#    z 0.000000 0.000000 1.773930 
# 
# From -- ./inp_files/10529.got.cif
#   From: 2010.05.17/outbox.cif.g08.bks.cpg/sg49_6_cif.got.tgz:10529.got - 2010.06.03 21:02:19.
