data_PCOD9394260
_publ_section_title
;
Structure prediction by ZEFSAII (Michael W. Deem and Ramdas Pophale) SiO2 
 PCOD9394260
Probable space group: P C C M
;
_chemical_formula_sum "Si O2"
_cell_formula_units_Z 48
_cell_length_a 17.315922
_cell_length_b 8.660302
_cell_length_c 14.253331
_cell_angle_alpha 90.000000
_cell_angle_beta 90.000000
_cell_angle_gamma 90.000000
_cell_volume 2137.445394
_symmetry_space_group_name_H-M "P C C M"
_symmetry_group_IT_number 49
_symmetry_cell_setting 'orthorhombic'
loop_
_space_group_symop_operation_xyz
x,y,z
-x,-y,z
x,-y,1/2-z
-x,y,1/2-z
-x,-y,-z
x,y,-z
-x,y,1/2+z
x,-y,1/2+z
loop_
_atom_site_type_symbol
_atom_site_label
_atom_site_fract_x
_atom_site_fract_y
_atom_site_fract_z
Si Si1 0.843130 0.309413 0.500000
Si Si2 0.584516 0.438469 0.611486
Si Si3 0.981625 0.681792 0.140939
Si Si4 0.912843 0.820747 0.500000
Si Si5 0.252141 0.005692 0.000000
Si Si6 0.275753 0.638175 0.196355
Si Si7 0.790390 0.628789 0.500000
Si Si8 0.651752 0.116838 0.326391
O O1 0.897855 0.302000 0.408128
O O2 0.781753 0.447496 0.500000
O O3 0.786472 0.169702 0.500000
O O4 0.500000 0.500000 0.636805
O O5 0.594199 0.456618 0.500000
O O6 0.646206 0.550533 0.661850
O O7 0.598379 0.257315 0.635498
O O8 0.000000 0.500000 0.123582
O O9 0.000000 0.703644 0.250000
O O10 0.032830 0.815086 0.089646
O O11 0.830202 0.907604 0.500000
O O12 0.881742 0.645005 0.500000
O O13 0.308274 0.015113 0.091642
O O14 0.230601 0.500000 0.250000
O O15 0.287116 0.780417 0.266111
O O16 0.240429 0.689102 0.098198
O O17 0.615370 0.000000 0.250000
#
# Coordination Sequence:
#
# PCOD9394260 Si02
#       8
#     4   8   8   4   4   8   4   8
#     4  11  21  38  63  88 127 169 221 275 341 386
#     4  10  20  42  72 100 135 179 231 284 336 392
#     4  10  21  41  62  93 126 165 225 288 333 391
#     4  11  23  40  63  88 123 178 212 273 342 397
#     4  12  26  43  64  97 144 175 219 273 334 419
#     4  10  22  36  62  96 131 177 231 277 341 391
#     4  12  20  37  60  91 127 168 228 283 326 395
#     4  11  24  44  65 100 142 183 218 275 349 416
#
# _framework density 22.456714999999999
#
# number of rings (size 3 to 8) (size 9 to 14) (size 15 to 20)
#    0.000    1.333    3.333    3.500    0.000    8.333 
#    0.000    2.500    0.000    2.000    0.000    0.000 
#    0.000    0.000    0.000    0.000    0.000    0.000 
#
# Total GULP energy -267284.305712 kJ/mol
# GULP energy per Si atom -5568.423036 kJ/mol
# Density = 2.240560 g / cm^3
# Si number density = 22.456715 Si / 1000 Ang^3
#
#
#
# Elastic Constant Matrix: (Units=GPa)
#
#
# Indices 1 2 3 4 5 6 
#
# 1 62.4562 13.9071 23.0509 0.0000 0.0000 0.0000
# 2 13.9071 70.9921 22.7004 0.0000 0.0000 0.0000
# 3 23.0509 22.7004 149.8545 0.0000 0.0000 0.0000
# 4 0.0000 0.0000 0.0000 2.5366 0.0000 0.0000
# 5 0.0000 0.0000 0.0000 0.0000 -1.1378 0.0000
# 6 0.0000 0.0000 0.0000 0.0000 0.0000 40.8741
#
#
#
# Elastic Compliance Matrix: (Units=1/GPa)
#
#
# Indices 1 2 3 4 5 6 
#
# 1 0.017451 -0.002691 -0.002277 0.000000 0.000000 0.000000
# 2 -0.002691 0.015218 -0.001891 0.000000 0.000000 0.000000
# 3 -0.002277 -0.001891 0.007310 0.000000 0.000000 0.000000
# 4 0.000000 0.000000 0.000000 0.394235 0.000000 0.000000
# 5 0.000000 0.000000 0.000000 0.000000 -0.878868 0.000000
# 6 0.000000 0.000000 0.000000 0.000000 0.000000 0.024465
#
#
# Mechanical properties :
#
#
# Convention : Reuss Voigt Hill
#
# Bulk Modulus (GPa) = 38.07906 44.73550 41.40728
# Shear Modulus (GPa) = -12.57172 23.36418 5.39623
#
# Velocity S-wave (km/s) = -2.36862 3.22904 1.55183
# Velocity P-wave (km/s) = 3.08431 5.81947 4.65721
#
# Compressibility (1/GPa) = 0.02626116
#
# Stress axis : x y z
#
# Youngs Moduli (GPa) = 57.30461 65.71193 136.80143
#
# Poissons Ratio (x) = 0.17680 0.31146
# Poissons Ratio (y) = 0.15418 0.25875
# Poissons Ratio (z) = 0.13047 0.12429
#
# Static dielectric constant tensor:
#      x y z
#    x 1.813930 0.000000 0.000000 
#    y 0.000000 2.182740 0.000000 
#    z 0.000000 0.000000 2.046860 
# 
# From -- ./inp_files/14086.got.cif
#   From: 2010.05.17/outbox.cif.g08.bks.cpg/sg49_8_cif.got.tgz:14086.got - 2010.06.03 21:02:19.
