data_PCOD9394339
_publ_section_title
;
Structure prediction by ZEFSAII (Michael W. Deem and Ramdas Pophale) SiO2 
 PCOD9394339
Probable space group: P C C M
;
_chemical_formula_sum "Si O2"
_cell_formula_units_Z 32
_cell_length_a 14.496828
_cell_length_b 14.328064
_cell_length_c 8.367110
_cell_angle_alpha 90.000000
_cell_angle_beta 90.000000
_cell_angle_gamma 90.000000
_cell_volume 1737.944796
_symmetry_space_group_name_H-M "P C C M"
_symmetry_group_IT_number 49
_symmetry_cell_setting 'orthorhombic'
loop_
_space_group_symop_operation_xyz
x,y,z
-x,-y,z
x,-y,1/2-z
-x,y,1/2-z
-x,-y,-z
x,y,-z
-x,y,1/2+z
x,-y,1/2+z
loop_
_atom_site_type_symbol
_atom_site_label
_atom_site_fract_x
_atom_site_fract_y
_atom_site_fract_z
Si Si1 0.394626 0.102264 0.192361
Si Si2 0.246143 0.753726 0.314263
Si Si3 0.101540 0.394252 0.689280
Si Si4 0.900670 0.894171 0.307842
O O1 0.500000 0.107963 0.250000
O O2 0.338680 0.194480 0.249136
O O3 0.358421 0.000000 0.250000
O O4 0.390827 0.101003 0.000000
O O5 0.260676 0.731691 0.500000
O O6 0.190348 0.667226 0.238697
O O7 0.174235 0.836804 0.287370
O O8 0.112770 0.500000 0.750000
O O9 0.095978 0.393735 0.500000
O O10 0.000000 0.361403 0.750000
O O11 0.891120 0.886214 0.500000
O O12 0.000000 0.859713 0.250000
O O13 0.894097 0.000000 0.250000
#
# Coordination Sequence:
#
# PCOD9394339 Si02
#       4
#     8   8   8   8
#     4  10  21  36  57  81 111 145 182 226 272 323
#     4  11  22  36  54  79 107 140 180 223 269 322
#     4  11  22  38  59  83 112 146 182 226 272 324
#     4  11  21  33  48  70 102 140 176 215 260 314
#
# _framework density 18.412552999999999
#
# number of rings (size 3 to 8) (size 9 to 14) (size 15 to 20)
#    0.000    1.250    0.000    9.750    0.000    6.000 
#    0.000    0.000    0.000    0.750    0.000    5.250 
#    0.000    0.000    0.000    0.000    0.000    0.000 
#
# Total GULP energy -178480.337513 kJ/mol
# GULP energy per Si atom -5577.510547 kJ/mol
# Density = 1.837064 g / cm^3
# Si number density = 18.412553 Si / 1000 Ang^3
#
#
#
# Elastic Constant Matrix: (Units=GPa)
#
#
# Indices 1 2 3 4 5 6 
#
# 1 82.1016 50.0854 10.9802 0.0000 0.0000 0.0000
# 2 50.0854 115.3380 26.3356 0.0000 0.0000 0.0000
# 3 10.9802 26.3356 79.6173 0.0000 0.0000 0.0000
# 4 0.0000 0.0000 0.0000 29.5140 0.0000 0.0000
# 5 0.0000 0.0000 0.0000 0.0000 44.6677 0.0000
# 6 0.0000 0.0000 0.0000 0.0000 0.0000 35.9722
#
#
#
# Elastic Compliance Matrix: (Units=1/GPa)
#
#
# Indices 1 2 3 4 5 6 
#
# 1 0.016570 -0.007219 0.000103 0.000000 0.000000 0.000000
# 2 -0.007219 0.012524 -0.003147 0.000000 0.000000 0.000000
# 3 0.000103 -0.003147 0.013587 0.000000 0.000000 0.000000
# 4 0.000000 0.000000 0.000000 0.033882 0.000000 0.000000
# 5 0.000000 0.000000 0.000000 0.000000 0.022388 0.000000
# 6 0.000000 0.000000 0.000000 0.000000 0.000000 0.027799
#
#
# Mechanical properties :
#
#
# Convention : Reuss Voigt Hill
#
# Bulk Modulus (GPa) = 45.13846 50.20658 47.67252
# Shear Modulus (GPa) = 32.32876 34.67448 33.50162
#
# Velocity S-wave (km/s) = 4.19477 4.34429 4.27019
# Velocity P-wave (km/s) = 6.93035 7.24504 7.08944
#
# Compressibility (1/GPa) = 0.02215406
#
# Stress axis : x y z
#
# Youngs Moduli (GPa) = 60.34917 79.84928 73.60049
#
# Poissons Ratio (x) = 0.57644 -0.00756
# Poissons Ratio (y) = 0.43566 0.23162
# Poissons Ratio (z) = -0.00620 0.25128
#
# Static dielectric constant tensor:
#      x y z
#    x 1.590250 0.000000 0.000000 
#    y 0.000000 1.605960 0.000000 
#    z 0.000000 0.000000 1.628030 
# 
# From -- ./inp_files/3333.got.cif
#   From: 2010.05.17/outbox.cif.g08.bks.cpg/sg49_2_cif.got.tgz:3333.got - 2010.06.03 21:02:19.
