data_PCOD9394536
_publ_section_title
;
Structure prediction by ZEFSAII (Michael W. Deem and Ramdas Pophale) SiO2 
 PCOD9394536
Probable space group: P C C M
;
_chemical_formula_sum "Si O2"
_cell_formula_units_Z 48
_cell_length_a 12.312320
_cell_length_b 10.100810
_cell_length_c 17.791650
_cell_angle_alpha 90.000000
_cell_angle_beta 90.000000
_cell_angle_gamma 90.000000
_cell_volume 2212.647966
_symmetry_space_group_name_H-M "P C C M"
_symmetry_group_IT_number 49
_symmetry_cell_setting 'orthorhombic'
loop_
_space_group_symop_operation_xyz
x,y,z
-x,-y,z
x,-y,1/2-z
-x,y,1/2-z
-x,-y,-z
x,y,-z
-x,y,1/2+z
x,-y,1/2+z
loop_
_atom_site_type_symbol
_atom_site_label
_atom_site_fract_x
_atom_site_fract_y
_atom_site_fract_z
Si Si1 0.364104 0.394044 0.410885
Si Si2 0.883255 0.262454 0.410248
Si Si3 0.393040 0.169337 0.296703
Si Si4 0.124480 0.718905 0.088292
Si Si5 0.295426 0.607143 0.311473
Si Si6 0.188624 0.011161 0.335041
O O1 0.388724 0.401579 0.500000
O O2 0.414605 0.267164 0.367811
O O3 0.232920 0.367755 0.402461
O O4 0.382677 0.528559 0.363332
O O5 0.871207 0.268026 0.500000
O O6 0.796202 0.349446 0.368008
O O7 0.002415 0.319057 0.389683
O O8 0.854005 0.113869 0.381836
O O9 0.500000 0.136103 0.250000
O O10 0.329476 0.264424 0.237066
O O11 0.318085 0.048057 0.326506
O O12 0.143788 0.856257 0.129309
O O13 0.118548 0.745632 0.000000
O O14 0.260192 0.500000 0.250000
O O15 0.148714 0.000000 0.250000
#
# Coordination Sequence:
#
# PCOD9394536 Si02
#       6
#     8   8   8   8   8   8
#     4   9  19  38  63  89 119 156 202 250 294 360
#     4  11  22  38  60  89 126 163 200 245 299 359
#     4  10  22  42  64  84 119 157 200 253 318 368
#     4   9  20  37  59  87 121 163 201 241 298 358
#     4  10  21  39  58  88 123 159 202 249 306 354
#     4  11  21  38  58  88 115 155 201 250 301 357
#
# _framework density 21.693463999999999
#
# number of rings (size 3 to 8) (size 9 to 14) (size 15 to 20)
#    0.000    2.000    1.667    1.500    0.000    7.333 
#    0.000    9.167    0.000    1.000    0.000    0.000 
#    0.000    0.000    0.000    0.000    0.000    0.000 
#
# Total GULP energy -267771.380021 kJ/mol
# GULP energy per Si atom -5578.570417 kJ/mol
# Density = 2.164409 g / cm^3
# Si number density = 21.693464 Si / 1000 Ang^3
#
#
#
# Elastic Constant Matrix: (Units=GPa)
#
#
# Indices 1 2 3 4 5 6 
#
# 1 94.6382 17.8044 32.6029 0.0000 0.0000 0.0000
# 2 17.8044 69.4606 29.9255 0.0000 0.0000 0.0000
# 3 32.6029 29.9255 76.9267 0.0000 0.0000 0.0000
# 4 0.0000 0.0000 0.0000 117.5836 0.0000 0.0000
# 5 0.0000 0.0000 0.0000 0.0000 30.6503 0.0000
# 6 0.0000 0.0000 0.0000 0.0000 0.0000 11.2961
#
#
#
# Elastic Compliance Matrix: (Units=1/GPa)
#
#
# Indices 1 2 3 4 5 6 
#
# 1 0.012443 -0.001102 -0.004845 0.000000 0.000000 0.000000
# 2 -0.001102 0.017393 -0.006299 0.000000 0.000000 0.000000
# 3 -0.004845 -0.006299 0.017503 0.000000 0.000000 0.000000
# 4 0.000000 0.000000 0.000000 0.008505 0.000000 0.000000
# 5 0.000000 0.000000 0.000000 0.000000 0.032626 0.000000
# 6 0.000000 0.000000 0.000000 0.000000 0.000000 0.088526
#
#
# Mechanical properties :
#
#
# Convention : Reuss Voigt Hill
#
# Bulk Modulus (GPa) = 43.76918 44.63234 44.20076
# Shear Modulus (GPa) = 23.91167 42.61886 33.26526
#
# Velocity S-wave (km/s) = 3.32362 4.43718 3.92014
# Velocity P-wave (km/s) = 5.91173 6.84618 6.39605
#
# Compressibility (1/GPa) = 0.02284713
#
# Stress axis : x y z
#
# Youngs Moduli (GPa) = 80.36685 57.49469 57.13279
#
# Poissons Ratio (x) = 0.06337 0.27680
# Poissons Ratio (y) = 0.08858 0.35988
# Poissons Ratio (z) = 0.38936 0.36216
#
# Static dielectric constant tensor:
#      x y z
#    x 1.907080 0.000000 0.000000 
#    y 0.000000 1.859270 0.000000 
#    z 0.000000 0.000000 1.819150 
# 
# From -- ./inp_files/17043.got.cif
#   From: 2010.05.17/outbox.cif.g08.bks.cpg/sg49_9_cif.got.tgz:17043.got - 2010.06.03 21:02:19.
