data_PCOD9394433
_publ_section_title
;
Structure prediction by ZEFSAII (Michael W. Deem and Ramdas Pophale) SiO2 
 PCOD9394433
Probable space group: P C C M
;
_chemical_formula_sum "Si O2"
_cell_formula_units_Z 42
_cell_length_a 8.371446
_cell_length_b 11.557716
_cell_length_c 20.545894
_cell_angle_alpha 90.000000
_cell_angle_beta 90.000000
_cell_angle_gamma 90.000000
_cell_volume 1987.913770
_symmetry_space_group_name_H-M "P C C M"
_symmetry_group_IT_number 49
_symmetry_cell_setting 'orthorhombic'
loop_
_space_group_symop_operation_xyz
x,y,z
-x,-y,z
x,-y,1/2-z
-x,y,1/2-z
-x,-y,-z
x,y,-z
-x,y,1/2+z
x,-y,1/2+z
loop_
_atom_site_type_symbol
_atom_site_label
_atom_site_fract_x
_atom_site_fract_y
_atom_site_fract_z
Si Si1 0.000000 0.000000 0.750000
Si Si2 0.184285 0.732631 0.072505
Si Si3 0.249170 0.183081 0.779681
Si Si4 0.930022 0.627716 0.164663
Si Si5 0.329037 0.523425 0.426884
Si Si6 0.445424 0.868530 0.851635
O O1 0.883593 0.916017 0.790840
O O2 0.249979 0.602252 0.068066
O O3 0.331894 0.813452 0.093964
O O4 0.051307 0.716214 0.128598
O O5 0.124521 0.764953 0.000000
O O6 0.158520 0.305480 0.776875
O O7 0.386426 0.191790 0.834210
O O8 0.339272 0.145637 0.713933
O O9 0.792489 0.601207 0.111987
O O10 0.000000 0.500000 0.178729
O O11 0.500000 0.500000 0.394464
O O12 0.356330 0.569847 0.500000
O O13 0.500000 0.000000 0.863130
#
# Coordination Sequence:
#
# PCOD9394433 Si02
#       6
#     2   8   8   8   8   8
#     4  12  20  38  62  88 114 158 196 258 320 380
#     4  10  21  37  60  90 129 171 210 262 319 376
#     4  11  22  39  65  91 119 161 213 260 319 384
#     4  10  21  37  61  94 132 166 207 264 323 384
#     4   9  17  33  57  87 124 172 216 251 312 386
#     4  11  22  42  63  92 119 163 223 266 316 381
#
# _framework density 21.127679000000001
#
# number of rings (size 3 to 8) (size 9 to 14) (size 15 to 20)
#    0.000    1.714    1.905    3.429    0.000    2.667 
#    0.000   11.905    0.000   16.000    0.000    0.000 
#    0.000    0.000    0.000    0.000    0.000    0.000 
#
# Total GULP energy -234267.081052 kJ/mol
# GULP energy per Si atom -5577.787644 kJ/mol
# Density = 2.107959 g / cm^3
# Si number density = 21.127679 Si / 1000 Ang^3
#
#
#
# Elastic Constant Matrix: (Units=GPa)
#
#
# Indices 1 2 3 4 5 6 
#
# 1 123.2834 42.5152 28.2256 0.0000 0.0000 0.0000
# 2 42.5152 111.0527 24.6706 0.0000 0.0000 0.0000
# 3 28.2256 24.6706 73.8261 0.0000 0.0000 0.0000
# 4 0.0000 0.0000 0.0000 -95.4623 0.0000 0.0000
# 5 0.0000 0.0000 0.0000 0.0000 34.8080 0.0000
# 6 0.0000 0.0000 0.0000 0.0000 0.0000 46.9490
#
#
#
# Elastic Compliance Matrix: (Units=1/GPa)
#
#
# Indices 1 2 3 4 5 6 
#
# 1 0.009819 -0.003160 -0.002698 0.000000 0.000000 0.000000
# 2 -0.003160 0.010744 -0.002382 0.000000 0.000000 0.000000
# 3 -0.002698 -0.002382 0.015373 0.000000 0.000000 0.000000
# 4 0.000000 0.000000 0.000000 -0.010475 0.000000 0.000000
# 5 0.000000 0.000000 0.000000 0.000000 0.028729 0.000000
# 6 0.000000 0.000000 0.000000 0.000000 0.000000 0.021300
#
#
# Mechanical properties :
#
#
# Convention : Reuss Voigt Hill
#
# Bulk Modulus (GPa) = 51.39950 55.44280 53.42115
# Shear Modulus (GPa) = 50.78534 11.44231 31.11382
#
# Velocity S-wave (km/s) = 4.90811 2.32971 3.84168
# Velocity P-wave (km/s) = 7.51666 5.79098 6.70953
#
# Compressibility (1/GPa) = 0.01945544
#
# Stress axis : x y z
#
# Youngs Moduli (GPa) = 101.84621 93.07907 65.04927
#
# Poissons Ratio (x) = 0.29409 0.17551
# Poissons Ratio (y) = 0.32179 0.15496
# Poissons Ratio (z) = 0.27479 0.22173
#
# Static dielectric constant tensor:
#      x y z
#    x 1.823810 0.000000 0.000000 
#    y 0.000000 1.760250 0.000000 
#    z 0.000000 0.000000 1.825590 
# 
# From -- ./inp_files/22343.got.cif
#   From: 2010.05.17/outbox.cif.g08.bks.cpg/sg49_12_cif.got.tgz:22343.got - 2010.06.03 21:02:19.
