data_PCOD9394453
_publ_section_title
;
Structure prediction by ZEFSAII (Michael W. Deem and Ramdas Pophale) SiO2 
 PCOD9394453
Probable space group: P C C M
;
_chemical_formula_sum "Si O2"
_cell_formula_units_Z 64
_cell_length_a 24.245149
_cell_length_b 15.757993
_cell_length_c 8.818207
_cell_angle_alpha 90.000000
_cell_angle_beta 90.000000
_cell_angle_gamma 90.000000
_cell_volume 3369.039090
_symmetry_space_group_name_H-M "P C C M"
_symmetry_group_IT_number 49
_symmetry_cell_setting 'orthorhombic'
loop_
_space_group_symop_operation_xyz
x,y,z
-x,-y,z
x,-y,1/2-z
-x,y,1/2-z
-x,-y,-z
x,y,-z
-x,y,1/2+z
x,-y,1/2+z
loop_
_atom_site_type_symbol
_atom_site_label
_atom_site_fract_x
_atom_site_fract_y
_atom_site_fract_z
Si Si1 0.060846 0.751000 0.682874
Si Si2 0.750137 0.353133 0.180831
Si Si3 0.365193 0.588485 0.318620
Si Si4 0.134236 0.589042 0.318040
Si Si5 0.864801 0.910420 0.818901
Si Si6 0.628778 0.908998 0.317706
Si Si7 0.560884 0.752422 0.817957
Si Si8 0.751364 0.150841 0.180434
O O1 0.057685 0.752267 0.500000
O O2 0.094488 0.666608 0.726759
O O3 0.095943 0.833253 0.731537
O O4 0.000000 0.751637 0.750000
O O5 0.695219 0.392886 0.251136
O O6 0.804923 0.391485 0.254432
O O7 0.749534 0.251812 0.209522
O O8 0.750773 0.366941 0.000000
O O9 0.385853 0.500000 0.250000
O O10 0.361648 0.582009 0.500000
O O11 0.404189 0.667982 0.279851
O O12 0.114862 0.500000 0.250000
O O13 0.136413 0.584563 0.500000
O O14 0.802724 0.889624 0.766402
O O15 0.882261 0.000000 0.750000
O O16 0.866229 0.914985 0.000000
O O17 0.624488 0.909541 0.500000
O O18 0.591796 0.833865 0.250656
O O19 0.692577 0.889014 0.276877
O O20 0.613128 0.000000 0.250000
O O21 0.500000 0.746414 0.750000
O O22 0.558585 0.759869 0.000000
O O23 0.759286 0.138506 0.000000
#
# Coordination Sequence:
#
# PCOD9394453 Si02
#       8
#     8   8   8   8   8   8   8   8
#     4  10  24  43  63  86 118 158 204 253 304 357
#     4  11  21  37  63  94 126 162 201 246 303 363
#     4  11  24  41  64  93 126 164 204 250 306 364
#     4  11  23  41  62  91 124 160 202 248 303 362
#     4  11  23  40  62  91 124 160 201 249 301 361
#     4  11  23  41  64  94 128 162 204 251 303 365
#     4  11  25  44  66  91 121 162 208 257 308 359
#     4  10  21  37  62  94 125 162 200 244 303 363
#
# _framework density 18.996514999999999
#
# number of rings (size 3 to 8) (size 9 to 14) (size 15 to 20)
#    0.000    1.250    2.500    3.000    0.000    7.000 
#    0.000    5.000    0.000    0.000    0.000    0.000 
#    0.000    0.000    0.000    0.000    0.000    0.000 
#
# Total GULP energy -358004.182670 kJ/mol
# GULP energy per Si atom -5593.815354 kJ/mol
# Density = 1.895328 g / cm^3
# Si number density = 18.996515 Si / 1000 Ang^3
#
#
#
# Elastic Constant Matrix: (Units=GPa)
#
#
# Indices 1 2 3 4 5 6 
#
# 1 146.8204 88.1849 49.3693 0.0000 0.0000 0.0000
# 2 88.1849 191.6458 69.6302 0.0000 0.0000 0.0000
# 3 49.3693 69.6302 55.9144 0.0000 0.0000 0.0000
# 4 0.0000 0.0000 0.0000 35.2703 0.0000 0.0000
# 5 0.0000 0.0000 0.0000 0.0000 28.7061 0.0000
# 6 0.0000 0.0000 0.0000 0.0000 0.0000 -3.2529
#
#
#
# Elastic Compliance Matrix: (Units=1/GPa)
#
#
# Indices 1 2 3 4 5 6 
#
# 1 0.010370 -0.002639 -0.005870 0.000000 0.000000 0.000000
# 2 -0.002639 0.010201 -0.010374 0.000000 0.000000 0.000000
# 3 -0.005870 -0.010374 0.035985 0.000000 0.000000 0.000000
# 4 0.000000 0.000000 0.000000 0.028352 0.000000 0.000000
# 5 0.000000 0.000000 0.000000 0.000000 0.034836 0.000000
# 6 0.000000 0.000000 0.000000 0.000000 0.000000 -0.307422
#
#
# Mechanical properties :
#
#
# Convention : Reuss Voigt Hill
#
# Bulk Modulus (GPa) = 53.21423 89.86105 71.53764
# Shear Modulus (GPa) = -34.80698 24.62446 -5.09126
#
# Velocity S-wave (km/s) = -4.28516 3.60427 -1.63888
# Velocity P-wave (km/s) = 1.89472 8.04535 5.84455
#
# Compressibility (1/GPa) = 0.01879197
#
# Stress axis : x y z
#
# Youngs Moduli (GPa) = 96.43372 98.02682 27.78922
#
# Poissons Ratio (x) = 0.25870 0.16311
# Poissons Ratio (y) = 0.25449 0.28827
# Poissons Ratio (z) = 0.56603 1.01688
#
# Static dielectric constant tensor:
#      x y z
#    x 1.617560 0.000000 0.000000 
#    y 0.000000 1.659610 0.000000 
#    z 0.000000 0.000000 1.633190 
# 
# From -- ./inp_files/4317.got.cif
#   From: 2010.05.17/outbox.cif.g08.bks.cpg/sg49_3_cif.got.tgz:4317.got - 2010.06.03 21:02:19.
