data_PCOD9394296
_publ_section_title
;
Structure prediction by ZEFSAII (Michael W. Deem and Ramdas Pophale) SiO2 
 PCOD9394296
Probable space group: P C C M
;
_chemical_formula_sum "Si O2"
_cell_formula_units_Z 58
_cell_length_a 14.702863
_cell_length_b 11.833085
_cell_length_c 14.518980
_cell_angle_alpha 90.000000
_cell_angle_beta 90.000000
_cell_angle_gamma 90.000000
_cell_volume 2526.015445
_symmetry_space_group_name_H-M "P C C M"
_symmetry_group_IT_number 49
_symmetry_cell_setting 'orthorhombic'
loop_
_space_group_symop_operation_xyz
x,y,z
-x,-y,z
x,-y,1/2-z
-x,y,1/2-z
-x,-y,-z
x,y,-z
-x,y,1/2+z
x,-y,1/2+z
loop_
_atom_site_type_symbol
_atom_site_label
_atom_site_fract_x
_atom_site_fract_y
_atom_site_fract_z
Si Si1 0.720773 0.937439 0.102796
Si Si2 0.000000 0.500000 0.000000
Si Si3 0.903389 0.668959 0.598386
Si Si4 0.798168 0.758677 0.762373
Si Si5 0.227392 0.464933 0.144397
Si Si6 0.427664 0.589125 0.394584
Si Si7 0.674227 0.803984 0.600118
Si Si8 0.530289 0.167656 0.348217
O O1 0.776231 0.874235 0.183192
O O2 0.613988 0.902654 0.112096
O O3 0.721052 0.072783 0.107578
O O4 0.750753 0.902680 0.000000
O O5 0.003728 0.601184 0.080294
O O6 0.889128 0.731931 0.500000
O O7 0.881643 0.739259 0.690063
O O8 0.837192 0.557392 0.598478
O O9 0.802472 0.665204 0.843087
O O10 0.714201 0.740632 0.689121
O O11 0.232873 0.500000 0.250000
O O12 0.328092 0.463111 0.104753
O O13 0.500000 0.500000 0.358986
O O14 0.453044 0.617861 0.500000
O O15 0.431130 0.705460 0.340219
O O16 0.694899 0.752332 0.500000
O O17 0.566168 0.821951 0.601860
O O18 0.500000 0.122733 0.250000
#
# Coordination Sequence:
#
# PCOD9394296 Si02
#       8
#     8   2   8   8   8   8   8   8
#     4  11  23  38  55  79 119 172 232 290 340 380
#     4   8  20  44  70 104 132 162 190 230 310 396
#     4   9  20  39  67  95 130 161 194 243 306 398
#     4  11  21  37  58  90 119 165 206 263 320 385
#     4  10  21  35  53  83 115 162 204 251 311 373
#     4  11  24  34  47  72 109 161 221 271 315 375
#     4  11  23  37  56  80 118 167 237 290 338 378
#     4  12  23  36  52  74 108 172 231 297 341 384
#
# _framework density 22.961064
#
# number of rings (size 3 to 8) (size 9 to 14) (size 15 to 20)
#    0.414    0.966    2.759    2.897    5.793    2.207 
#    0.000    3.103    0.000    0.000    0.000    0.000 
#    0.000   13.241    0.000    0.000    0.000    0.000 
#
# Total GULP energy -322917.114634 kJ/mol
# GULP energy per Si atom -5567.536459 kJ/mol
# Density = 2.290880 g / cm^3
# Si number density = 22.961064 Si / 1000 Ang^3
#
#
#
# Elastic Constant Matrix: (Units=GPa)
#
#
# Indices 1 2 3 4 5 6 
#
# 1 35.4000 7.5240 6.3589 0.0000 0.0000 0.0000
# 2 7.5240 46.3166 -6.3598 0.0000 0.0000 0.0000
# 3 6.3589 -6.3598 108.5416 0.0000 0.0000 0.0000
# 4 0.0000 0.0000 0.0000 35.6066 0.0000 0.0000
# 5 0.0000 0.0000 0.0000 0.0000 -5.0885 0.0000
# 6 0.0000 0.0000 0.0000 0.0000 0.0000 22.8826
#
#
#
# Elastic Compliance Matrix: (Units=1/GPa)
#
#
# Indices 1 2 3 4 5 6 
#
# 1 0.029700 -0.005105 -0.002039 0.000000 0.000000 0.000000
# 2 -0.005105 0.022643 0.001626 0.000000 0.000000 0.000000
# 3 -0.002039 0.001626 0.009428 0.000000 0.000000 0.000000
# 4 0.000000 0.000000 0.000000 0.028085 0.000000 0.000000
# 5 0.000000 0.000000 0.000000 0.000000 -0.196521 0.000000
# 6 0.000000 0.000000 0.000000 0.000000 0.000000 0.043701
#
#
# Mechanical properties :
#
#
# Convention : Reuss Voigt Hill
#
# Bulk Modulus (GPa) = 19.71033 22.81158 21.26095
# Shear Modulus (GPa) = -142.78793 22.86249 -59.96272
#
# Velocity S-wave (km/s) = -7.89443 3.15891 -5.11582
# Velocity P-wave (km/s) = 8.63094 4.82300 5.06121
#
# Compressibility (1/GPa) = 0.05073482
#
# Stress axis : x y z
#
# Youngs Moduli (GPa) = 33.67023 44.16380 106.06953
#
# Poissons Ratio (x) = 0.22544 0.21628
# Poissons Ratio (y) = 0.17187 -0.17245
# Poissons Ratio (z) = 0.06866 -0.07180
#
# Static dielectric constant tensor:
#      x y z
#    x 1.980280 0.000000 0.000000 
#    y 0.000000 1.904770 0.000000 
#    z 0.000000 0.000000 1.823900 
# 
# From -- ./inp_files/14135.got.cif
#   From: 2010.05.17/outbox.cif.g08.bks.cpg/sg49_8_cif.got.tgz:14135.got - 2010.06.03 21:02:19.
