data_PCOD9394727
_publ_section_title
;
Structure prediction by ZEFSAII (Michael W. Deem and Ramdas Pophale) SiO2 
 PCOD9394727
Probable space group: P C C M
;
_chemical_formula_sum "Si O2"
_cell_formula_units_Z 48
_cell_length_a 8.348570
_cell_length_b 9.845045
_cell_length_c 28.235221
_cell_angle_alpha 90.000000
_cell_angle_beta 90.000000
_cell_angle_gamma 90.000000
_cell_volume 2320.710621
_symmetry_space_group_name_H-M "P C C M"
_symmetry_group_IT_number 49
_symmetry_cell_setting 'orthorhombic'
loop_
_space_group_symop_operation_xyz
x,y,z
-x,-y,z
x,-y,1/2-z
-x,y,1/2-z
-x,-y,-z
x,y,-z
-x,y,1/2+z
x,-y,1/2+z
loop_
_atom_site_type_symbol
_atom_site_label
_atom_site_fract_x
_atom_site_fract_y
_atom_site_fract_z
Si Si1 0.837251 0.404147 0.786584
Si Si2 0.690211 0.222687 0.624154
Si Si3 0.390142 0.255662 0.554137
Si Si4 0.684589 0.157961 0.735686
Si Si5 0.812760 0.983546 0.949213
Si Si6 0.312022 0.476807 0.380598
O O1 0.739574 0.500000 0.750000
O O2 0.813860 0.257464 0.761533
O O3 0.764525 0.392985 0.838203
O O4 0.000000 0.500000 0.793000
O O5 0.523536 0.229410 0.594504
O O6 0.686843 0.183454 0.679167
O O7 0.782463 0.110166 0.595166
O O8 0.762216 0.373490 0.618952
O O9 0.449118 0.269493 0.500000
O O10 0.305776 0.394327 0.570870
O O11 0.273306 0.127669 0.555885
O O12 0.500000 0.191138 0.750000
O O13 0.712337 0.000000 0.750000
O O14 0.753266 0.925123 0.000000
O O15 0.000000 0.000000 0.952542
O O16 0.500000 0.500000 0.369022
#
# Coordination Sequence:
#
# PCOD9394727 Si02
#       6
#     8   8   8   8   8   8
#     4  11  24  44  65  94 135 178 223 271 332 406
#     4  11  22  39  63 100 123 169 218 266 339 386
#     4  10  22  40  67  99 130 167 215 279 333 395
#     4  11  25  42  68 104 136 178 226 287 341 401
#     4  10  23  42  62  88 128 173 213 260 323 396
#     4  10  22  39  66  96 126 169 214 267 328 393
#
# _framework density 20.683319999999998
#
# number of rings (size 3 to 8) (size 9 to 14) (size 15 to 20)
#    0.000    1.500    1.667    3.000    7.000    6.333 
#    0.000    1.667    0.000    3.500    0.000    0.000 
#    0.000    0.000    0.000    0.000    0.000    0.000 
#
# Total GULP energy -267387.011312 kJ/mol
# GULP energy per Si atom -5570.562736 kJ/mol
# Density = 2.063624 g / cm^3
# Si number density = 20.683320 Si / 1000 Ang^3
#
#
#
# Elastic Constant Matrix: (Units=GPa)
#
#
# Indices 1 2 3 4 5 6 
#
# 1 54.0120 40.9756 52.6226 0.0000 0.0000 0.0000
# 2 40.9756 138.3059 91.1987 0.0000 0.0000 0.0000
# 3 52.6226 91.1987 182.5985 0.0000 0.0000 0.0000
# 4 0.0000 0.0000 0.0000 30.5077 0.0000 0.0000
# 5 0.0000 0.0000 0.0000 0.0000 12.8991 0.0000
# 6 0.0000 0.0000 0.0000 0.0000 0.0000 -9.6289
#
#
#
# Elastic Compliance Matrix: (Units=1/GPa)
#
#
# Indices 1 2 3 4 5 6 
#
# 1 0.027383 -0.004338 -0.005725 0.000000 0.000000 0.000000
# 2 -0.004338 0.011468 -0.004478 0.000000 0.000000 0.000000
# 3 -0.005725 -0.004478 0.009363 0.000000 0.000000 0.000000
# 4 0.000000 0.000000 0.000000 0.032779 0.000000 0.000000
# 5 0.000000 0.000000 0.000000 0.000000 0.077525 0.000000
# 6 0.000000 0.000000 0.000000 0.000000 0.000000 -0.103854
#
#
# Mechanical properties :
#
#
# Convention : Reuss Voigt Hill
#
# Bulk Modulus (GPa) = 52.26550 82.72333 67.49442
# Shear Modulus (GPa) = 55.48103 19.43023 37.45563
#
# Velocity S-wave (km/s) = 5.18481 3.06831 4.26010
# Velocity P-wave (km/s) = 7.82095 7.25498 7.54328
#
# Compressibility (1/GPa) = 0.01913308
#
# Stress axis : x y z
#
# Youngs Moduli (GPa) = 36.51930 87.19935 106.80673
#
# Poissons Ratio (x) = 0.37824 0.61146
# Poissons Ratio (y) = 0.15841 0.47824
# Poissons Ratio (z) = 0.20907 0.39045
#
# Static dielectric constant tensor:
#      x y z
#    x 1.812790 0.000000 0.000000 
#    y 0.000000 1.804920 0.000000 
#    z 0.000000 0.000000 1.641330 
# 
# From -- ./inp_files/26256.got.cif
#   From: 2010.05.17/outbox.cif.g08.bks.cpg/sg49_14_cif.got.tgz:26256.got - 2010.06.03 21:02:19.
