data_PCOD9394590
_publ_section_title
;
Structure prediction by ZEFSAII (Michael W. Deem and Ramdas Pophale) SiO2 
 PCOD9394590
Probable space group: P C C M
;
_chemical_formula_sum "Si O2"
_cell_formula_units_Z 64
_cell_length_a 9.259371
_cell_length_b 12.143571
_cell_length_c 26.034915
_cell_angle_alpha 90.000000
_cell_angle_beta 90.000000
_cell_angle_gamma 90.000000
_cell_volume 2927.413464
_symmetry_space_group_name_H-M "P C C M"
_symmetry_group_IT_number 49
_symmetry_cell_setting 'orthorhombic'
loop_
_space_group_symop_operation_xyz
x,y,z
-x,-y,z
x,-y,1/2-z
-x,y,1/2-z
-x,-y,-z
x,y,-z
-x,y,1/2+z
x,-y,1/2+z
loop_
_atom_site_type_symbol
_atom_site_label
_atom_site_fract_x
_atom_site_fract_y
_atom_site_fract_z
Si Si1 0.272275 0.843508 0.152356
Si Si2 0.423510 0.606371 0.939341
Si Si3 0.041179 0.767225 0.657734
Si Si4 0.894949 0.583862 0.599436
Si Si5 0.523729 0.293861 0.308771
Si Si6 0.530392 0.151667 0.938721
Si Si7 0.316618 0.087834 0.147936
Si Si8 0.789804 0.562697 0.195301
O O1 0.110938 0.822619 0.171640
O O2 0.366608 0.737069 0.168880
O O3 0.316083 0.857644 0.091638
O O4 0.317260 0.965481 0.170946
O O5 0.500000 0.500000 0.916627
O O6 0.256200 0.610921 0.925504
O O7 0.506666 0.719538 0.928846
O O8 0.427310 0.596909 0.000000
O O9 0.989286 0.691525 0.610300
O O10 0.157115 0.860377 0.643547
O O11 0.111974 0.674804 0.695425
O O12 0.851483 0.520952 0.652678
O O13 0.000000 0.500000 0.570320
O O14 0.500000 0.318126 0.250000
O O15 0.602945 0.177244 0.317038
O O16 0.634926 0.390092 0.323913
O O17 0.405366 0.090825 0.906157
O O18 0.535868 0.130041 0.000000
O O19 0.784454 0.500000 0.250000
#
# Coordination Sequence:
#
# PCOD9394590 Si02
#       8
#     8   8   8   8   8   8   8   8
#     4  11  22  41  66  93 122 165 217 268 318 377
#     4  10  22  37  59  90 124 163 207 253 311 382
#     4  10  22  42  61  90 125 168 206 259 315 377
#     4  10  22  38  62  86 122 160 200 251 307 370
#     4  10  23  41  62  92 123 158 207 260 318 376
#     4  10  21  39  64  94 128 163 212 272 323 381
#     4  10  23  41  65  89 126 168 212 263 322 382
#     4  10  24  42  62  92 127 164 203 257 319 389
#
# _framework density 21.862300999999999
#
# number of rings (size 3 to 8) (size 9 to 14) (size 15 to 20)
#    0.000    1.875    1.250    1.875    8.750    4.750 
#    2.250    1.250    0.000    3.000    0.000    0.000 
#    0.000    0.000    0.000    0.000    0.000    0.000 
#
# Total GULP energy -356611.178752 kJ/mol
# GULP energy per Si atom -5572.049668 kJ/mol
# Density = 2.181254 g / cm^3
# Si number density = 21.862301 Si / 1000 Ang^3
#
#
#
# Elastic Constant Matrix: (Units=GPa)
#
#
# Indices 1 2 3 4 5 6 
#
# 1 130.5826 47.1249 11.7762 0.0000 0.0000 0.0000
# 2 47.1249 95.6455 17.2366 0.0000 0.0000 0.0000
# 3 11.7762 17.2366 36.2827 0.0000 0.0000 0.0000
# 4 0.0000 0.0000 0.0000 10.7254 0.0000 0.0000
# 5 0.0000 0.0000 0.0000 0.0000 3.9650 0.0000
# 6 0.0000 0.0000 0.0000 0.0000 0.0000 49.7816
#
#
#
# Elastic Compliance Matrix: (Units=1/GPa)
#
#
# Indices 1 2 3 4 5 6 
#
# 1 0.009342 -0.004436 -0.000925 0.000000 0.000000 0.000000
# 2 -0.004436 0.013541 -0.004993 0.000000 0.000000 0.000000
# 3 -0.000925 -0.004993 0.030233 0.000000 0.000000 0.000000
# 4 0.000000 0.000000 0.000000 0.093236 0.000000 0.000000
# 5 0.000000 0.000000 0.000000 0.000000 0.252209 0.000000
# 6 0.000000 0.000000 0.000000 0.000000 0.000000 0.020088
#
#
# Mechanical properties :
#
#
# Convention : Reuss Voigt Hill
#
# Bulk Modulus (GPa) = 30.85579 46.08734 38.47156
# Shear Modulus (GPa) = 11.10713 25.31926 18.21320
#
# Velocity S-wave (km/s) = 2.25644 3.40681 2.88946
# Velocity P-wave (km/s) = 4.57526 6.04993 5.36352
#
# Compressibility (1/GPa) = 0.03240883
#
# Stress axis : x y z
#
# Youngs Moduli (GPa) = 107.03892 73.85044 33.07599
#
# Poissons Ratio (x) = 0.32763 0.03058
# Poissons Ratio (y) = 0.47487 0.16514
# Poissons Ratio (z) = 0.09898 0.36873
#
# Static dielectric constant tensor:
#      x y z
#    x 1.870840 0.000000 0.000000 
#    y 0.000000 1.993280 0.000000 
#    z 0.000000 0.000000 1.821980 
# 
# From -- ./inp_files/26449.got.cif
#   From: 2010.05.17/outbox.cif.g08.bks.cpg/sg49_14_cif.got.tgz:26449.got - 2010.06.03 21:02:19.
