data_PCOD9394563
_publ_section_title
;
Structure prediction by ZEFSAII (Michael W. Deem and Ramdas Pophale) SiO2 
 PCOD9394563
Probable space group: P C C M
;
_chemical_formula_sum "Si O2"
_cell_formula_units_Z 58
_cell_length_a 9.425971
_cell_length_b 17.650419
_cell_length_c 16.997131
_cell_angle_alpha 90.000000
_cell_angle_beta 90.000000
_cell_angle_gamma 90.000000
_cell_volume 2827.852418
_symmetry_space_group_name_H-M "P C C M"
_symmetry_group_IT_number 49
_symmetry_cell_setting 'orthorhombic'
loop_
_space_group_symop_operation_xyz
x,y,z
-x,-y,z
x,-y,1/2-z
-x,y,1/2-z
-x,-y,-z
x,y,-z
-x,y,1/2+z
x,-y,1/2+z
loop_
_atom_site_type_symbol
_atom_site_label
_atom_site_fract_x
_atom_site_fract_y
_atom_site_fract_z
Si Si1 0.299657 0.319406 0.087648
Si Si2 0.021206 0.732866 0.089914
Si Si3 0.000000 0.000000 0.250000
Si Si4 0.080663 0.428241 0.665487
Si Si5 0.537332 0.916024 0.406778
Si Si6 0.627271 0.193507 0.310234
Si Si7 0.330791 0.496242 0.907817
Si Si8 0.177284 0.865688 0.180833
O O1 0.382201 0.278065 0.156627
O O2 0.284250 0.408611 0.100667
O O3 0.148761 0.276685 0.089191
O O4 0.362919 0.310234 0.000000
O O5 0.070936 0.652848 0.125306
O O6 0.080222 0.803445 0.138408
O O7 0.069958 0.739989 0.000000
O O8 0.904191 0.056666 0.198637
O O9 0.243469 0.454488 0.655254
O O10 0.000000 0.500000 0.625173
O O11 0.000000 0.421562 0.750000
O O12 0.551996 0.918565 0.500000
O O13 0.407573 0.862060 0.382015
O O14 0.683469 0.885200 0.370260
O O15 0.500000 0.000000 0.376382
O O16 0.500000 0.180811 0.250000
O O17 0.767177 0.171063 0.262573
O O18 0.500000 0.500000 0.897011
O O19 0.301380 0.518792 0.000000
#
# Coordination Sequence:
#
# PCOD9394563 Si02
#       8
#     8   8   2   8   8   8   8   8
#     4  10  21  39  62  90 126 171 219 269 337 404
#     4  11  24  41  66  95 131 175 227 286 331 403
#     4  12  24  40  64  92 130 176 202 274 344 412
#     4  11  24  41  67 100 133 184 232 283 345 417
#     4  10  21  40  64  90 125 167 218 274 334 417
#     4  10  22  38  61  89 122 165 205 266 331 404
#     4  10  22  42  67  96 133 175 228 288 346 411
#     4  11  24  40  64  97 129 169 222 273 344 407
#
# _framework density 20.510263999999999
#
# number of rings (size 3 to 8) (size 9 to 14) (size 15 to 20)
#    0.000    1.517    1.379    2.897    2.897    4.690 
#    0.000    8.276    0.000    0.000    0.000    0.000 
#    0.000    0.000    0.000    0.000    0.000    0.000 
#
# Total GULP energy -323751.490419 kJ/mol
# GULP energy per Si atom -5581.922249 kJ/mol
# Density = 2.046358 g / cm^3
# Si number density = 20.510264 Si / 1000 Ang^3
#
#
#
# Elastic Constant Matrix: (Units=GPa)
#
#
# Indices 1 2 3 4 5 6 
#
# 1 69.9264 21.5305 41.7533 0.0000 0.0000 0.0000
# 2 21.5305 105.1451 45.3212 0.0000 0.0000 0.0000
# 3 41.7533 45.3212 74.6846 0.0000 0.0000 0.0000
# 4 0.0000 0.0000 0.0000 10.1829 0.0000 0.0000
# 5 0.0000 0.0000 0.0000 0.0000 2.9002 0.0000
# 6 0.0000 0.0000 0.0000 0.0000 0.0000 29.7298
#
#
#
# Elastic Compliance Matrix: (Units=1/GPa)
#
#
# Indices 1 2 3 4 5 6 
#
# 1 0.021553 0.001057 -0.012691 0.000000 0.000000 0.000000
# 2 0.001057 0.012931 -0.008438 0.000000 0.000000 0.000000
# 3 -0.012691 -0.008438 0.025605 0.000000 0.000000 0.000000
# 4 0.000000 0.000000 0.000000 0.098204 0.000000 0.000000
# 5 0.000000 0.000000 0.000000 0.000000 0.344809 0.000000
# 6 0.000000 0.000000 0.000000 0.000000 0.000000 0.033636
#
#
# Mechanical properties :
#
#
# Convention : Reuss Voigt Hill
#
# Bulk Modulus (GPa) = 50.13676 51.88512 51.01094
# Shear Modulus (GPa) = 8.56853 17.97265 13.27059
#
# Velocity S-wave (km/s) = 2.04615 2.96341 2.54642
# Velocity P-wave (km/s) = 5.48453 6.08778 5.79402
#
# Compressibility (1/GPa) = 0.01994545
#
# Stress axis : x y z
#
# Youngs Moduli (GPa) = 46.39710 77.33151 39.05486
#
# Poissons Ratio (x) = -0.08172 0.49564
# Poissons Ratio (y) = -0.04903 0.32954
# Poissons Ratio (z) = 0.58881 0.65252
#
# Static dielectric constant tensor:
#      x y z
#    x 1.767150 0.000000 0.000000 
#    y 0.000000 1.739870 0.000000 
#    z 0.000000 0.000000 1.757620 
# 
# From -- ./inp_files/16489.got.cif
#   From: 2010.05.17/outbox.cif.g08.bks.cpg/sg49_9_cif.got.tgz:16489.got - 2010.06.03 21:02:19.
