data_PCOD9394319
_publ_section_title
;
Structure prediction by ZEFSAII (Michael W. Deem and Ramdas Pophale) SiO2 
 PCOD9394319
Probable space group: P C C M
;
_chemical_formula_sum "Si O2"
_cell_formula_units_Z 64
_cell_length_a 16.746329
_cell_length_b 9.541088
_cell_length_c 22.171982
_cell_angle_alpha 90.000000
_cell_angle_beta 90.000000
_cell_angle_gamma 90.000000
_cell_volume 3542.599345
_symmetry_space_group_name_H-M "P C C M"
_symmetry_group_IT_number 49
_symmetry_cell_setting 'orthorhombic'
loop_
_space_group_symop_operation_xyz
x,y,z
-x,-y,z
x,-y,1/2-z
-x,y,1/2-z
-x,-y,-z
x,y,-z
-x,y,1/2+z
x,-y,1/2+z
loop_
_atom_site_type_symbol
_atom_site_label
_atom_site_fract_x
_atom_site_fract_y
_atom_site_fract_z
Si Si1 0.907910 0.535992 0.649601
Si Si2 0.909415 0.197023 0.772242
Si Si3 0.505252 0.659975 0.072516
Si Si4 0.822141 0.239729 0.346500
Si Si5 0.091317 0.015108 0.394333
Si Si6 0.669899 0.176697 0.427253
Si Si7 0.357160 0.848261 0.926641
Si Si8 0.191698 0.738099 0.933317
O O1 0.907244 0.641808 0.706030
O O2 0.857103 0.395478 0.655505
O O3 0.865248 0.629230 0.599087
O O4 0.000000 0.500000 0.636422
O O5 0.841565 0.181743 0.721121
O O6 0.901387 0.095131 0.829590
O O7 0.000000 0.172142 0.750000
O O8 0.500000 0.500000 0.095586
O O9 0.591344 0.729261 0.081977
O O10 0.435455 0.764859 0.094496
O O11 0.494414 0.652253 0.000000
O O12 0.737061 0.226674 0.379584
O O13 0.876369 0.140363 0.388015
O O14 0.146071 0.113368 0.434908
O O15 0.000000 0.000000 0.412641
O O16 0.691674 0.185343 0.500000
O O17 0.648717 0.013784 0.413546
O O18 0.277268 0.770454 0.903672
O O19 0.355926 0.842172 0.000000
O O20 0.207509 0.684651 0.000000
#
# Coordination Sequence:
#
# PCOD9394319 Si02
#       8
#     8   8   8   8   8   8   8   8
#     4  11  23  38  56  80 110 155 198 244 292 338
#     4  11  21  38  60  79 109 141 191 255 295 329
#     4   9  18  32  56  85 112 147 186 226 275 336
#     4  12  22  33  58  86 112 144 192 241 296 335
#     4  11  21  36  57  84 108 147 196 246 288 327
#     4  10  21  36  54  84 121 149 181 229 286 350
#     4   9  17  34  56  77 112 155 188 226 275 328
#     4  10  22  38  54  79 120 159 193 231 281 346
#
# _framework density 18.065830999999999
#
# number of rings (size 3 to 8) (size 9 to 14) (size 15 to 20)
#    0.000    1.625    3.750    1.875    1.750    2.500 
#    0.000    1.250    0.000    0.000    0.000    3.500 
#    0.000    0.000    0.000    0.000    0.000    0.000 
#
# Total GULP energy -356631.973445 kJ/mol
# GULP energy per Si atom -5572.374585 kJ/mol
# Density = 1.802471 g / cm^3
# Si number density = 18.065831 Si / 1000 Ang^3
#
#
#
# Elastic Constant Matrix: (Units=GPa)
#
#
# Indices 1 2 3 4 5 6 
#
# 1 133.8499 45.9024 34.5789 0.0000 0.0000 0.0000
# 2 45.9024 107.7089 16.1554 0.0000 0.0000 0.0000
# 3 34.5789 16.1554 50.0409 0.0000 0.0000 0.0000
# 4 0.0000 0.0000 0.0000 0.7865 0.0000 0.0000
# 5 0.0000 0.0000 0.0000 0.0000 9.3487 0.0000
# 6 0.0000 0.0000 0.0000 0.0000 0.0000 17.4365
#
#
#
# Elastic Compliance Matrix: (Units=1/GPa)
#
#
# Indices 1 2 3 4 5 6 
#
# 1 0.010185 -0.003452 -0.005924 0.000000 0.000000 0.000000
# 2 -0.003452 0.010927 -0.001142 0.000000 0.000000 0.000000
# 3 -0.005924 -0.001142 0.024446 0.000000 0.000000 0.000000
# 4 0.000000 0.000000 0.000000 1.271383 0.000000 0.000000
# 5 0.000000 0.000000 0.000000 0.000000 0.106967 0.000000
# 6 0.000000 0.000000 0.000000 0.000000 0.000000 0.057351
#
#
# Mechanical properties :
#
#
# Convention : Reuss Voigt Hill
#
# Bulk Modulus (GPa) = 40.77996 53.87478 47.32737
# Shear Modulus (GPa) = 3.31023 18.51188 10.91105
#
# Velocity S-wave (km/s) = 1.35510 3.20455 2.46023
# Velocity P-wave (km/s) = 5.00703 6.60139 5.85870
#
# Compressibility (1/GPa) = 0.02452185
#
# Stress axis : x y z
#
# Youngs Moduli (GPa) = 98.18109 91.51802 40.90698
#
# Poissons Ratio (x) = 0.31594 0.24232
# Poissons Ratio (y) = 0.33894 0.04672
# Poissons Ratio (z) = 0.58159 0.10453
#
# Static dielectric constant tensor:
#      x y z
#    x 1.633400 0.000000 0.000000 
#    y 0.000000 1.648620 0.000000 
#    z 0.000000 0.000000 1.550800 
# 
# From -- ./inp_files/23220.got.cif
#   From: 2010.05.17/outbox.cif.g08.bks.cpg/sg49_12_cif.got.tgz:23220.got - 2010.06.03 21:02:19.
