data_PCOD9394362
_publ_section_title
;
Structure prediction by ZEFSAII (Michael W. Deem and Ramdas Pophale) SiO2 
 PCOD9394362
Probable space group: P C C M
;
_chemical_formula_sum "Si O2"
_cell_formula_units_Z 56
_cell_length_a 30.705601
_cell_length_b 13.917033
_cell_length_c 8.626066
_cell_angle_alpha 90.000000
_cell_angle_beta 90.000000
_cell_angle_gamma 90.000000
_cell_volume 3686.184223
_symmetry_space_group_name_H-M "P C C M"
_symmetry_group_IT_number 49
_symmetry_cell_setting 'orthorhombic'
loop_
_space_group_symop_operation_xyz
x,y,z
-x,-y,z
x,-y,1/2-z
-x,y,1/2-z
-x,-y,-z
x,y,-z
-x,y,1/2+z
x,-y,1/2+z
loop_
_atom_site_type_symbol
_atom_site_label
_atom_site_fract_x
_atom_site_fract_y
_atom_site_fract_z
Si Si1 0.177836 0.209391 0.187682
Si Si2 0.733850 0.891496 0.187508
Si Si3 0.544608 0.890508 0.185976
Si Si4 0.866488 0.603477 0.315449
Si Si5 0.089885 0.104000 0.814166
Si Si6 0.361177 0.108803 0.813097
Si Si7 0.952913 0.697283 0.813802
O O1 0.224640 0.170080 0.238230
O O2 0.165091 0.312011 0.256665
O O3 0.138918 0.135945 0.232374
O O4 0.177048 0.216527 0.000000
O O5 0.686104 0.851146 0.234571
O O6 0.737746 0.000000 0.250000
O O7 0.734953 0.895664 0.000000
O O8 0.500000 0.845475 0.250000
O O9 0.591850 0.847680 0.232884
O O10 0.545367 0.000000 0.250000
O O11 0.541928 0.893684 0.000000
O O12 0.853823 0.500000 0.250000
O O13 0.867491 0.601701 0.500000
O O14 0.914301 0.631626 0.251576
O O15 0.059114 0.192804 0.766336
O O16 0.078321 0.000000 0.750000
O O17 0.088818 0.099258 0.000000
O O18 0.361055 0.000000 0.750000
O O19 0.361465 0.105515 0.000000
O O20 0.000000 0.670773 0.750000
O O21 0.952198 0.692461 0.000000
#
# Coordination Sequence:
#
# PCOD9394362 Si02
#       7
#     8   8   8   8   8   8   8
#     4   9  18  32  47  66  90 114 141 174 209 249
#     4   9  16  26  41  60  85 114 143 176 214 252
#     4   9  14  19  27  39  58  86 126 171 213 250
#     4  11  22  37  56  74  91 112 137 169 207 248
#     4   9  18  30  45  65  91 119 146 174 202 236
#     4   8  14  22  31  46  68  97 132 171 211 250
#     4  10  21  37  53  73  97 119 145 175 206 242
#
# _framework density 15.191860999999999
#
# number of rings (size 3 to 8) (size 9 to 14) (size 15 to 20)
#    0.000    2.714    0.000    3.857    0.000    4.571 
#    0.000    2.857    0.000    0.000    0.000    0.000 
#    0.000    0.000    0.000    0.000    0.000    0.714 
#
# Total GULP energy -311825.570640 kJ/mol
# GULP energy per Si atom -5568.313761 kJ/mol
# Density = 1.515728 g / cm^3
# Si number density = 15.191861 Si / 1000 Ang^3
#
#
#
# Elastic Constant Matrix: (Units=GPa)
#
#
# Indices 1 2 3 4 5 6 
#
# 1 130.7352 16.9899 21.8993 0.0000 0.0000 0.0000
# 2 16.9899 46.2367 10.8072 0.0000 0.0000 0.0000
# 3 21.8993 10.8072 31.6048 0.0000 0.0000 0.0000
# 4 0.0000 0.0000 0.0000 17.6862 0.0000 0.0000
# 5 0.0000 0.0000 0.0000 0.0000 29.1699 0.0000
# 6 0.0000 0.0000 0.0000 0.0000 0.0000 9.2858
#
#
#
# Elastic Compliance Matrix: (Units=1/GPa)
#
#
# Indices 1 2 3 4 5 6 
#
# 1 0.008815 -0.001969 -0.005435 0.000000 0.000000 0.000000
# 2 -0.001969 0.023946 -0.006824 0.000000 0.000000 0.000000
# 3 -0.005435 -0.006824 0.037740 0.000000 0.000000 0.000000
# 4 0.000000 0.000000 0.000000 0.056541 0.000000 0.000000
# 5 0.000000 0.000000 0.000000 0.000000 0.034282 0.000000
# 6 0.000000 0.000000 0.000000 0.000000 0.000000 0.107691
#
#
# Mechanical properties :
#
#
# Convention : Reuss Voigt Hill
#
# Bulk Modulus (GPa) = 23.78357 34.21885 29.00121
# Shear Modulus (GPa) = 16.05202 21.82041 18.93622
#
# Velocity S-wave (km/s) = 3.25410 3.79400 3.53437
# Velocity P-wave (km/s) = 5.45970 6.46265 5.98223
#
# Compressibility (1/GPa) = 0.04204583
#
# Stress axis : x y z
#
# Youngs Moduli (GPa) = 113.43873 41.75993 26.49695
#
# Poissons Ratio (x) = 0.08222 0.14401
# Poissons Ratio (y) = 0.22335 0.18082
# Poissons Ratio (z) = 0.61654 0.28498
#
# Static dielectric constant tensor:
#      x y z
#    x 1.564660 0.000000 0.000000 
#    y 0.000000 1.470310 0.000000 
#    z 0.000000 0.000000 1.509450 
# 
# From -- ./inp_files/7028.got.cif
#   From: 2010.05.17/outbox.cif.g08.bks.cpg/sg49_4_cif.got.tgz:7028.got - 2010.06.03 21:02:19.
