data_PCOD9394089
_publ_section_title
;
Structure prediction by ZEFSAII (Michael W. Deem and Ramdas Pophale) SiO2 
 PCOD9394089
Probable space group: P C C M
;
_chemical_formula_sum "Si O2"
_cell_formula_units_Z 48
_cell_length_a 11.015169
_cell_length_b 7.241921
_cell_length_c 24.198649
_cell_angle_alpha 90.000000
_cell_angle_beta 90.000000
_cell_angle_gamma 90.000000
_cell_volume 1930.350035
_symmetry_space_group_name_H-M "P C C M"
_symmetry_group_IT_number 49
_symmetry_cell_setting 'orthorhombic'
loop_
_space_group_symop_operation_xyz
x,y,z
-x,-y,z
x,-y,1/2-z
-x,y,1/2-z
-x,-y,-z
x,y,-z
-x,y,1/2+z
x,-y,1/2+z
loop_
_atom_site_type_symbol
_atom_site_label
_atom_site_fract_x
_atom_site_fract_y
_atom_site_fract_z
Si Si1 0.907653 0.750862 0.167103
Si Si2 0.699637 0.679560 0.563390
Si Si3 0.218265 0.748729 0.560996
Si Si4 0.674033 0.805751 0.229715
Si Si5 0.540521 0.794336 0.875132
Si Si6 0.828621 0.681626 0.327543
O O1 0.891982 0.785773 0.102141
O O2 0.800004 0.853653 0.198033
O O3 0.866720 0.534721 0.172552
O O4 0.043818 0.777347 0.187067
O O5 0.699540 0.751989 0.500000
O O6 0.748470 0.469583 0.559514
O O7 0.565213 0.692974 0.590573
O O8 0.784767 0.754716 0.612770
O O9 0.193412 0.815076 0.500000
O O10 0.342604 0.824756 0.586132
O O11 0.588556 0.712586 0.183322
O O12 0.720275 0.699897 0.283798
O O13 0.624837 0.000000 0.250000
O O14 0.500000 0.000000 0.861712
#
# Coordination Sequence:
#
# PCOD9394089 Si02
#       6
#     8   8   8   8   8   8
#     4   9  20  37  59  87 116 148 184 227 277 331
#     4  10  21  37  59  87 117 149 185 227 277 333
#     4   9  19  37  60  85 114 149 187 227 274 330
#     4  11  23  38  57  80 110 149 191 236 283 331
#     4  11  23  38  56  80 111 148 191 237 283 329
#     4  10  20  37  60  86 117 149 184 226 277 335
#
# _framework density 24.865955
#
# number of rings (size 3 to 8) (size 9 to 14) (size 15 to 20)
#    0.000    2.000    0.000    3.000    0.000    8.333 
#    0.000    5.000    0.000   12.000    0.000    7.000 
#    0.000    0.000    0.000    0.000    0.000    0.000 
#
# Total GULP energy -268274.682126 kJ/mol
# GULP energy per Si atom -5589.055878 kJ/mol
# Density = 2.480936 g / cm^3
# Si number density = 24.865955 Si / 1000 Ang^3
#
#
#
# Elastic Constant Matrix: (Units=GPa)
#
#
# Indices 1 2 3 4 5 6 
#
# 1 93.2045 12.4154 45.5922 0.0000 0.0000 0.0000
# 2 12.4154 39.6086 15.2268 0.0000 0.0000 0.0000
# 3 45.5922 15.2268 199.6418 0.0000 0.0000 0.0000
# 4 0.0000 0.0000 0.0000 3.6485 0.0000 0.0000
# 5 0.0000 0.0000 0.0000 0.0000 52.3771 0.0000
# 6 0.0000 0.0000 0.0000 0.0000 0.0000 21.9297
#
#
#
# Elastic Compliance Matrix: (Units=1/GPa)
#
#
# Indices 1 2 3 4 5 6 
#
# 1 0.012389 -0.002880 -0.002610 0.000000 0.000000 0.000000
# 2 -0.002880 0.026679 -0.001377 0.000000 0.000000 0.000000
# 3 -0.002610 -0.001377 0.005710 0.000000 0.000000 0.000000
# 4 0.000000 0.000000 0.000000 0.274087 0.000000 0.000000
# 5 0.000000 0.000000 0.000000 0.000000 0.019092 0.000000
# 6 0.000000 0.000000 0.000000 0.000000 0.000000 0.045600
#
#
# Mechanical properties :
#
#
# Convention : Reuss Voigt Hill
#
# Bulk Modulus (GPa) = 32.21175 53.21376 42.71275
# Shear Modulus (GPa) = 12.26573 32.87242 22.56908
#
# Velocity S-wave (km/s) = 2.22339 3.63986 3.01596
# Velocity P-wave (km/s) = 4.42420 6.25391 5.41687
#
# Compressibility (1/GPa) = 0.03104458
#
# Stress axis : x y z
#
# Youngs Moduli (GPa) = 80.71474 37.48233 175.13210
#
# Poissons Ratio (x) = 0.10796 0.45704
# Poissons Ratio (y) = 0.23248 0.24117
# Poissons Ratio (z) = 0.21064 0.05162
#
# Static dielectric constant tensor:
#      x y z
#    x 1.967440 0.000000 0.000000 
#    y 0.000000 2.132340 0.000000 
#    z 0.000000 0.000000 2.000750 
# 
# From -- ./inp_files/22857.got.cif
#   From: 2010.05.17/outbox.cif.g08.bks.cpg/sg49_12_cif.got.tgz:22857.got - 2010.06.03 21:02:19.
