data_PCOD9394314
_publ_section_title
;
Structure prediction by ZEFSAII (Michael W. Deem and Ramdas Pophale) SiO2 
 PCOD9394314
Probable space group: P C C M
;
_chemical_formula_sum "Si O2"
_cell_formula_units_Z 40
_cell_length_a 15.881862
_cell_length_b 14.369180
_cell_length_c 8.919508
_cell_angle_alpha 90.000000
_cell_angle_beta 90.000000
_cell_angle_gamma 90.000000
_cell_volume 2035.514979
_symmetry_space_group_name_H-M "P C C M"
_symmetry_group_IT_number 49
_symmetry_cell_setting 'orthorhombic'
loop_
_space_group_symop_operation_xyz
x,y,z
-x,-y,z
x,-y,1/2-z
-x,y,1/2-z
-x,-y,-z
x,y,-z
-x,y,1/2+z
x,-y,1/2+z
loop_
_atom_site_type_symbol
_atom_site_label
_atom_site_fract_x
_atom_site_fract_y
_atom_site_fract_z
Si Si1 0.765617 0.708815 0.677933
Si Si2 0.083290 0.601923 0.678126
Si Si3 0.426339 0.099583 0.168609
Si Si4 0.768601 0.101744 0.674092
Si Si5 0.408096 0.602120 0.819315
O O1 0.776585 0.694659 0.500000
O O2 0.829796 0.648181 0.774203
O O3 0.795357 0.813657 0.720247
O O4 0.669316 0.673905 0.711028
O O5 0.086126 0.500000 0.750000
O O6 0.074309 0.597765 0.500000
O O7 0.000000 0.648942 0.750000
O O8 0.500000 0.155511 0.250000
O O9 0.330587 0.128120 0.166931
O O10 0.420696 0.000000 0.250000
O O11 0.454963 0.089657 0.000000
O O12 0.798794 0.101601 0.500000
O O13 0.779358 0.000000 0.750000
O O14 0.386632 0.500000 0.750000
O O15 0.500000 0.626455 0.750000
O O16 0.416486 0.594807 0.000000
#
# Coordination Sequence:
#
# PCOD9394314 Si02
#       5
#     8   8   8   8   8
#     4  11  23  38  58  86 117 154 198 243 291 347
#     4  11  22  39  64  94 126 156 187 230 285 346
#     4   9  16  26  42  63  89 124 171 224 280 333
#     4  10  21  36  53  75 105 145 190 240 292 343
#     4  10  21  36  56  81 114 154 196 241 289 344
#
# _framework density 19.651047999999999
#
# number of rings (size 3 to 8) (size 9 to 14) (size 15 to 20)
#    0.000    1.800    0.000    6.600    0.000    8.000 
#    0.000    4.000    0.000    0.600    0.000    4.200 
#    0.000    0.000    0.000    0.000    0.000    0.000 
#
# Total GULP energy -222701.231062 kJ/mol
# GULP energy per Si atom -5567.530777 kJ/mol
# Density = 1.960632 g / cm^3
# Si number density = 19.651048 Si / 1000 Ang^3
#
#
#
# Elastic Constant Matrix: (Units=GPa)
#
#
# Indices 1 2 3 4 5 6 
#
# 1 71.2553 18.5530 42.3641 0.0000 0.0000 0.0000
# 2 18.5530 96.4036 42.4112 0.0000 0.0000 0.0000
# 3 42.3641 42.4112 163.3450 0.0000 0.0000 0.0000
# 4 0.0000 0.0000 0.0000 6.7115 0.0000 0.0000
# 5 0.0000 0.0000 0.0000 0.0000 44.1460 0.0000
# 6 0.0000 0.0000 0.0000 0.0000 0.0000 -27.9906
#
#
#
# Elastic Compliance Matrix: (Units=1/GPa)
#
#
# Indices 1 2 3 4 5 6 
#
# 1 0.016779 -0.001484 -0.003966 0.000000 0.000000 0.000000
# 2 -0.001484 0.011842 -0.002690 0.000000 0.000000 0.000000
# 3 -0.003966 -0.002690 0.007849 0.000000 0.000000 0.000000
# 4 0.000000 0.000000 0.000000 0.148998 0.000000 0.000000
# 5 0.000000 0.000000 0.000000 0.000000 0.022652 0.000000
# 6 0.000000 0.000000 0.000000 0.000000 0.000000 -0.035726
#
#
# Mechanical properties :
#
#
# Convention : Reuss Voigt Hill
#
# Bulk Modulus (GPa) = 49.53123 59.74008 54.63566
# Shear Modulus (GPa) = 25.58806 19.75174 22.66990
#
# Velocity S-wave (km/s) = 3.61241 3.17381 3.40019
# Velocity P-wave (km/s) = 6.53142 6.62550 6.57863
#
# Compressibility (1/GPa) = 0.02018928
#
# Stress axis : x y z
#
# Youngs Moduli (GPa) = 59.59990 84.44513 127.40416
#
# Poissons Ratio (x) = 0.12533 0.50531
# Poissons Ratio (y) = 0.08846 0.34269
# Poissons Ratio (z) = 0.23639 0.22714
#
# Static dielectric constant tensor:
#      x y z
#    x 1.792140 0.000000 0.000000 
#    y 0.000000 1.835080 0.000000 
#    z 0.000000 0.000000 1.686720 
# 
# From -- ./inp_files/3452.got.cif
#   From: 2010.05.17/outbox.cif.g08.bks.cpg/sg49_2_cif.got.tgz:3452.got - 2010.06.03 21:02:19.
