data_PCOD9394818
_publ_section_title
;
Structure prediction by ZEFSAII (Michael W. Deem and Ramdas Pophale) SiO2 
 PCOD9394818
Probable space group: P C C M
;
_chemical_formula_sum "Si O2"
_cell_formula_units_Z 38
_cell_length_a 6.433061
_cell_length_b 15.831077
_cell_length_c 18.749974
_cell_angle_alpha 90.000000
_cell_angle_beta 90.000000
_cell_angle_gamma 90.000000
_cell_volume 1909.540178
_symmetry_space_group_name_H-M "P C C M"
_symmetry_group_IT_number 49
_symmetry_cell_setting 'orthorhombic'
loop_
_space_group_symop_operation_xyz
x,y,z
-x,-y,z
x,-y,1/2-z
-x,y,1/2-z
-x,-y,-z
x,y,-z
-x,y,1/2+z
x,-y,1/2+z
loop_
_atom_site_type_symbol
_atom_site_label
_atom_site_fract_x
_atom_site_fract_y
_atom_site_fract_z
Si Si1 0.093880 0.208337 0.828084
Si Si2 0.452747 0.903232 0.334531
Si Si3 0.500000 0.500000 0.750000
Si Si4 0.365728 0.633891 0.359815
Si Si5 0.696608 0.755407 0.584952
Si Si6 0.244861 0.459578 0.000000
O O1 0.214402 0.122739 0.846455
O O2 0.256005 0.284865 0.826501
O O3 0.000000 0.199071 0.750000
O O4 0.927948 0.234611 0.886721
O O5 0.500000 0.889868 0.250000
O O6 0.581646 0.837157 0.381741
O O7 0.500000 0.000000 0.351395
O O8 0.626444 0.439022 0.698246
O O9 0.589908 0.670512 0.384077
O O10 0.254441 0.596853 0.429280
O O11 0.679430 0.753883 0.500000
O O12 0.500000 0.500000 0.000000
O O13 0.000000 0.500000 0.000000
#
# Coordination Sequence:
#
# PCOD9394818 Si02
#       6
#     8   8   2   8   8   4
#     4  11  23  41  69  99 131 182 237 287 352 429
#     4  10  22  43  67  98 138 180 227 287 352 427
#     4  12  24  46  70  96 136 178 234 300 354 418
#     4  11  26  43  68  98 139 179 233 294 358 426
#     4  11  24  43  69 100 137 177 230 288 354 427
#     4  12  28  48  72 106 145 190 241 298 370 442
#
# _framework density 19.900079000000002
#
# number of rings (size 3 to 8) (size 9 to 14) (size 15 to 20)
#    0.000    1.053    4.211    1.263    7.368    3.789 
#    0.000    2.105    0.000    0.000    0.000    0.000 
#    0.000    0.000    0.000    0.000    0.000    0.000 
#
# Total GULP energy -211898.833888 kJ/mol
# GULP energy per Si atom -5576.285102 kJ/mol
# Density = 1.985479 g / cm^3
# Si number density = 19.900079 Si / 1000 Ang^3
#
#
#
# Elastic Constant Matrix: (Units=GPa)
#
#
# Indices 1 2 3 4 5 6 
#
# 1 95.3217 48.5502 20.2076 0.0000 0.0000 0.0000
# 2 48.5502 123.9725 47.5753 0.0000 0.0000 0.0000
# 3 20.2076 47.5753 93.5657 0.0000 0.0000 0.0000
# 4 0.0000 0.0000 0.0000 26.5573 0.0000 0.0000
# 5 0.0000 0.0000 0.0000 0.0000 30.3388 0.0000
# 6 0.0000 0.0000 0.0000 0.0000 0.0000 26.4912
#
#
#
# Elastic Compliance Matrix: (Units=1/GPa)
#
#
# Indices 1 2 3 4 5 6 
#
# 1 0.013110 -0.005029 -0.000274 0.000000 0.000000 0.000000
# 2 -0.005029 0.011951 -0.004991 0.000000 0.000000 0.000000
# 3 -0.000274 -0.004991 0.013284 0.000000 0.000000 0.000000
# 4 0.000000 0.000000 0.000000 0.037654 0.000000 0.000000
# 5 0.000000 0.000000 0.000000 0.000000 0.032961 0.000000
# 6 0.000000 0.000000 0.000000 0.000000 0.000000 0.037748
#
#
# Mechanical properties :
#
#
# Convention : Reuss Voigt Hill
#
# Bulk Modulus (GPa) = 56.31297 60.61403 58.46350
# Shear Modulus (GPa) = 28.86553 29.77923 29.32238
#
# Velocity S-wave (km/s) = 3.81271 3.87258 3.84276
# Velocity P-wave (km/s) = 6.90953 7.10782 7.00938
#
# Compressibility (1/GPa) = 0.01775790
#
# Stress axis : x y z
#
# Youngs Moduli (GPa) = 76.27543 83.67543 75.27578
#
# Poissons Ratio (x) = 0.42080 0.02065
# Poissons Ratio (y) = 0.38359 0.37567
# Poissons Ratio (z) = 0.02093 0.41759
#
# Static dielectric constant tensor:
#      x y z
#    x 1.819810 0.000000 0.000000 
#    y 0.000000 1.690940 0.000000 
#    z 0.000000 0.000000 1.637600 
# 
# From -- ./inp_files/15296.got.cif
#   From: 2010.05.17/outbox.cif.g08.bks.cpg/sg49_8_cif.got.tgz:15296.got - 2010.06.03 21:02:19.
