data_PCOD9394220
_publ_section_title
;
Structure prediction by ZEFSAII (Michael W. Deem and Ramdas Pophale) SiO2 
 PCOD9394220
Probable space group: P C C M
;
_chemical_formula_sum "Si O2"
_cell_formula_units_Z 58
_cell_length_a 12.411291
_cell_length_b 7.539239
_cell_length_c 27.052647
_cell_angle_alpha 90.000000
_cell_angle_beta 90.000000
_cell_angle_gamma 90.000000
_cell_volume 2531.361876
_symmetry_space_group_name_H-M "P C C M"
_symmetry_group_IT_number 49
_symmetry_cell_setting 'orthorhombic'
loop_
_space_group_symop_operation_xyz
x,y,z
-x,-y,z
x,-y,1/2-z
-x,y,1/2-z
-x,-y,-z
x,y,-z
-x,y,1/2+z
x,-y,1/2+z
loop_
_atom_site_type_symbol
_atom_site_label
_atom_site_fract_x
_atom_site_fract_y
_atom_site_fract_z
Si Si1 0.616864 0.052472 0.336530
Si Si2 0.206125 0.700192 0.901730
Si Si3 0.676107 0.046722 0.555554
Si Si4 0.138803 0.660735 0.446824
Si Si5 0.992252 0.708832 0.150379
Si Si6 0.691608 0.332236 0.189919
Si Si7 0.500000 0.500000 0.250000
Si Si8 0.192241 0.189185 0.224009
O O1 0.696312 0.189267 0.308677
O O2 0.500000 0.000000 0.315371
O O3 0.606903 0.087934 0.395045
O O4 0.678267 0.868710 0.328483
O O5 0.262721 0.861107 0.930786
O O6 0.162579 0.547278 0.937886
O O7 0.277120 0.583605 0.862341
O O8 0.110697 0.773531 0.865665
O O9 0.628746 0.029833 0.500000
O O10 0.757528 0.212364 0.553189
O O11 0.084525 0.683777 0.500000
O O12 0.070338 0.725663 0.400988
O O13 0.915404 0.786149 0.192471
O O14 0.000000 0.500000 0.161710
O O15 0.580905 0.393238 0.214519
O O16 0.783181 0.326390 0.231832
O O17 0.184422 0.000000 0.250000
#
# Coordination Sequence:
#
# PCOD9394220 Si02
#       8
#     8   8   8   8   8   8   2   8
#     4  10  20  39  65  91 123 163 215 275 328 383
#     4  10  23  41  60  92 132 165 213 266 319 384
#     4  10  21  39  64  94 127 167 213 264 326 394
#     4  10  21  39  64  93 126 168 211 258 320 382
#     4  10  22  39  65  93 128 173 213 265 320 394
#     4  10  24  38  59  92 120 169 213 265 329 387
#     4  12  24  36  62  86 130 168 228 274 332 394
#     4  10  21  42  65  89 130 170 220 273 324 399
#
# _framework density 22.912566999999999
#
# number of rings (size 3 to 8) (size 9 to 14) (size 15 to 20)
#    0.000    1.931    1.379    1.241    3.862    7.448 
#    0.000    6.897    0.000    0.000    0.000    7.241 
#    0.000    0.000    0.000    0.000    0.000    0.000 
#
# Total GULP energy -323483.561731 kJ/mol
# GULP energy per Si atom -5577.302788 kJ/mol
# Density = 2.286042 g / cm^3
# Si number density = 22.912567 Si / 1000 Ang^3
#
#
#
# Elastic Constant Matrix: (Units=GPa)
#
#
# Indices 1 2 3 4 5 6 
#
# 1 67.4752 -1.0083 24.2554 0.0000 0.0000 0.0000
# 2 -1.0083 37.2929 13.7051 0.0000 0.0000 0.0000
# 3 24.2554 13.7051 143.4577 0.0000 0.0000 0.0000
# 4 0.0000 0.0000 0.0000 20.8533 0.0000 0.0000
# 5 0.0000 0.0000 0.0000 0.0000 73.3581 0.0000
# 6 0.0000 0.0000 0.0000 0.0000 0.0000 25.3402
#
#
#
# Elastic Compliance Matrix: (Units=1/GPa)
#
#
# Indices 1 2 3 4 5 6 
#
# 1 0.015856 0.001465 -0.002821 0.000000 0.000000 0.000000
# 2 0.001465 0.027926 -0.002916 0.000000 0.000000 0.000000
# 3 -0.002821 -0.002916 0.007726 0.000000 0.000000 0.000000
# 4 0.000000 0.000000 0.000000 0.047954 0.000000 0.000000
# 5 0.000000 0.000000 0.000000 0.000000 0.013632 0.000000
# 6 0.000000 0.000000 0.000000 0.000000 0.000000 0.039463
#
#
# Mechanical properties :
#
#
# Convention : Reuss Voigt Hill
#
# Bulk Modulus (GPa) = 23.27424 35.79223 29.53323
# Shear Modulus (GPa) = 28.50280 37.99522 33.24901
#
# Velocity S-wave (km/s) = 3.53084 4.07660 3.81350
# Velocity P-wave (km/s) = 5.17710 6.14926 5.68400
#
# Compressibility (1/GPa) = 0.04296596
#
# Stress axis : x y z
#
# Youngs Moduli (GPa) = 63.06678 35.80911 129.42987
#
# Poissons Ratio (x) = -0.05247 0.36511
# Poissons Ratio (y) = -0.09242 0.37737
# Poissons Ratio (z) = 0.17791 0.10441
#
# Static dielectric constant tensor:
#      x y z
#    x 1.945810 0.000000 0.000000 
#    y 0.000000 1.884200 0.000000 
#    z 0.000000 0.000000 1.925760 
# 
# From -- ./inp_files/24851.got.cif
#   From: 2010.05.17/outbox.cif.g08.bks.cpg/sg49_13_cif.got.tgz:24851.got - 2010.06.03 21:02:19.
