data_PCOD9394452
_publ_section_title
;
Structure prediction by ZEFSAII (Michael W. Deem and Ramdas Pophale) SiO2 
 PCOD9394452
Probable space group: P C C M
;
_chemical_formula_sum "Si O2"
_cell_formula_units_Z 64
_cell_length_a 12.145892
_cell_length_b 15.613817
_cell_length_c 18.094821
_cell_angle_alpha 90.000000
_cell_angle_beta 90.000000
_cell_angle_gamma 90.000000
_cell_volume 3431.569438
_symmetry_space_group_name_H-M "P C C M"
_symmetry_group_IT_number 49
_symmetry_cell_setting 'orthorhombic'
loop_
_space_group_symop_operation_xyz
x,y,z
-x,-y,z
x,-y,1/2-z
-x,y,1/2-z
-x,-y,-z
x,y,-z
-x,y,1/2+z
x,-y,1/2+z
loop_
_atom_site_type_symbol
_atom_site_label
_atom_site_fract_x
_atom_site_fract_y
_atom_site_fract_z
Si Si1 0.805957 0.537940 0.170083
Si Si2 0.168535 0.037337 0.589453
Si Si3 0.415896 0.926027 0.090363
Si Si4 0.445713 0.588496 0.330447
Si Si5 0.047517 0.862504 0.589318
Si Si6 0.201055 0.359936 0.411876
Si Si7 0.025497 0.310425 0.163133
Si Si8 0.428314 0.731174 0.911089
O O1 0.838367 0.500000 0.250000
O O2 0.684523 0.577950 0.177199
O O3 0.795023 0.457970 0.115082
O O4 0.895499 0.608597 0.148480
O O5 0.169950 0.040847 0.500000
O O6 0.291261 0.055411 0.615460
O O7 0.075596 0.106055 0.611227
O O8 0.125639 0.942640 0.608145
O O9 0.444634 0.829203 0.112978
O O10 0.500000 0.000000 0.114518
O O11 0.415825 0.927237 0.000000
O O12 0.500000 0.500000 0.360183
O O13 0.500000 0.600416 0.250000
O O14 0.479983 0.667725 0.380342
O O15 0.049922 0.850330 0.500000
O O16 0.077411 0.776500 0.631549
O O17 0.196534 0.355546 0.500000
O O18 0.309804 0.307855 0.387243
O O19 0.090233 0.321716 0.378281
O O20 0.000000 0.305188 0.250000
O O21 0.429272 0.729964 0.000000
#
# Coordination Sequence:
#
# PCOD9394452 Si02
#       8
#     8   8   8   8   8   8   8   8
#     4  12  23  41  58  82 115 158 203 241 297 359
#     4   8  15  32  58  80 112 155 189 233 291 352
#     4   9  17  30  52  84 119 150 183 230 294 355
#     4  11  21  39  64  83 111 156 203 240 290 357
#     4   9  18  35  58  85 111 147 198 242 288 344
#     4  11  23  39  61  86 116 155 201 247 295 349
#     4  12  25  36  57  84 121 156 194 246 299 359
#     4  10  21  37  62  94 119 149 197 250 294 344
#
# _framework density 18.650358000000001
#
# number of rings (size 3 to 8) (size 9 to 14) (size 15 to 20)
#    0.000    1.750    3.750    2.250    0.000    5.250 
#    0.000    2.500    0.000    0.375    0.000    0.000 
#    0.000    0.000    0.000    0.000    0.000    0.000 
#
# Total GULP energy -357316.769246 kJ/mol
# GULP energy per Si atom -5583.074519 kJ/mol
# Density = 1.860791 g / cm^3
# Si number density = 18.650358 Si / 1000 Ang^3
#
#
#
# Elastic Constant Matrix: (Units=GPa)
#
#
# Indices 1 2 3 4 5 6 
#
# 1 29.8916 37.5113 2.6335 0.0000 0.0000 0.0000
# 2 37.5113 153.1047 24.5992 0.0000 0.0000 0.0000
# 3 2.6335 24.5992 28.4746 0.0000 0.0000 0.0000
# 4 0.0000 0.0000 0.0000 -5.5092 0.0000 0.0000
# 5 0.0000 0.0000 0.0000 0.0000 16.7418 0.0000
# 6 0.0000 0.0000 0.0000 0.0000 0.0000 17.9051
#
#
#
# Elastic Compliance Matrix: (Units=1/GPa)
#
#
# Indices 1 2 3 4 5 6 
#
# 1 0.049428 -0.013209 0.006840 0.000000 0.000000 0.000000
# 2 -0.013209 0.011114 -0.008380 0.000000 0.000000 0.000000
# 3 0.006840 -0.008380 0.041726 0.000000 0.000000 0.000000
# 4 0.000000 0.000000 0.000000 -0.181513 0.000000 0.000000
# 5 0.000000 0.000000 0.000000 0.000000 0.059731 0.000000
# 6 0.000000 0.000000 0.000000 0.000000 0.000000 0.055850
#
#
# Mechanical properties :
#
#
# Convention : Reuss Voigt Hill
#
# Bulk Modulus (GPa) = 13.74197 37.88432 25.81315
# Shear Modulus (GPa) = 55.50012 15.60932 35.55472
#
# Velocity S-wave (km/s) = 5.46103 2.89614 4.37095
# Velocity P-wave (km/s) = 6.86644 5.61609 6.27250
#
# Compressibility (1/GPa) = 0.07276975
#
# Stress axis : x y z
#
# Youngs Moduli (GPa) = 20.23157 89.97570 23.96599
#
# Poissons Ratio (x) = 1.18849 -0.16392
# Poissons Ratio (y) = 0.26724 0.20083
# Poissons Ratio (z) = -0.13838 0.75398
#
# Static dielectric constant tensor:
#      x y z
#    x 1.641960 0.000000 0.000000 
#    y 0.000000 1.651730 0.000000 
#    z 0.000000 0.000000 1.630440 
# 
# From -- ./inp_files/17341.got.cif
#   From: 2010.05.17/outbox.cif.g08.bks.cpg/sg49_9_cif.got.tgz:17341.got - 2010.06.03 21:02:19.
