data_PCOD9394974
_publ_section_title
;
Structure prediction by ZEFSAII (Michael W. Deem and Ramdas Pophale) SiO2 
 PCOD9394974
Probable space group: P C C M
;
_chemical_formula_sum "Si O2"
_cell_formula_units_Z 64
_cell_length_a 11.487103
_cell_length_b 7.962438
_cell_length_c 29.674952
_cell_angle_alpha 90.000000
_cell_angle_beta 90.000000
_cell_angle_gamma 90.000000
_cell_volume 2714.229736
_symmetry_space_group_name_H-M "P C C M"
_symmetry_group_IT_number 49
_symmetry_cell_setting 'orthorhombic'
loop_
_space_group_symop_operation_xyz
x,y,z
-x,-y,z
x,-y,1/2-z
-x,y,1/2-z
-x,-y,-z
x,y,-z
-x,y,1/2+z
x,-y,1/2+z
loop_
_atom_site_type_symbol
_atom_site_label
_atom_site_fract_x
_atom_site_fract_y
_atom_site_fract_z
Si Si1 0.271228 0.283557 0.798405
Si Si2 0.819008 0.067827 0.050496
Si Si3 0.339268 0.709476 0.893777
Si Si4 0.992550 0.797618 0.177986
Si Si5 0.729961 0.381095 0.552162
Si Si6 0.240421 0.316822 0.701226
Si Si7 0.964223 0.754751 0.076965
Si Si8 0.420386 0.830635 0.617006
O O1 0.136280 0.239827 0.805218
O O2 0.299730 0.244158 0.746228
O O3 0.273509 0.486474 0.802286
O O4 0.347493 0.195062 0.837002
O O5 0.705393 0.146832 0.072144
O O6 0.918396 0.212192 0.049999
O O7 0.886940 0.926483 0.078404
O O8 0.800807 0.003830 0.000000
O O9 0.299790 0.536964 0.916087
O O10 0.280566 0.756602 0.846304
O O11 0.475441 0.697799 0.885797
O O12 0.999107 0.719249 0.127935
O O13 0.101851 0.717966 0.204202
O O14 0.000000 0.000000 0.177103
O O15 0.695033 0.401324 0.500000
O O16 0.869665 0.365968 0.555544
O O17 0.664286 0.221459 0.575447
O O18 0.500000 0.000000 0.616071
#
# Coordination Sequence:
#
# PCOD9394974 Si02
#       8
#     8   8   8   8   8   8   8   8
#     4  11  26  47  72 105 141 187 240 297 360 443
#     4  11  22  39  66 101 142 187 239 291 359 440
#     4  12  25  45  68 100 137 188 242 303 364 426
#     4  12  22  41  73 111 149 184 225 296 369 443
#     4  12  26  45  72 105 143 187 247 312 370 440
#     4  11  24  46  75 104 140 185 234 291 374 447
#     4  11  20  40  67 101 142 188 229 290 369 437
#     4  12  28  48  74 100 143 196 250 306 362 432
#
# _framework density 23.579433000000002
#
# number of rings (size 3 to 8) (size 9 to 14) (size 15 to 20)
#    0.000    0.500    5.000    3.750    1.750    4.750 
#    0.000    3.125    0.000    0.000    0.000    0.000 
#    0.000    0.000    0.000    0.000    0.000    0.000 
#
# Total GULP energy -357842.124330 kJ/mol
# GULP energy per Si atom -5591.283193 kJ/mol
# Density = 2.352577 g / cm^3
# Si number density = 23.579433 Si / 1000 Ang^3
#
#
#
# Elastic Constant Matrix: (Units=GPa)
#
#
# Indices 1 2 3 4 5 6 
#
# 1 119.6851 -9.5164 27.2079 0.0000 0.0000 0.0000
# 2 -9.5164 47.7616 -7.1541 0.0000 0.0000 0.0000
# 3 27.2079 -7.1541 142.2477 0.0000 0.0000 0.0000
# 4 0.0000 0.0000 0.0000 6.9720 0.0000 0.0000
# 5 0.0000 0.0000 0.0000 0.0000 29.6223 0.0000
# 6 0.0000 0.0000 0.0000 0.0000 0.0000 37.2090
#
#
#
# Elastic Compliance Matrix: (Units=1/GPa)
#
#
# Indices 1 2 3 4 5 6 
#
# 1 0.008843 0.001520 -0.001615 0.000000 0.000000 0.000000
# 2 0.001520 0.021358 0.000783 0.000000 0.000000 0.000000
# 3 -0.001615 0.000783 0.007378 0.000000 0.000000 0.000000
# 4 0.000000 0.000000 0.000000 0.143430 0.000000 0.000000
# 5 0.000000 0.000000 0.000000 0.000000 0.033758 0.000000
# 6 0.000000 0.000000 0.000000 0.000000 0.000000 0.026875
#
#
# Mechanical properties :
#
#
# Convention : Reuss Voigt Hill
#
# Bulk Modulus (GPa) = 25.66994 36.75212 31.21103
# Shear Modulus (GPa) = 19.74322 34.70445 27.22383
#
# Velocity S-wave (km/s) = 2.89676 3.84058 3.40157
# Velocity P-wave (km/s) = 4.70091 5.94029 5.35657
#
# Compressibility (1/GPa) = 0.03895607
#
# Stress axis : x y z
#
# Youngs Moduli (GPa) = 113.08039 46.82184 135.53268
#
# Poissons Ratio (x) = -0.07117 0.21889
# Poissons Ratio (y) = -0.17189 -0.10617
# Poissons Ratio (z) = 0.18263 -0.03668
#
# Static dielectric constant tensor:
#      x y z
#    x 1.895080 0.000000 0.000000 
#    y 0.000000 2.082840 0.000000 
#    z 0.000000 0.000000 1.921760 
# 
# From -- ./inp_files/26687.got.cif
#   From: 2010.05.17/outbox.cif.g08.bks.cpg/sg49_14_cif.got.tgz:26687.got - 2010.06.03 21:02:19.
