data_PCOD9394582
_publ_section_title
;
Structure prediction by ZEFSAII (Michael W. Deem and Ramdas Pophale) SiO2 
 PCOD9394582
Probable space group: P C C M
;
_chemical_formula_sum "Si O2"
_cell_formula_units_Z 56
_cell_length_a 19.242598
_cell_length_b 9.029492
_cell_length_c 14.594945
_cell_angle_alpha 90.000000
_cell_angle_beta 90.000000
_cell_angle_gamma 90.000000
_cell_volume 2535.884606
_symmetry_space_group_name_H-M "P C C M"
_symmetry_group_IT_number 49
_symmetry_cell_setting 'orthorhombic'
loop_
_space_group_symop_operation_xyz
x,y,z
-x,-y,z
x,-y,1/2-z
-x,y,1/2-z
-x,-y,-z
x,y,-z
-x,y,1/2+z
x,-y,1/2+z
loop_
_atom_site_type_symbol
_atom_site_label
_atom_site_fract_x
_atom_site_fract_y
_atom_site_fract_z
Si Si1 0.925122 0.446231 0.146929
Si Si2 0.801392 0.947056 0.105379
Si Si3 0.780516 0.613639 0.107387
Si Si4 0.945149 0.110478 0.894720
Si Si5 0.312009 0.162467 0.395811
Si Si6 0.573750 0.939271 0.146578
Si Si7 0.640349 0.351216 0.720671
O O1 0.926755 0.500000 0.250000
O O2 0.849704 0.509224 0.113649
O O3 0.928773 0.269366 0.145823
O O4 0.000000 0.500000 0.104865
O O5 0.802069 0.779693 0.138863
O O6 0.876942 0.012819 0.104043
O O7 0.753836 0.075511 0.146232
O O8 0.776080 0.937415 0.000000
O O9 0.709792 0.594120 0.165974
O O10 0.761769 0.612371 0.000000
O O11 0.967914 0.141744 0.000000
O O12 0.000000 0.000000 0.850942
O O13 0.299316 0.223866 0.500000
O O14 0.337898 0.272426 0.316592
O O15 0.367255 0.030418 0.403727
O O16 0.596427 0.767274 0.159533
O O17 0.500000 0.000000 0.110300
O O18 0.575459 0.000000 0.250000
O O19 0.600470 0.500000 0.750000
#
# Coordination Sequence:
#
# PCOD9394582 Si02
#       7
#     8   8   8   8   8   8   8
#     4  11  25  43  59  88 133 173 224 282 351 418
#     4   9  19  35  58  88 122 162 218 275 323 387
#     4  11  23  40  64  95 134 182 228 281 346 409
#     4  10  21  39  64  90 117 163 224 280 335 398
#     4  10  21  40  64  96 134 178 229 275 330 406
#     4   9  19  40  67  95 130 178 231 276 331 403
#     4  11  24  40  64 101 141 176 219 282 350 407
#
# _framework density 22.083024999999999
#
# number of rings (size 3 to 8) (size 9 to 14) (size 15 to 20)
#    0.000    1.857    1.429    1.714    4.000    3.143 
#    0.000   10.000    0.000    0.857    0.000    0.000 
#    0.000    0.000    0.000    0.000    0.000    0.000 
#
# Total GULP energy -311955.676929 kJ/mol
# GULP energy per Si atom -5570.637088 kJ/mol
# Density = 2.203276 g / cm^3
# Si number density = 22.083025 Si / 1000 Ang^3
#
#
#
# Elastic Constant Matrix: (Units=GPa)
#
#
# Indices 1 2 3 4 5 6 
#
# 1 106.0377 35.8009 17.9928 0.0000 0.0000 0.0000
# 2 35.8009 154.7886 23.8476 0.0000 0.0000 0.0000
# 3 17.9928 23.8476 101.9981 0.0000 0.0000 0.0000
# 4 0.0000 0.0000 0.0000 82.0430 0.0000 0.0000
# 5 0.0000 0.0000 0.0000 0.0000 4.6053 0.0000
# 6 0.0000 0.0000 0.0000 0.0000 0.0000 14.7519
#
#
#
# Elastic Compliance Matrix: (Units=1/GPa)
#
#
# Indices 1 2 3 4 5 6 
#
# 1 0.010398 -0.002202 -0.001319 0.000000 0.000000 0.000000
# 2 -0.002202 0.007168 -0.001288 0.000000 0.000000 0.000000
# 3 -0.001319 -0.001288 0.010338 0.000000 0.000000 0.000000
# 4 0.000000 0.000000 0.000000 0.012189 0.000000 0.000000
# 5 0.000000 0.000000 0.000000 0.000000 0.217143 0.000000
# 6 0.000000 0.000000 0.000000 0.000000 0.000000 0.067788
#
#
# Mechanical properties :
#
#
# Convention : Reuss Voigt Hill
#
# Bulk Modulus (GPa) = 54.68520 57.56743 56.12632
# Shear Modulus (GPa) = 14.67412 39.29224 26.98318
#
# Velocity S-wave (km/s) = 2.58058 4.22275 3.49936
# Velocity P-wave (km/s) = 5.80486 7.06404 6.46518
#
# Compressibility (1/GPa) = 0.01828648
#
# Stress axis : x y z
#
# Youngs Moduli (GPa) = 96.17406 139.50897 96.73146
#
# Poissons Ratio (x) = 0.30714 0.12763
# Poissons Ratio (y) = 0.21174 0.12455
# Poissons Ratio (z) = 0.12690 0.17962
#
# Static dielectric constant tensor:
#      x y z
#    x 1.795200 0.000000 0.000000 
#    y 0.000000 1.803070 0.000000 
#    z 0.000000 0.000000 1.871990 
# 
# From -- ./inp_files/14369.got.cif
#   From: 2010.05.17/outbox.cif.g08.bks.cpg/sg49_8_cif.got.tgz:14369.got - 2010.06.03 21:02:19.
