data_PCOD9394077
_publ_section_title
;
Structure prediction by ZEFSAII (Michael W. Deem and Ramdas Pophale) SiO2 
 PCOD9394077
Probable space group: P C C M
;
_chemical_formula_sum "Si O2"
_cell_formula_units_Z 38
_cell_length_a 9.498277
_cell_length_b 23.104720
_cell_length_c 8.999268
_cell_angle_alpha 90.000000
_cell_angle_beta 90.000000
_cell_angle_gamma 90.000000
_cell_volume 1974.934634
_symmetry_space_group_name_H-M "P C C M"
_symmetry_group_IT_number 49
_symmetry_cell_setting 'orthorhombic'
loop_
_space_group_symop_operation_xyz
x,y,z
-x,-y,z
x,-y,1/2-z
-x,y,1/2-z
-x,-y,-z
x,y,-z
-x,y,1/2+z
x,-y,1/2+z
loop_
_atom_site_type_symbol
_atom_site_label
_atom_site_fract_x
_atom_site_fract_y
_atom_site_fract_z
Si Si1 0.656100 0.186511 0.321523
Si Si2 0.154279 0.713899 0.821209
Si Si3 0.655147 0.943812 0.176438
Si Si4 0.649532 0.379728 0.674274
Si Si5 0.219060 0.500000 0.750000
Si Si6 0.000000 0.500000 0.000000
O O1 0.500000 0.190582 0.250000
O O2 0.647746 0.196583 0.500000
O O3 0.755277 0.232332 0.241029
O O4 0.712751 0.120795 0.298912
O O5 0.233434 0.657357 0.759194
O O6 0.000000 0.716118 0.750000
O O7 0.148440 0.714008 0.000000
O O8 0.500000 0.941270 0.250000
O O9 0.726888 0.000000 0.250000
O O10 0.642961 0.952798 0.000000
O O11 0.500000 0.368035 0.750000
O O12 0.647398 0.364226 0.500000
O O13 0.688555 0.447159 0.689867
O O14 0.113065 0.521361 0.874987
#
# Coordination Sequence:
#
# PCOD9394077 Si02
#       6
#     8   8   8   8   4   2
#     4  10  20  37  59  87 123 160 202 249 303 356
#     4  12  27  44  66  89 119 158 203 251 304 366
#     4   9  16  26  47  79 116 155 195 243 293 351
#     4  12  27  45  68  95 128 162 203 252 306 360
#     4  11  25  42  70  94 132 164 206 248 304 356
#     4  10  24  42  66 102 128 166 202 250 294 366
#
# _framework density 19.241143000000001
#
# number of rings (size 3 to 8) (size 9 to 14) (size 15 to 20)
#    0.000    1.263    1.053    5.368    5.895    3.368 
#    0.000    0.000    0.000    0.632    0.000    4.421 
#    0.000    0.000    0.000    0.000    0.000    0.000 
#
# Total GULP energy -211617.934935 kJ/mol
# GULP energy per Si atom -5568.893025 kJ/mol
# Density = 1.919735 g / cm^3
# Si number density = 19.241143 Si / 1000 Ang^3
#
#
#
# Elastic Constant Matrix: (Units=GPa)
#
#
# Indices 1 2 3 4 5 6 
#
# 1 105.4737 48.3276 52.0961 0.0000 0.0000 0.0000
# 2 48.3276 132.8585 56.5579 0.0000 0.0000 0.0000
# 3 52.0961 56.5579 189.8148 0.0000 0.0000 0.0000
# 4 0.0000 0.0000 0.0000 37.5162 0.0000 0.0000
# 5 0.0000 0.0000 0.0000 0.0000 25.1890 0.0000
# 6 0.0000 0.0000 0.0000 0.0000 0.0000 3.7944
#
#
#
# Elastic Compliance Matrix: (Units=1/GPa)
#
#
# Indices 1 2 3 4 5 6 
#
# 1 0.012210 -0.003453 -0.002322 0.000000 0.000000 0.000000
# 2 -0.003453 0.009597 -0.001912 0.000000 0.000000 0.000000
# 3 -0.002322 -0.001912 0.006475 0.000000 0.000000 0.000000
# 4 0.000000 0.000000 0.000000 0.026655 0.000000 0.000000
# 5 0.000000 0.000000 0.000000 0.000000 0.039700 0.000000
# 6 0.000000 0.000000 0.000000 0.000000 0.000000 0.263547
#
#
# Mechanical properties :
#
#
# Convention : Reuss Voigt Hill
#
# Bulk Modulus (GPa) = 77.47042 82.45670 79.96356
# Shear Modulus (GPa) = 13.23237 31.37760 22.30499
#
# Velocity S-wave (km/s) = 2.62527 4.04264 3.40845
# Velocity P-wave (km/s) = 7.03845 8.04599 7.55902
#
# Compressibility (1/GPa) = 0.01290815
#
# Stress axis : x y z
#
# Youngs Moduli (GPa) = 81.89883 104.20316 154.43242
#
# Poissons Ratio (x) = 0.35980 0.35865
# Poissons Ratio (y) = 0.28279 0.29524
# Poissons Ratio (z) = 0.19020 0.19921
#
# Static dielectric constant tensor:
#      x y z
#    x 1.642580 0.000000 0.000000 
#    y 0.000000 1.734510 0.000000 
#    z 0.000000 0.000000 1.646550 
# 
# From -- ./inp_files/1733.got.cif
#   From: 2010.05.17/outbox.cif.g08.bks.cpg/sg49_1_cif.got.tgz:1733.got - 2010.06.03 21:02:19.
