data_PCOD9394368
_publ_section_title
;
Structure prediction by ZEFSAII (Michael W. Deem and Ramdas Pophale) SiO2 
 PCOD9394368
Probable space group: P C C M
;
_chemical_formula_sum "Si O2"
_cell_formula_units_Z 58
_cell_length_a 13.150962
_cell_length_b 26.649764
_cell_length_c 7.900964
_cell_angle_alpha 90.000000
_cell_angle_beta 90.000000
_cell_angle_gamma 90.000000
_cell_volume 2769.051119
_symmetry_space_group_name_H-M "P C C M"
_symmetry_group_IT_number 49
_symmetry_cell_setting 'orthorhombic'
loop_
_space_group_symop_operation_xyz
x,y,z
-x,-y,z
x,-y,1/2-z
-x,y,1/2-z
-x,-y,-z
x,y,-z
-x,y,1/2+z
x,-y,1/2+z
loop_
_atom_site_type_symbol
_atom_site_label
_atom_site_fract_x
_atom_site_fract_y
_atom_site_fract_z
Si Si1 0.000000 0.000000 0.250000
Si Si2 0.115470 0.805336 0.296943
Si Si3 0.889871 0.595390 0.203130
Si Si4 0.390453 0.661219 0.193216
Si Si5 0.326109 0.555309 0.702165
Si Si6 0.816966 0.299511 0.694287
Si Si7 0.160850 0.917473 0.298366
Si Si8 0.611082 0.941719 0.700154
O O1 0.912174 0.957648 0.296745
O O2 0.130482 0.808627 0.500000
O O3 0.173400 0.755997 0.230857
O O4 0.139908 0.861147 0.234617
O O5 0.000000 0.794876 0.250000
O O6 0.791896 0.563525 0.257856
O O7 0.875804 0.652568 0.271815
O O8 0.000000 0.575295 0.250000
O O9 0.884051 0.598064 0.000000
O O10 0.500000 0.679297 0.250000
O O11 0.385399 0.601071 0.213681
O O12 0.299450 0.683316 0.302577
O O13 0.370424 0.674470 0.000000
O O14 0.360583 0.500000 0.750000
O O15 0.332444 0.561509 0.500000
O O16 0.853065 0.295443 0.500000
O O17 0.134919 0.923221 0.500000
O O18 0.282238 0.924385 0.280156
O O19 0.500000 0.919417 0.750000
O O20 0.621349 0.936559 0.500000
O O21 0.605597 0.000000 0.750000
#
# Coordination Sequence:
#
# PCOD9394368 Si02
#       8
#     2   8   8   8   8   8   8   8
#     4  12  22  36  62  86 130 164 210 246 300 356
#     4  10  21  37  58  86 121 157 194 239 290 348
#     4   9  18  31  50  75 105 142 183 226 274 329
#     4  11  22  38  61  86 111 144 187 234 288 348
#     4  10  21  37  54  79 114 150 190 236 284 335
#     4   9  19  37  57  80 111 145 184 234 285 337
#     4  11  23  38  58  89 125 163 205 248 299 356
#     4  11  22  38  61  85 112 148 192 241 290 345
#
# _framework density 20.945803000000002
#
# number of rings (size 3 to 8) (size 9 to 14) (size 15 to 20)
#    0.000    1.793    1.379    4.759    0.000    4.966 
#    0.000    3.448    0.000    0.000    0.000    0.000 
#    0.000    0.000    0.000    0.000    0.000    0.000 
#
# Total GULP energy -323223.712435 kJ/mol
# GULP energy per Si atom -5572.822628 kJ/mol
# Density = 2.089813 g / cm^3
# Si number density = 20.945803 Si / 1000 Ang^3
#
#
#
# Elastic Constant Matrix: (Units=GPa)
#
#
# Indices 1 2 3 4 5 6 
#
# 1 103.6351 11.6886 -14.0874 0.0000 0.0000 0.0000
# 2 11.6886 107.2922 -7.4590 0.0000 0.0000 0.0000
# 3 -14.0874 -7.4590 52.0186 0.0000 0.0000 0.0000
# 4 0.0000 0.0000 0.0000 3.7452 0.0000 0.0000
# 5 0.0000 0.0000 0.0000 0.0000 22.6039 0.0000
# 6 0.0000 0.0000 0.0000 0.0000 0.0000 -4.2219
#
#
#
# Elastic Compliance Matrix: (Units=1/GPa)
#
#
# Indices 1 2 3 4 5 6 
#
# 1 0.010107 -0.000920 0.002605 0.000000 0.000000 0.000000
# 2 -0.000920 0.009498 0.001113 0.000000 0.000000 0.000000
# 3 0.002605 0.001113 0.020089 0.000000 0.000000 0.000000
# 4 0.000000 0.000000 0.000000 0.267010 0.000000 0.000000
# 5 0.000000 0.000000 0.000000 0.000000 0.044240 0.000000
# 6 0.000000 0.000000 0.000000 0.000000 0.000000 -0.236859
#
#
# Mechanical properties :
#
#
# Convention : Reuss Voigt Hill
#
# Bulk Modulus (GPa) = 22.07985 27.02558 24.55272
# Shear Modulus (GPa) = 40.45767 22.61236 31.53501
#
# Velocity S-wave (km/s) = 4.39970 3.28924 3.88435
# Velocity P-wave (km/s) = 6.03109 5.23030 5.64492
#
# Compressibility (1/GPa) = 0.04529015
#
# Stress axis : x y z
#
# Youngs Moduli (GPa) = 98.93994 105.28619 49.77853
#
# Poissons Ratio (x) = 0.09686 -0.12969
# Poissons Ratio (y) = 0.09102 -0.05539
# Poissons Ratio (z) = -0.25776 -0.11716
#
# Static dielectric constant tensor:
#      x y z
#    x 1.757480 0.000000 0.000000 
#    y 0.000000 1.764140 0.000000 
#    z 0.000000 0.000000 1.788330 
# 
# From -- ./inp_files/3012.got.cif
#   From: 2010.05.17/outbox.cif.g08.bks.cpg/sg49_2_cif.got.tgz:3012.got - 2010.06.03 21:02:19.
