data_PCOD9394760
_publ_section_title
;
Structure prediction by ZEFSAII (Michael W. Deem and Ramdas Pophale) SiO2 
 PCOD9394760
Probable space group: P C C M
;
_chemical_formula_sum "Si O2"
_cell_formula_units_Z 64
_cell_length_a 9.521872
_cell_length_b 11.065508
_cell_length_c 30.358066
_cell_angle_alpha 90.000000
_cell_angle_beta 90.000000
_cell_angle_gamma 90.000000
_cell_volume 3198.657915
_symmetry_space_group_name_H-M "P C C M"
_symmetry_group_IT_number 49
_symmetry_cell_setting 'orthorhombic'
loop_
_space_group_symop_operation_xyz
x,y,z
-x,-y,z
x,-y,1/2-z
-x,y,1/2-z
-x,-y,-z
x,y,-z
-x,y,1/2+z
x,-y,1/2+z
loop_
_atom_site_type_symbol
_atom_site_label
_atom_site_fract_x
_atom_site_fract_y
_atom_site_fract_z
Si Si1 0.800612 0.723725 0.118463
Si Si2 0.479544 0.857204 0.617415
Si Si3 0.113754 0.897077 0.185713
Si Si4 0.578903 0.128270 0.209418
Si Si5 0.316797 0.263396 0.449782
Si Si6 0.935244 0.121199 0.913338
Si Si7 0.333496 0.470869 0.947971
Si Si8 0.027933 0.361951 0.802801
O O1 0.683416 0.827006 0.121925
O O2 0.733832 0.624908 0.085389
O O3 0.834875 0.673190 0.167646
O O4 0.941565 0.783170 0.098141
O O5 0.553063 0.811991 0.662446
O O6 0.554565 0.784416 0.578842
O O7 0.500000 0.000000 0.610894
O O8 0.256878 0.899019 0.213239
O O9 0.134905 0.917688 0.133511
O O10 0.063092 0.758508 0.187736
O O11 0.000000 0.000000 0.199003
O O12 0.500000 0.191334 0.250000
O O13 0.500000 0.000000 0.205406
O O14 0.363446 0.267745 0.500000
O O15 0.185307 0.177201 0.442616
O O16 0.267190 0.398189 0.438102
O O17 0.000000 0.000000 0.933008
O O18 0.500000 0.500000 0.941780
O O19 0.313277 0.439210 0.000000
O O20 0.000000 0.500000 0.818231
O O21 0.000000 0.368917 0.750000
#
# Coordination Sequence:
#
# PCOD9394760 Si02
#       8
#     8   8   8   8   8   8   8   8
#     4  11  24  39  71  94 123 182 226 260 339 400
#     4  11  23  40  64  94 134 169 219 273 331 398
#     4  10  22  40  68  95 130 179 224 269 333 398
#     4  10  23  37  61  96 134 163 216 283 329 382
#     4  11  23  41  65  95 132 172 212 275 340 390
#     4  10  22  41  62  93 131 172 219 267 323 395
#     4  10  22  42  66  96 131 167 227 284 323 394
#     4  10  25  43  64  94 135 172 220 279 335 399
#
# _framework density 20.008391
#
# number of rings (size 3 to 8) (size 9 to 14) (size 15 to 20)
#    0.000    1.625    2.500    0.750   14.000    2.250 
#    0.000    2.500    0.000    0.000    0.000    0.000 
#    0.000    0.000    0.000    0.000    0.000    0.000 
#
# Total GULP energy -356580.851226 kJ/mol
# GULP energy per Si atom -5571.575800 kJ/mol
# Density = 1.996285 g / cm^3
# Si number density = 20.008391 Si / 1000 Ang^3
#
#
#
# Elastic Constant Matrix: (Units=GPa)
#
#
# Indices 1 2 3 4 5 6 
#
# 1 109.8442 42.3214 34.1124 0.0000 0.0000 0.0000
# 2 42.3214 116.1484 37.6109 0.0000 0.0000 0.0000
# 3 34.1124 37.6109 85.1707 0.0000 0.0000 0.0000
# 4 0.0000 0.0000 0.0000 21.0926 0.0000 0.0000
# 5 0.0000 0.0000 0.0000 0.0000 36.5799 0.0000
# 6 0.0000 0.0000 0.0000 0.0000 0.0000 25.8704
#
#
#
# Elastic Compliance Matrix: (Units=1/GPa)
#
#
# Indices 1 2 3 4 5 6 
#
# 1 0.011272 -0.003087 -0.003151 0.000000 0.000000 0.000000
# 2 -0.003087 0.010891 -0.003573 0.000000 0.000000 0.000000
# 3 -0.003151 -0.003573 0.014581 0.000000 0.000000 0.000000
# 4 0.000000 0.000000 0.000000 0.047410 0.000000 0.000000
# 5 0.000000 0.000000 0.000000 0.000000 0.027337 0.000000
# 6 0.000000 0.000000 0.000000 0.000000 0.000000 0.038654
#
#
# Mechanical properties :
#
#
# Convention : Reuss Voigt Hill
#
# Bulk Modulus (GPa) = 58.40583 59.91698 59.16141
# Shear Modulus (GPa) = 28.49388 29.84983 29.17185
#
# Velocity S-wave (km/s) = 3.77781 3.86666 3.82249
# Velocity P-wave (km/s) = 6.94861 7.06722 7.00817
#
# Compressibility (1/GPa) = 0.01712158
#
# Stress axis : x y z
#
# Youngs Moduli (GPa) = 88.71749 91.81492 68.58082
#
# Poissons Ratio (x) = 0.28340 0.21613
# Poissons Ratio (y) = 0.27384 0.24507
# Poissons Ratio (z) = 0.27959 0.32809
#
# Static dielectric constant tensor:
#      x y z
#    x 1.735860 0.000000 0.000000 
#    y 0.000000 1.699970 0.000000 
#    z 0.000000 0.000000 1.784910 
# 
# From -- ./inp_files/26459.got.cif
#   From: 2010.05.17/outbox.cif.g08.bks.cpg/sg49_14_cif.got.tgz:26459.got - 2010.06.03 21:02:19.
