data_PCOD9394409
_publ_section_title
;
Structure prediction by ZEFSAII (Michael W. Deem and Ramdas Pophale) SiO2 
 PCOD9394409
Probable space group: P C C M
;
_chemical_formula_sum "Si O2"
_cell_formula_units_Z 32
_cell_length_a 19.659312
_cell_length_b 8.845732
_cell_length_c 9.787367
_cell_angle_alpha 90.000000
_cell_angle_beta 90.000000
_cell_angle_gamma 90.000000
_cell_volume 1702.032960
_symmetry_space_group_name_H-M "P C C M"
_symmetry_group_IT_number 49
_symmetry_cell_setting 'orthorhombic'
loop_
_space_group_symop_operation_xyz
x,y,z
-x,-y,z
x,-y,1/2-z
-x,y,1/2-z
-x,-y,-z
x,y,-z
-x,y,1/2+z
x,-y,1/2+z
loop_
_atom_site_type_symbol
_atom_site_label
_atom_site_fract_x
_atom_site_fract_y
_atom_site_fract_z
Si Si1 0.061417 0.340375 0.665590
Si Si2 0.346853 0.179063 0.264036
Si Si3 0.564671 0.304117 0.000000
Si Si4 0.403137 0.655386 0.500000
Si Si5 0.787531 0.648352 0.342523
O O1 0.067001 0.500000 0.750000
O O2 0.047879 0.355484 0.500000
O O3 0.137896 0.277733 0.679987
O O4 0.000000 0.261882 0.750000
O O5 0.405931 0.219935 0.369795
O O6 0.366591 0.270899 0.128981
O O7 0.274630 0.240496 0.316083
O O8 0.343832 0.000000 0.250000
O O9 0.483531 0.307701 0.000000
O O10 0.596453 0.473325 0.000000
O O11 0.779786 0.500000 0.250000
O O12 0.786423 0.598355 0.500000
#
# Coordination Sequence:
#
# PCOD9394409 Si02
#       5
#     8   8   4   4   8
#     4   9  16  28  49  80 115 149 191 243 292 338
#     4  12  25  40  60  89 123 158 196 243 297 352
#     4  11  23  45  65  87 120 149 200 247 293 358
#     4  11  25  41  67  91 112 157 196 245 299 350
#     4  10  21  37  59  85 118 160 202 245 292 352
#
# _framework density 18.801047000000001
#
# number of rings (size 3 to 8) (size 9 to 14) (size 15 to 20)
#    0.000    1.500    1.250    5.250    1.750    6.000 
#    0.000    0.000    0.000    0.750    0.000    3.500 
#    0.000    0.000    0.000    0.000    0.000    0.000 
#
# Total GULP energy -178452.801626 kJ/mol
# GULP energy per Si atom -5576.650051 kJ/mol
# Density = 1.875825 g / cm^3
# Si number density = 18.801047 Si / 1000 Ang^3
#
#
#
# Elastic Constant Matrix: (Units=GPa)
#
#
# Indices 1 2 3 4 5 6 
#
# 1 96.2786 29.7952 23.2542 0.0000 0.0000 0.0000
# 2 29.7952 67.0358 14.5203 0.0000 0.0000 0.0000
# 3 23.2542 14.5203 121.9744 0.0000 0.0000 0.0000
# 4 0.0000 0.0000 0.0000 23.6620 0.0000 0.0000
# 5 0.0000 0.0000 0.0000 0.0000 38.5891 0.0000
# 6 0.0000 0.0000 0.0000 0.0000 0.0000 -7.6701
#
#
#
# Elastic Compliance Matrix: (Units=1/GPa)
#
#
# Indices 1 2 3 4 5 6 
#
# 1 0.012398 -0.005131 -0.001753 0.000000 0.000000 0.000000
# 2 -0.005131 0.017436 -0.001097 0.000000 0.000000 0.000000
# 3 -0.001753 -0.001097 0.008663 0.000000 0.000000 0.000000
# 4 0.000000 0.000000 0.000000 0.042262 0.000000 0.000000
# 5 0.000000 0.000000 0.000000 0.000000 0.025914 0.000000
# 6 0.000000 0.000000 0.000000 0.000000 0.000000 -0.130376
#
#
# Mechanical properties :
#
#
# Convention : Reuss Voigt Hill
#
# Bulk Modulus (GPa) = 44.37625 46.71425 45.54525
# Shear Modulus (GPa) = -21688.86374 25.43080 -10831.71647
#
# Velocity S-wave (km/s) = -107.52223 3.68180 -75.98511
# Velocity P-wave (km/s) = 124.06068 6.55551 87.60159
#
# Compressibility (1/GPa) = 0.02253458
#
# Stress axis : x y z
#
# Youngs Moduli (GPa) = 80.66034 57.35415 115.43009
#
# Poissons Ratio (x) = 0.29427 0.20233
# Poissons Ratio (y) = 0.41384 0.12668
# Poissons Ratio (z) = 0.14138 0.06294
#
# Static dielectric constant tensor:
#      x y z
#    x 1.698270 0.000000 0.000000 
#    y 0.000000 1.615710 0.000000 
#    z 0.000000 0.000000 1.630550 
# 
# From -- ./inp_files/1432.got.cif
#   From: 2010.05.17/outbox.cif.g08.bks.cpg/sg49_1_cif.got.tgz:1432.got - 2010.06.03 21:02:19.
