data_PCOD9394232
_publ_section_title
;
Structure prediction by ZEFSAII (Michael W. Deem and Ramdas Pophale) SiO2 
 PCOD9394232
Probable space group: P C C M
;
_chemical_formula_sum "Si O2"
_cell_formula_units_Z 38
_cell_length_a 11.416951
_cell_length_b 17.024042
_cell_length_c 9.841946
_cell_angle_alpha 90.000000
_cell_angle_beta 90.000000
_cell_angle_gamma 90.000000
_cell_volume 1912.906739
_symmetry_space_group_name_H-M "P C C M"
_symmetry_group_IT_number 49
_symmetry_cell_setting 'orthorhombic'
loop_
_space_group_symop_operation_xyz
x,y,z
-x,-y,z
x,-y,1/2-z
-x,y,1/2-z
-x,-y,-z
x,y,-z
-x,y,1/2+z
x,-y,1/2+z
loop_
_atom_site_type_symbol
_atom_site_label
_atom_site_fract_x
_atom_site_fract_y
_atom_site_fract_z
Si Si1 0.000000 0.000000 0.750000
Si Si2 0.755530 0.183788 0.500000
Si Si3 0.360469 0.260843 0.256510
Si Si4 0.827826 0.980927 0.000000
Si Si5 0.000000 0.360895 0.750000
Si Si6 0.979554 0.248853 0.000000
Si Si7 0.247924 0.577582 0.334360
Si Si8 0.252055 0.159198 0.500000
O O1 0.092289 0.032319 0.863844
O O2 0.692999 0.219775 0.372995
O O3 0.890519 0.213033 0.500000
O O4 0.741201 0.091300 0.500000
O O5 0.500000 0.263372 0.250000
O O6 0.311044 0.349437 0.241003
O O7 0.313113 0.205075 0.376181
O O8 0.759347 0.064306 0.000000
O O9 0.959307 0.303445 0.870014
O O10 0.108731 0.409205 0.809705
O O11 0.885284 0.180788 0.000000
O O12 0.282049 0.500000 0.250000
O O13 0.269087 0.575756 0.500000
#
# Coordination Sequence:
#
# PCOD9394232 Si02
#       8
#     2   4   8   4   4   4   8   4
#     4  10  20  40  60 104 150 186 210 282 362 420
#     4  12  23  47  69  98 144 185 227 291 353 409
#     4  12  26  48  70  96 137 188 240 286 340 411
#     4  11  24  40  67 104 148 182 235 289 344 420
#     4  12  21  41  64 102 138 178 218 271 347 426
#     4  12  20  37  71  98 134 174 226 276 341 425
#     4  12  27  46  70 103 140 179 225 285 353 418
#     4  12  25  41  71 108 132 185 235 285 355 405
#
# _framework density 19.865057
#
# number of rings (size 3 to 8) (size 9 to 14) (size 15 to 20)
#    0.000    0.211    6.316    3.474    2.947    2.947 
#    0.000    4.211    0.000    0.000    0.000    0.000 
#    0.000    0.000    0.000    0.000    0.000    0.000 
#
# Total GULP energy -211932.287555 kJ/mol
# GULP energy per Si atom -5577.165462 kJ/mol
# Density = 1.981984 g / cm^3
# Si number density = 19.865057 Si / 1000 Ang^3
#
#
#
# Elastic Constant Matrix: (Units=GPa)
#
#
# Indices 1 2 3 4 5 6 
#
# 1 127.1473 46.1815 17.4359 0.0000 0.0000 0.0000
# 2 46.1815 186.8842 44.7342 0.0000 0.0000 0.0000
# 3 17.4359 44.7342 115.9705 0.0000 0.0000 0.0000
# 4 0.0000 0.0000 0.0000 11.0162 0.0000 0.0000
# 5 0.0000 0.0000 0.0000 0.0000 31.2068 0.0000
# 6 0.0000 0.0000 0.0000 0.0000 0.0000 -52.6409
#
#
#
# Elastic Compliance Matrix: (Units=1/GPa)
#
#
# Indices 1 2 3 4 5 6 
#
# 1 0.008669 -0.002017 -0.000526 0.000000 0.000000 0.000000
# 2 -0.002017 0.006364 -0.002152 0.000000 0.000000 0.000000
# 3 -0.000526 -0.002152 0.009532 0.000000 0.000000 0.000000
# 4 0.000000 0.000000 0.000000 0.090775 0.000000 0.000000
# 5 0.000000 0.000000 0.000000 0.000000 0.032044 0.000000
# 6 0.000000 0.000000 0.000000 0.000000 0.000000 -0.018997
#
#
# Mechanical properties :
#
#
# Convention : Reuss Voigt Hill
#
# Bulk Modulus (GPa) = 65.88536 71.85614 68.87075
# Shear Modulus (GPa) = 35.00531 19.35978 27.18255
#
# Velocity S-wave (km/s) = 4.20236 3.12519 3.70315
# Velocity P-wave (km/s) = 7.53557 7.01948 7.28210
#
# Compressibility (1/GPa) = 0.01517788
#
# Stress axis : x y z
#
# Youngs Moduli (GPa) = 115.34835 157.12699 104.91066
#
# Poissons Ratio (x) = 0.31685 0.05514
# Poissons Ratio (y) = 0.23260 0.22574
# Poissons Ratio (z) = 0.06062 0.33810
#
# Static dielectric constant tensor:
#      x y z
#    x 1.697260 0.000000 0.000000 
#    y 0.000000 1.712570 0.000000 
#    z 0.000000 0.000000 1.699150 
# 
# From -- ./inp_files/2743.got.cif
#   From: 2010.05.17/outbox.cif.g08.bks.cpg/sg49_2_cif.got.tgz:2743.got - 2010.06.03 21:02:19.
