data_PCOD9394157
_publ_section_title
;
Structure prediction by ZEFSAII (Michael W. Deem and Ramdas Pophale) SiO2 
 PCOD9394157
Probable space group: P C C M
;
_chemical_formula_sum "Si O2"
_cell_formula_units_Z 56
_cell_length_a 20.417229
_cell_length_b 5.231413
_cell_length_c 25.149628
_cell_angle_alpha 90.000000
_cell_angle_beta 90.000000
_cell_angle_gamma 90.000000
_cell_volume 2686.255840
_symmetry_space_group_name_H-M "P C C M"
_symmetry_group_IT_number 49
_symmetry_cell_setting 'orthorhombic'
loop_
_space_group_symop_operation_xyz
x,y,z
-x,-y,z
x,-y,1/2-z
-x,y,1/2-z
-x,-y,-z
x,y,-z
-x,y,1/2+z
x,-y,1/2+z
loop_
_atom_site_type_symbol
_atom_site_label
_atom_site_fract_x
_atom_site_fract_y
_atom_site_fract_z
Si Si1 0.898598 0.920110 0.308986
Si Si2 0.181369 0.249766 0.058274
Si Si3 0.625915 0.066323 0.311865
Si Si4 0.306836 0.582742 0.940835
Si Si5 0.424592 0.557325 0.869664
Si Si6 0.237321 0.083736 0.352939
Si Si7 0.931095 0.568114 0.125832
O O1 0.819358 0.868877 0.310242
O O2 0.925697 0.652256 0.329995
O O3 0.917381 0.000000 0.250000
O O4 0.923971 0.154588 0.346228
O O5 0.254807 0.357047 0.053635
O O6 0.129432 0.442951 0.084499
O O7 0.192105 0.032509 0.100826
O O8 0.158908 0.168948 0.000000
O O9 0.597604 0.341236 0.327511
O O10 0.618569 0.000000 0.250000
O O11 0.590165 0.839755 0.345589
O O12 0.703344 0.073353 0.326880
O O13 0.379865 0.518961 0.922255
O O14 0.277385 0.713322 0.887768
O O15 0.306686 0.711394 0.000000
O O16 0.500000 0.500000 0.880984
O O17 0.000000 0.500000 0.098619
#
# Coordination Sequence:
#
# PCOD9394157 Si02
#       7
#     8   8   8   8   8   8   8
#     4  11  23  39  63  89 121 162 203 249 302 356
#     4  10  20  38  64  88 120 159 202 248 302 361
#     4  11  23  39  63  89 121 162 203 249 302 356
#     4  10  20  38  64  88 120 159 202 248 302 361
#     4  11  24  41  60  90 126 158 201 250 299 360
#     4  10  20  38  60  92 124 152 204 256 302 352
#     4  11  24  41  60  90 126 158 201 250 299 360
#
# _framework density 20.846861000000001
#
# number of rings (size 3 to 8) (size 9 to 14) (size 15 to 20)
#    0.000    1.429    2.857    2.571    0.000    4.000 
#    0.000    2.857    0.000    5.143    0.000    0.000 
#    0.000    0.000    0.000    0.000    0.000    0.000 
#
# Total GULP energy -311801.447201 kJ/mol
# GULP energy per Si atom -5567.882986 kJ/mol
# Density = 2.079941 g / cm^3
# Si number density = 20.846861 Si / 1000 Ang^3
#
#
#
# Elastic Constant Matrix: (Units=GPa)
#
#
# Indices 1 2 3 4 5 6 
#
# 1 109.6058 8.2422 5.3542 0.0000 0.0000 0.0000
# 2 8.2422 61.7997 -6.1076 0.0000 0.0000 0.0000
# 3 5.3542 -6.1076 62.6257 0.0000 0.0000 0.0000
# 4 0.0000 0.0000 0.0000 16.5568 0.0000 0.0000
# 5 0.0000 0.0000 0.0000 0.0000 -3.2500 0.0000
# 6 0.0000 0.0000 0.0000 0.0000 0.0000 22.8003
#
#
#
# Elastic Compliance Matrix: (Units=1/GPa)
#
#
# Indices 1 2 3 4 5 6 
#
# 1 0.009268 -0.001327 -0.000922 0.000000 0.000000 0.000000
# 2 -0.001327 0.016529 0.001725 0.000000 0.000000 0.000000
# 3 -0.000922 0.001725 0.016215 0.000000 0.000000 0.000000
# 4 0.000000 0.000000 0.000000 0.060398 0.000000 0.000000
# 5 0.000000 0.000000 0.000000 0.000000 -0.307694 0.000000
# 6 0.000000 0.000000 0.000000 0.000000 0.000000 0.043859
#
#
# Mechanical properties :
#
#
# Convention : Reuss Voigt Hill
#
# Bulk Modulus (GPa) = 24.41107 27.66764 26.03935
# Shear Modulus (GPa) = -34.07800 22.32426 -5.87687
#
# Velocity S-wave (km/s) = -4.04751 3.27596 -1.68083
# Velocity P-wave (km/s) = 3.17930 5.25451 2.95821
#
# Compressibility (1/GPa) = 0.04096502
#
# Stress axis : x y z
#
# Youngs Moduli (GPa) = 107.89294 60.50030 61.67142
#
# Poissons Ratio (x) = 0.08030 0.05685
# Poissons Ratio (y) = 0.14320 -0.10641
# Poissons Ratio (z) = 0.09946 -0.10439
#
# Static dielectric constant tensor:
#      x y z
#    x 1.907190 0.000000 0.000000 
#    y 0.000000 1.785430 0.000000 
#    z 0.000000 0.000000 1.839760 
# 
# From -- ./inp_files/23375.got.cif
#   From: 2010.05.17/outbox.cif.g08.bks.cpg/sg49_12_cif.got.tgz:23375.got - 2010.06.03 21:02:19.
