data_PCOD9394925
_publ_section_title
;
Structure prediction by ZEFSAII (Michael W. Deem and Ramdas Pophale) SiO2 
 PCOD9394925
Probable space group: P C C M
;
_chemical_formula_sum "Si O2"
_cell_formula_units_Z 18
_cell_length_a 5.240554
_cell_length_b 5.261239
_cell_length_c 26.577799
_cell_angle_alpha 90.000000
_cell_angle_beta 90.000000
_cell_angle_gamma 90.000000
_cell_volume 732.797947
_symmetry_space_group_name_H-M "P C C M"
_symmetry_group_IT_number 49
_symmetry_cell_setting 'orthorhombic'
loop_
_space_group_symop_operation_xyz
x,y,z
-x,-y,z
x,-y,1/2-z
-x,y,1/2-z
-x,-y,-z
x,y,-z
-x,y,1/2+z
x,-y,1/2+z
loop_
_atom_site_type_symbol
_atom_site_label
_atom_site_fract_x
_atom_site_fract_y
_atom_site_fract_z
Si Si1 0.319567 0.251357 0.000000
Si Si2 0.500000 0.500000 0.750000
Si Si3 0.000000 0.000000 0.082529
Si Si4 0.737414 0.346085 0.153007
O O1 0.500000 0.500000 0.000000
O O2 0.128000 0.212749 0.952853
O O3 0.500000 0.000000 0.000000
O O4 0.336887 0.673348 0.788157
O O5 0.215025 0.898069 0.119960
O O6 0.500000 0.500000 0.130860
O O7 0.000000 0.500000 0.151132
#
# Coordination Sequence:
#
# PCOD9394925 Si02
#       4
#     4   2   4   8
#     4  11  30  51  83 120 168 214 284 352 424 496
#     4   8  22  48  76 118 164 208 276 344 408 494
#     4  11  28  48  81 120 158 220 279 339 424 508
#     4  10  24  45  80 112 165 210 272 337 415 493
#
# _framework density 24.563389000000001
#
# number of rings (size 3 to 8) (size 9 to 14) (size 15 to 20)
#    1.333    0.444    0.000    0.667   12.444    1.778 
#    0.000   10.000    9.778    0.000    0.000    0.000 
#    0.000    0.000    0.000    0.000    0.000    0.000 
#
# Total GULP energy -100664.069211 kJ/mol
# GULP energy per Si atom -5592.448289 kJ/mol
# Density = 2.450748 g / cm^3
# Si number density = 24.563389 Si / 1000 Ang^3
#
#
#
# Elastic Constant Matrix: (Units=GPa)
#
#
# Indices 1 2 3 4 5 6 
#
# 1 170.7976 65.5181 65.4487 0.0000 0.0000 0.0000
# 2 65.5181 124.3727 71.6263 0.0000 0.0000 0.0000
# 3 65.4487 71.6263 213.6393 0.0000 0.0000 0.0000
# 4 0.0000 0.0000 0.0000 30.8377 0.0000 0.0000
# 5 0.0000 0.0000 0.0000 0.0000 85.1338 0.0000
# 6 0.0000 0.0000 0.0000 0.0000 0.0000 63.1857
#
#
#
# Elastic Compliance Matrix: (Units=1/GPa)
#
#
# Indices 1 2 3 4 5 6 
#
# 1 0.007586 -0.003294 -0.001220 0.000000 0.000000 0.000000
# 2 -0.003294 0.011394 -0.002811 0.000000 0.000000 0.000000
# 3 -0.001220 -0.002811 0.005997 0.000000 0.000000 0.000000
# 4 0.000000 0.000000 0.000000 0.032428 0.000000 0.000000
# 5 0.000000 0.000000 0.000000 0.000000 0.011746 0.000000
# 6 0.000000 0.000000 0.000000 0.000000 0.000000 0.015826
#
#
# Mechanical properties :
#
#
# Convention : Reuss Voigt Hill
#
# Bulk Modulus (GPa) = 96.82338 101.55508 99.18923
# Shear Modulus (GPa) = 48.51120 56.24586 52.37853
#
# Velocity S-wave (km/s) = 4.44885 4.79040 4.62278
# Velocity P-wave (km/s) = 8.11745 8.48711 8.30434
#
# Compressibility (1/GPa) = 0.01032808
#
# Stress axis : x y z
#
# Youngs Moduli (GPa) = 131.82708 87.76280 166.75277
#
# Poissons Ratio (x) = 0.28906 0.20338
# Poissons Ratio (y) = 0.43420 0.46876
# Poissons Ratio (z) = 0.16078 0.24671
#
# Static dielectric constant tensor:
#      x y z
#    x 1.933720 0.000000 0.000000 
#    y 0.000000 1.971860 0.000000 
#    z 0.000000 0.000000 1.946140 
# 
# From -- ./inp_files/23527.got.cif
#   From: 2010.05.17/outbox.cif.g08.bks.cpg/sg49_12_cif.got.tgz:23527.got - 2010.06.03 21:02:19.
