data_PCOD9394191
_publ_section_title
;
Structure prediction by ZEFSAII (Michael W. Deem and Ramdas Pophale) SiO2 
 PCOD9394191
Probable space group: P C C M
;
_chemical_formula_sum "Si O2"
_cell_formula_units_Z 48
_cell_length_a 14.742716
_cell_length_b 9.047249
_cell_length_c 18.090222
_cell_angle_alpha 90.000000
_cell_angle_beta 90.000000
_cell_angle_gamma 90.000000
_cell_volume 2412.892309
_symmetry_space_group_name_H-M "P C C M"
_symmetry_group_IT_number 49
_symmetry_cell_setting 'orthorhombic'
loop_
_space_group_symop_operation_xyz
x,y,z
-x,-y,z
x,-y,1/2-z
-x,y,1/2-z
-x,-y,-z
x,y,-z
-x,y,1/2+z
x,-y,1/2+z
loop_
_atom_site_type_symbol
_atom_site_label
_atom_site_fract_x
_atom_site_fract_y
_atom_site_fract_z
Si Si1 0.124618 0.154077 0.648926
Si Si2 0.318873 0.805399 0.913609
Si Si3 0.960889 0.338881 0.412654
Si Si4 0.483184 0.663368 0.162236
Si Si5 0.170161 0.816309 0.684614
Si Si6 0.627205 0.910390 0.173550
O O1 0.213162 0.211068 0.605646
O O2 0.034517 0.216653 0.612261
O O3 0.130275 0.205674 0.733849
O O4 0.135772 0.976494 0.654913
O O5 0.382537 0.705160 0.862459
O O6 0.348008 0.969844 0.888404
O O7 0.335228 0.780497 0.000000
O O8 0.947056 0.330101 0.500000
O O9 0.000000 0.500000 0.394238
O O10 0.868369 0.305735 0.369828
O O11 0.500000 0.500000 0.130943
O O12 0.500000 0.655081 0.250000
O O13 0.551322 0.798373 0.143791
O O14 0.278706 0.826066 0.690852
O O15 0.603294 0.000000 0.250000
#
# Coordination Sequence:
#
# PCOD9394191 Si02
#       6
#     8   8   8   8   8   8
#     4  10  20  40  63  89 120 153 204 263 309 365
#     4  11  23  39  65  95 123 164 210 259 320 376
#     4  11  25  40  56  87 130 170 204 251 313 373
#     4  11  23  38  61  92 127 169 209 249 309 377
#     4  10  20  38  65  92 113 156 210 256 310 362
#     4  11  20  41  65  91 123 162 204 269 312 364
#
# _framework density 19.893136999999999
#
# number of rings (size 3 to 8) (size 9 to 14) (size 15 to 20)
#    0.000    1.333    5.000    2.000    0.000    9.667 
#    0.000    0.000    0.000    0.000    0.000    0.000 
#    0.000    0.000    0.000    0.000    0.000    0.000 
#
# Total GULP energy -268061.182153 kJ/mol
# GULP energy per Si atom -5584.607962 kJ/mol
# Density = 1.984786 g / cm^3
# Si number density = 19.893137 Si / 1000 Ang^3
#
#
#
# Elastic Constant Matrix: (Units=GPa)
#
#
# Indices 1 2 3 4 5 6 
#
# 1 86.3417 22.3721 20.2086 0.0000 0.0000 0.0000
# 2 22.3721 32.4690 17.2934 0.0000 0.0000 0.0000
# 3 20.2086 17.2934 74.5831 0.0000 0.0000 0.0000
# 4 0.0000 0.0000 0.0000 13.7903 0.0000 0.0000
# 5 0.0000 0.0000 0.0000 0.0000 -219.7553 0.0000
# 6 0.0000 0.0000 0.0000 0.0000 0.0000 15.9851
#
#
#
# Elastic Compliance Matrix: (Units=1/GPa)
#
#
# Indices 1 2 3 4 5 6 
#
# 1 0.014311 -0.008894 -0.001815 0.000000 0.000000 0.000000
# 2 -0.008894 0.040665 -0.007019 0.000000 0.000000 0.000000
# 3 -0.001815 -0.007019 0.015527 0.000000 0.000000 0.000000
# 4 0.000000 0.000000 0.000000 0.072515 0.000000 0.000000
# 5 0.000000 0.000000 0.000000 0.000000 -0.004551 0.000000
# 6 0.000000 0.000000 0.000000 0.000000 0.000000 0.062558
#
#
# Mechanical properties :
#
#
# Convention : Reuss Voigt Hill
#
# Bulk Modulus (GPa) = 28.53327 34.79352 31.66339
# Shear Modulus (GPa) = 20.14782 -29.09465 -4.47342
#
# Velocity S-wave (km/s) = 3.18591 -3.82848 -1.50120
# Velocity P-wave (km/s) = 5.28278 1.41943 3.59812
#
# Compressibility (1/GPa) = 0.03504681
#
# Stress axis : x y z
#
# Youngs Moduli (GPa) = 69.87472 24.59098 64.40277
#
# Poissons Ratio (x) = 0.21871 0.11692
# Poissons Ratio (y) = 0.62146 0.45205
# Poissons Ratio (z) = 0.12686 0.17261
#
# Static dielectric constant tensor:
#      x y z
#    x 1.706300 0.000000 0.000000 
#    y 0.000000 1.736160 0.000000 
#    z 0.000000 0.000000 1.687850 
# 
# From -- ./inp_files/17681.got.cif
#   From: 2010.05.17/outbox.cif.g08.bks.cpg/sg49_9_cif.got.tgz:17681.got - 2010.06.03 21:02:19.
