data_PCOD9394485
_publ_section_title
;
Structure prediction by ZEFSAII (Michael W. Deem and Ramdas Pophale) SiO2 
 PCOD9394485
Probable space group: P C C M
;
_chemical_formula_sum "Si O2"
_cell_formula_units_Z 40
_cell_length_a 9.728282
_cell_length_b 25.828564
_cell_length_c 8.625691
_cell_angle_alpha 90.000000
_cell_angle_beta 90.000000
_cell_angle_gamma 90.000000
_cell_volume 2167.356281
_symmetry_space_group_name_H-M "P C C M"
_symmetry_group_IT_number 49
_symmetry_cell_setting 'orthorhombic'
loop_
_space_group_symop_operation_xyz
x,y,z
-x,-y,z
x,-y,1/2-z
-x,y,1/2-z
-x,-y,-z
x,y,-z
-x,y,1/2+z
x,-y,1/2+z
loop_
_atom_site_type_symbol
_atom_site_label
_atom_site_fract_x
_atom_site_fract_y
_atom_site_fract_z
Si Si1 0.154344 0.444584 0.314373
Si Si2 0.347731 0.242008 0.686016
Si Si3 0.153755 0.145284 0.685904
Si Si4 0.350929 0.942263 0.314714
Si Si5 0.653657 0.354443 0.314496
O O1 0.204926 0.500000 0.250000
O O2 0.151606 0.445902 0.500000
O O3 0.247626 0.398054 0.253932
O O4 0.000000 0.437927 0.250000
O O5 0.500000 0.229659 0.750000
O O6 0.356134 0.247193 0.500000
O O7 0.241376 0.196671 0.724730
O O8 0.305048 0.297007 0.758174
O O9 0.150812 0.140223 0.500000
O O10 0.234668 0.096734 0.757213
O O11 0.000000 0.148553 0.750000
O O12 0.500000 0.925207 0.250000
O O13 0.356522 0.943791 0.500000
O O14 0.326735 0.000000 0.250000
O O15 0.500000 0.362743 0.250000
O O16 0.652896 0.356391 0.500000
#
# Coordination Sequence:
#
# PCOD9394485 Si02
#       5
#     8   8   8   8   8
#     4  11  22  39  60  85 116 152 193 235 285 343
#     4  10  21  38  60  85 114 150 192 238 287 343
#     4  11  24  40  59  86 119 154 194 238 289 342
#     4  11  22  39  63  89 118 152 194 238 285 340
#     4  11  22  38  60  87 117 151 192 239 289 340
#
# _framework density 18.455665
#
# number of rings (size 3 to 8) (size 9 to 14) (size 15 to 20)
#    0.000    1.200    0.000    9.600    0.000    6.400 
#    0.000    6.000    0.000    0.000    0.000    0.000 
#    0.000    0.000    0.000    0.000    0.000    0.000 
#
# Total GULP energy -223729.362704 kJ/mol
# GULP energy per Si atom -5593.234068 kJ/mol
# Density = 1.841366 g / cm^3
# Si number density = 18.455665 Si / 1000 Ang^3
#
#
#
# Elastic Constant Matrix: (Units=GPa)
#
#
# Indices 1 2 3 4 5 6 
#
# 1 124.6215 111.4601 72.8454 0.0000 0.0000 0.0000
# 2 111.4601 141.5055 82.1798 0.0000 0.0000 0.0000
# 3 72.8454 82.1798 167.2454 0.0000 0.0000 0.0000
# 4 0.0000 0.0000 0.0000 44.8578 0.0000 0.0000
# 5 0.0000 0.0000 0.0000 0.0000 32.4205 0.0000
# 6 0.0000 0.0000 0.0000 0.0000 0.0000 100.8141
#
#
#
# Elastic Compliance Matrix: (Units=1/GPa)
#
#
# Indices 1 2 3 4 5 6 
#
# 1 0.027566 -0.020626 -0.001872 0.000000 0.000000 0.000000
# 2 -0.020626 0.025322 -0.003459 0.000000 0.000000 0.000000
# 3 -0.001872 -0.003459 0.008494 0.000000 0.000000 0.000000
# 4 0.000000 0.000000 0.000000 0.022293 0.000000 0.000000
# 5 0.000000 0.000000 0.000000 0.000000 0.030845 0.000000
# 6 0.000000 0.000000 0.000000 0.000000 0.000000 0.009919
#
#
# Mechanical properties :
#
#
# Convention : Reuss Voigt Hill
#
# Bulk Modulus (GPa) = 105.60363 107.37145 106.48754
# Shear Modulus (GPa) = 27.85389 46.74428 37.29909
#
# Velocity S-wave (km/s) = 3.88910 5.03814 4.50044
# Velocity P-wave (km/s) = 8.80404 9.59938 9.21030
#
# Compressibility (1/GPa) = 0.00946937
#
# Stress axis : x y z
#
# Youngs Moduli (GPa) = 36.27646 39.49105 117.73119
#
# Poissons Ratio (x) = 0.81455 0.22034
# Poissons Ratio (y) = 0.74824 0.40720
# Poissons Ratio (z) = 0.06789 0.13659
#
# Static dielectric constant tensor:
#      x y z
#    x 1.605270 0.000000 0.000000 
#    y 0.000000 1.622120 0.000000 
#    z 0.000000 0.000000 1.615180 
# 
# From -- ./inp_files/1683.got.cif
#   From: 2010.05.17/outbox.cif.g08.bks.cpg/sg49_1_cif.got.tgz:1683.got - 2010.06.03 21:02:19.
