data_PCOD9394117
_publ_section_title
;
Structure prediction by ZEFSAII (Michael W. Deem and Ramdas Pophale) SiO2 
 PCOD9394117
Probable space group: P C C M
;
_chemical_formula_sum "Si O2"
_cell_formula_units_Z 48
_cell_length_a 8.803774
_cell_length_b 17.045566
_cell_length_c 17.123183
_cell_angle_alpha 90.000000
_cell_angle_beta 90.000000
_cell_angle_gamma 90.000000
_cell_volume 2569.595778
_symmetry_space_group_name_H-M "P C C M"
_symmetry_group_IT_number 49
_symmetry_cell_setting 'orthorhombic'
loop_
_space_group_symop_operation_xyz
x,y,z
-x,-y,z
x,-y,1/2-z
-x,y,1/2-z
-x,-y,-z
x,y,-z
-x,y,1/2+z
x,-y,1/2+z
loop_
_atom_site_type_symbol
_atom_site_label
_atom_site_fract_x
_atom_site_fract_y
_atom_site_fract_z
Si Si1 0.685626 0.848266 0.333911
Si Si2 0.336433 0.162396 0.146089
Si Si3 0.323908 0.407808 0.763432
Si Si4 0.195425 0.674075 0.410070
Si Si5 0.101497 0.291010 0.674111
Si Si6 0.819809 0.998005 0.092137
O O1 0.680148 0.839163 0.240050
O O2 0.517238 0.836485 0.367931
O O3 0.805206 0.782061 0.359463
O O4 0.741750 0.933828 0.358016
O O5 0.259905 0.239600 0.110687
O O6 0.255151 0.085228 0.112825
O O7 0.302165 0.500000 0.750000
O O8 0.500000 0.387455 0.750000
O O9 0.277366 0.384885 0.850959
O O10 0.218122 0.355729 0.706957
O O11 0.220061 0.656125 0.500000
O O12 0.017946 0.675490 0.387402
O O13 0.000000 0.266284 0.750000
O O14 0.798291 0.013558 0.000000
O O15 0.000000 0.000000 0.108250
#
# Coordination Sequence:
#
# PCOD9394117 Si02
#       6
#     8   8   8   8   8   8
#     4  11  22  37  61  87 115 161 211 251 300 380
#     4  11  22  39  60  87 121 156 208 255 309 364
#     4  10  21  42  69  94 123 166 205 246 301 373
#     4  11  23  39  64  96 129 160 204 258 310 359
#     4  10  20  37  62  89 121 161 199 246 299 371
#     4  11  25  39  54  80 119 162 206 260 314 357
#
# _framework density 18.679981999999999
#
# number of rings (size 3 to 8) (size 9 to 14) (size 15 to 20)
#    0.000    1.333    3.333    3.500    0.000    9.000 
#    0.000    5.833    0.000    0.000    0.000    0.000 
#    0.000    0.000    0.000    0.000    0.000    0.000 
#
# Total GULP energy -268294.212558 kJ/mol
# GULP energy per Si atom -5589.462762 kJ/mol
# Density = 1.863747 g / cm^3
# Si number density = 18.679982 Si / 1000 Ang^3
#
#
#
# Elastic Constant Matrix: (Units=GPa)
#
#
# Indices 1 2 3 4 5 6 
#
# 1 134.1208 66.3324 42.2583 0.0000 0.0000 0.0000
# 2 66.3324 105.4861 43.7267 0.0000 0.0000 0.0000
# 3 42.2583 43.7267 88.8892 0.0000 0.0000 0.0000
# 4 0.0000 0.0000 0.0000 9.1571 0.0000 0.0000
# 5 0.0000 0.0000 0.0000 0.0000 5.4133 0.0000
# 6 0.0000 0.0000 0.0000 0.0000 0.0000 38.4120
#
#
#
# Elastic Compliance Matrix: (Units=1/GPa)
#
#
# Indices 1 2 3 4 5 6 
#
# 1 0.011194 -0.006071 -0.002335 0.000000 0.000000 0.000000
# 2 -0.006071 0.015201 -0.004591 0.000000 0.000000 0.000000
# 3 -0.002335 -0.004591 0.014619 0.000000 0.000000 0.000000
# 4 0.000000 0.000000 0.000000 0.109205 0.000000 0.000000
# 5 0.000000 0.000000 0.000000 0.000000 0.184730 0.000000
# 6 0.000000 0.000000 0.000000 0.000000 0.000000 0.026034
#
#
# Mechanical properties :
#
#
# Convention : Reuss Voigt Hill
#
# Bulk Modulus (GPa) = 66.58567 70.34787 68.46677
# Shear Modulus (GPa) = 12.75559 22.34171 17.54865
#
# Velocity S-wave (km/s) = 2.61597 3.46211 3.06835
# Velocity P-wave (km/s) = 6.69681 7.32959 7.02033
#
# Compressibility (1/GPa) = 0.01501825
#
# Stress axis : x y z
#
# Youngs Moduli (GPa) = 89.32976 65.78510 68.40523
#
# Poissons Ratio (x) = 0.39941 0.15974
# Poissons Ratio (y) = 0.54235 0.31407
# Poissons Ratio (z) = 0.20861 0.30204
#
# Static dielectric constant tensor:
#      x y z
#    x 1.655690 0.000000 0.000000 
#    y 0.000000 1.616540 0.000000 
#    z 0.000000 0.000000 1.626030 
# 
# From -- ./inp_files/16262.got.cif
#   From: 2010.05.17/outbox.cif.g08.bks.cpg/sg49_9_cif.got.tgz:16262.got - 2010.06.03 21:02:19.
