data_PCOD9394560
_publ_section_title
;
Structure prediction by ZEFSAII (Michael W. Deem and Ramdas Pophale) SiO2 
 PCOD9394560
Probable space group: P C C M
;
_chemical_formula_sum "Si O2"
_cell_formula_units_Z 26
_cell_length_a 7.588657
_cell_length_b 10.967445
_cell_length_c 13.848164
_cell_angle_alpha 90.000000
_cell_angle_beta 90.000000
_cell_angle_gamma 90.000000
_cell_volume 1152.557462
_symmetry_space_group_name_H-M "P C C M"
_symmetry_group_IT_number 49
_symmetry_cell_setting 'orthorhombic'
loop_
_space_group_symop_operation_xyz
x,y,z
-x,-y,z
x,-y,1/2-z
-x,y,1/2-z
-x,-y,-z
x,y,-z
-x,y,1/2+z
x,-y,1/2+z
loop_
_atom_site_type_symbol
_atom_site_label
_atom_site_fract_x
_atom_site_fract_y
_atom_site_fract_z
Si Si1 0.214959 0.321640 0.387777
Si Si2 0.528383 0.856954 0.883294
Si Si3 0.087808 0.879096 0.388872
Si Si4 0.000000 0.500000 0.750000
O O1 0.241421 0.363882 0.500000
O O2 0.387867 0.246129 0.354109
O O3 0.133241 0.423711 0.318586
O O4 0.059484 0.222161 0.389150
O O5 0.727468 0.832942 0.848456
O O6 0.500000 0.000000 0.857621
O O7 0.513676 0.852512 0.000000
O O8 0.133013 0.911524 0.500000
O O9 0.000000 0.000000 0.347889
#
# Coordination Sequence:
#
# PCOD9394560 Si02
#       4
#     8   8   8   2
#     4  10  21  39  62  88 125 169 219 277 325 382
#     4   9  15  28  58  97 126 152 197 263 341 403
#     4   9  15  28  57  95 126 154 196 260 338 402
#     4  12  26  44  60  82 128 194 242 258 302 398
#
# _framework density 22.558530000000001
#
# number of rings (size 3 to 8) (size 9 to 14) (size 15 to 20)
#    0.000    2.462    3.077    0.462    0.000    0.000 
#    0.000    5.385    0.000    9.231    0.000    0.000 
#    0.000    3.692    0.000    0.000    0.000    0.923 
#
# Total GULP energy -145069.779526 kJ/mol
# GULP energy per Si atom -5579.606905 kJ/mol
# Density = 2.250719 g / cm^3
# Si number density = 22.558530 Si / 1000 Ang^3
#
#
#
# Elastic Constant Matrix: (Units=GPa)
#
#
# Indices 1 2 3 4 5 6 
#
# 1 199.0156 61.6544 42.9666 0.0000 0.0000 0.0000
# 2 61.6544 105.8091 61.1078 0.0000 0.0000 0.0000
# 3 42.9666 61.1078 143.5520 0.0000 0.0000 0.0000
# 4 0.0000 0.0000 0.0000 -134.6196 0.0000 0.0000
# 5 0.0000 0.0000 0.0000 0.0000 -1.4889 0.0000
# 6 0.0000 0.0000 0.0000 0.0000 0.0000 42.8517
#
#
#
# Elastic Compliance Matrix: (Units=1/GPa)
#
#
# Indices 1 2 3 4 5 6 
#
# 1 0.006150 -0.003342 -0.000418 0.000000 0.000000 0.000000
# 2 -0.003342 0.014348 -0.005107 0.000000 0.000000 0.000000
# 3 -0.000418 -0.005107 0.009265 0.000000 0.000000 0.000000
# 4 0.000000 0.000000 0.000000 -0.007428 0.000000 0.000000
# 5 0.000000 0.000000 0.000000 0.000000 -0.671614 0.000000
# 6 0.000000 0.000000 0.000000 0.000000 0.000000 0.023336
#
#
# Mechanical properties :
#
#
# Convention : Reuss Voigt Hill
#
# Bulk Modulus (GPa) = 83.13706 86.64825 84.89266
# Shear Modulus (GPa) = -8.27545 0.19182 -4.04181
#
# Velocity S-wave (km/s) = -1.91739 0.29192 -1.34000
# Velocity P-wave (km/s) = 5.65969 6.21349 5.94304
#
# Compressibility (1/GPa) = 0.01202833
#
# Stress axis : x y z
#
# Youngs Moduli (GPa) = 162.58965 69.69494 107.92835
#
# Poissons Ratio (x) = 0.23295 0.04512
# Poissons Ratio (y) = 0.54343 0.55124
# Poissons Ratio (z) = 0.06798 0.35596
#
# Static dielectric constant tensor:
#      x y z
#    x 1.839700 0.000000 0.000000 
#    y 0.000000 1.792090 0.000000 
#    z 0.000000 0.000000 1.941270 
# 
# From -- ./inp_files/15732.got.cif
#   From: 2010.05.17/outbox.cif.g08.bks.cpg/sg49_8_cif.got.tgz:15732.got - 2010.06.03 21:02:19.
