data_PCOD9394797
_publ_section_title
;
Structure prediction by ZEFSAII (Michael W. Deem and Ramdas Pophale) SiO2 
 PCOD9394797
Probable space group: P C C M
;
_chemical_formula_sum "Si O2"
_cell_formula_units_Z 34
_cell_length_a 17.251275
_cell_length_b 5.410173
_cell_length_c 16.588663
_cell_angle_alpha 90.000000
_cell_angle_beta 90.000000
_cell_angle_gamma 90.000000
_cell_volume 1548.259436
_symmetry_space_group_name_H-M "P C C M"
_symmetry_group_IT_number 49
_symmetry_cell_setting 'orthorhombic'
loop_
_space_group_symop_operation_xyz
x,y,z
-x,-y,z
x,-y,1/2-z
-x,y,1/2-z
-x,-y,-z
x,y,-z
-x,y,1/2+z
x,-y,1/2+z
loop_
_atom_site_type_symbol
_atom_site_label
_atom_site_fract_x
_atom_site_fract_y
_atom_site_fract_z
Si Si1 0.659535 0.619504 0.500000
Si Si2 0.756473 0.866546 0.000000
Si Si3 0.198917 0.905863 0.161176
Si Si4 0.629161 0.324046 0.172878
Si Si5 0.954535 0.747107 0.597109
Si Si6 0.500000 0.000000 0.750000
O O1 0.725649 0.411090 0.500000
O O2 0.615770 0.570359 0.416302
O O3 0.693268 0.903182 0.500000
O O4 0.800146 0.906480 0.084829
O O5 0.285917 0.799476 0.167518
O O6 0.130168 0.726251 0.135879
O O7 0.180570 0.000000 0.250000
O O8 0.632978 0.500000 0.250000
O O9 0.557925 0.149408 0.193303
O O10 0.946111 0.757255 0.500000
O O11 0.000000 0.500000 0.618248
O O12 0.000000 0.000000 0.621248
#
# Coordination Sequence:
#
# PCOD9394797 Si02
#       6
#     4   4   8   8   8   2
#     4  10  24  41  75 102 144 188 249 294 364 441
#     4  10  22  42  66 111 141 186 243 304 353 435
#     4  11  22  43  74 107 146 194 248 298 369 438
#     4  11  25  47  74 107 147 196 243 310 375 440
#     4  10  23  44  69 104 148 190 237 302 365 425
#     4  12  26  50  72 106 154 190 246 310 382 444
#
# _framework density 21.960142000000001
#
# number of rings (size 3 to 8) (size 9 to 14) (size 15 to 20)
#    0.000    1.412    2.353    1.765    3.294    6.588 
#    0.000    3.529    0.000    0.000    0.000    0.000 
#    0.000    0.000    0.000    0.000    0.000    0.000 
#
# Total GULP energy -189798.451756 kJ/mol
# GULP energy per Si atom -5582.307405 kJ/mol
# Density = 2.191016 g / cm^3
# Si number density = 21.960142 Si / 1000 Ang^3
#
#
#
# Elastic Constant Matrix: (Units=GPa)
#
#
# Indices 1 2 3 4 5 6 
#
# 1 147.1188 49.3749 35.0842 0.0000 0.0000 0.0000
# 2 49.3749 74.4296 30.0754 0.0000 0.0000 0.0000
# 3 35.0842 30.0754 171.7302 0.0000 0.0000 0.0000
# 4 0.0000 0.0000 0.0000 43.4640 0.0000 0.0000
# 5 0.0000 0.0000 0.0000 0.0000 132.2511 0.0000
# 6 0.0000 0.0000 0.0000 0.0000 0.0000 1125.7671
#
#
#
# Elastic Compliance Matrix: (Units=1/GPa)
#
#
# Indices 1 2 3 4 5 6 
#
# 1 0.008855 -0.005535 -0.000840 0.000000 0.000000 0.000000
# 2 -0.005535 0.017918 -0.002007 0.000000 0.000000 0.000000
# 3 -0.000840 -0.002007 0.006346 0.000000 0.000000 0.000000
# 4 0.000000 0.000000 0.000000 0.023008 0.000000 0.000000
# 5 0.000000 0.000000 0.000000 0.000000 0.007561 0.000000
# 6 0.000000 0.000000 0.000000 0.000000 0.000000 0.000888
#
#
# Mechanical properties :
#
#
# Convention : Reuss Voigt Hill
#
# Bulk Modulus (GPa) = 61.14076 69.14972 65.14524
# Shear Modulus (GPa) = 57.60855 278.87939 168.24397
#
# Velocity S-wave (km/s) = 5.12740 11.28136 8.76240
# Velocity P-wave (km/s) = 7.93446 14.18624 11.49358
#
# Compressibility (1/GPa) = 0.01635570
#
# Stress axis : x y z
#
# Youngs Moduli (GPa) = 112.92955 55.80864 157.57493
#
# Poissons Ratio (x) = 0.30890 0.13232
# Poissons Ratio (y) = 0.62506 0.31630
# Poissons Ratio (z) = 0.09483 0.11202
#
# Static dielectric constant tensor:
#      x y z
#    x 2.081490 0.000000 0.000000 
#    y 0.000000 1.860860 0.000000 
#    z 0.000000 0.000000 1.924050 
# 
# From -- ./inp_files/18057.got.cif
#   From: 2010.05.17/outbox.cif.g08.bks.cpg/sg49_10_cif.got.tgz:18057.got - 2010.06.03 21:02:19.
