data_PCOD9394344
_publ_section_title
;
Structure prediction by ZEFSAII (Michael W. Deem and Ramdas Pophale) SiO2 
 PCOD9394344
Probable space group: P C C M
;
_chemical_formula_sum "Si O2"
_cell_formula_units_Z 58
_cell_length_a 17.110370
_cell_length_b 12.203849
_cell_length_c 15.459220
_cell_angle_alpha 90.000000
_cell_angle_beta 90.000000
_cell_angle_gamma 90.000000
_cell_volume 3228.076395
_symmetry_space_group_name_H-M "P C C M"
_symmetry_group_IT_number 49
_symmetry_cell_setting 'orthorhombic'
loop_
_space_group_symop_operation_xyz
x,y,z
-x,-y,z
x,-y,1/2-z
-x,y,1/2-z
-x,-y,-z
x,y,-z
-x,y,1/2+z
x,-y,1/2+z
loop_
_atom_site_type_symbol
_atom_site_label
_atom_site_fract_x
_atom_site_fract_y
_atom_site_fract_z
Si Si1 0.589744 0.507507 0.600197
Si Si2 0.207465 0.143177 0.898668
Si Si3 0.636218 0.753910 0.363745
Si Si4 0.911514 0.867737 0.749694
Si Si5 0.472619 0.856651 0.596111
Si Si6 0.207788 0.885950 0.901278
Si Si7 0.349506 0.294633 0.838110
Si Si8 0.500000 0.000000 0.250000
O O1 0.500000 0.500000 0.633881
O O2 0.588383 0.473187 0.500000
O O3 0.619813 0.631738 0.603127
O O4 0.646964 0.425052 0.650861
O O5 0.135313 0.166545 0.835285
O O6 0.276606 0.226920 0.875267
O O7 0.228808 0.014292 0.882505
O O8 0.188832 0.152986 0.000000
O O9 0.563537 0.828728 0.393106
O O10 0.715631 0.811422 0.393071
O O11 0.639323 0.739772 0.260686
O O12 0.857515 0.845081 0.666226
O O13 0.000000 0.824607 0.750000
O O14 0.916692 0.000000 0.750000
O O15 0.455091 0.900657 0.500000
O O16 0.424655 0.746360 0.608601
O O17 0.451361 0.929615 0.680098
O O18 0.178698 0.882705 0.000000
#
# Coordination Sequence:
#
# PCOD9394344 Si02
#       8
#     8   8   8   8   8   8   8   2
#     4  11  23  39  59  81 108 149 202 251 292 334
#     4  10  21  36  57  86 120 154 189 233 284 341
#     4  12  23  39  58  82 113 153 197 243 291 336
#     4   9  18  35  59  85 117 151 184 228 282 346
#     4  12  25  40  56  79 111 152 200 242 287 335
#     4  10  21  36  57  86 120 154 189 233 284 341
#     4  12  23  39  58  82 113 153 197 243 291 336
#     4  12  26  40  52  76 104 148 192 244 282 342
#
# _framework density 17.967357
#
# number of rings (size 3 to 8) (size 9 to 14) (size 15 to 20)
#    0.000    1.103    4.138    3.103    1.931    1.103 
#    0.000    2.759    0.000    0.000    0.000    1.931 
#    0.000    3.310    0.000    0.000    0.000    0.000 
#
# Total GULP energy -323701.912660 kJ/mol
# GULP energy per Si atom -5581.067460 kJ/mol
# Density = 1.792646 g / cm^3
# Si number density = 17.967357 Si / 1000 Ang^3
#
#
#
# Elastic Constant Matrix: (Units=GPa)
#
#
# Indices 1 2 3 4 5 6 
#
# 1 123.1917 32.6165 39.7645 0.0000 0.0000 0.0000
# 2 32.6165 80.8712 28.1540 0.0000 0.0000 0.0000
# 3 39.7645 28.1540 137.8598 0.0000 0.0000 0.0000
# 4 0.0000 0.0000 0.0000 28.3909 0.0000 0.0000
# 5 0.0000 0.0000 0.0000 0.0000 -0.1832 0.0000
# 6 0.0000 0.0000 0.0000 0.0000 0.0000 5.0012
#
#
#
# Elastic Compliance Matrix: (Units=1/GPa)
#
#
# Indices 1 2 3 4 5 6 
#
# 1 0.009640 -0.003143 -0.002139 0.000000 0.000000 0.000000
# 2 -0.003143 0.014337 -0.002021 0.000000 0.000000 0.000000
# 3 -0.002139 -0.002021 0.008283 0.000000 0.000000 0.000000
# 4 0.000000 0.000000 0.000000 0.035223 0.000000 0.000000
# 5 0.000000 0.000000 0.000000 0.000000 -5.459020 0.000000
# 6 0.000000 0.000000 0.000000 0.000000 0.000000 0.199953
#
#
# Mechanical properties :
#
#
# Convention : Reuss Voigt Hill
#
# Bulk Modulus (GPa) = 56.64536 60.33253 58.48895
# Shear Modulus (GPa) = -0.96691 22.73429 10.88369
#
# Velocity S-wave (km/s) = -0.73438 3.56098 2.46386
# Velocity P-wave (km/s) = 5.55663 7.11051 6.38104
#
# Compressibility (1/GPa) = 0.01765370
#
# Stress axis : x y z
#
# Youngs Moduli (GPa) = 103.73437 69.75068 120.72360
#
# Poissons Ratio (x) = 0.21926 0.25818
# Poissons Ratio (y) = 0.32608 0.24400
# Poissons Ratio (z) = 0.22185 0.14098
#
# Static dielectric constant tensor:
#      x y z
#    x 1.590640 0.000000 0.000000 
#    y 0.000000 1.657060 0.000000 
#    z 0.000000 0.000000 1.648380 
# 
# From -- ./inp_files/13055.got.cif
#   From: 2010.05.17/outbox.cif.g08.bks.cpg/sg49_7_cif.got.tgz:13055.got - 2010.06.03 21:02:19.
