data_PCOD9394066
_publ_section_title
;
Structure prediction by ZEFSAII (Michael W. Deem and Ramdas Pophale) SiO2 
 PCOD9394066
Probable space group: P C C M
;
_chemical_formula_sum "Si O2"
_cell_formula_units_Z 40
_cell_length_a 25.709288
_cell_length_b 9.848220
_cell_length_c 8.610346
_cell_angle_alpha 90.000000
_cell_angle_beta 90.000000
_cell_angle_gamma 90.000000
_cell_volume 2180.059740
_symmetry_space_group_name_H-M "P C C M"
_symmetry_group_IT_number 49
_symmetry_cell_setting 'orthorhombic'
loop_
_space_group_symop_operation_xyz
x,y,z
-x,-y,z
x,-y,1/2-z
-x,y,1/2-z
-x,-y,-z
x,y,-z
-x,y,1/2+z
x,-y,1/2+z
loop_
_atom_site_type_symbol
_atom_site_label
_atom_site_fract_x
_atom_site_fract_y
_atom_site_fract_z
Si Si1 0.558355 0.646926 0.313934
Si Si2 0.355140 0.847474 0.687123
Si Si3 0.055562 0.152195 0.685372
Si Si4 0.143291 0.349626 0.813238
Si Si5 0.737385 0.350596 0.313264
O O1 0.576409 0.500000 0.250000
O O2 0.500000 0.667005 0.250000
O O3 0.557551 0.643309 0.500000
O O4 0.595961 0.764168 0.252914
O O5 0.357576 0.849358 0.500000
O O6 0.303848 0.762694 0.736003
O O7 0.353961 0.000000 0.750000
O O8 0.053608 0.148439 0.500000
O O9 0.102444 0.245063 0.743356
O O10 0.000000 0.202806 0.750000
O O11 0.062372 0.000000 0.750000
O O12 0.131969 0.500000 0.750000
O O13 0.203142 0.318182 0.767272
O O14 0.140045 0.348442 0.000000
O O15 0.724052 0.500000 0.250000
O O16 0.736076 0.357894 0.500000
#
# Coordination Sequence:
#
# PCOD9394066 Si02
#       5
#     8   8   8   8   8
#     4  11  22  39  62  88 115 149 189 233 279 333
#     4  11  23  39  57  84 117 152 190 233 281 333
#     4  11  22  38  58  82 111 148 187 230 279 335
#     4  10  20  37  58  85 115 147 186 232 280 331
#     4   9  20  37  59  83 112 147 187 230 278 332
#
# _framework density 18.348120999999999
#
# number of rings (size 3 to 8) (size 9 to 14) (size 15 to 20)
#    0.000    1.600    0.000    6.600    0.000    5.600 
#    0.000    6.000    0.000    0.000    0.000    0.000 
#    0.000    0.000    0.000    0.000    0.000    0.000 
#
# Total GULP energy -223565.719577 kJ/mol
# GULP energy per Si atom -5589.142989 kJ/mol
# Density = 1.830636 g / cm^3
# Si number density = 18.348121 Si / 1000 Ang^3
#
#
#
# Elastic Constant Matrix: (Units=GPa)
#
#
# Indices 1 2 3 4 5 6 
#
# 1 130.2836 114.5489 56.8902 0.0000 0.0000 0.0000
# 2 114.5489 155.5157 59.3651 0.0000 0.0000 0.0000
# 3 56.8902 59.3651 122.1240 0.0000 0.0000 0.0000
# 4 0.0000 0.0000 0.0000 37.0889 0.0000 0.0000
# 5 0.0000 0.0000 0.0000 0.0000 29.8914 0.0000
# 6 0.0000 0.0000 0.0000 0.0000 0.0000 37.8651
#
#
#
# Elastic Compliance Matrix: (Units=1/GPa)
#
#
# Indices 1 2 3 4 5 6 
#
# 1 0.022641 -0.015533 -0.002996 0.000000 0.000000 0.000000
# 2 -0.015533 0.018552 -0.001782 0.000000 0.000000 0.000000
# 3 -0.002996 -0.001782 0.010451 0.000000 0.000000 0.000000
# 4 0.000000 0.000000 0.000000 0.026962 0.000000 0.000000
# 5 0.000000 0.000000 0.000000 0.000000 0.033454 0.000000
# 6 0.000000 0.000000 0.000000 0.000000 0.000000 0.026410
#
#
# Mechanical properties :
#
#
# Convention : Reuss Voigt Hill
#
# Bulk Modulus (GPa) = 90.74314 96.61464 93.67889
# Shear Modulus (GPa) = 27.35738 32.77702 30.06720
#
# Velocity S-wave (km/s) = 3.86556 4.23116 4.05249
# Velocity P-wave (km/s) = 8.33589 8.75449 8.54775
#
# Compressibility (1/GPa) = 0.01102012
#
# Stress axis : x y z
#
# Youngs Moduli (GPa) = 44.16774 53.90340 95.68833
#
# Poissons Ratio (x) = 0.83728 0.28672
# Poissons Ratio (y) = 0.68605 0.17054
# Poissons Ratio (z) = 0.13234 0.09607
#
# Static dielectric constant tensor:
#      x y z
#    x 1.631040 0.000000 0.000000 
#    y 0.000000 1.598400 0.000000 
#    z 0.000000 0.000000 1.615230 
# 
# From -- ./inp_files/1671.got.cif
#   From: 2010.05.17/outbox.cif.g08.bks.cpg/sg49_1_cif.got.tgz:1671.got - 2010.06.03 21:02:19.
