data_PCOD9394112
_publ_section_title
;
Structure prediction by ZEFSAII (Michael W. Deem and Ramdas Pophale) SiO2 
 PCOD9394112
Probable space group: P C C M
;
_chemical_formula_sum "Si O2"
_cell_formula_units_Z 48
_cell_length_a 11.583128
_cell_length_b 8.422826
_cell_length_c 22.413797
_cell_angle_alpha 90.000000
_cell_angle_beta 90.000000
_cell_angle_gamma 90.000000
_cell_volume 2186.749918
_symmetry_space_group_name_H-M "P C C M"
_symmetry_group_IT_number 49
_symmetry_cell_setting 'orthorhombic'
loop_
_space_group_symop_operation_xyz
x,y,z
-x,-y,z
x,-y,1/2-z
-x,y,1/2-z
-x,-y,-z
x,y,-z
-x,y,1/2+z
x,-y,1/2+z
loop_
_atom_site_type_symbol
_atom_site_label
_atom_site_fract_x
_atom_site_fract_y
_atom_site_fract_z
Si Si1 0.133162 0.167449 0.727936
Si Si2 0.473308 0.311436 0.816342
Si Si3 0.054323 0.175154 0.934927
Si Si4 0.833671 0.663667 0.606545
Si Si5 0.207396 0.327147 0.837622
Si Si6 0.575269 0.333494 0.935015
O O1 0.158065 0.205200 0.659567
O O2 0.184004 0.305865 0.768103
O O3 0.000000 0.165146 0.750000
O O4 0.183696 0.000000 0.750000
O O5 0.500000 0.500000 0.811292
O O6 0.500000 0.244982 0.750000
O O7 0.343320 0.302122 0.839858
O O8 0.546087 0.248135 0.872454
O O9 0.138769 0.204486 0.879564
O O10 0.947581 0.297491 0.930716
O O11 0.112028 0.193374 0.000000
O O12 0.000000 0.000000 0.931719
O O13 0.836451 0.495610 0.639629
O O14 0.714265 0.653161 0.570141
O O15 0.500000 0.500000 0.934158
O O16 0.548070 0.261124 0.000000
#
# Coordination Sequence:
#
# PCOD9394112 Si02
#       6
#     8   8   8   8   8   8
#     4  11  24  41  62  91 137 179 213 261 334 420
#     4  10  20  38  61  95 136 172 213 284 354 402
#     4  11  26  45  63  91 141 187 218 266 339 418
#     4  12  22  39  68 101 131 166 226 286 337 398
#     4  12  23  38  68 103 125 170 220 281 336 397
#     4  10  20  37  61  97 136 174 213 275 351 402
#
# _framework density 21.950384
#
# number of rings (size 3 to 8) (size 9 to 14) (size 15 to 20)
#    0.000    1.000    5.000    3.500    2.333    3.333 
#    0.000    0.000    0.000    9.500    0.000    7.000 
#    0.000    0.000    0.000    0.000    0.000    0.000 
#
# Total GULP energy -267671.213118 kJ/mol
# GULP energy per Si atom -5576.483607 kJ/mol
# Density = 2.190042 g / cm^3
# Si number density = 21.950384 Si / 1000 Ang^3
#
#
#
# Elastic Constant Matrix: (Units=GPa)
#
#
# Indices 1 2 3 4 5 6 
#
# 1 104.5154 2.3917 13.2263 0.0000 0.0000 0.0000
# 2 2.3917 50.4248 14.6140 0.0000 0.0000 0.0000
# 3 13.2263 14.6140 173.5615 0.0000 0.0000 0.0000
# 4 0.0000 0.0000 0.0000 7.2328 0.0000 0.0000
# 5 0.0000 0.0000 0.0000 0.0000 -57.0408 0.0000
# 6 0.0000 0.0000 0.0000 0.0000 0.0000 -14.7165
#
#
#
# Elastic Compliance Matrix: (Units=1/GPa)
#
#
# Indices 1 2 3 4 5 6 
#
# 1 0.009664 -0.000251 -0.000715 0.000000 0.000000 0.000000
# 2 -0.000251 0.020334 -0.001693 0.000000 0.000000 0.000000
# 3 -0.000715 -0.001693 0.005959 0.000000 0.000000 0.000000
# 4 0.000000 0.000000 0.000000 0.138259 0.000000 0.000000
# 5 0.000000 0.000000 0.000000 0.000000 -0.017531 0.000000
# 6 0.000000 0.000000 0.000000 0.000000 0.000000 -0.067951
#
#
# Mechanical properties :
#
#
# Convention : Reuss Voigt Hill
#
# Bulk Modulus (GPa) = 32.63897 43.21841 37.92869
# Shear Modulus (GPa) = 47.95444 6.97975 27.46710
#
# Velocity S-wave (km/s) = 4.67912 1.78513 3.54125
# Velocity P-wave (km/s) = 6.64033 4.89702 5.83416
#
# Compressibility (1/GPa) = 0.03063822
#
# Stress axis : x y z
#
# Youngs Moduli (GPa) = 103.47431 49.17850 167.82157
#
# Poissons Ratio (x) = 0.01235 0.12005
# Poissons Ratio (y) = 0.02598 0.28412
# Poissons Ratio (z) = 0.07402 0.08326
#
# Static dielectric constant tensor:
#      x y z
#    x 2.022730 0.000000 0.000000 
#    y 0.000000 1.818340 0.000000 
#    z 0.000000 0.000000 1.878940 
# 
# From -- ./inp_files/22870.got.cif
#   From: 2010.05.17/outbox.cif.g08.bks.cpg/sg49_12_cif.got.tgz:22870.got - 2010.06.03 21:02:19.
