data_PCOD9394600
_publ_section_title
;
Structure prediction by ZEFSAII (Michael W. Deem and Ramdas Pophale) SiO2 
 PCOD9394600
Probable space group: P C C M
;
_chemical_formula_sum "Si O2"
_cell_formula_units_Z 64
_cell_length_a 14.142126
_cell_length_b 12.646290
_cell_length_c 17.461230
_cell_angle_alpha 90.000000
_cell_angle_beta 90.000000
_cell_angle_gamma 90.000000
_cell_volume 3122.861129
_symmetry_space_group_name_H-M "P C C M"
_symmetry_group_IT_number 49
_symmetry_cell_setting 'orthorhombic'
loop_
_space_group_symop_operation_xyz
x,y,z
-x,-y,z
x,-y,1/2-z
-x,y,1/2-z
-x,-y,-z
x,y,-z
-x,y,1/2+z
x,-y,1/2+z
loop_
_atom_site_type_symbol
_atom_site_label
_atom_site_fract_x
_atom_site_fract_y
_atom_site_fract_z
Si Si1 0.601612 0.378607 0.229935
Si Si2 0.228625 0.679353 0.341712
Si Si3 0.090134 0.057244 0.333092
Si Si4 0.113886 0.522267 0.909519
Si Si5 0.295117 0.951660 0.092667
Si Si6 0.372470 0.169197 0.089107
Si Si7 0.090944 0.295313 0.290241
Si Si8 0.419262 0.747335 0.909088
O O1 0.595243 0.500000 0.250000
O O2 0.500000 0.330078 0.250000
O O3 0.685633 0.343390 0.283770
O O4 0.614879 0.351344 0.141217
O O5 0.176530 0.577573 0.379263
O O6 0.280331 0.757248 0.400380
O O7 0.155436 0.730896 0.282981
O O8 0.189255 0.047845 0.375895
O O9 0.067584 0.181964 0.326248
O O10 0.100151 0.000000 0.250000
O O11 0.000000 0.000000 0.370851
O O12 0.130948 0.622224 0.852700
O O13 0.000000 0.500000 0.905432
O O14 0.135067 0.542022 0.000000
O O15 0.352555 0.845891 0.112633
O O16 0.349659 0.054936 0.124241
O O17 0.291628 0.954698 0.000000
O O18 0.472093 0.222291 0.110028
O O19 0.385978 0.148258 0.000000
O O20 0.000000 0.347128 0.250000
O O21 0.412684 0.728006 0.000000
#
# Coordination Sequence:
#
# PCOD9394600 Si02
#       8
#     8   8   8   8   8   8   8   8
#     4  11  23  42  63  94 130 169 220 277 332 402
#     4  12  23  41  68  95 132 177 221 277 338 403
#     4  11  23  41  61  91 130 171 220 274 335 407
#     4  11  25  43  66  98 131 169 224 279 334 407
#     4  10  22  39  65  96 131 176 221 272 338 406
#     4  10  21  39  66 100 134 174 221 276 341 402
#     4  12  23  41  67  94 129 174 220 275 340 405
#     4  10  21  43  69  97 135 174 222 277 337 406
#
# _framework density 20.494028
#
# number of rings (size 3 to 8) (size 9 to 14) (size 15 to 20)
#    0.000    1.125    3.750    3.375    0.000    2.250 
#    0.000    5.625    0.000    0.000    0.000    0.000 
#    0.000    0.000    0.000    0.000    0.000    0.000 
#
# Total GULP energy -356865.119383 kJ/mol
# GULP energy per Si atom -5576.017490 kJ/mol
# Density = 2.044738 g / cm^3
# Si number density = 20.494028 Si / 1000 Ang^3
#
#
#
# Elastic Constant Matrix: (Units=GPa)
#
#
# Indices 1 2 3 4 5 6 
#
# 1 101.6953 17.1020 27.4728 0.0000 0.0000 0.0000
# 2 17.1020 113.4434 46.8619 0.0000 0.0000 0.0000
# 3 27.4728 46.8619 71.4836 0.0000 0.0000 0.0000
# 4 0.0000 0.0000 0.0000 28.1257 0.0000 0.0000
# 5 0.0000 0.0000 0.0000 0.0000 40.5381 0.0000
# 6 0.0000 0.0000 0.0000 0.0000 0.0000 20.2736
#
#
#
# Elastic Compliance Matrix: (Units=1/GPa)
#
#
# Indices 1 2 3 4 5 6 
#
# 1 0.010974 0.000120 -0.004296 0.000000 0.000000 0.000000
# 2 0.000120 0.012090 -0.007972 0.000000 0.000000 0.000000
# 3 -0.004296 -0.007972 0.020867 0.000000 0.000000 0.000000
# 4 0.000000 0.000000 0.000000 0.035555 0.000000 0.000000
# 5 0.000000 0.000000 0.000000 0.000000 0.024668 0.000000
# 6 0.000000 0.000000 0.000000 0.000000 0.000000 0.049325
#
#
# Mechanical properties :
#
#
# Convention : Reuss Voigt Hill
#
# Bulk Modulus (GPa) = 50.93125 52.16619 51.54872
# Shear Modulus (GPa) = 27.12691 30.79986 28.96339
#
# Velocity S-wave (km/s) = 3.64215 3.88089 3.76341
# Velocity P-wave (km/s) = 6.52631 6.75214 6.64018
#
# Compressibility (1/GPa) = 0.01963431
#
# Stress axis : x y z
#
# Youngs Moduli (GPa) = 91.12688 82.71357 47.92362
#
# Poissons Ratio (x) = -0.00996 0.20590
# Poissons Ratio (y) = -0.01098 0.38205
# Poissons Ratio (z) = 0.39152 0.65939
#
# Static dielectric constant tensor:
#      x y z
#    x 1.984800 0.000000 0.000000 
#    y 0.000000 1.727760 0.000000 
#    z 0.000000 0.000000 1.709200 
# 
# From -- ./inp_files/17963.got.cif
#   From: 2010.05.17/outbox.cif.g08.bks.cpg/sg49_9_cif.got.tgz:17963.got - 2010.06.03 21:02:19.
