data_PCOD9394019
_publ_section_title
;
Structure prediction by ZEFSAII (Michael W. Deem and Ramdas Pophale) SiO2 
 PCOD9394019
Probable space group: P C C M
;
_chemical_formula_sum "Si O2"
_cell_formula_units_Z 40
_cell_length_a 8.846139
_cell_length_b 24.348942
_cell_length_c 9.733296
_cell_angle_alpha 90.000000
_cell_angle_beta 90.000000
_cell_angle_gamma 90.000000
_cell_volume 2096.494780
_symmetry_space_group_name_H-M "P C C M"
_symmetry_group_IT_number 49
_symmetry_cell_setting 'orthorhombic'
loop_
_space_group_symop_operation_xyz
x,y,z
-x,-y,z
x,-y,1/2-z
-x,y,1/2-z
-x,-y,-z
x,y,-z
-x,y,1/2+z
x,-y,1/2+z
loop_
_atom_site_type_symbol
_atom_site_label
_atom_site_fract_x
_atom_site_fract_y
_atom_site_fract_z
Si Si1 0.647918 0.732229 0.840830
Si Si2 0.343448 0.052605 0.166227
Si Si3 0.348062 0.579284 0.000000
Si Si4 0.302537 0.551127 0.500000
Si Si5 0.848970 0.163063 0.338185
Si Si6 0.179153 0.622903 0.266086
O O1 0.500000 0.724805 0.750000
O O2 0.738967 0.786795 0.798893
O O3 0.754960 0.679523 0.824752
O O4 0.604133 0.738128 0.000000
O O5 0.500000 0.063170 0.250000
O O6 0.237889 0.105546 0.179296
O O7 0.279203 0.000000 0.250000
O O8 0.365006 0.042823 0.000000
O O9 0.272405 0.608316 0.129778
O O10 0.312944 0.514247 0.000000
O O11 0.530565 0.579198 0.000000
O O12 0.215385 0.573433 0.368853
O O13 0.884535 0.169674 0.500000
O O14 0.000000 0.164419 0.250000
O O15 0.000000 0.627640 0.250000
#
# Coordination Sequence:
#
# PCOD9394019 Si02
#       6
#     8   8   4   4   8   8
#     4  11  24  43  66  91 122 160 208 254 307 375
#     4  10  20  36  60  89 124 163 211 260 310 371
#     4  11  25  41  69  89 125 167 206 253 310 365
#     4  11  23  45  63  95 123 163 212 253 300 381
#     4  10  23  41  61  90 126 163 206 258 311 370
#     4  12  25  41  64  93 128 161 203 259 315 370
#
# _framework density 19.079466
#
# number of rings (size 3 to 8) (size 9 to 14) (size 15 to 20)
#    0.000    1.200    1.000    5.400    1.400    6.800 
#    0.000    2.000    0.000    0.000    0.000    0.000 
#    0.000    0.000    0.000    0.000    0.000    0.000 
#
# Total GULP energy -223524.178789 kJ/mol
# GULP energy per Si atom -5588.104470 kJ/mol
# Density = 1.903604 g / cm^3
# Si number density = 19.079466 Si / 1000 Ang^3
#
#
#
# Elastic Constant Matrix: (Units=GPa)
#
#
# Indices 1 2 3 4 5 6 
#
# 1 116.1187 37.4910 31.4254 0.0000 0.0000 0.0000
# 2 37.4910 84.2654 11.0920 0.0000 0.0000 0.0000
# 3 31.4254 11.0920 85.8313 0.0000 0.0000 0.0000
# 4 0.0000 0.0000 0.0000 37.0309 0.0000 0.0000
# 5 0.0000 0.0000 0.0000 0.0000 36.5483 0.0000
# 6 0.0000 0.0000 0.0000 0.0000 0.0000 1.4282
#
#
#
# Elastic Compliance Matrix: (Units=1/GPa)
#
#
# Indices 1 2 3 4 5 6 
#
# 1 0.010974 -0.004429 -0.003446 0.000000 0.000000 0.000000
# 2 -0.004429 0.013860 -0.000170 0.000000 0.000000 0.000000
# 3 -0.003446 -0.000170 0.012934 0.000000 0.000000 0.000000
# 4 0.000000 0.000000 0.000000 0.027004 0.000000 0.000000
# 5 0.000000 0.000000 0.000000 0.000000 0.027361 0.000000
# 6 0.000000 0.000000 0.000000 0.000000 0.000000 0.700176
#
#
# Mechanical properties :
#
#
# Convention : Reuss Voigt Hill
#
# Bulk Modulus (GPa) = 46.12512 49.58136 47.85324
# Shear Modulus (GPa) = 6.13026 28.74862 17.43944
#
# Velocity S-wave (km/s) = 1.79443 3.88594 3.02659
# Velocity P-wave (km/s) = 5.34051 6.79538 6.11140
#
# Compressibility (1/GPa) = 0.02168016
#
# Stress axis : x y z
#
# Youngs Moduli (GPa) = 91.12105 72.14913 77.31419
#
# Poissons Ratio (x) = 0.31956 0.26640
# Poissons Ratio (y) = 0.40359 0.01311
# Poissons Ratio (z) = 0.31397 0.01223
#
# Static dielectric constant tensor:
#      x y z
#    x 1.626390 0.000000 0.000000 
#    y 0.000000 1.650210 0.000000 
#    z 0.000000 0.000000 1.628990 
# 
# From -- ./inp_files/1941.got.cif
#   From: 2010.05.17/outbox.cif.g08.bks.cpg/sg49_1_cif.got.tgz:1941.got - 2010.06.03 21:02:19.
