data_PCOD9394764
_publ_section_title
;
Structure prediction by ZEFSAII (Michael W. Deem and Ramdas Pophale) SiO2 
 PCOD9394764
Probable space group: P C C M
;
_chemical_formula_sum "Si O2"
_cell_formula_units_Z 32
_cell_length_a 12.895206
_cell_length_b 12.190103
_cell_length_c 10.801766
_cell_angle_alpha 90.000000
_cell_angle_beta 90.000000
_cell_angle_gamma 90.000000
_cell_volume 1697.971609
_symmetry_space_group_name_H-M "P C C M"
_symmetry_group_IT_number 49
_symmetry_cell_setting 'orthorhombic'
loop_
_space_group_symop_operation_xyz
x,y,z
-x,-y,z
x,-y,1/2-z
-x,y,1/2-z
-x,-y,-z
x,y,-z
-x,y,1/2+z
x,-y,1/2+z
loop_
_atom_site_type_symbol
_atom_site_label
_atom_site_fract_x
_atom_site_fract_y
_atom_site_fract_z
Si Si1 0.930731 0.319143 0.135496
Si Si2 0.500000 0.252823 0.250000
Si Si3 0.281727 0.630883 0.252759
Si Si4 0.236607 0.232595 0.000000
Si Si5 0.009447 0.871030 0.500000
Si Si6 0.547890 0.878772 0.000000
O O1 0.809974 0.335624 0.159893
O O2 0.000000 0.360149 0.250000
O O3 0.960087 0.366794 0.000000
O O4 0.954446 0.189942 0.115399
O O5 0.603115 0.324493 0.229275
O O6 0.512621 0.180859 0.373795
O O7 0.284063 0.500000 0.250000
O O8 0.248601 0.688143 0.381773
O O9 0.127223 0.171602 0.000000
O O10 0.327774 0.141397 0.000000
O O11 0.000000 0.000000 0.500000
O O12 0.500000 0.000000 0.000000
#
# Coordination Sequence:
#
# PCOD9394764 Si02
#       6
#     8   4   8   4   4   4
#     4  10  22  41  62  93 125 156 216 255 305 388
#     4  10  24  40  64  94 130 154 224 256 304 394
#     4  11  23  41  64  89 126 170 204 263 319 364
#     4  10  22  42  58  94 126 157 214 262 305 390
#     4  10  22  41  62  87 122 161 198 257 319 361
#     4  10  22  41  66  91 125 169 203 266 321 365
#
# _framework density 18.846015000000001
#
# number of rings (size 3 to 8) (size 9 to 14) (size 15 to 20)
#    0.750    1.000    2.500    0.750    3.500    3.000 
#    0.000    8.750    0.000    0.000    0.000    0.000 
#    0.000    0.000    0.000    0.000    0.000    0.000 
#
# Total GULP energy -178329.848481 kJ/mol
# GULP energy per Si atom -5572.807765 kJ/mol
# Density = 1.880312 g / cm^3
# Si number density = 18.846015 Si / 1000 Ang^3
#
#
#
# Elastic Constant Matrix: (Units=GPa)
#
#
# Indices 1 2 3 4 5 6 
#
# 1 177.0612 103.4822 57.8652 0.0000 0.0000 0.0000
# 2 103.4822 166.0239 41.6564 0.0000 0.0000 0.0000
# 3 57.8652 41.6564 120.1049 0.0000 0.0000 0.0000
# 4 0.0000 0.0000 0.0000 30.1808 0.0000 0.0000
# 5 0.0000 0.0000 0.0000 0.0000 30.9152 0.0000
# 6 0.0000 0.0000 0.0000 0.0000 0.0000 3.0694
#
#
#
# Elastic Compliance Matrix: (Units=1/GPa)
#
#
# Indices 1 2 3 4 5 6 
#
# 1 0.009682 -0.005328 -0.002817 0.000000 0.000000 0.000000
# 2 -0.005328 0.009529 -0.000738 0.000000 0.000000 0.000000
# 3 -0.002817 -0.000738 0.009939 0.000000 0.000000 0.000000
# 4 0.000000 0.000000 0.000000 0.033134 0.000000 0.000000
# 5 0.000000 0.000000 0.000000 0.000000 0.032347 0.000000
# 6 0.000000 0.000000 0.000000 0.000000 0.000000 0.325800
#
#
# Mechanical properties :
#
#
# Convention : Reuss Voigt Hill
#
# Bulk Modulus (GPa) = 87.83692 96.57753 92.20723
# Shear Modulus (GPa) = 11.31241 30.17881 20.74561
#
# Velocity S-wave (km/s) = 2.45267 4.00601 3.32142
# Velocity P-wave (km/s) = 7.39795 8.52962 7.98386
#
# Compressibility (1/GPa) = 0.01138473
#
# Stress axis : x y z
#
# Youngs Moduli (GPa) = 103.28023 104.93738 100.61203
#
# Poissons Ratio (x) = 0.55913 0.28341
# Poissons Ratio (y) = 0.55030 0.07426
# Poissons Ratio (z) = 0.29093 0.07745
#
# Static dielectric constant tensor:
#      x y z
#    x 1.679520 0.000000 0.000000 
#    y 0.000000 1.718710 0.000000 
#    z 0.000000 0.000000 1.896030 
# 
# From -- ./inp_files/8580.got.cif
#   From: 2010.05.17/outbox.cif.g08.bks.cpg/sg49_5_cif.got.tgz:8580.got - 2010.06.03 21:02:19.
