data_PCOD9394963
_publ_section_title
;
Structure prediction by ZEFSAII (Michael W. Deem and Ramdas Pophale) SiO2 
 PCOD9394963
Probable space group: P C C M
;
_chemical_formula_sum "Si O2"
_cell_formula_units_Z 48
_cell_length_a 12.158290
_cell_length_b 13.227849
_cell_length_c 16.627911
_cell_angle_alpha 90.000000
_cell_angle_beta 90.000000
_cell_angle_gamma 90.000000
_cell_volume 2674.234073
_symmetry_space_group_name_H-M "P C C M"
_symmetry_group_IT_number 49
_symmetry_cell_setting 'orthorhombic'
loop_
_space_group_symop_operation_xyz
x,y,z
-x,-y,z
x,-y,1/2-z
-x,y,1/2-z
-x,-y,-z
x,y,-z
-x,y,1/2+z
x,-y,1/2+z
loop_
_atom_site_type_symbol
_atom_site_label
_atom_site_fract_x
_atom_site_fract_y
_atom_site_fract_z
Si Si1 0.372805 0.115377 0.848194
Si Si2 0.372815 0.884587 0.151823
Si Si3 0.499981 0.380278 0.591899
Si Si4 0.731847 0.313132 0.655770
Si Si5 0.268213 0.686810 0.155895
Si Si6 0.124175 0.500004 0.095667
O O1 0.499994 0.138953 0.872714
O O2 0.373282 0.118495 0.750009
O O3 0.283111 0.197836 0.875810
O O4 0.349681 0.999978 0.872362
O O5 0.283144 0.802083 0.124247
O O6 0.500000 0.500000 0.584227
O O7 0.499862 0.338910 0.500000
O O8 0.608535 0.351785 0.640022
O O9 0.391548 0.351815 0.640184
O O10 0.756827 0.308571 0.749944
O O11 0.811992 0.397407 0.619559
O O12 0.188107 0.602496 0.119694
O O13 0.000000 0.500000 0.128880
O O14 0.119288 0.500120 0.000000
#
# Coordination Sequence:
#
# PCOD9394963 Si02
#       6
#     8   8   8   8   8   8
#     4   8  14  26  46  76 112 141 164 198 250 304
#     4   8  14  26  46  76 112 141 164 198 250 304
#     4  11  21  31  46  73 111 147 170 197 255 320
#     4  11  20  32  55  81 104 133 175 219 255 297
#     4  11  20  32  55  81 104 133 175 219 255 297
#     4  11  25  42  55  70  99 139 175 213 270 323
#
# _framework density 17.949065000000001
#
# number of rings (size 3 to 8) (size 9 to 14) (size 15 to 20)
#    0.000    2.000    3.333    3.000    0.000    2.000 
#    0.000    0.000    0.000    6.000    0.000    7.000 
#    0.000    0.000    0.000    0.000    0.000    0.000 
#
# Total GULP energy -267283.093168 kJ/mol
# GULP energy per Si atom -5568.397774 kJ/mol
# Density = 1.790821 g / cm^3
# Si number density = 17.949065 Si / 1000 Ang^3
#
#
#
# Elastic Constant Matrix: (Units=GPa)
#
#
# Indices 1 2 3 4 5 6 
#
# 1 101.9033 67.2294 4.6333 0.0000 0.0000 0.0000
# 2 67.2294 167.4345 19.0162 0.0000 0.0000 0.0000
# 3 4.6333 19.0162 17.9721 0.0000 0.0000 0.0000
# 4 0.0000 0.0000 0.0000 -12.6277 0.0000 0.0000
# 5 0.0000 0.0000 0.0000 0.0000 105.5938 0.0000
# 6 0.0000 0.0000 0.0000 0.0000 0.0000 5.1993
#
#
#
# Elastic Compliance Matrix: (Units=1/GPa)
#
#
# Indices 1 2 3 4 5 6 
#
# 1 0.013452 -0.005691 0.002554 0.000000 0.000000 0.000000
# 2 -0.005691 0.009196 -0.008263 0.000000 0.000000 0.000000
# 3 0.002554 -0.008263 0.063727 0.000000 0.000000 0.000000
# 4 0.000000 0.000000 0.000000 -0.079191 0.000000 0.000000
# 5 0.000000 0.000000 0.000000 0.000000 0.009470 0.000000
# 6 0.000000 0.000000 0.000000 0.000000 0.000000 0.192333
#
#
# Mechanical properties :
#
#
# Convention : Reuss Voigt Hill
#
# Bulk Modulus (GPa) = 15.72976 52.11865 33.92421
# Shear Modulus (GPa) = 19.76449 32.72849 26.24649
#
# Velocity S-wave (km/s) = 3.32195 4.27477 3.82812
# Velocity P-wave (km/s) = 4.84730 7.31197 6.20328
#
# Compressibility (1/GPa) = 0.06357375
#
# Stress axis : x y z
#
# Youngs Moduli (GPa) = 74.33881 108.74034 15.69201
#
# Poissons Ratio (x) = 0.61888 -0.04008
# Poissons Ratio (y) = 0.42309 0.12967
# Poissons Ratio (z) = -0.18987 0.89855
#
# Static dielectric constant tensor:
#      x y z
#    x 1.584500 0.000000 0.000000 
#    y 0.000000 1.700710 0.000000 
#    z 0.000000 0.000000 1.635040 
# 
# From -- ./inp_files/17165.got.cif
#   From: 2010.05.17/outbox.cif.g08.bks.cpg/sg49_9_cif.got.tgz:17165.got - 2010.06.03 21:02:19.
