data_PCOD9394710
_publ_section_title
;
Structure prediction by ZEFSAII (Michael W. Deem and Ramdas Pophale) SiO2 
 PCOD9394710
Probable space group: P C C M
;
_chemical_formula_sum "Si O2"
_cell_formula_units_Z 64
_cell_length_a 9.506903
_cell_length_b 17.710748
_cell_length_c 21.362067
_cell_angle_alpha 90.000000
_cell_angle_beta 90.000000
_cell_angle_gamma 90.000000
_cell_volume 3596.824430
_symmetry_space_group_name_H-M "P C C M"
_symmetry_group_IT_number 49
_symmetry_cell_setting 'orthorhombic'
loop_
_space_group_symop_operation_xyz
x,y,z
-x,-y,z
x,-y,1/2-z
-x,y,1/2-z
-x,-y,-z
x,y,-z
-x,y,1/2+z
x,-y,1/2+z
loop_
_atom_site_type_symbol
_atom_site_label
_atom_site_fract_x
_atom_site_fract_y
_atom_site_fract_z
Si Si1 0.994983 0.259728 0.425527
Si Si2 0.494251 0.699742 0.677102
Si Si3 0.257866 0.187270 0.645715
Si Si4 0.584105 0.421445 0.572805
Si Si5 0.167043 0.914981 0.740007
Si Si6 0.916097 0.427393 0.424567
Si Si7 0.527573 0.915998 0.426840
Si Si8 0.722756 0.179062 0.626584
O O1 0.023066 0.258248 0.500000
O O2 0.977723 0.346818 0.403845
O O3 0.846152 0.219753 0.411471
O O4 0.119156 0.218182 0.388393
O O5 0.500000 0.675559 0.750000
O O6 0.636482 0.744647 0.660974
O O7 0.474587 0.634951 0.625183
O O8 0.365879 0.758699 0.665716
O O9 0.223885 0.143022 0.708913
O O10 0.342591 0.127274 0.603858
O O11 0.500000 0.500000 0.575202
O O12 0.573243 0.393052 0.500000
O O13 0.749507 0.432649 0.587057
O O14 0.208328 0.881623 0.673116
O O15 0.000000 0.917191 0.750000
O O16 0.222113 0.000000 0.750000
O O17 0.931058 0.427366 0.500000
O O18 0.000000 0.500000 0.399894
O O19 0.555708 0.923422 0.500000
O O20 0.390467 0.864647 0.415428
O O21 0.500000 0.000000 0.400580
#
# Coordination Sequence:
#
# PCOD9394710 Si02
#       8
#     8   8   8   8   8   8   8   8
#     4  11  22  37  61  91 121 157 199 252 307 361
#     4  11  23  39  62  91 124 162 200 251 309 361
#     4  11  23  38  59  90 118 154 201 250 303 362
#     4  10  22  39  62  91 123 162 207 250 300 366
#     4  11  22  38  61  87 115 152 202 255 299 353
#     4   9  19  36  58  87 120 153 197 247 296 350
#     4  10  22  39  57  81 118 157 194 246 307 366
#     4  11  21  39  61  84 116 157 202 245 301 367
#
# _framework density 17.793474
#
# number of rings (size 3 to 8) (size 9 to 14) (size 15 to 20)
#    0.000    1.500    3.750    1.500    1.750    2.750 
#    0.000    1.875    0.000    3.000    0.000    0.000 
#    0.000    0.000    0.000    0.000    0.000    0.000 
#
# Total GULP energy -357185.963518 kJ/mol
# GULP energy per Si atom -5581.030680 kJ/mol
# Density = 1.775297 g / cm^3
# Si number density = 17.793474 Si / 1000 Ang^3
#
#
#
# Elastic Constant Matrix: (Units=GPa)
#
#
# Indices 1 2 3 4 5 6 
#
# 1 85.3110 36.4971 8.9747 0.0000 0.0000 0.0000
# 2 36.4971 114.6167 25.9528 0.0000 0.0000 0.0000
# 3 8.9747 25.9528 56.5057 0.0000 0.0000 0.0000
# 4 0.0000 0.0000 0.0000 32.4879 0.0000 0.0000
# 5 0.0000 0.0000 0.0000 0.0000 14.3488 0.0000
# 6 0.0000 0.0000 0.0000 0.0000 0.0000 29.3045
#
#
#
# Elastic Compliance Matrix: (Units=1/GPa)
#
#
# Indices 1 2 3 4 5 6 
#
# 1 0.013572 -0.004279 -0.000190 0.000000 0.000000 0.000000
# 2 -0.004279 0.011086 -0.004412 0.000000 0.000000 0.000000
# 3 -0.000190 -0.004412 0.019754 0.000000 0.000000 0.000000
# 4 0.000000 0.000000 0.000000 0.030781 0.000000 0.000000
# 5 0.000000 0.000000 0.000000 0.000000 0.069692 0.000000
# 6 0.000000 0.000000 0.000000 0.000000 0.000000 0.034124
#
#
# Mechanical properties :
#
#
# Convention : Reuss Voigt Hill
#
# Bulk Modulus (GPa) = 37.52372 44.36472 40.94422
# Shear Modulus (GPa) = 24.31239 27.56216 25.93728
#
# Velocity S-wave (km/s) = 3.70045 3.94001 3.82211
# Velocity P-wave (km/s) = 6.27631 6.75910 6.52217
#
# Compressibility (1/GPa) = 0.02664981
#
# Stress axis : x y z
#
# Youngs Moduli (GPa) = 73.67937 90.20182 50.62236
#
# Poissons Ratio (x) = 0.38594 0.00964
# Poissons Ratio (y) = 0.31525 0.22336
# Poissons Ratio (z) = 0.01404 0.39800
#
# Static dielectric constant tensor:
#      x y z
#    x 1.579710 0.000000 0.000000 
#    y 0.000000 1.611020 0.000000 
#    z 0.000000 0.000000 1.608850 
# 
# From -- ./inp_files/19997.got.cif
#   From: 2010.05.17/outbox.cif.g08.bks.cpg/sg49_10_cif.got.tgz:19997.got - 2010.06.03 21:02:19.
