data_PCOD9394241
_publ_section_title
;
Structure prediction by ZEFSAII (Michael W. Deem and Ramdas Pophale) SiO2 
 PCOD9394241
Probable space group: P C C M
;
_chemical_formula_sum "Si O2"
_cell_formula_units_Z 30
_cell_length_a 12.973227
_cell_length_b 6.747820
_cell_length_c 16.782308
_cell_angle_alpha 90.000000
_cell_angle_beta 90.000000
_cell_angle_gamma 90.000000
_cell_volume 1469.140035
_symmetry_space_group_name_H-M "P C C M"
_symmetry_group_IT_number 49
_symmetry_cell_setting 'orthorhombic'
loop_
_space_group_symop_operation_xyz
x,y,z
-x,-y,z
x,-y,1/2-z
-x,y,1/2-z
-x,-y,-z
x,y,-z
-x,y,1/2+z
x,-y,1/2+z
loop_
_atom_site_type_symbol
_atom_site_label
_atom_site_fract_x
_atom_site_fract_y
_atom_site_fract_z
Si Si1 0.331739 0.320921 0.857897
Si Si2 0.834568 0.500000 0.750000
Si Si3 0.076809 0.183062 0.000000
Si Si4 0.500000 0.500000 0.250000
Si Si5 0.000000 0.500000 0.126810
Si Si6 0.312410 0.965806 0.500000
Si Si7 0.381599 0.586596 0.000000
O O1 0.237396 0.342523 0.796268
O O2 0.431159 0.361850 0.805288
O O3 0.344751 0.136685 0.916687
O O4 0.326007 0.499992 0.921838
O O5 0.910774 0.411576 0.816650
O O6 0.052586 0.329213 0.073953
O O7 0.000000 0.000000 0.000000
O O8 0.189836 0.084728 0.000000
O O9 0.362275 0.181295 0.500000
O O10 0.500000 0.500000 0.000000
#
# Coordination Sequence:
#
# PCOD9394241 Si02
#       7
#     8   4   4   2   4   4   4
#     4  10  22  42  67  92 130 170 220 267 338 398
#     4  10  20  40  66  92 134 178 208 276 346 408
#     4  11  24  40  65  97 127 176 230 275 330 409
#     4  10  20  44  66  94 134 168 204 276 332 392
#     4  10  22  42  66  92 136 174 218 278 344 394
#     4  11  24  42  68  96 124 174 229 269 334 406
#     4  11  24  44  66  92 128 177 224 288 328 399
#
# _framework density 20.420110000000001
#
# number of rings (size 3 to 8) (size 9 to 14) (size 15 to 20)
#    0.000    1.600    4.000    0.000    3.733    2.133 
#    0.000   12.000    0.000    0.000    0.000    0.000 
#    0.000    0.000    0.000    0.000    0.000    0.000 
#
# Total GULP energy -167291.071356 kJ/mol
# GULP energy per Si atom -5576.369045 kJ/mol
# Density = 2.037363 g / cm^3
# Si number density = 20.420110 Si / 1000 Ang^3
#
#
#
# Elastic Constant Matrix: (Units=GPa)
#
#
# Indices 1 2 3 4 5 6 
#
# 1 123.0100 44.6174 63.5611 0.0000 0.0000 0.0000
# 2 44.6174 138.9396 56.1537 0.0000 0.0000 0.0000
# 3 63.5611 56.1537 148.3094 0.0000 0.0000 0.0000
# 4 0.0000 0.0000 0.0000 -9.6035 0.0000 0.0000
# 5 0.0000 0.0000 0.0000 0.0000 368.4810 0.0000
# 6 0.0000 0.0000 0.0000 0.0000 0.0000 22.7452
#
#
#
# Elastic Compliance Matrix: (Units=1/GPa)
#
#
# Indices 1 2 3 4 5 6 
#
# 1 0.010848 -0.001895 -0.003932 0.000000 0.000000 0.000000
# 2 -0.001895 0.008829 -0.002531 0.000000 0.000000 0.000000
# 3 -0.003932 -0.002531 0.009386 0.000000 0.000000 0.000000
# 4 0.000000 0.000000 0.000000 -0.104129 0.000000 0.000000
# 5 0.000000 0.000000 0.000000 0.000000 0.002714 0.000000
# 6 0.000000 0.000000 0.000000 0.000000 0.000000 0.043965
#
#
# Mechanical properties :
#
#
# Convention : Reuss Voigt Hill
#
# Bulk Modulus (GPa) = 80.98257 82.10260 81.54259
# Shear Modulus (GPa) = -661.69129 92.71968 -284.48581
#
# Velocity S-wave (km/s) = -18.02061 6.74571 -11.81605
# Velocity P-wave (km/s) = 19.83042 10.04823 12.08881
#
# Compressibility (1/GPa) = 0.01234834
#
# Stress axis : x y z
#
# Youngs Moduli (GPa) = 92.18035 113.26821 106.54172
#
# Poissons Ratio (x) = 0.21459 0.41892
# Poissons Ratio (y) = 0.17464 0.26963
# Poissons Ratio (z) = 0.36245 0.28666
#
# Static dielectric constant tensor:
#      x y z
#    x 1.790360 0.000000 0.000000 
#    y 0.000000 1.694300 0.000000 
#    z 0.000000 0.000000 1.755220 
# 
# From -- ./inp_files/20668.got.cif
#   From: 2010.05.17/outbox.cif.g08.bks.cpg/sg49_11_cif.got.tgz:20668.got - 2010.06.03 21:02:19.
