data_PCOD9394430
_publ_section_title
;
Structure prediction by ZEFSAII (Michael W. Deem and Ramdas Pophale) SiO2 
 PCOD9394430
Probable space group: P C C M
;
_chemical_formula_sum "Si O2"
_cell_formula_units_Z 48
_cell_length_a 9.245962
_cell_length_b 31.314010
_cell_length_c 8.587183
_cell_angle_alpha 90.000000
_cell_angle_beta 90.000000
_cell_angle_gamma 90.000000
_cell_volume 2486.231178
_symmetry_space_group_name_H-M "P C C M"
_symmetry_group_IT_number 49
_symmetry_cell_setting 'orthorhombic'
loop_
_space_group_symop_operation_xyz
x,y,z
-x,-y,z
x,-y,1/2-z
-x,y,1/2-z
-x,-y,-z
x,y,-z
-x,y,1/2+z
x,-y,1/2+z
loop_
_atom_site_type_symbol
_atom_site_label
_atom_site_fract_x
_atom_site_fract_y
_atom_site_fract_z
Si Si1 0.661833 0.454072 0.186347
Si Si2 0.338032 0.126451 0.186590
Si Si3 0.161369 0.952956 0.813154
Si Si4 0.162787 0.792554 0.813398
Si Si5 0.837538 0.630234 0.312547
Si Si6 0.337111 0.711185 0.686420
O O1 0.711049 0.500000 0.250000
O O2 0.500000 0.446459 0.250000
O O3 0.765271 0.415055 0.230762
O O4 0.654408 0.456268 0.000000
O O5 0.500000 0.131722 0.250000
O O6 0.269846 0.082635 0.250255
O O7 0.240566 0.165308 0.248228
O O8 0.338492 0.126287 0.000000
O O9 0.000000 0.943284 0.750000
O O10 0.199452 0.000000 0.750000
O O11 0.159017 0.953246 0.000000
O O12 0.250999 0.751484 0.754916
O O13 0.000000 0.790344 0.750000
O O14 0.161503 0.793703 0.000000
O O15 0.837092 0.633908 0.500000
O O16 0.743015 0.668332 0.241549
O O17 0.000000 0.632900 0.250000
O O18 0.500000 0.711414 0.750000
O O19 0.338222 0.713569 0.500000
#
# Coordination Sequence:
#
# PCOD9394430 Si02
#       6
#     8   8   8   8   8   8
#     4  10  21  37  60  87 118 155 200 248 302 360
#     4  12  25  43  64  92 126 164 207 255 307 365
#     4  11  22  40  64  93 125 164 208 256 309 366
#     4  12  25  44  67  94 126 163 204 251 303 361
#     4  11  24  41  61  89 122 161 203 250 303 361
#     4  12  25  43  66  93 124 161 202 250 302 361
#
# _framework density 19.306331
#
# number of rings (size 3 to 8) (size 9 to 14) (size 15 to 20)
#    0.000    0.667    0.000   10.000    0.000    4.667 
#    0.000    3.333    0.000    0.000    0.000    0.000 
#    0.000    0.000    0.000    0.000    0.000    0.000 
#
# Total GULP energy -268789.695547 kJ/mol
# GULP energy per Si atom -5599.785324 kJ/mol
# Density = 1.926239 g / cm^3
# Si number density = 19.306331 Si / 1000 Ang^3
#
#
#
# Elastic Constant Matrix: (Units=GPa)
#
#
# Indices 1 2 3 4 5 6 
#
# 1 181.1230 114.9737 79.9337 0.0000 0.0000 0.0000
# 2 114.9737 143.3604 76.1752 0.0000 0.0000 0.0000
# 3 79.9337 76.1752 194.8464 0.0000 0.0000 0.0000
# 4 0.0000 0.0000 0.0000 39.7014 0.0000 0.0000
# 5 0.0000 0.0000 0.0000 0.0000 53.3610 0.0000
# 6 0.0000 0.0000 0.0000 0.0000 0.0000 43.3180
#
#
#
# Elastic Compliance Matrix: (Units=1/GPa)
#
#
# Indices 1 2 3 4 5 6 
#
# 1 0.011545 -0.008510 -0.001409 0.000000 0.000000 0.000000
# 2 -0.008510 0.015078 -0.002403 0.000000 0.000000 0.000000
# 3 -0.001409 -0.002403 0.006650 0.000000 0.000000 0.000000
# 4 0.000000 0.000000 0.000000 0.025188 0.000000 0.000000
# 5 0.000000 0.000000 0.000000 0.000000 0.018740 0.000000
# 6 0.000000 0.000000 0.000000 0.000000 0.000000 0.023085
#
#
# Mechanical properties :
#
#
# Convention : Reuss Voigt Hill
#
# Bulk Modulus (GPa) = 115.91416 117.94387 116.92902
# Shear Modulus (GPa) = 39.12119 43.82589 41.47354
#
# Velocity S-wave (km/s) = 4.50637 4.76965 4.63988
# Velocity P-wave (km/s) = 9.34057 9.56850 9.45522
#
# Compressibility (1/GPa) = 0.00862707
#
# Stress axis : x y z
#
# Youngs Moduli (GPa) = 86.61535 66.32293 150.37760
#
# Poissons Ratio (x) = 0.56444 0.21191
# Poissons Ratio (y) = 0.73714 0.36141
# Poissons Ratio (z) = 0.12206 0.15940
#
# Static dielectric constant tensor:
#      x y z
#    x 1.633470 0.000000 0.000000 
#    y 0.000000 1.650740 0.000000 
#    z 0.000000 0.000000 1.644700 
# 
# From -- ./inp_files/2126.got.cif
#   From: 2010.05.17/outbox.cif.g08.bks.cpg/sg49_2_cif.got.tgz:2126.got - 2010.06.03 21:02:19.
