data_PCOD9394140
_publ_section_title
;
Structure prediction by ZEFSAII (Michael W. Deem and Ramdas Pophale) SiO2 
 PCOD9394140
Probable space group: P C C M
;
_chemical_formula_sum "Si O2"
_cell_formula_units_Z 64
_cell_length_a 15.764383
_cell_length_b 24.133331
_cell_length_c 8.821072
_cell_angle_alpha 90.000000
_cell_angle_beta 90.000000
_cell_angle_gamma 90.000000
_cell_volume 3355.951023
_symmetry_space_group_name_H-M "P C C M"
_symmetry_group_IT_number 49
_symmetry_cell_setting 'orthorhombic'
loop_
_space_group_symop_operation_xyz
x,y,z
-x,-y,z
x,-y,1/2-z
-x,y,1/2-z
-x,-y,-z
x,y,-z
-x,y,1/2+z
x,-y,1/2+z
loop_
_atom_site_type_symbol
_atom_site_label
_atom_site_fract_x
_atom_site_fract_y
_atom_site_fract_z
Si Si1 0.588463 0.364660 0.819338
Si Si2 0.911537 0.864661 0.319338
Si Si3 0.649974 0.749077 0.181489
Si Si4 0.250843 0.061168 0.682477
Si Si5 0.249157 0.438832 0.317523
Si Si6 0.409195 0.127298 0.182081
Si Si7 0.149974 0.249077 0.181489
Si Si8 0.090805 0.372702 0.182081
O O1 0.500000 0.384591 0.750000
O O2 0.606409 0.302432 0.762564
O O3 0.668412 0.402508 0.774469
O O4 0.582270 0.364769 0.000000
O O5 0.917730 0.864769 0.500000
O O6 0.831588 0.902508 0.274469
O O7 0.893591 0.802432 0.262564
O O8 0.000000 0.884591 0.250000
O O9 0.610031 0.808354 0.220975
O O10 0.750000 0.750000 0.219749
O O11 0.642740 0.741421 0.000000
O O12 0.255987 0.059156 0.500000
O O13 0.334037 0.090782 0.748710
O O14 0.243549 0.000000 0.750000
O O15 0.256451 0.500000 0.250000
O O16 0.244013 0.440844 0.500000
O O17 0.165963 0.409218 0.251290
O O18 0.500000 0.111495 0.250000
O O19 0.409313 0.122243 0.000000
O O20 0.110031 0.308354 0.220976
O O21 0.142740 0.241421 0.000000
O O22 0.000000 0.388505 0.250000
O O23 0.090687 0.377757 0.000000
#
# Coordination Sequence:
#
# PCOD9394140 Si02
#       8
#     8   8   8   8   8   8   8   8
#     4  11  24  40  63  93 126 163 204 252 305 365
#     4  11  24  40  63  93 126 163 204 252 305 365
#     4  10  20  37  63  94 127 164 201 245 305 365
#     4  11  25  44  65  90 120 160 208 257 308 361
#     4  11  25  44  65  90 120 160 208 257 308 361
#     4  11  23  40  64  93 127 163 203 251 303 364
#     4  10  20  37  63  94 127 164 201 245 305 365
#     4  11  23  40  64  93 127 163 203 251 303 364
#
# _framework density 19.070599000000001
#
# number of rings (size 3 to 8) (size 9 to 14) (size 15 to 20)
#    0.000    1.250    2.500    3.000    0.000    8.500 
#    0.000    5.000    0.000    0.000    0.000    0.000 
#    0.000    0.000    0.000    0.000    0.000    0.000 
#
# Total GULP energy -358007.917689 kJ/mol
# GULP energy per Si atom -5593.873714 kJ/mol
# Density = 1.902719 g / cm^3
# Si number density = 19.070599 Si / 1000 Ang^3
#
#
#
# Elastic Constant Matrix: (Units=GPa)
#
#
# Indices 1 2 3 4 5 6 
#
# 1 166.6265 57.1017 50.7477 0.0000 0.0000 0.0000
# 2 57.1017 116.7925 44.7235 0.0000 0.0000 0.0000
# 3 50.7477 44.7235 48.4187 0.0000 0.0000 0.0000
# 4 0.0000 0.0000 0.0000 28.0552 0.0000 0.0000
# 5 0.0000 0.0000 0.0000 0.0000 53.4108 0.0000
# 6 0.0000 0.0000 0.0000 0.0000 0.0000 -3.9259
#
#
#
# Elastic Compliance Matrix: (Units=1/GPa)
#
#
# Indices 1 2 3 4 5 6 
#
# 1 0.008924 -0.001209 -0.008237 0.000000 0.000000 0.000000
# 2 -0.001209 0.013412 -0.011121 0.000000 0.000000 0.000000
# 3 -0.008237 -0.011121 0.039559 0.000000 0.000000 0.000000
# 4 0.000000 0.000000 0.000000 0.035644 0.000000 0.000000
# 5 0.000000 0.000000 0.000000 0.000000 0.018723 0.000000
# 6 0.000000 0.000000 0.000000 0.000000 0.000000 -0.254719
#
#
# Mechanical properties :
#
#
# Convention : Reuss Voigt Hill
#
# Bulk Modulus (GPa) = 48.16764 70.77593 59.47178
# Shear Modulus (GPa) = -55.30822 27.45901 -13.92461
#
# Velocity S-wave (km/s) = -5.39118 3.79867 -2.70508
# Velocity P-wave (km/s) = 3.66615 7.51219 4.63639
#
# Compressibility (1/GPa) = 0.02076083
#
# Stress axis : x y z
#
# Youngs Moduli (GPa) = 112.05210 74.56021 25.27899
#
# Poissons Ratio (x) = 0.09016 0.20822
# Poissons Ratio (y) = 0.13549 0.28113
# Poissons Ratio (z) = 0.92295 0.82919
#
# Static dielectric constant tensor:
#      x y z
#    x 1.652940 0.000000 0.000000 
#    y 0.000000 1.631020 0.000000 
#    z 0.000000 0.000000 1.633420 
# 
# From -- ./inp_files/4398.got.cif
#   From: 2010.05.17/outbox.cif.g08.bks.cpg/sg49_3_cif.got.tgz:4398.got - 2010.06.03 21:02:19.
