data_PCOD9394992
_publ_section_title
;
Structure prediction by ZEFSAII (Michael W. Deem and Ramdas Pophale) SiO2 
 PCOD9394992
Probable space group: P C C M
;
_chemical_formula_sum "Si O2"
_cell_formula_units_Z 64
_cell_length_a 11.849061
_cell_length_b 19.010421
_cell_length_c 14.279257
_cell_angle_alpha 90.000000
_cell_angle_beta 90.000000
_cell_angle_gamma 90.000000
_cell_volume 3216.483147
_symmetry_space_group_name_H-M "P C C M"
_symmetry_group_IT_number 49
_symmetry_cell_setting 'orthorhombic'
loop_
_space_group_symop_operation_xyz
x,y,z
-x,-y,z
x,-y,1/2-z
-x,y,1/2-z
-x,-y,-z
x,y,-z
-x,y,1/2+z
x,-y,1/2+z
loop_
_atom_site_type_symbol
_atom_site_label
_atom_site_fract_x
_atom_site_fract_y
_atom_site_fract_z
Si Si1 0.565762 0.673262 0.609470
Si Si2 0.513435 0.081938 0.861757
Si Si3 0.760579 0.854013 0.392096
Si Si4 0.273222 0.742765 0.246032
Si Si5 0.625110 0.480714 0.112738
Si Si6 0.129941 0.997306 0.886517
Si Si7 0.699744 0.371218 0.388742
Si Si8 0.272801 0.865612 0.603520
O O1 0.586288 0.694290 0.500000
O O2 0.611038 0.725557 0.688668
O O3 0.637094 0.601738 0.630946
O O4 0.432949 0.653844 0.614943
O O5 0.500000 0.084653 0.750000
O O6 0.629002 0.121338 0.887095
O O7 0.404391 0.117814 0.903599
O O8 0.500000 0.000000 0.889203
O O9 0.790321 0.844424 0.500000
O O10 0.792222 0.783056 0.337111
O O11 0.821423 0.923342 0.352894
O O12 0.240763 0.675305 0.308912
O O13 0.271986 0.803025 0.323765
O O14 0.500000 0.500000 0.146964
O O15 0.702855 0.546287 0.139967
O O16 0.621912 0.485655 0.000000
O O17 0.205891 0.064920 0.862438
O O18 0.135221 0.995321 0.000000
O O19 0.000000 0.000000 0.858953
O O20 0.732187 0.363233 0.500000
O O21 0.228664 0.846508 0.500000
#
# Coordination Sequence:
#
# PCOD9394992 Si02
#       8
#     8   8   8   8   8   8   8   8
#     4   9  18  31  46  65  93 133 180 224 259 291
#     4  11  21  35  55  72 105 133 170 210 251 317
#     4  11  23  37  54  76 102 136 170 212 269 314
#     4  12  23  32  42  68 104 134 167 210 252 313
#     4   7  12  27  47  63  84 123 179 230 258 284
#     4   9  20  42  67  82  93 122 177 232 271 312
#     4   9  18  31  46  65  93 133 180 224 259 291
#     4  11  23  37  54  76 102 136 170 212 269 314
#
# _framework density 19.897507999999998
#
# number of rings (size 3 to 8) (size 9 to 14) (size 15 to 20)
#    0.000    2.125    2.500    3.000    3.500    1.500 
#    0.000    3.125    0.000    0.000    0.000    0.000 
#    0.000    0.000    0.000    9.000    0.000   91.500 
#
# Total GULP energy -356488.847259 kJ/mol
# GULP energy per Si atom -5570.138238 kJ/mol
# Density = 1.985222 g / cm^3
# Si number density = 19.897508 Si / 1000 Ang^3
#
#
#
# Elastic Constant Matrix: (Units=GPa)
#
#
# Indices 1 2 3 4 5 6 
#
# 1 48.5879 14.7572 -0.9851 0.0000 0.0000 0.0000
# 2 14.7572 92.1000 37.5622 0.0000 0.0000 0.0000
# 3 -0.9851 37.5622 123.2214 0.0000 0.0000 0.0000
# 4 0.0000 0.0000 0.0000 44.2481 0.0000 0.0000
# 5 0.0000 0.0000 0.0000 0.0000 177.8183 0.0000
# 6 0.0000 0.0000 0.0000 0.0000 0.0000 -1.1080
#
#
#
# Elastic Compliance Matrix: (Units=1/GPa)
#
#
# Indices 1 2 3 4 5 6 
#
# 1 0.021849 -0.004079 0.001418 0.000000 0.000000 0.000000
# 2 -0.004079 0.013161 -0.004045 0.000000 0.000000 0.000000
# 3 0.001418 -0.004045 0.009360 0.000000 0.000000 0.000000
# 4 0.000000 0.000000 0.000000 0.022600 0.000000 0.000000
# 5 0.000000 0.000000 0.000000 0.000000 0.005624 0.000000
# 6 0.000000 0.000000 0.000000 0.000000 0.000000 -0.902505
#
#
# Mechanical properties :
#
#
# Convention : Reuss Voigt Hill
#
# Bulk Modulus (GPa) = 32.30141 40.73088 36.51615
# Shear Modulus (GPa) = -6.20208 58.36335 26.08063
#
# Velocity S-wave (km/s) = -1.76742 5.42178 3.62435
# Velocity P-wave (km/s) = 3.47909 7.72716 5.99221
#
# Compressibility (1/GPa) = 0.03095840
#
# Stress axis : x y z
#
# Youngs Moduli (GPa) = 45.76870 75.98258 106.84084
#
# Poissons Ratio (x) = 0.30995 -0.15152
# Poissons Ratio (y) = 0.18670 0.43212
# Poissons Ratio (z) = -0.06491 0.30731
#
# Static dielectric constant tensor:
#      x y z
#    x 1.695480 0.000000 0.000000 
#    y 0.000000 1.756430 0.000000 
#    z 0.000000 0.000000 1.833790 
# 
# From -- ./inp_files/13117.got.cif
#   From: 2010.05.17/outbox.cif.g08.bks.cpg/sg49_7_cif.got.tgz:13117.got - 2010.06.03 21:02:19.
