data_PCOD9394348
_publ_section_title
;
Structure prediction by ZEFSAII (Michael W. Deem and Ramdas Pophale) SiO2 
 PCOD9394348
Probable space group: P C C M
;
_chemical_formula_sum "Si O2"
_cell_formula_units_Z 56
_cell_length_a 14.112572
_cell_length_b 24.499015
_cell_length_c 8.932410
_cell_angle_alpha 90.000000
_cell_angle_beta 90.000000
_cell_angle_gamma 90.000000
_cell_volume 3088.328173
_symmetry_space_group_name_H-M "P C C M"
_symmetry_group_IT_number 49
_symmetry_cell_setting 'orthorhombic'
loop_
_space_group_symop_operation_xyz
x,y,z
-x,-y,z
x,-y,1/2-z
-x,y,1/2-z
-x,-y,-z
x,y,-z
-x,y,1/2+z
x,-y,1/2+z
loop_
_atom_site_type_symbol
_atom_site_label
_atom_site_fract_x
_atom_site_fract_y
_atom_site_fract_z
Si Si1 0.103817 0.059338 0.318337
Si Si2 0.403089 0.784403 0.677757
Si Si3 0.204111 0.373752 0.743065
Si Si4 0.201610 0.838059 0.680343
Si Si5 0.104462 0.732789 0.183848
Si Si6 0.920238 0.573221 0.500000
Si Si7 0.856780 0.550937 0.000000
Si Si8 0.406417 0.334358 0.326759
O O1 0.100523 0.058139 0.500000
O O2 0.174844 0.104658 0.254817
O O3 0.000000 0.072990 0.250000
O O4 0.127521 0.000000 0.250000
O O5 0.500000 0.806351 0.750000
O O6 0.414699 0.779065 0.500000
O O7 0.310561 0.820635 0.705944
O O8 0.389454 0.723990 0.747319
O O9 0.172657 0.311138 0.767110
O O10 0.119948 0.393350 0.636549
O O11 0.197191 0.420623 0.865143
O O12 0.311038 0.369590 0.685299
O O13 0.184106 0.838266 0.500000
O O14 0.138693 0.792104 0.762810
O O15 0.000000 0.723452 0.250000
O O16 0.109284 0.728016 0.000000
O O17 0.869533 0.513986 0.500000
O O18 0.032757 0.569232 0.500000
O O19 0.500000 0.358954 0.250000
O O20 0.426576 0.324267 0.500000
#
# Coordination Sequence:
#
# PCOD9394348 Si02
#       8
#     8   8   8   8   8   4   4   8
#     4  11  22  39  62  87 121 165 212 254 295 347
#     4  10  21  36  58  85 119 155 196 243 298 361
#     4  12  24  39  63  89 120 155 197 250 303 362
#     4  11  23  38  58  87 123 159 201 247 298 360
#     4  12  24  37  55  83 122 158 192 240 303 364
#     4  11  22  48  59  95 115 161 201 247 293 356
#     4  11  26  38  71  85 123 155 205 243 295 364
#     4  11  22  38  61  87 119 153 199 247 302 367
#
# _framework density 18.132788000000001
#
# number of rings (size 3 to 8) (size 9 to 14) (size 15 to 20)
#    0.000    0.857    2.857    6.429    4.000    2.857 
#    0.000    0.000    0.000    3.000    0.000    3.000 
#    0.000    0.000    0.000    0.000    0.000    0.000 
#
# Total GULP energy -312417.782032 kJ/mol
# GULP energy per Si atom -5578.888965 kJ/mol
# Density = 1.809152 g / cm^3
# Si number density = 18.132788 Si / 1000 Ang^3
#
#
#
# Elastic Constant Matrix: (Units=GPa)
#
#
# Indices 1 2 3 4 5 6 
#
# 1 104.4545 34.6826 25.5092 0.0000 0.0000 0.0000
# 2 34.6826 68.8956 23.7222 0.0000 0.0000 0.0000
# 3 25.5092 23.7222 91.5571 0.0000 0.0000 0.0000
# 4 0.0000 0.0000 0.0000 41.0253 0.0000 0.0000
# 5 0.0000 0.0000 0.0000 0.0000 18.8662 0.0000
# 6 0.0000 0.0000 0.0000 0.0000 0.0000 21.9651
#
#
#
# Elastic Compliance Matrix: (Units=1/GPa)
#
#
# Indices 1 2 3 4 5 6 
#
# 1 0.011794 -0.005277 -0.001919 0.000000 0.000000 0.000000
# 2 -0.005277 0.018297 -0.003271 0.000000 0.000000 0.000000
# 3 -0.001919 -0.003271 0.012304 0.000000 0.000000 0.000000
# 4 0.000000 0.000000 0.000000 0.024375 0.000000 0.000000
# 5 0.000000 0.000000 0.000000 0.000000 0.053005 0.000000
# 6 0.000000 0.000000 0.000000 0.000000 0.000000 0.045527
#
#
# Mechanical properties :
#
#
# Convention : Reuss Voigt Hill
#
# Bulk Modulus (GPa) = 46.59103 48.08167 47.33635
# Shear Modulus (GPa) = 25.85462 28.43753 27.14607
#
# Velocity S-wave (km/s) = 3.78014 3.96446 3.87340
# Velocity P-wave (km/s) = 6.69348 6.89420 6.79458
#
# Compressibility (1/GPa) = 0.02146336
#
# Stress axis : x y z
#
# Youngs Moduli (GPa) = 84.78759 54.65340 81.27321
#
# Poissons Ratio (x) = 0.28838 0.15595
# Poissons Ratio (y) = 0.44739 0.26581
# Poissons Ratio (z) = 0.16270 0.17875
#
# Static dielectric constant tensor:
#      x y z
#    x 1.624370 0.000000 0.000000 
#    y 0.000000 1.605750 0.000000 
#    z 0.000000 0.000000 1.609320 
# 
# From -- ./inp_files/4130.got.cif
#   From: 2010.05.17/outbox.cif.g08.bks.cpg/sg49_3_cif.got.tgz:4130.got - 2010.06.03 21:02:19.
