data_PCOD9394422
_publ_section_title
;
Structure prediction by ZEFSAII (Michael W. Deem and Ramdas Pophale) SiO2 
 PCOD9394422
Probable space group: P C C M
;
_chemical_formula_sum "Si O2"
_cell_formula_units_Z 64
_cell_length_a 20.311893
_cell_length_b 8.542707
_cell_length_c 14.275868
_cell_angle_alpha 90.000000
_cell_angle_beta 90.000000
_cell_angle_gamma 90.000000
_cell_volume 2477.127923
_symmetry_space_group_name_H-M "P C C M"
_symmetry_group_IT_number 49
_symmetry_cell_setting 'orthorhombic'
loop_
_space_group_symop_operation_xyz
x,y,z
-x,-y,z
x,-y,1/2-z
-x,y,1/2-z
-x,-y,-z
x,y,-z
-x,y,1/2+z
x,-y,1/2+z
loop_
_atom_site_type_symbol
_atom_site_label
_atom_site_fract_x
_atom_site_fract_y
_atom_site_fract_z
Si Si1 0.518262 0.666591 0.641975
Si Si2 0.094695 0.300811 0.613809
Si Si3 0.283579 0.230669 0.113405
Si Si4 0.844707 0.372213 0.614679
Si Si5 0.787171 0.905613 0.614336
Si Si6 0.037316 0.840801 0.386477
Si Si7 0.342580 0.226029 0.603682
Si Si8 0.586674 0.911762 0.151768
O O1 0.500000 0.500000 0.599416
O O2 0.500000 0.664932 0.750000
O O3 0.596348 0.677938 0.639397
O O4 0.476076 0.819696 0.609600
O O5 0.096155 0.297765 0.500000
O O6 0.125341 0.463360 0.644000
O O7 0.141922 0.156881 0.643613
O O8 0.018750 0.284834 0.637832
O O9 0.232052 0.363856 0.139945
O O10 0.354734 0.215911 0.160593
O O11 0.239776 0.076653 0.137423
O O12 0.294488 0.234357 0.000000
O O13 0.845902 0.365386 0.500000
O O14 0.893056 0.230059 0.645820
O O15 0.787067 0.903008 0.500000
O O16 0.728368 0.792798 0.649623
O O17 0.044048 0.856868 0.500000
O O18 0.000000 0.000000 0.356367
O O19 0.329270 0.286459 0.500000
O O20 0.375211 0.051070 0.598340
O O21 0.571810 0.000000 0.250000
#
# Coordination Sequence:
#
# PCOD9394422 Si02
#       8
#     8   8   8   8   8   8   8   8
#     4  11  24  40  57  81 114 147 178 221 277 334
#     4   9  15  23  38  61  95 137 176 213 263 323
#     4   9  18  32  50  74 104 136 176 225 270 320
#     4   9  16  25  38  61  96 135 174 218 267 318
#     4   8  15  28  44  66  96 128 164 211 263 308
#     4   9  15  22  35  57  89 135 182 218 259 314
#     4  10  21  37  60  86 110 141 185 230 268 325
#     4  11  21  37  61  82 105 144 183 225 273 329
#
# _framework density 25.836372000000001
#
# number of rings (size 3 to 8) (size 9 to 14) (size 15 to 20)
#    0.000    2.500    1.250    2.625    0.000    7.250 
#    0.000    1.250    0.000    0.000    0.000    0.000 
#    0.000   12.500    0.000   14.250    0.000   19.500 
#
# Total GULP energy -357419.282494 kJ/mol
# GULP energy per Si atom -5584.676289 kJ/mol
# Density = 2.577757 g / cm^3
# Si number density = 25.836372 Si / 1000 Ang^3
#
#
#
# Elastic Constant Matrix: (Units=GPa)
#
#
# Indices 1 2 3 4 5 6 
#
# 1 119.0204 -5.6385 4.2603 0.0000 0.0000 0.0000
# 2 -5.6385 62.6167 -2.2509 0.0000 0.0000 0.0000
# 3 4.2603 -2.2509 78.4046 0.0000 0.0000 0.0000
# 4 0.0000 0.0000 0.0000 -12.6095 0.0000 0.0000
# 5 0.0000 0.0000 0.0000 0.0000 11.4575 0.0000
# 6 0.0000 0.0000 0.0000 0.0000 0.0000 28.8711
#
#
#
# Elastic Compliance Matrix: (Units=1/GPa)
#
#
# Indices 1 2 3 4 5 6 
#
# 1 0.008453 0.000745 -0.000438 0.000000 0.000000 0.000000
# 2 0.000745 0.016052 0.000420 0.000000 0.000000 0.000000
# 3 -0.000438 0.000420 0.012790 0.000000 0.000000 0.000000
# 4 0.000000 0.000000 0.000000 -0.079305 0.000000 0.000000
# 5 0.000000 0.000000 0.000000 0.000000 0.087279 0.000000
# 6 0.000000 0.000000 0.000000 0.000000 0.000000 0.034637
#
#
# Mechanical properties :
#
#
# Convention : Reuss Voigt Hill
#
# Bulk Modulus (GPa) = 25.80562 28.08706 26.94634
# Shear Modulus (GPa) = 54.72410 23.12187 38.92298
#
# Velocity S-wave (km/s) = 4.60728 2.99479 3.88560
# Velocity P-wave (km/s) = 6.18971 4.78049 5.53017
#
# Compressibility (1/GPa) = 0.03875125
#
# Stress axis : x y z
#
# Youngs Moduli (GPa) = 118.30248 62.29596 78.18472
#
# Poissons Ratio (x) = -0.04644 0.03424
# Poissons Ratio (y) = -0.08819 -0.03286
# Poissons Ratio (z) = 0.05181 -0.02619
#
# Static dielectric constant tensor:
#      x y z
#    x 2.035730 0.000000 0.000000 
#    y 0.000000 2.097240 0.000000 
#    z 0.000000 0.000000 2.117940 
# 
# From -- ./inp_files/18318.got.cif
#   From: 2010.05.17/outbox.cif.g08.bks.cpg/sg49_10_cif.got.tgz:18318.got - 2010.06.03 21:02:19.
