data_PCOD9394246
_publ_section_title
;
Structure prediction by ZEFSAII (Michael W. Deem and Ramdas Pophale) SiO2 
 PCOD9394246
Probable space group: P C C M
;
_chemical_formula_sum "Si O2"
_cell_formula_units_Z 48
_cell_length_a 15.313398
_cell_length_b 8.583134
_cell_length_c 17.379557
_cell_angle_alpha 90.000000
_cell_angle_beta 90.000000
_cell_angle_gamma 90.000000
_cell_volume 2284.315913
_symmetry_space_group_name_H-M "P C C M"
_symmetry_group_IT_number 49
_symmetry_cell_setting 'orthorhombic'
loop_
_space_group_symop_operation_xyz
x,y,z
-x,-y,z
x,-y,1/2-z
-x,y,1/2-z
-x,-y,-z
x,y,-z
-x,y,1/2+z
x,-y,1/2+z
loop_
_atom_site_type_symbol
_atom_site_label
_atom_site_fract_x
_atom_site_fract_y
_atom_site_fract_z
Si Si1 0.419121 0.380990 0.088085
Si Si2 0.979344 0.676407 0.840411
Si Si3 0.147761 0.197848 0.588285
Si Si4 0.823173 0.898851 0.174355
Si Si5 0.624817 0.168766 0.721817
Si Si6 0.711608 0.405712 0.174672
O O1 0.500000 0.500000 0.091884
O O2 0.427746 0.246512 0.152212
O O3 0.333774 0.478798 0.114513
O O4 0.411284 0.325254 0.000000
O O5 0.883650 0.751748 0.845021
O O6 0.000000 0.500000 0.866827
O O7 0.000000 0.680244 0.750000
O O8 0.048224 0.782303 0.885339
O O9 0.158414 0.239352 0.500000
O O10 0.209451 0.308564 0.639403
O O11 0.175061 0.021641 0.605515
O O12 0.724509 0.852193 0.192251
O O13 0.854383 0.000000 0.250000
O O14 0.637215 0.289061 0.792190
O O15 0.595804 0.000000 0.750000
O O16 0.742076 0.500000 0.250000
#
# Coordination Sequence:
#
# PCOD9394246 Si02
#       6
#     8   8   8   8   8   8
#     4  10  23  43  67  99 140 177 209 266 345 407
#     4  11  24  37  62  89 122 170 220 270 325 393
#     4  12  25  39  62  94 128 167 218 282 336 383
#     4  11  21  41  63  88 126 172 219 269 327 393
#     4  10  20  40  70  98 125 169 225 269 319 393
#     4  10  21  39  68  93 130 173 223 267 321 402
#
# _framework density 21.012855999999999
#
# number of rings (size 3 to 8) (size 9 to 14) (size 15 to 20)
#    0.000    1.333    5.000    1.000    7.000    5.333 
#    0.000    1.667    0.000    2.000    0.000    0.000 
#    0.000    0.000    0.000    0.000    0.000    0.000 
#
# Total GULP energy -268317.845412 kJ/mol
# GULP energy per Si atom -5589.955113 kJ/mol
# Density = 2.096503 g / cm^3
# Si number density = 21.012856 Si / 1000 Ang^3
#
#
#
# Elastic Constant Matrix: (Units=GPa)
#
#
# Indices 1 2 3 4 5 6 
#
# 1 96.5956 27.4118 26.2349 0.0000 0.0000 0.0000
# 2 27.4118 103.0722 32.9002 0.0000 0.0000 0.0000
# 3 26.2349 32.9002 108.7952 0.0000 0.0000 0.0000
# 4 0.0000 0.0000 0.0000 27.8114 0.0000 0.0000
# 5 0.0000 0.0000 0.0000 0.0000 66.4977 0.0000
# 6 0.0000 0.0000 0.0000 0.0000 0.0000 9.0287
#
#
#
# Elastic Compliance Matrix: (Units=1/GPa)
#
#
# Indices 1 2 3 4 5 6 
#
# 1 0.011602 -0.002427 -0.002064 0.000000 0.000000 0.000000
# 2 -0.002427 0.011246 -0.002816 0.000000 0.000000 0.000000
# 3 -0.002064 -0.002816 0.010541 0.000000 0.000000 0.000000
# 4 0.000000 0.000000 0.000000 0.035957 0.000000 0.000000
# 5 0.000000 0.000000 0.000000 0.000000 0.015038 0.000000
# 6 0.000000 0.000000 0.000000 0.000000 0.000000 0.110758
#
#
# Mechanical properties :
#
#
# Convention : Reuss Voigt Hill
#
# Bulk Modulus (GPa) = 53.25920 53.50630 53.38275
# Shear Modulus (GPa) = 23.14683 35.46196 29.30439
#
# Velocity S-wave (km/s) = 3.32257 4.11254 3.73848
# Velocity P-wave (km/s) = 6.33406 6.93322 6.64040
#
# Compressibility (1/GPa) = 0.01877610
#
# Stress axis : x y z
#
# Youngs Moduli (GPa) = 86.19509 88.92000 94.87015
#
# Poissons Ratio (x) = 0.21578 0.19579
# Poissons Ratio (y) = 0.20917 0.26713
# Poissons Ratio (z) = 0.17789 0.25037
#
# Static dielectric constant tensor:
#      x y z
#    x 1.759940 0.000000 0.000000 
#    y 0.000000 1.813650 0.000000 
#    z 0.000000 0.000000 1.743060 
# 
# From -- ./inp_files/16293.got.cif
#   From: 2010.05.17/outbox.cif.g08.bks.cpg/sg49_9_cif.got.tgz:16293.got - 2010.06.03 21:02:19.
