data_PCOD9394741
_publ_section_title
;
Structure prediction by ZEFSAII (Michael W. Deem and Ramdas Pophale) SiO2 
 PCOD9394741
Probable space group: P C C M
;
_chemical_formula_sum "Si O2"
_cell_formula_units_Z 44
_cell_length_a 16.176082
_cell_length_b 13.290734
_cell_length_c 10.237225
_cell_angle_alpha 90.000000
_cell_angle_beta 90.000000
_cell_angle_gamma 90.000000
_cell_volume 2200.921508
_symmetry_space_group_name_H-M "P C C M"
_symmetry_group_IT_number 49
_symmetry_cell_setting 'orthorhombic'
loop_
_space_group_symop_operation_xyz
x,y,z
-x,-y,z
x,-y,1/2-z
-x,y,1/2-z
-x,-y,-z
x,y,-z
-x,y,1/2+z
x,-y,1/2+z
loop_
_atom_site_type_symbol
_atom_site_label
_atom_site_fract_x
_atom_site_fract_y
_atom_site_fract_z
Si Si1 0.819165 0.191764 0.754606
Si Si2 0.928549 0.140070 0.000000
Si Si3 0.601538 0.583879 0.856589
Si Si4 0.647927 0.903921 0.652927
Si Si5 0.799446 0.588410 0.849997
Si Si6 0.886586 0.094741 0.500000
Si Si7 0.500000 0.233440 0.750000
O O1 0.884831 0.179776 0.870223
O O2 0.728743 0.162548 0.810291
O O3 0.828128 0.303833 0.699879
O O4 0.837461 0.120067 0.631392
O O5 0.026772 0.154970 0.000000
O O6 0.909873 0.021405 0.000000
O O7 0.582437 0.500000 0.750000
O O8 0.699817 0.598949 0.848305
O O9 0.554222 0.688612 0.835602
O O10 0.583841 0.543484 0.000000
O O11 0.653470 0.933709 0.500000
O O12 0.565608 0.836961 0.675350
O O13 0.645272 0.000000 0.750000
O O14 0.822725 0.500000 0.750000
O O15 0.824472 0.568147 0.000000
#
# Coordination Sequence:
#
# PCOD9394741 Si02
#       7
#     8   4   8   8   8   4   4
#     4  12  23  43  70 101 137 179 223 276 340 405
#     4  11  24  42  71 108 138 175 217 280 333 407
#     4  10  22  40  61  89 125 167 219 279 335 386
#     4  12  28  45  66  95 132 183 230 275 330 397
#     4  10  22  41  67  97 130 174 226 280 335 400
#     4  11  24  44  71 104 142 173 221 270 343 403
#     4  12  24  42  64  92 130 174 226 282 326 388
#
# _framework density 19.991624999999999
#
# number of rings (size 3 to 8) (size 9 to 14) (size 15 to 20)
#    0.000    0.909    3.636    3.273    2.545    5.818 
#    0.000    0.000    0.000    3.273    0.000    0.000 
#    0.000    0.000    0.000    0.000    0.000    0.000 
#
# Total GULP energy -245926.104893 kJ/mol
# GULP energy per Si atom -5589.229657 kJ/mol
# Density = 1.994612 g / cm^3
# Si number density = 19.991625 Si / 1000 Ang^3
#
#
#
# Elastic Constant Matrix: (Units=GPa)
#
#
# Indices 1 2 3 4 5 6 
#
# 1 59.0647 11.2438 37.8376 0.0000 0.0000 0.0000
# 2 11.2438 101.0878 60.6039 0.0000 0.0000 0.0000
# 3 37.8376 60.6039 192.3856 0.0000 0.0000 0.0000
# 4 0.0000 0.0000 0.0000 35.8232 0.0000 0.0000
# 5 0.0000 0.0000 0.0000 0.0000 23.9857 0.0000
# 6 0.0000 0.0000 0.0000 0.0000 0.0000 24.4755
#
#
#
# Elastic Compliance Matrix: (Units=1/GPa)
#
#
# Indices 1 2 3 4 5 6 
#
# 1 0.019373 0.000160 -0.003861 0.000000 0.000000 0.000000
# 2 0.000160 0.012197 -0.003874 0.000000 0.000000 0.000000
# 3 -0.003861 -0.003874 0.007177 0.000000 0.000000 0.000000
# 4 0.000000 0.000000 0.000000 0.027915 0.000000 0.000000
# 5 0.000000 0.000000 0.000000 0.000000 0.041692 0.000000
# 6 0.000000 0.000000 0.000000 0.000000 0.000000 0.040857
#
#
# Mechanical properties :
#
#
# Convention : Reuss Voigt Hill
#
# Bulk Modulus (GPa) = 42.37540 63.54541 52.96041
# Shear Modulus (GPa) = 29.03154 33.04705 31.03930
#
# Velocity S-wave (km/s) = 3.81489 4.07018 3.94460
# Velocity P-wave (km/s) = 6.37551 7.34462 6.87716
#
# Compressibility (1/GPa) = 0.02359860
#
# Stress axis : x y z
#
# Youngs Moduli (GPa) = 51.61742 81.98797 139.32643
#
# Poissons Ratio (x) = -0.01309 0.53787
# Poissons Ratio (y) = -0.00824 0.53969
# Poissons Ratio (z) = 0.19927 0.31759
#
# Static dielectric constant tensor:
#      x y z
#    x 1.717720 0.000000 0.000000 
#    y 0.000000 1.685800 0.000000 
#    z 0.000000 0.000000 1.680120 
# 
# From -- ./inp_files/4851.got.cif
#   From: 2010.05.17/outbox.cif.g08.bks.cpg/sg49_3_cif.got.tgz:4851.got - 2010.06.03 21:02:19.
