data_PCOD9394184
_publ_section_title
;
Structure prediction by ZEFSAII (Michael W. Deem and Ramdas Pophale) SiO2 
 PCOD9394184
Probable space group: P C C M
;
_chemical_formula_sum "Si O2"
_cell_formula_units_Z 48
_cell_length_a 19.221859
_cell_length_b 9.416642
_cell_length_c 14.092822
_cell_angle_alpha 90.000000
_cell_angle_beta 90.000000
_cell_angle_gamma 90.000000
_cell_volume 2550.876387
_symmetry_space_group_name_H-M "P C C M"
_symmetry_group_IT_number 49
_symmetry_cell_setting 'orthorhombic'
loop_
_space_group_symop_operation_xyz
x,y,z
-x,-y,z
x,-y,1/2-z
-x,y,1/2-z
-x,-y,-z
x,y,-z
-x,y,1/2+z
x,-y,1/2+z
loop_
_atom_site_type_symbol
_atom_site_label
_atom_site_fract_x
_atom_site_fract_y
_atom_site_fract_z
Si Si1 0.046524 0.766665 0.000000
Si Si2 0.571115 0.087454 0.110539
Si Si3 0.927965 0.340795 0.792296
Si Si4 0.103951 0.088086 0.000000
Si Si5 0.331015 0.822482 0.609110
Si Si6 0.582241 0.657808 0.245505
Si Si7 0.184815 0.852294 0.305421
O O1 0.064936 0.677821 0.905504
O O2 0.965781 0.815740 0.000000
O O3 0.085357 0.919969 0.000000
O O4 0.592583 0.222405 0.173647
O O5 0.500000 0.000000 0.139239
O O6 0.635159 0.978168 0.116964
O O7 0.560410 0.127118 0.000000
O O8 0.924019 0.500000 0.750000
O O9 0.861679 0.256024 0.754535
O O10 0.000000 0.277006 0.750000
O O11 0.147224 0.122937 0.906063
O O12 0.313610 0.795793 0.500000
O O13 0.391312 0.721383 0.647131
O O14 0.263164 0.804217 0.673152
O O15 0.613587 0.500000 0.250000
O O16 0.500000 0.643166 0.250000
O O17 0.186809 0.000000 0.250000
#
# Coordination Sequence:
#
# PCOD9394184 Si02
#       7
#     4   8   8   4   8   8   8
#     4  11  22  42  67  98 131 164 222 277 317 381
#     4  10  20  38  64  92 119 158 209 256 306 369
#     4  11  25  41  65  97 133 175 216 268 325 385
#     4  11  22  37  70  99 125 164 213 272 327 375
#     4  11  24  41  65  93 125 165 212 264 318 382
#     4  11  23  38  62  93 127 164 204 256 317 379
#     4  12  23  41  66  96 128 167 217 266 325 388
#
# _framework density 18.817062
#
# number of rings (size 3 to 8) (size 9 to 14) (size 15 to 20)
#    0.000    1.000    5.833    1.500    0.000    3.667 
#    0.000    1.667    0.000    0.000    0.000    0.000 
#    0.000    0.000    0.000    0.000    0.000    0.000 
#
# Total GULP energy -267866.406245 kJ/mol
# GULP energy per Si atom -5580.550130 kJ/mol
# Density = 1.877423 g / cm^3
# Si number density = 18.817062 Si / 1000 Ang^3
#
#
#
# Elastic Constant Matrix: (Units=GPa)
#
#
# Indices 1 2 3 4 5 6 
#
# 1 94.8398 13.2435 31.1436 0.0000 0.0000 0.0000
# 2 13.2435 94.1217 43.8205 0.0000 0.0000 0.0000
# 3 31.1436 43.8205 133.1510 0.0000 0.0000 0.0000
# 4 0.0000 0.0000 0.0000 -7.7458 0.0000 0.0000
# 5 0.0000 0.0000 0.0000 0.0000 35.4853 0.0000
# 6 0.0000 0.0000 0.0000 0.0000 0.0000 0.7600
#
#
#
# Elastic Compliance Matrix: (Units=1/GPa)
#
#
# Indices 1 2 3 4 5 6 
#
# 1 0.011436 -0.000430 -0.002533 0.000000 0.000000 0.000000
# 2 -0.000430 0.012563 -0.004034 0.000000 0.000000 0.000000
# 3 -0.002533 -0.004034 0.009430 0.000000 0.000000 0.000000
# 4 0.000000 0.000000 0.000000 -0.129101 0.000000 0.000000
# 5 0.000000 0.000000 0.000000 0.000000 0.028181 0.000000
# 6 0.000000 0.000000 0.000000 0.000000 0.000000 1.315758
#
#
# Mechanical properties :
#
#
# Convention : Reuss Voigt Hill
#
# Bulk Modulus (GPa) = 51.45271 55.39197 53.42234
# Shear Modulus (GPa) = 3.94092 21.29355 12.61724
#
# Velocity S-wave (km/s) = 1.44875 3.36759 2.59225
# Velocity P-wave (km/s) = 5.49559 6.67996 6.11651
#
# Compressibility (1/GPa) = 0.01943532
#
# Stress axis : x y z
#
# Youngs Moduli (GPa) = 87.44293 79.59784 106.03914
#
# Poissons Ratio (x) = 0.03420 0.26865
# Poissons Ratio (y) = 0.03757 0.42777
# Poissons Ratio (z) = 0.22153 0.32111
#
# Static dielectric constant tensor:
#      x y z
#    x 1.657970 0.000000 0.000000 
#    y 0.000000 1.674330 0.000000 
#    z 0.000000 0.000000 1.656650 
# 
# From -- ./inp_files/11863.got.cif
#   From: 2010.05.17/outbox.cif.g08.bks.cpg/sg49_6_cif.got.tgz:11863.got - 2010.06.03 21:02:19.
