data_PCOD9394253
_publ_section_title
;
Structure prediction by ZEFSAII (Michael W. Deem and Ramdas Pophale) SiO2 
 PCOD9394253
Probable space group: P C C M
;
_chemical_formula_sum "Si O2"
_cell_formula_units_Z 48
_cell_length_a 9.988859
_cell_length_b 13.751265
_cell_length_c 15.278145
_cell_angle_alpha 90.000000
_cell_angle_beta 90.000000
_cell_angle_gamma 90.000000
_cell_volume 2098.597551
_symmetry_space_group_name_H-M "P C C M"
_symmetry_group_IT_number 49
_symmetry_cell_setting 'orthorhombic'
loop_
_space_group_symop_operation_xyz
x,y,z
-x,-y,z
x,-y,1/2-z
-x,y,1/2-z
-x,-y,-z
x,y,-z
-x,y,1/2+z
x,-y,1/2+z
loop_
_atom_site_type_symbol
_atom_site_label
_atom_site_fract_x
_atom_site_fract_y
_atom_site_fract_z
Si Si1 0.949951 0.192329 0.603389
Si Si2 0.504683 0.756418 0.349553
Si Si3 0.627554 0.563820 0.899671
Si Si4 0.691011 0.924429 0.893292
Si Si5 0.759423 0.860699 0.605213
Si Si6 0.920144 0.587822 0.842237
O O1 0.953641 0.170600 0.500000
O O2 0.092968 0.160503 0.640804
O O3 0.824452 0.131583 0.637197
O O4 0.928967 0.306766 0.614608
O O5 0.500000 0.724293 0.250000
O O6 0.425033 0.674670 0.401608
O O7 0.431051 0.859632 0.360464
O O8 0.657482 0.774066 0.375219
O O9 0.500000 0.500000 0.869689
O O10 0.762941 0.560035 0.842800
O O11 0.660150 0.533852 0.000000
O O12 0.702640 0.035644 0.863907
O O13 0.682427 0.923635 0.000000
O O14 0.767736 0.868119 0.500000
O O15 0.000000 0.500000 0.888220
O O16 0.000000 0.598353 0.750000
#
# Coordination Sequence:
#
# PCOD9394253 Si02
#       6
#     8   8   8   8   8   8
#     4  10  21  39  67  97 130 171 223 278 330 397
#     4  12  26  40  63  94 136 176 220 282 343 404
#     4  11  26  49  76 102 133 180 236 283 337 413
#     4  10  20  41  65  91 130 177 229 281 334 397
#     4  10  22  38  64  97 129 173 228 280 333 401
#     4  11  26  44  69 100 139 177 215 276 345 413
#
# _framework density 22.872419000000001
#
# number of rings (size 3 to 8) (size 9 to 14) (size 15 to 20)
#    0.000    1.333    1.667    3.000    4.667    7.667 
#    0.000    0.000    0.000    3.000    0.000    0.000 
#    0.000    0.000    0.000    0.000    0.000    0.000 
#
# Total GULP energy -268374.811798 kJ/mol
# GULP energy per Si atom -5591.141912 kJ/mol
# Density = 2.282036 g / cm^3
# Si number density = 22.872419 Si / 1000 Ang^3
#
#
#
# Elastic Constant Matrix: (Units=GPa)
#
#
# Indices 1 2 3 4 5 6 
#
# 1 172.9296 38.4832 17.5235 0.0000 0.0000 0.0000
# 2 38.4832 88.6570 -9.1147 0.0000 0.0000 0.0000
# 3 17.5235 -9.1147 53.3329 0.0000 0.0000 0.0000
# 4 0.0000 0.0000 0.0000 58.4364 0.0000 0.0000
# 5 0.0000 0.0000 0.0000 0.0000 11.8313 0.0000
# 6 0.0000 0.0000 0.0000 0.0000 0.0000 45.7461
#
#
#
# Elastic Compliance Matrix: (Units=1/GPa)
#
#
# Indices 1 2 3 4 5 6 
#
# 1 0.006783 -0.003230 -0.002781 0.000000 0.000000 0.000000
# 2 -0.003230 0.013019 0.003286 0.000000 0.000000 0.000000
# 3 -0.002781 0.003286 0.020226 0.000000 0.000000 0.000000
# 4 0.000000 0.000000 0.000000 0.017113 0.000000 0.000000
# 5 0.000000 0.000000 0.000000 0.000000 0.084521 0.000000
# 6 0.000000 0.000000 0.000000 0.000000 0.000000 0.021860
#
#
# Mechanical properties :
#
#
# Convention : Reuss Voigt Hill
#
# Bulk Modulus (GPa) = 28.91940 45.41150 37.16545
# Shear Modulus (GPa) = 27.70117 41.07128 34.38622
#
# Velocity S-wave (km/s) = 3.48389 4.24213 3.88157
# Velocity P-wave (km/s) = 5.37164 6.62507 6.03101
#
# Compressibility (1/GPa) = 0.03457886
#
# Stress axis : x y z
#
# Youngs Moduli (GPa) = 147.41941 76.80794 49.44243
#
# Poissons Ratio (x) = 0.24812 0.13749
# Poissons Ratio (y) = 0.47622 -0.16249
# Poissons Ratio (z) = 0.40996 -0.25243
#
# Static dielectric constant tensor:
#      x y z
#    x 1.850230 0.000000 0.000000 
#    y 0.000000 1.828090 0.000000 
#    z 0.000000 0.000000 1.884510 
# 
# From -- ./inp_files/16270.got.cif
#   From: 2010.05.17/outbox.cif.g08.bks.cpg/sg49_9_cif.got.tgz:16270.got - 2010.06.03 21:02:19.
