data_PCOD9394317
_publ_section_title
;
Structure prediction by ZEFSAII (Michael W. Deem and Ramdas Pophale) SiO2 
 PCOD9394317
Probable space group: P C C M
;
_chemical_formula_sum "Si O2"
_cell_formula_units_Z 56
_cell_length_a 32.986123
_cell_length_b 5.172781
_cell_length_c 17.264670
_cell_angle_alpha 90.000000
_cell_angle_beta 90.000000
_cell_angle_gamma 90.000000
_cell_volume 2945.870475
_symmetry_space_group_name_H-M "P C C M"
_symmetry_group_IT_number 49
_symmetry_cell_setting 'orthorhombic'
loop_
_space_group_symop_operation_xyz
x,y,z
-x,-y,z
x,-y,1/2-z
-x,y,1/2-z
-x,-y,-z
x,y,-z
-x,y,1/2+z
x,-y,1/2+z
loop_
_atom_site_type_symbol
_atom_site_label
_atom_site_fract_x
_atom_site_fract_y
_atom_site_fract_z
Si Si1 0.303935 0.750830 0.804137
Si Si2 0.525914 0.750179 0.593026
Si Si3 0.091403 0.973371 0.658401
Si Si4 0.187331 0.057987 0.158469
Si Si5 0.603899 0.246065 0.803634
Si Si6 0.769583 0.429055 0.908522
Si Si7 0.046856 0.477118 0.592750
O O1 0.304329 0.500000 0.750000
O O2 0.349967 0.786755 0.833795
O O3 0.272012 0.676856 0.870278
O O4 0.293648 0.000000 0.750000
O O5 0.500000 0.500000 0.615503
O O6 0.529909 0.754393 0.500000
O O7 0.569821 0.741371 0.631356
O O8 0.500000 0.000000 0.616948
O O9 0.139192 0.922548 0.645880
O O10 0.068636 0.728723 0.624622
O O11 0.085507 0.000000 0.750000
O O12 0.071737 0.228061 0.621083
O O13 0.212236 0.313341 0.132532
O O14 0.194324 0.000000 0.250000
O O15 0.200829 0.809781 0.109363
O O16 0.602252 0.500000 0.750000
O O17 0.595408 0.000000 0.750000
O O18 0.765452 0.477123 0.000000
O O19 0.047016 0.475442 0.500000
O O20 0.000000 0.500000 0.618631
#
# Coordination Sequence:
#
# PCOD9394317 Si02
#       7
#     8   8   8   8   8   8   8
#     4  10  21  39  60  82 114 154 191 233 293 353
#     4  10  21  36  54  79 113 151 187 230 290 348
#     4  11  24  41  63  90 118 154 200 244 287 342
#     4  11  24  42  62  86 120 159 194 235 295 354
#     4  10  21  36  57  84 110 145 193 238 282 338
#     4  12  24  38  61  92 118 149 197 244 288 344
#     4  11  24  41  62  89 122 159 195 237 295 351
#
# _framework density 19.009661000000001
#
# number of rings (size 3 to 8) (size 9 to 14) (size 15 to 20)
#    0.000    1.286    0.000    6.000    0.000   10.857 
#    0.000    0.000    0.000    8.571    0.000    0.000 
#    0.000    0.000    0.000    0.000    0.000    0.000 
#
# Total GULP energy -312900.779418 kJ/mol
# GULP energy per Si atom -5587.513918 kJ/mol
# Density = 1.896639 g / cm^3
# Si number density = 19.009661 Si / 1000 Ang^3
#
#
#
# Elastic Constant Matrix: (Units=GPa)
#
#
# Indices 1 2 3 4 5 6 
#
# 1 176.0392 74.1394 83.8513 0.0000 0.0000 0.0000
# 2 74.1394 178.8553 52.1581 0.0000 0.0000 0.0000
# 3 83.8513 52.1581 86.3184 0.0000 0.0000 0.0000
# 4 0.0000 0.0000 0.0000 21.7001 0.0000 0.0000
# 5 0.0000 0.0000 0.0000 0.0000 14.5564 0.0000
# 6 0.0000 0.0000 0.0000 0.0000 0.0000 38.3072
#
#
#
# Elastic Compliance Matrix: (Units=1/GPa)
#
#
# Indices 1 2 3 4 5 6 
#
# 1 0.011008 -0.001754 -0.009634 0.000000 0.000000 0.000000
# 2 -0.001754 0.007066 -0.002566 0.000000 0.000000 0.000000
# 3 -0.009634 -0.002566 0.022494 0.000000 0.000000 0.000000
# 4 0.000000 0.000000 0.000000 0.046083 0.000000 0.000000
# 5 0.000000 0.000000 0.000000 0.000000 0.068698 0.000000
# 6 0.000000 0.000000 0.000000 0.000000 0.000000 0.026105
#
#
# Mechanical properties :
#
#
# Convention : Reuss Voigt Hill
#
# Bulk Modulus (GPa) = 78.98234 95.72341 87.35287
# Shear Modulus (GPa) = 23.41028 30.31700 26.86364
#
# Velocity S-wave (km/s) = 3.51307 3.99785 3.76328
# Velocity P-wave (km/s) = 7.62196 8.47201 8.05820
#
# Compressibility (1/GPa) = 0.01266106
#
# Stress axis : x y z
#
# Youngs Moduli (GPa) = 90.84514 141.51378 44.45637
#
# Poissons Ratio (x) = 0.24816 0.42827
# Poissons Ratio (y) = 0.15931 0.11409
# Poissons Ratio (z) = 0.87516 0.36319
#
# Static dielectric constant tensor:
#      x y z
#    x 1.677990 0.000000 0.000000 
#    y 0.000000 1.604820 0.000000 
#    z 0.000000 0.000000 1.632300 
# 
# From -- ./inp_files/14622.got.cif
#   From: 2010.05.17/outbox.cif.g08.bks.cpg/sg49_8_cif.got.tgz:14622.got - 2010.06.03 21:02:19.
