data_PCOD9394294
_publ_section_title
;
Structure prediction by ZEFSAII (Michael W. Deem and Ramdas Pophale) SiO2 
 PCOD9394294
Probable space group: P C C M
;
_chemical_formula_sum "Si O2"
_cell_formula_units_Z 64
_cell_length_a 26.541080
_cell_length_b 9.308915
_cell_length_c 14.909155
_cell_angle_alpha 90.000000
_cell_angle_beta 90.000000
_cell_angle_gamma 90.000000
_cell_volume 3683.584914
_symmetry_space_group_name_H-M "P C C M"
_symmetry_group_IT_number 49
_symmetry_cell_setting 'orthorhombic'
loop_
_space_group_symop_operation_xyz
x,y,z
-x,-y,z
x,-y,1/2-z
-x,y,1/2-z
-x,-y,-z
x,y,-z
-x,y,1/2+z
x,-y,1/2+z
loop_
_atom_site_type_symbol
_atom_site_label
_atom_site_fract_x
_atom_site_fract_y
_atom_site_fract_z
Si Si1 0.818630 0.827090 0.750000
Si Si2 0.372679 0.327506 0.105846
Si Si3 0.000000 0.663725 0.642425
Si Si4 0.101328 0.166075 0.397455
Si Si5 0.559971 0.170510 0.250000
Si Si6 0.898672 0.166075 0.602545
Si Si7 0.627321 0.327506 0.105846
Si Si8 0.287476 0.329453 0.750000
O O1 0.853330 0.785170 0.665578
O O2 0.853330 0.785170 0.834422
O O3 0.764577 0.754486 0.750000
O O4 0.812575 0.000000 0.750000
O O5 0.415324 0.244481 0.162296
O O6 0.381145 0.500000 0.112598
O O7 0.321544 0.296755 0.162081
O O8 0.370355 0.290821 0.000000
O O9 0.949495 0.744077 0.612934
O O10 0.000000 0.500000 0.610381
O O11 0.000000 0.663510 0.750000
O O12 0.050505 0.744077 0.612934
O O13 0.117711 0.170700 0.500000
O O14 0.089596 1.000000 0.373453
O O15 0.500000 0.190166 0.250000
O O16 0.584676 0.244481 0.162296
O O17 0.571022 0.000000 0.250000
O O18 0.882289 0.170700 0.500000
O O19 0.678456 0.296755 0.162081
O O20 0.629645 0.290821 0.000000
O O21 0.277872 0.500000 0.750000
#
# Coordination Sequence:
#
# PCOD9394294 Si02
#       8
#     8   8   8   8   8   8   8   8
#     4  10  21  36  53  76 106 136 171 215 259 309
#     4   9  19  37  59  81 107 145 191 231 269 320
#     4  11  22  35  54  79 105 132 165 208 259 311
#     4  10  21  37  56  76 100 135 174 208 251 310
#     4  10  21  35  52  81 120 153 182 224 277 325
#     4  10  21  37  56  76 100 135 174 208 251 310
#     4   9  19  37  59  81 107 145 191 231 269 320
#     4   9  19  35  55  79 107 137 175 224 273 318
#
# _framework density 17.374379000000001
#
# number of rings (size 3 to 8) (size 9 to 14) (size 15 to 20)
#    0.000    2.250    1.250    1.875    0.000    8.500 
#    0.000    2.500    0.000    0.000    0.000    0.000 
#    0.000    0.000    0.000    0.000    0.000    0.000 
#
# Total GULP energy -357005.745748 kJ/mol
# GULP energy per Si atom -5578.214777 kJ/mol
# Density = 1.733483 g / cm^3
# Si number density = 17.374379 Si / 1000 Ang^3
#
#
#
# Elastic Constant Matrix: (Units=GPa)
#
#
# Indices 1 2 3 4 5 6 
#
# 1 158.0433 76.0335 81.4991 0.0000 0.0000 0.0000
# 2 76.0335 65.8862 56.7561 0.0000 0.0000 0.0000
# 3 81.4991 56.7561 157.2602 0.0000 0.0000 0.0000
# 4 0.0000 0.0000 0.0000 16.2589 0.0000 0.0000
# 5 0.0000 0.0000 0.0000 0.0000 25.5033 0.0000
# 6 0.0000 0.0000 0.0000 0.0000 0.0000 46.8434
#
#
#
# Elastic Compliance Matrix: (Units=1/GPa)
#
#
# Indices 1 2 3 4 5 6 
#
# 1 0.014720 -0.015114 -0.002174 0.000000 0.000000 0.000000
# 2 -0.015114 0.037545 -0.005717 0.000000 0.000000 0.000000
# 3 -0.002174 -0.005717 0.009549 0.000000 0.000000 0.000000
# 4 0.000000 0.000000 0.000000 0.061505 0.000000 0.000000
# 5 0.000000 0.000000 0.000000 0.000000 0.039211 0.000000
# 6 0.000000 0.000000 0.000000 0.000000 0.000000 0.021348
#
#
# Mechanical properties :
#
#
# Convention : Reuss Voigt Hill
#
# Bulk Modulus (GPa) = 63.27931 89.97413 76.62672
# Shear Modulus (GPa) = 21.26271 28.84785 25.05528
#
# Velocity S-wave (km/s) = 3.50208 4.07918 3.80160
# Velocity P-wave (km/s) = 7.26999 8.60722 7.96671
#
# Compressibility (1/GPa) = 0.01580295
#
# Stress axis : x y z
#
# Youngs Moduli (GPa) = 67.93689 26.63501 104.72668
#
# Poissons Ratio (x) = 0.40257 0.22763
# Poissons Ratio (y) = 1.02681 0.59874
# Poissons Ratio (z) = 0.14766 0.15228
#
# Static dielectric constant tensor:
#      x y z
#    x 1.549850 0.000000 0.000000 
#    y 0.000000 1.594110 0.000000 
#    z 0.000000 0.000000 1.601480 
# 
# From -- ./inp_files/14526.got.cif
#   From: 2010.05.17/outbox.cif.g08.bks.cpg/sg49_8_cif.got.tgz:14526.got - 2010.06.03 21:02:19.
