data_PCOD9394962
_publ_section_title
;
Structure prediction by ZEFSAII (Michael W. Deem and Ramdas Pophale) SiO2 
 PCOD9394962
Probable space group: P C C M
;
_chemical_formula_sum "Si O2"
_cell_formula_units_Z 56
_cell_length_a 12.038076
_cell_length_b 12.357081
_cell_length_c 20.354187
_cell_angle_alpha 90.000000
_cell_angle_beta 90.000000
_cell_angle_gamma 90.000000
_cell_volume 3027.796862
_symmetry_space_group_name_H-M "P C C M"
_symmetry_group_IT_number 49
_symmetry_cell_setting 'orthorhombic'
loop_
_space_group_symop_operation_xyz
x,y,z
-x,-y,z
x,-y,1/2-z
-x,y,1/2-z
-x,-y,-z
x,y,-z
-x,y,1/2+z
x,-y,1/2+z
loop_
_atom_site_type_symbol
_atom_site_label
_atom_site_fract_x
_atom_site_fract_y
_atom_site_fract_z
Si Si1 0.367257 0.377576 0.249237
Si Si2 0.385882 0.186310 0.926550
Si Si3 0.365564 0.234956 0.377937
Si Si4 0.634804 0.001399 0.826175
Si Si5 0.238218 0.637456 0.381273
Si Si6 0.000698 0.369395 0.674397
Si Si7 0.805403 0.392408 0.073773
O O1 0.321917 0.500000 0.250000
O O2 0.500000 0.383939 0.250000
O O3 0.345495 0.301780 0.310662
O O4 0.312876 0.337684 0.182930
O O5 0.505887 0.229086 0.900604
O O6 0.298067 0.283383 0.931136
O O7 0.340735 0.099277 0.873728
O O8 0.402620 0.139268 0.000000
O O9 0.331348 0.112324 0.362002
O O10 0.292698 0.304821 0.427437
O O11 0.500000 0.000000 0.822315
O O12 0.674230 0.000000 0.750000
O O13 0.111968 0.663752 0.362270
O O14 0.238515 0.511150 0.403085
O O15 0.000000 0.500000 0.679236
O O16 0.000000 0.328576 0.750000
O O17 0.105734 0.349600 0.627318
O O18 0.852884 0.404983 0.000000
#
# Coordination Sequence:
#
# PCOD9394962 Si02
#       7
#     8   8   8   8   8   8   8
#     4  11  20  32  54  84 118 151 188 234 293 340
#     4  11  23  37  55  83 119 157 192 238 297 355
#     4  11  21  36  56  82 116 152 194 237 291 356
#     4   9  20  36  57  81 109 148 199 245 284 340
#     4  11  21  36  56  82 116 152 194 237 291 356
#     4   9  20  36  57  81 109 148 199 245 284 340
#     4  11  23  37  55  83 119 157 192 238 297 355
#
# _framework density 18.495296
#
# number of rings (size 3 to 8) (size 9 to 14) (size 15 to 20)
#    0.000    1.571    2.857    2.571    4.000    6.857 
#    0.000    1.429    0.000    0.857    0.000    4.000 
#    0.000    0.000    0.000    0.000    0.000    0.000 
#
# Total GULP energy -311950.473099 kJ/mol
# GULP energy per Si atom -5570.544162 kJ/mol
# Density = 1.845320 g / cm^3
# Si number density = 18.495296 Si / 1000 Ang^3
#
#
#
# Elastic Constant Matrix: (Units=GPa)
#
#
# Indices 1 2 3 4 5 6 
#
# 1 77.4710 42.4517 40.5992 0.0000 0.0000 0.0000
# 2 42.4517 100.0900 46.9443 0.0000 0.0000 0.0000
# 3 40.5992 46.9443 148.9250 0.0000 0.0000 0.0000
# 4 0.0000 0.0000 0.0000 34.1895 0.0000 0.0000
# 5 0.0000 0.0000 0.0000 0.0000 8.2962 0.0000
# 6 0.0000 0.0000 0.0000 0.0000 0.0000 8.2282
#
#
#
# Elastic Compliance Matrix: (Units=1/GPa)
#
#
# Indices 1 2 3 4 5 6 
#
# 1 0.017828 -0.006198 -0.002906 0.000000 0.000000 0.000000
# 2 -0.006198 0.013879 -0.002685 0.000000 0.000000 0.000000
# 3 -0.002906 -0.002685 0.008354 0.000000 0.000000 0.000000
# 4 0.000000 0.000000 0.000000 0.029249 0.000000 0.000000
# 5 0.000000 0.000000 0.000000 0.000000 0.120537 0.000000
# 6 0.000000 0.000000 0.000000 0.000000 0.000000 0.121533
#
#
# Mechanical properties :
#
#
# Convention : Reuss Voigt Hill
#
# Bulk Modulus (GPa) = 60.67642 65.16403 62.92023
# Shear Modulus (GPa) = 14.68633 23.24216 18.96424
#
# Velocity S-wave (km/s) = 2.82096 3.54878 3.20559
# Velocity P-wave (km/s) = 6.59455 7.21810 6.91336
#
# Compressibility (1/GPa) = 0.01648087
#
# Stress axis : x y z
#
# Youngs Moduli (GPa) = 56.09309 72.04946 119.70947
#
# Poissons Ratio (x) = 0.44657 0.34791
# Poissons Ratio (y) = 0.34767 0.32146
# Poissons Ratio (z) = 0.16302 0.19348
#
# Static dielectric constant tensor:
#      x y z
#    x 1.640680 0.000000 0.000000 
#    y 0.000000 1.652980 0.000000 
#    z 0.000000 0.000000 1.718270 
# 
# From -- ./inp_files/20521.got.cif
#   From: 2010.05.17/outbox.cif.g08.bks.cpg/sg49_11_cif.got.tgz:20521.got - 2010.06.03 21:02:19.
