data_PCOD9394107
_publ_section_title
;
Structure prediction by ZEFSAII (Michael W. Deem and Ramdas Pophale) SiO2 
 PCOD9394107
Probable space group: P C C M
;
_chemical_formula_sum "Si O2"
_cell_formula_units_Z 34
_cell_length_a 9.564515
_cell_length_b 20.827762
_cell_length_c 9.024015
_cell_angle_alpha 90.000000
_cell_angle_beta 90.000000
_cell_angle_gamma 90.000000
_cell_volume 1797.650945
_symmetry_space_group_name_H-M "P C C M"
_symmetry_group_IT_number 49
_symmetry_cell_setting 'orthorhombic'
loop_
_space_group_symop_operation_xyz
x,y,z
-x,-y,z
x,-y,1/2-z
-x,y,1/2-z
-x,-y,-z
x,y,-z
-x,y,1/2+z
x,-y,1/2+z
loop_
_atom_site_type_symbol
_atom_site_label
_atom_site_fract_x
_atom_site_fract_y
_atom_site_fract_z
Si Si1 0.500000 0.500000 0.750000
Si Si2 0.851052 0.695035 0.177989
Si Si3 0.224425 0.437506 0.667209
Si Si4 0.651065 0.812434 0.177403
Si Si5 0.151255 0.932251 0.678735
O O1 0.390725 0.454472 0.664578
O O2 0.804999 0.626028 0.240372
O O3 0.738882 0.749300 0.220117
O O4 0.000000 0.711193 0.250000
O O5 0.862660 0.693082 0.000000
O O6 0.163959 0.500000 0.750000
O O7 0.172198 0.430807 0.500000
O O8 0.500000 0.813547 0.250000
O O9 0.741461 0.875496 0.214434
O O10 0.635368 0.811157 0.000000
O O11 0.138591 0.937870 0.500000
O O12 0.000000 0.917593 0.750000
O O13 0.196116 0.000000 0.750000
#
# Coordination Sequence:
#
# PCOD9394107 Si02
#       5
#     2   8   8   8   8
#     4   8  22  36  60  84 122 152 194 232 298 348
#     4  11  24  42  62  87 118 156 200 246 298 356
#     4  10  21  37  60  87 117 153 194 241 292 349
#     4  10  24  41  60  88 121 157 198 244 296 354
#     4  10  20  37  61  90 121 157 200 242 291 349
#
# _framework density 18.913571999999998
#
# number of rings (size 3 to 8) (size 9 to 14) (size 15 to 20)
#    0.706    1.176    0.000    3.882    1.647    4.706 
#    0.000    4.706    0.000    0.000    0.000    0.000 
#    0.000    0.000    0.000    0.000    0.000    0.000 
#
# Total GULP energy -189741.947329 kJ/mol
# GULP energy per Si atom -5580.645510 kJ/mol
# Density = 1.887052 g / cm^3
# Si number density = 18.913572 Si / 1000 Ang^3
#
#
#
# Elastic Constant Matrix: (Units=GPa)
#
#
# Indices 1 2 3 4 5 6 
#
# 1 125.9137 104.9748 53.4814 0.0000 0.0000 0.0000
# 2 104.9748 186.6036 72.3334 0.0000 0.0000 0.0000
# 3 53.4814 72.3334 97.6525 0.0000 0.0000 0.0000
# 4 0.0000 0.0000 0.0000 31.0633 0.0000 0.0000
# 5 0.0000 0.0000 0.0000 0.0000 55.4971 0.0000
# 6 0.0000 0.0000 0.0000 0.0000 0.0000 32.4498
#
#
#
# Elastic Compliance Matrix: (Units=1/GPa)
#
#
# Indices 1 2 3 4 5 6 
#
# 1 0.015502 -0.007616 -0.002848 0.000000 0.000000 0.000000
# 2 -0.007616 0.011260 -0.004169 0.000000 0.000000 0.000000
# 3 -0.002848 -0.004169 0.014888 0.000000 0.000000 0.000000
# 4 0.000000 0.000000 0.000000 0.032192 0.000000 0.000000
# 5 0.000000 0.000000 0.000000 0.000000 0.018019 0.000000
# 6 0.000000 0.000000 0.000000 0.000000 0.000000 0.030817
#
#
# Mechanical properties :
#
#
# Convention : Reuss Voigt Hill
#
# Bulk Modulus (GPa) = 80.75938 96.86100 88.81019
# Shear Modulus (GPa) = 32.03650 35.76071 33.89861
#
# Velocity S-wave (km/s) = 4.12009 4.35299 4.23814
# Velocity P-wave (km/s) = 8.08860 8.75147 8.42655
#
# Compressibility (1/GPa) = 0.01238246
#
# Stress axis : x y z
#
# Youngs Moduli (GPa) = 64.50977 88.81261 67.16719
#
# Poissons Ratio (x) = 0.67644 0.19129
# Poissons Ratio (y) = 0.49134 0.28002
# Poissons Ratio (z) = 0.18373 0.37026
#
# Static dielectric constant tensor:
#      x y z
#    x 1.653610 0.000000 0.000000 
#    y 0.000000 1.637090 0.000000 
#    z 0.000000 0.000000 1.642320 
# 
# From -- ./inp_files/1534.got.cif
#   From: 2010.05.17/outbox.cif.g08.bks.cpg/sg49_1_cif.got.tgz:1534.got - 2010.06.03 21:02:19.
