data_PCOD9394468
_publ_section_title
;
Structure prediction by ZEFSAII (Michael W. Deem and Ramdas Pophale) SiO2 
 PCOD9394468
Probable space group: P C C M
;
_chemical_formula_sum "Si O2"
_cell_formula_units_Z 56
_cell_length_a 10.533875
_cell_length_b 18.789854
_cell_length_c 14.581693
_cell_angle_alpha 90.000000
_cell_angle_beta 90.000000
_cell_angle_gamma 90.000000
_cell_volume 2886.154106
_symmetry_space_group_name_H-M "P C C M"
_symmetry_group_IT_number 49
_symmetry_cell_setting 'orthorhombic'
loop_
_space_group_symop_operation_xyz
x,y,z
-x,-y,z
x,-y,1/2-z
-x,y,1/2-z
-x,-y,-z
x,y,-z
-x,y,1/2+z
x,-y,1/2+z
loop_
_atom_site_type_symbol
_atom_site_label
_atom_site_fract_x
_atom_site_fract_y
_atom_site_fract_z
Si Si1 0.787925 0.415246 0.750075
Si Si2 0.649958 0.277733 0.751410
Si Si3 0.999342 0.585840 0.897680
Si Si4 0.010616 0.917433 0.388655
Si Si5 0.736243 0.168536 0.389929
Si Si6 0.513616 0.079668 0.889036
Si Si7 0.759079 0.169219 0.889502
O O1 0.761140 0.500000 0.750000
O O2 0.671146 0.362071 0.751559
O O3 0.877532 0.397437 0.837135
O O4 0.875109 0.397619 0.661742
O O5 0.500000 0.261602 0.750000
O O6 0.719519 0.241660 0.664432
O O7 0.720823 0.241138 0.837625
O O8 0.000000 0.500000 0.904042
O O9 0.000092 0.616238 0.000000
O O10 0.009319 0.920273 0.500000
O O11 0.890986 0.868284 0.362205
O O12 0.140899 0.877823 0.363004
O O13 0.000000 0.000000 0.357981
O O14 0.739844 0.178868 0.500000
O O15 0.609789 0.124698 0.364903
O O16 0.645135 0.115810 0.862851
O O17 0.500000 0.000000 0.854981
O O18 0.515490 0.077196 0.000000
O O19 0.759526 0.178690 0.000000
#
# Coordination Sequence:
#
# PCOD9394468 Si02
#       7
#     8   8   8   8   8   8   8
#     4   9  20  37  59  88 117 149 192 240 290 349
#     4  12  25  40  57  79 113 156 200 245 291 348
#     4   8  15  33  61  90 117 141 173 226 288 348
#     4   9  18  35  60  88 118 151 188 237 293 345
#     4  10  21  38  58  83 115 151 191 237 293 348
#     4   9  16  31  57  81 106 146 190 230 276 337
#     4  10  21  38  58  83 115 151 191 237 293 348
#
# _framework density 19.402982000000002
#
# number of rings (size 3 to 8) (size 9 to 14) (size 15 to 20)
#    0.000    2.429    1.429    1.714    0.000    7.714 
#    0.000    5.714    0.000    0.000    0.000    6.000 
#    0.000    0.000    0.000    0.000    0.000    0.000 
#
# Total GULP energy -312423.613632 kJ/mol
# GULP energy per Si atom -5578.993101 kJ/mol
# Density = 1.935882 g / cm^3
# Si number density = 19.402982 Si / 1000 Ang^3
#
#
#
# Elastic Constant Matrix: (Units=GPa)
#
#
# Indices 1 2 3 4 5 6 
#
# 1 97.2103 29.3384 1.9734 0.0000 0.0000 0.0000
# 2 29.3384 95.0539 11.4927 0.0000 0.0000 0.0000
# 3 1.9734 11.4927 94.8291 0.0000 0.0000 0.0000
# 4 0.0000 0.0000 0.0000 20.2822 0.0000 0.0000
# 5 0.0000 0.0000 0.0000 0.0000 -14.4281 0.0000
# 6 0.0000 0.0000 0.0000 0.0000 0.0000 36.6984
#
#
#
# Elastic Compliance Matrix: (Units=1/GPa)
#
#
# Indices 1 2 3 4 5 6 
#
# 1 0.011347 -0.003525 0.000191 0.000000 0.000000 0.000000
# 2 -0.003525 0.011772 -0.001353 0.000000 0.000000 0.000000
# 3 0.000191 -0.001353 0.010705 0.000000 0.000000 0.000000
# 4 0.000000 0.000000 0.000000 0.049304 0.000000 0.000000
# 5 0.000000 0.000000 0.000000 0.000000 -0.069309 0.000000
# 6 0.000000 0.000000 0.000000 0.000000 0.000000 0.027249
#
#
# Mechanical properties :
#
#
# Convention : Reuss Voigt Hill
#
# Bulk Modulus (GPa) = 40.90099 41.41135 41.15617
# Shear Modulus (GPa) = 85.33355 24.79643 55.06499
#
# Velocity S-wave (km/s) = 6.63891 3.57875 5.33304
# Velocity P-wave (km/s) = 8.93825 6.20207 7.69279
#
# Compressibility (1/GPa) = 0.02444929
#
# Stress axis : x y z
#
# Youngs Moduli (GPa) = 88.12849 84.94669 93.41147
#
# Poissons Ratio (x) = 0.29947 -0.01785
# Poissons Ratio (y) = 0.31069 0.12642
# Poissons Ratio (z) = -0.01684 0.11496
#
# Static dielectric constant tensor:
#      x y z
#    x 1.646000 0.000000 0.000000 
#    y 0.000000 1.665230 0.000000 
#    z 0.000000 0.000000 1.726370 
# 
# From -- ./inp_files/11984.got.cif
#   From: 2010.05.17/outbox.cif.g08.bks.cpg/sg49_6_cif.got.tgz:11984.got - 2010.06.03 21:02:19.
