data_PCOD9394428
_publ_section_title
;
Structure prediction by ZEFSAII (Michael W. Deem and Ramdas Pophale) SiO2 
 PCOD9394428
Probable space group: P C C M
;
_chemical_formula_sum "Si O2"
_cell_formula_units_Z 32
_cell_length_a 9.434329
_cell_length_b 20.734591
_cell_length_c 8.620916
_cell_angle_alpha 90.000000
_cell_angle_beta 90.000000
_cell_angle_gamma 90.000000
_cell_volume 1686.397321
_symmetry_space_group_name_H-M "P C C M"
_symmetry_group_IT_number 49
_symmetry_cell_setting 'orthorhombic'
loop_
_space_group_symop_operation_xyz
x,y,z
-x,-y,z
x,-y,1/2-z
-x,y,1/2-z
-x,-y,-z
x,y,-z
-x,y,1/2+z
x,-y,1/2+z
loop_
_atom_site_type_symbol
_atom_site_label
_atom_site_fract_x
_atom_site_fract_y
_atom_site_fract_z
Si Si1 0.343962 0.928441 0.813964
Si Si2 0.158478 0.187076 0.185605
Si Si3 0.658928 0.694127 0.686611
Si Si4 0.157389 0.569769 0.814414
O O1 0.500000 0.910394 0.750000
O O2 0.231253 0.877170 0.752871
O O3 0.313276 0.000000 0.750000
O O4 0.347479 0.929403 0.000000
O O5 0.251536 0.247397 0.242383
O O6 0.000000 0.193614 0.250000
O O7 0.156562 0.184533 0.000000
O O8 0.500000 0.695480 0.750000
O O9 0.658038 0.700153 0.500000
O O10 0.736230 0.627011 0.728291
O O11 0.201554 0.500000 0.750000
O O12 0.000000 0.583495 0.750000
O O13 0.148887 0.566086 0.000000
#
# Coordination Sequence:
#
# PCOD9394428 Si02
#       4
#     8   8   8   8
#     4  11  22  40  64  92 124 160 200 244 294 351
#     4  12  25  42  63  89 120 157 199 247 298 354
#     4  11  24  41  61  88 119 157 199 246 298 353
#     4  10  21  37  60  87 118 154 196 241 294 352
#
# _framework density 18.975363000000002
#
# number of rings (size 3 to 8) (size 9 to 14) (size 15 to 20)
#    0.000    1.000    0.000    9.000    0.000    7.000 
#    0.000    5.000    0.000    0.000    0.000    0.000 
#    0.000    0.000    0.000    0.000    0.000    0.000 
#
# Total GULP energy -179085.361977 kJ/mol
# GULP energy per Si atom -5596.417562 kJ/mol
# Density = 1.893217 g / cm^3
# Si number density = 18.975363 Si / 1000 Ang^3
#
#
#
# Elastic Constant Matrix: (Units=GPa)
#
#
# Indices 1 2 3 4 5 6 
#
# 1 172.2789 121.2781 77.6423 0.0000 0.0000 0.0000
# 2 121.2781 124.8760 72.9987 0.0000 0.0000 0.0000
# 3 77.6423 72.9987 156.9216 0.0000 0.0000 0.0000
# 4 0.0000 0.0000 0.0000 48.1729 0.0000 0.0000
# 5 0.0000 0.0000 0.0000 0.0000 24.3164 0.0000
# 6 0.0000 0.0000 0.0000 0.0000 0.0000 41.4157
#
#
#
# Elastic Compliance Matrix: (Units=1/GPa)
#
#
# Indices 1 2 3 4 5 6 
#
# 1 0.018485 -0.017315 -0.001092 0.000000 0.000000 0.000000
# 2 -0.017315 0.027217 -0.004094 0.000000 0.000000 0.000000
# 3 -0.001092 -0.004094 0.008817 0.000000 0.000000 0.000000
# 4 0.000000 0.000000 0.000000 0.020759 0.000000 0.000000
# 5 0.000000 0.000000 0.000000 0.000000 0.041125 0.000000
# 6 0.000000 0.000000 0.000000 0.000000 0.000000 0.024145
#
#
# Mechanical properties :
#
#
# Convention : Reuss Voigt Hill
#
# Bulk Modulus (GPa) = 105.05451 110.87942 107.96697
# Shear Modulus (GPa) = 26.49397 34.92483 30.70940
#
# Velocity S-wave (km/s) = 3.74067 4.29480 4.02728
# Velocity P-wave (km/s) = 8.61050 9.11888 8.86833
#
# Compressibility (1/GPa) = 0.00951887
#
# Stress axis : x y z
#
# Youngs Moduli (GPa) = 54.09663 36.74166 113.41354
#
# Poissons Ratio (x) = 0.63617 0.12381
# Poissons Ratio (y) = 0.93667 0.46433
# Poissons Ratio (z) = 0.05905 0.15042
#
# Static dielectric constant tensor:
#      x y z
#    x 1.621900 0.000000 0.000000 
#    y 0.000000 1.642080 0.000000 
#    z 0.000000 0.000000 1.634320 
# 
# From -- ./inp_files/1402.got.cif
#   From: 2010.05.17/outbox.cif.g08.bks.cpg/sg49_1_cif.got.tgz:1402.got - 2010.06.03 21:02:19.
