data_PCOD9394775
_publ_section_title
;
Structure prediction by ZEFSAII (Michael W. Deem and Ramdas Pophale) SiO2 
 PCOD9394775
Probable space group: P C C M
;
_chemical_formula_sum "Si O2"
_cell_formula_units_Z 40
_cell_length_a 17.988241
_cell_length_b 5.347776
_cell_length_c 19.993647
_cell_angle_alpha 90.000000
_cell_angle_beta 90.000000
_cell_angle_gamma 90.000000
_cell_volume 1923.330530
_symmetry_space_group_name_H-M "P C C M"
_symmetry_group_IT_number 49
_symmetry_cell_setting 'orthorhombic'
loop_
_space_group_symop_operation_xyz
x,y,z
-x,-y,z
x,-y,1/2-z
-x,y,1/2-z
-x,-y,-z
x,y,-z
-x,y,1/2+z
x,-y,1/2+z
loop_
_atom_site_type_symbol
_atom_site_label
_atom_site_fract_x
_atom_site_fract_y
_atom_site_fract_z
Si Si1 0.412396 0.955937 0.421154
Si Si2 0.329805 0.465314 0.617877
Si Si3 0.086379 0.477378 0.669483
Si Si4 0.219896 0.143578 0.319897
Si Si5 0.198056 0.243775 0.925409
O O1 0.399174 0.898650 0.500000
O O2 0.381546 0.713001 0.380618
O O3 0.500000 0.000000 0.410675
O O4 0.376257 0.225189 0.404868
O O5 0.280200 0.366887 0.680885
O O6 0.260095 0.540149 0.571059
O O7 0.091042 0.500000 0.750000
O O8 0.136258 0.230427 0.661899
O O9 0.131072 0.668058 0.622335
O O10 0.000000 0.500000 0.652027
O O11 0.220295 0.000000 0.250000
O O12 0.238680 0.968337 0.382475
O O13 0.175323 0.171214 0.000000
#
# Coordination Sequence:
#
# PCOD9394775 Si02
#       5
#     8   8   8   8   8
#     4  11  22  38  63 100 143 182 222 276 344 412
#     4  11  23  39  65  99 137 175 229 282 342 397
#     4  10  22  41  64  94 134 180 226 278 337 413
#     4  11  23  42  68  96 131 180 237 279 341 415
#     4  11  23  40  66  99 133 173 225 288 343 401
#
# _framework density 20.797257999999999
#
# number of rings (size 3 to 8) (size 9 to 14) (size 15 to 20)
#    0.000    1.200    4.000    2.400    0.000    6.800 
#    0.000    1.000    0.000    0.600    5.200    0.000 
#    0.000    0.000    0.000    0.000    0.000    0.000 
#
# Total GULP energy -222692.866068 kJ/mol
# GULP energy per Si atom -5567.321652 kJ/mol
# Density = 2.074992 g / cm^3
# Si number density = 20.797258 Si / 1000 Ang^3
#
#
#
# Elastic Constant Matrix: (Units=GPa)
#
#
# Indices 1 2 3 4 5 6 
#
# 1 153.4335 72.7459 32.9211 0.0000 0.0000 0.0000
# 2 72.7459 143.7806 50.7665 0.0000 0.0000 0.0000
# 3 32.9211 50.7665 95.0927 0.0000 0.0000 0.0000
# 4 0.0000 0.0000 0.0000 19.8951 0.0000 0.0000
# 5 0.0000 0.0000 0.0000 0.0000 843.7099 0.0000
# 6 0.0000 0.0000 0.0000 0.0000 0.0000 16.1270
#
#
#
# Elastic Compliance Matrix: (Units=1/GPa)
#
#
# Indices 1 2 3 4 5 6 
#
# 1 0.008624 -0.004078 -0.000809 0.000000 0.000000 0.000000
# 2 -0.004078 0.010499 -0.004193 0.000000 0.000000 0.000000
# 3 -0.000809 -0.004193 0.013035 0.000000 0.000000 0.000000
# 4 0.000000 0.000000 0.000000 0.050264 0.000000 0.000000
# 5 0.000000 0.000000 0.000000 0.000000 0.001185 0.000000
# 6 0.000000 0.000000 0.000000 0.000000 0.000000 0.062008
#
#
# Mechanical properties :
#
#
# Convention : Reuss Voigt Hill
#
# Bulk Modulus (GPa) = 71.43770 78.35265 74.89517
# Shear Modulus (GPa) = 29.68409 191.67128 110.67768
#
# Velocity S-wave (km/s) = 3.78207 9.61051 7.30294
# Velocity P-wave (km/s) = 7.31411 12.68485 10.35378
#
# Compressibility (1/GPa) = 0.01399821
#
# Stress axis : x y z
#
# Youngs Moduli (GPa) = 115.94920 95.24855 76.71892
#
# Poissons Ratio (x) = 0.38843 0.06204
# Poissons Ratio (y) = 0.47284 0.32169
# Poissons Ratio (z) = 0.09377 0.39939
#
# Static dielectric constant tensor:
#      x y z
#    x 1.775540 0.000000 0.000000 
#    y 0.000000 1.876720 0.000000 
#    z 0.000000 0.000000 1.795120 
# 
# From -- ./inp_files/20974.got.cif
#   From: 2010.05.17/outbox.cif.g08.bks.cpg/sg49_11_cif.got.tgz:20974.got - 2010.06.03 21:02:19.
