data_PCOD9394528
_publ_section_title
;
Structure prediction by ZEFSAII (Michael W. Deem and Ramdas Pophale) SiO2 
 PCOD9394528
Probable space group: P C C M
;
_chemical_formula_sum "Si O2"
_cell_formula_units_Z 48
_cell_length_a 12.180170
_cell_length_b 9.007715
_cell_length_c 18.325400
_cell_angle_alpha 90.000000
_cell_angle_beta 90.000000
_cell_angle_gamma 90.000000
_cell_volume 2010.580424
_symmetry_space_group_name_H-M "P C C M"
_symmetry_group_IT_number 49
_symmetry_cell_setting 'orthorhombic'
loop_
_space_group_symop_operation_xyz
x,y,z
-x,-y,z
x,-y,1/2-z
-x,y,1/2-z
-x,-y,-z
x,y,-z
-x,y,1/2+z
x,-y,1/2+z
loop_
_atom_site_type_symbol
_atom_site_label
_atom_site_fract_x
_atom_site_fract_y
_atom_site_fract_z
Si Si1 0.105053 0.713260 0.000000
Si Si2 0.809872 0.636175 0.709590
Si Si3 0.150830 0.642845 0.500000
Si Si4 0.516670 0.171855 0.420075
Si Si5 0.742496 0.208380 0.646416
Si Si6 0.623977 0.427212 0.912216
Si Si7 0.115240 0.085589 0.635834
O O1 0.137454 0.538263 0.000000
O O2 0.143591 0.816722 0.934495
O O3 0.972988 0.706358 0.000000
O O4 0.868860 0.500000 0.750000
O O5 0.747315 0.711233 0.776482
O O6 0.726199 0.569917 0.646310
O O7 0.888883 0.773143 0.689313
O O8 0.205148 0.707701 0.574842
O O9 0.554609 0.222695 0.500000
O O10 0.614115 0.205012 0.367382
O O11 0.404597 0.254091 0.406249
O O12 0.500000 0.000000 0.421495
O O13 0.796983 0.044614 0.650216
O O14 0.500000 0.500000 0.896021
O O15 0.643908 0.459862 0.000000
O O16 0.000000 0.000000 0.630036
#
# Coordination Sequence:
#
# PCOD9394528 Si02
#       7
#     4   8   4   8   8   8   8
#     4  11  24  45  76 108 140 192 254 309 385 445
#     4  12  28  47  71 112 149 196 249 314 386 454
#     4  11  23  46  74 111 146 189 255 318 371 462
#     4  10  21  38  65 100 140 189 244 299 356 436
#     4  12  24  44  72 104 150 196 249 308 378 454
#     4  10  23  46  74 106 147 196 249 307 378 453
#     4  12  26  48  73 106 148 201 253 315 384 454
#
# _framework density 23.873702999999999
#
# number of rings (size 3 to 8) (size 9 to 14) (size 15 to 20)
#    0.000    0.833    2.500    4.250    1.167    3.667 
#    1.500    1.667    0.000    0.000    0.000    0.000 
#    0.000    0.000    0.000    0.000    0.000    0.000 
#
# Total GULP energy -267458.395148 kJ/mol
# GULP energy per Si atom -5572.049899 kJ/mol
# Density = 2.381937 g / cm^3
# Si number density = 23.873703 Si / 1000 Ang^3
#
#
#
# Elastic Constant Matrix: (Units=GPa)
#
#
# Indices 1 2 3 4 5 6 
#
# 1 65.3204 26.7187 10.2694 0.0000 0.0000 0.0000
# 2 26.7187 172.6289 37.4507 0.0000 0.0000 0.0000
# 3 10.2694 37.4507 77.6172 0.0000 0.0000 0.0000
# 4 0.0000 0.0000 0.0000 47.6005 0.0000 0.0000
# 5 0.0000 0.0000 0.0000 0.0000 -15.6387 0.0000
# 6 0.0000 0.0000 0.0000 0.0000 0.0000 29.6842
#
#
#
# Elastic Compliance Matrix: (Units=1/GPa)
#
#
# Indices 1 2 3 4 5 6 
#
# 1 0.016421 -0.002312 -0.001057 0.000000 0.000000 0.000000
# 2 -0.002312 0.006796 -0.002973 0.000000 0.000000 0.000000
# 3 -0.001057 -0.002973 0.014458 0.000000 0.000000 0.000000
# 4 0.000000 0.000000 0.000000 0.021008 0.000000 0.000000
# 5 0.000000 0.000000 0.000000 0.000000 -0.063944 0.000000
# 6 0.000000 0.000000 0.000000 0.000000 0.000000 0.033688
#
#
# Mechanical properties :
#
#
# Convention : Reuss Voigt Hill
#
# Bulk Modulus (GPa) = 40.01543 51.60490 45.81016
# Shear Modulus (GPa) = 101.12908 28.40437 64.76673
#
# Velocity S-wave (km/s) = 6.51552 3.45306 5.21419
# Velocity P-wave (km/s) = 8.56740 6.12869 7.44853
#
# Compressibility (1/GPa) = 0.02499036
#
# Stress axis : x y z
#
# Youngs Moduli (GPa) = 60.89704 147.15346 69.16552
#
# Poissons Ratio (x) = 0.34026 0.07311
# Poissons Ratio (y) = 0.14081 0.20563
# Poissons Ratio (z) = 0.06437 0.43749
#
# Static dielectric constant tensor:
#      x y z
#    x 1.962900 0.000000 0.000000 
#    y 0.000000 1.995440 0.000000 
#    z 0.000000 0.000000 1.365160 
# 
# From -- ./inp_files/17767.got.cif
#   From: 2010.05.17/outbox.cif.g08.bks.cpg/sg49_9_cif.got.tgz:17767.got - 2010.06.03 21:02:19.
