data_PCOD9394198
_publ_section_title
;
Structure prediction by ZEFSAII (Michael W. Deem and Ramdas Pophale) SiO2 
 PCOD9394198
Probable space group: P C C M
;
_chemical_formula_sum "Si O2"
_cell_formula_units_Z 58
_cell_length_a 11.991715
_cell_length_b 7.933855
_cell_length_c 25.983321
_cell_angle_alpha 90.000000
_cell_angle_beta 90.000000
_cell_angle_gamma 90.000000
_cell_volume 2472.066879
_symmetry_space_group_name_H-M "P C C M"
_symmetry_group_IT_number 49
_symmetry_cell_setting 'orthorhombic'
loop_
_space_group_symop_operation_xyz
x,y,z
-x,-y,z
x,-y,1/2-z
-x,y,1/2-z
-x,-y,-z
x,y,-z
-x,y,1/2+z
x,-y,1/2+z
loop_
_atom_site_type_symbol
_atom_site_label
_atom_site_fract_x
_atom_site_fract_y
_atom_site_fract_z
Si Si1 0.016114 0.312791 0.903991
Si Si2 0.766839 0.134428 0.557863
Si Si3 0.055929 0.167976 0.805108
Si Si4 0.219561 0.252672 0.439321
Si Si5 0.303016 0.978016 0.694582
Si Si6 0.500000 0.500000 0.750000
Si Si7 0.648446 0.660525 0.654464
Si Si8 0.445614 0.171586 0.896731
O O1 0.911497 0.222979 0.929591
O O2 0.000000 0.500000 0.924908
O O3 0.132020 0.217591 0.912527
O O4 0.016328 0.313963 0.842322
O O5 0.803733 0.138902 0.500000
O O6 0.652083 0.233417 0.566855
O O7 0.737044 0.939253 0.569698
O O8 0.000000 0.190534 0.750000
O O9 0.186700 0.122781 0.800342
O O10 0.000000 0.000000 0.828523
O O11 0.240150 0.298652 0.500000
O O12 0.264206 0.378926 0.393673
O O13 0.292371 0.169708 0.675622
O O14 0.357025 0.000000 0.750000
O O15 0.382496 0.879739 0.655975
O O16 0.591531 0.575185 0.706411
O O17 0.540754 0.702863 0.619831
O O18 0.500000 0.000000 0.917737
#
# Coordination Sequence:
#
# PCOD9394198 Si02
#       8
#     8   8   8   8   8   2   8   8
#     4  12  26  44  63  95 144 186 227 276 346 436
#     4  11  22  41  73 104 132 174 229 291 346 403
#     4  11  21  38  67  99 130 172 228 288 349 406
#     4  11  24  45  74 102 133 178 234 295 352 408
#     4  11  19  36  66  95 126 168 223 286 345 399
#     4  12  28  48  64  96 142 192 240 280 356 438
#     4  11  24  45  65 100 137 181 229 283 345 425
#     4  10  20  38  66  99 132 162 216 282 345 399
#
# _framework density 23.462149
#
# number of rings (size 3 to 8) (size 9 to 14) (size 15 to 20)
#    0.000    0.966    5.517    3.310    0.000    6.345 
#    2.483    0.345    0.000    0.000    0.000    0.000 
#    0.000    0.000    0.000    0.000    0.000    0.000 
#
# Total GULP energy -322933.247648 kJ/mol
# GULP energy per Si atom -5567.814615 kJ/mol
# Density = 2.340875 g / cm^3
# Si number density = 23.462149 Si / 1000 Ang^3
#
#
#
# Elastic Constant Matrix: (Units=GPa)
#
#
# Indices 1 2 3 4 5 6 
#
# 1 119.4813 4.2423 15.6896 0.0000 0.0000 0.0000
# 2 4.2423 30.8394 26.4713 0.0000 0.0000 0.0000
# 3 15.6896 26.4713 121.8927 0.0000 0.0000 0.0000
# 4 0.0000 0.0000 0.0000 9.8432 0.0000 0.0000
# 5 0.0000 0.0000 0.0000 0.0000 -34.5179 0.0000
# 6 0.0000 0.0000 0.0000 0.0000 0.0000 -1.8250
#
#
#
# Elastic Compliance Matrix: (Units=1/GPa)
#
#
# Indices 1 2 3 4 5 6 
#
# 1 0.008515 -0.000283 -0.001035 0.000000 0.000000 0.000000
# 2 -0.000283 0.039865 -0.008621 0.000000 0.000000 0.000000
# 3 -0.001035 -0.008621 0.010209 0.000000 0.000000 0.000000
# 4 0.000000 0.000000 0.000000 0.101593 0.000000 0.000000
# 5 0.000000 0.000000 0.000000 0.000000 -0.028970 0.000000
# 6 0.000000 0.000000 0.000000 0.000000 0.000000 -0.547932
#
#
# Mechanical properties :
#
#
# Convention : Reuss Voigt Hill
#
# Bulk Modulus (GPa) = 25.83183 40.55774 33.19479
# Shear Modulus (GPa) = -13.02293 9.75407 -1.63443
#
# Velocity S-wave (km/s) = -2.35853 2.04117 -0.83555
# Velocity P-wave (km/s) = 1.90185 4.78322 3.63979
#
# Compressibility (1/GPa) = 0.03871192
#
# Stress axis : x y z
#
# Youngs Moduli (GPa) = 117.43402 25.08473 97.95001
#
# Poissons Ratio (x) = 0.00711 0.10133
# Poissons Ratio (y) = 0.03328 0.84442
# Poissons Ratio (z) = 0.12149 0.21625
#
# Static dielectric constant tensor:
#      x y z
#    x 1.949590 0.000000 0.000000 
#    y 0.000000 2.114860 0.000000 
#    z 0.000000 0.000000 1.947520 
# 
# From -- ./inp_files/24847.got.cif
#   From: 2010.05.17/outbox.cif.g08.bks.cpg/sg49_13_cif.got.tgz:24847.got - 2010.06.03 21:02:19.
