data_PCOD9394929
_publ_section_title
;
Structure prediction by ZEFSAII (Michael W. Deem and Ramdas Pophale) SiO2 
 PCOD9394929
Probable space group: P C C M
;
_chemical_formula_sum "Si O2"
_cell_formula_units_Z 56
_cell_length_a 11.906283
_cell_length_b 9.677735
_cell_length_c 21.940616
_cell_angle_alpha 90.000000
_cell_angle_beta 90.000000
_cell_angle_gamma 90.000000
_cell_volume 2528.126166
_symmetry_space_group_name_H-M "P C C M"
_symmetry_group_IT_number 49
_symmetry_cell_setting 'orthorhombic'
loop_
_space_group_symop_operation_xyz
x,y,z
-x,-y,z
x,-y,1/2-z
-x,y,1/2-z
-x,-y,-z
x,y,-z
-x,y,1/2+z
x,-y,1/2+z
loop_
_atom_site_type_symbol
_atom_site_label
_atom_site_fract_x
_atom_site_fract_y
_atom_site_fract_z
Si Si1 0.203346 0.978568 0.930563
Si Si2 0.554940 0.848837 0.569484
Si Si3 0.194866 0.264627 0.126603
Si Si4 0.452957 0.344669 0.315149
Si Si5 0.068840 0.785772 0.150452
Si Si6 0.131792 0.539830 0.933654
Si Si7 0.213147 0.656581 0.757455
O O1 0.236321 0.133254 0.910716
O O2 0.312071 0.881351 0.927943
O O3 0.113077 0.921820 0.882717
O O4 0.159782 0.979755 0.000000
O O5 0.527516 0.800884 0.500000
O O6 0.524670 0.747053 0.624973
O O7 0.500000 0.000000 0.577546
O O8 0.197290 0.405012 0.088059
O O9 0.252222 0.291538 0.191222
O O10 0.063135 0.237298 0.142602
O O11 0.500000 0.500000 0.323017
O O12 0.500000 0.289984 0.250000
O O13 0.319951 0.351955 0.301494
O O14 0.129491 0.661751 0.113892
O O15 0.120258 0.761803 0.216918
O O16 0.000000 0.500000 0.938021
O O17 0.170639 0.586649 0.000000
O O18 0.166220 0.500000 0.750000
#
# Coordination Sequence:
#
# PCOD9394929 Si02
#       7
#     8   8   8   8   8   8   8
#     4  11  24  43  66  95 134 176 222 279 336 400
#     4  10  24  47  71  99 136 173 217 280 354 414
#     4  11  24  37  63  92 131 179 223 267 328 395
#     4  11  24  44  74 102 129 169 222 282 339 406
#     4  11  22  40  62  90 129 181 220 274 329 386
#     4   9  18  33  55  84 115 160 221 269 314 375
#     4  12  23  42  65  94 134 169 218 278 335 395
#
# _framework density 22.150793
#
# number of rings (size 3 to 8) (size 9 to 14) (size 15 to 20)
#    0.000    1.286    4.286    1.714    2.000    4.000 
#    0.000    1.429    0.000    0.000    0.000    0.000 
#    0.000    0.000    0.000    0.000    0.000    0.000 
#
# Total GULP energy -313026.190344 kJ/mol
# GULP energy per Si atom -5589.753399 kJ/mol
# Density = 2.210038 g / cm^3
# Si number density = 22.150793 Si / 1000 Ang^3
#
#
#
# Elastic Constant Matrix: (Units=GPa)
#
#
# Indices 1 2 3 4 5 6 
#
# 1 64.5034 0.5226 16.8480 0.0000 0.0000 0.0000
# 2 0.5226 90.9075 51.8805 0.0000 0.0000 0.0000
# 3 16.8480 51.8805 151.5515 0.0000 0.0000 0.0000
# 4 0.0000 0.0000 0.0000 36.1197 0.0000 0.0000
# 5 0.0000 0.0000 0.0000 0.0000 35.2014 0.0000
# 6 0.0000 0.0000 0.0000 0.0000 0.0000 23.6758
#
#
#
# Elastic Compliance Matrix: (Units=1/GPa)
#
#
# Indices 1 2 3 4 5 6 
#
# 1 0.016063 0.001152 -0.002180 0.000000 0.000000 0.000000
# 2 0.001152 0.013754 -0.004836 0.000000 0.000000 0.000000
# 3 -0.002180 -0.004836 0.008496 0.000000 0.000000 0.000000
# 4 0.000000 0.000000 0.000000 0.027686 0.000000 0.000000
# 5 0.000000 0.000000 0.000000 0.000000 0.028408 0.000000
# 6 0.000000 0.000000 0.000000 0.000000 0.000000 0.042237
#
#
# Mechanical properties :
#
#
# Convention : Reuss Voigt Hill
#
# Bulk Modulus (GPa) = 37.61656 49.49607 43.55632
# Shear Modulus (GPa) = 31.79966 34.84682 33.32324
#
# Velocity S-wave (km/s) = 3.79304 3.97062 3.88284
# Velocity P-wave (km/s) = 6.01679 6.58898 6.30937
#
# Compressibility (1/GPa) = 0.02658404
#
# Stress axis : x y z
#
# Youngs Moduli (GPa) = 62.25434 72.70812 117.69718
#
# Poissons Ratio (x) = -0.08374 0.25658
# Poissons Ratio (y) = -0.07170 0.56922
# Poissons Ratio (z) = 0.13572 0.35164
#
# Static dielectric constant tensor:
#      x y z
#    x 1.844390 0.000000 0.000000 
#    y 0.000000 1.794710 0.000000 
#    z 0.000000 0.000000 1.838360 
# 
# From -- ./inp_files/20868.got.cif
#   From: 2010.05.17/outbox.cif.g08.bks.cpg/sg49_11_cif.got.tgz:20868.got - 2010.06.03 21:02:19.
