data_PCOD9394686
_publ_section_title
;
Structure prediction by ZEFSAII (Michael W. Deem and Ramdas Pophale) SiO2 
 PCOD9394686
Probable space group: P C C M
;
_chemical_formula_sum "Si O2"
_cell_formula_units_Z 32
_cell_length_a 8.747388
_cell_length_b 5.355661
_cell_length_c 30.307122
_cell_angle_alpha 90.000000
_cell_angle_beta 90.000000
_cell_angle_gamma 90.000000
_cell_volume 1419.829408
_symmetry_space_group_name_H-M "P C C M"
_symmetry_group_IT_number 49
_symmetry_cell_setting 'orthorhombic'
loop_
_space_group_symop_operation_xyz
x,y,z
-x,-y,z
x,-y,1/2-z
-x,y,1/2-z
-x,-y,-z
x,y,-z
-x,y,1/2+z
x,-y,1/2+z
loop_
_atom_site_type_symbol
_atom_site_label
_atom_site_fract_x
_atom_site_fract_y
_atom_site_fract_z
Si Si1 0.176829 0.252846 0.768631
Si Si2 0.597567 0.249162 0.904071
Si Si3 0.173522 0.087211 0.865746
Si Si4 0.177604 0.577191 0.548539
O O1 0.250763 0.500000 0.750000
O O2 0.183978 0.244873 0.821219
O O3 0.000000 0.252050 0.750000
O O4 0.246765 0.000000 0.750000
O O5 0.500000 0.500000 0.893027
O O6 0.711118 0.343035 0.942603
O O7 0.500000 0.000000 0.915320
O O8 0.710458 0.146178 0.865945
O O9 0.202098 0.241118 0.910279
O O10 0.000000 0.000000 0.867782
O O11 0.209692 0.684294 0.500000
O O12 0.000000 0.500000 0.549772
#
# Coordination Sequence:
#
# PCOD9394686 Si02
#       4
#     8   8   8   8
#     4  10  22  37  66 113 142 172 241 312 363 423
#     4  12  27  48  71 110 152 203 244 303 380 453
#     4  12  24  44  78 109 152 194 250 319 369 434
#     4  11  26  45  74 113 150 196 257 318 369 433
#
# _framework density 22.537918000000001
#
# number of rings (size 3 to 8) (size 9 to 14) (size 15 to 20)
#    0.000    0.750    7.500    0.000    7.000    2.500 
#    0.000    0.000    0.000    0.750    6.500    0.000 
#    0.000    0.000    0.000    0.000    0.000    0.000 
#
# Total GULP energy -178655.600848 kJ/mol
# GULP energy per Si atom -5582.987527 kJ/mol
# Density = 2.248662 g / cm^3
# Si number density = 22.537918 Si / 1000 Ang^3
#
#
#
# Elastic Constant Matrix: (Units=GPa)
#
#
# Indices 1 2 3 4 5 6 
#
# 1 118.0532 60.1628 31.6306 0.0000 0.0000 0.0000
# 2 60.1628 190.0219 83.3309 0.0000 0.0000 0.0000
# 3 31.6306 83.3309 195.4588 0.0000 0.0000 0.0000
# 4 0.0000 0.0000 0.0000 41.0227 0.0000 0.0000
# 5 0.0000 0.0000 0.0000 0.0000 -16.7399 0.0000
# 6 0.0000 0.0000 0.0000 0.0000 0.0000 3.6961
#
#
#
# Elastic Compliance Matrix: (Units=1/GPa)
#
#
# Indices 1 2 3 4 5 6 
#
# 1 0.010118 -0.003057 -0.000334 0.000000 0.000000 0.000000
# 2 -0.003057 0.007396 -0.002659 0.000000 0.000000 0.000000
# 3 -0.000334 -0.002659 0.006304 0.000000 0.000000 0.000000
# 4 0.000000 0.000000 0.000000 0.024377 0.000000 0.000000
# 5 0.000000 0.000000 0.000000 0.000000 -0.059737 0.000000
# 6 0.000000 0.000000 0.000000 0.000000 0.000000 0.270556
#
#
# Mechanical properties :
#
#
# Convention : Reuss Voigt Hill
#
# Bulk Modulus (GPa) = 85.33301 94.86473 90.09887
# Shear Modulus (GPa) = 18.18058 27.48975 22.83517
#
# Velocity S-wave (km/s) = 2.84327 3.49623 3.18652
# Velocity P-wave (km/s) = 6.98019 7.64727 7.32133
#
# Compressibility (1/GPa) = 0.01171879
#
# Stress axis : x y z
#
# Youngs Moduli (GPa) = 98.83181 135.20255 158.63738
#
# Poissons Ratio (x) = 0.41332 0.05300
# Poissons Ratio (y) = 0.30213 0.42175
# Poissons Ratio (z) = 0.03302 0.35945
#
# Static dielectric constant tensor:
#      x y z
#    x 1.883320 0.000000 0.000000 
#    y 0.000000 1.882150 0.000000 
#    z 0.000000 0.000000 1.840100 
# 
# From -- ./inp_files/25445.got.cif
#   From: 2010.05.17/outbox.cif.g08.bks.cpg/sg49_13_cif.got.tgz:25445.got - 2010.06.03 21:02:19.
