data_PCOD9394624
_publ_section_title
;
Structure prediction by ZEFSAII (Michael W. Deem and Ramdas Pophale) SiO2 
 PCOD9394624
Probable space group: P C C M
;
_chemical_formula_sum "Si O2"
_cell_formula_units_Z 58
_cell_length_a 17.885988
_cell_length_b 7.551599
_cell_length_c 18.713287
_cell_angle_alpha 90.000000
_cell_angle_beta 90.000000
_cell_angle_gamma 90.000000
_cell_volume 2527.562676
_symmetry_space_group_name_H-M "P C C M"
_symmetry_group_IT_number 49
_symmetry_cell_setting 'orthorhombic'
loop_
_space_group_symop_operation_xyz
x,y,z
-x,-y,z
x,-y,1/2-z
-x,y,1/2-z
-x,-y,-z
x,y,-z
-x,y,1/2+z
x,-y,1/2+z
loop_
_atom_site_type_symbol
_atom_site_label
_atom_site_fract_x
_atom_site_fract_y
_atom_site_fract_z
Si Si1 0.096117 0.144241 0.917846
Si Si2 0.058591 0.250086 0.384181
Si Si3 0.790487 0.307791 0.177927
Si Si4 0.380098 0.685011 0.580026
Si Si5 0.661594 0.271069 0.080321
Si Si6 0.482436 0.207109 0.329901
Si Si7 0.760069 0.729761 0.166419
Si Si8 0.000000 0.500000 0.000000
O O1 0.174160 0.197233 0.883789
O O2 0.028499 0.213666 0.868152
O O3 0.085449 0.933689 0.920229
O O4 0.082719 0.216286 0.000000
O O5 0.120567 0.286305 0.325554
O O6 0.054702 0.412315 0.438058
O O7 0.743988 0.231471 0.110908
O O8 0.772010 0.516821 0.172908
O O9 0.763638 0.217798 0.250869
O O10 0.381574 0.758888 0.500000
O O11 0.352489 0.482573 0.575068
O O12 0.460844 0.698597 0.615657
O O13 0.318810 0.775165 0.630668
O O14 0.600985 0.220238 0.139957
O O15 0.650168 0.199209 0.000000
O O16 0.500000 0.275106 0.250000
O O17 0.500000 0.000000 0.330082
#
# Coordination Sequence:
#
# PCOD9394624 Si02
#       8
#     8   8   8   8   8   8   8   2
#     4  11  22  41  60  91 126 164 210 259 324 386
#     4  11  23  38  63  90 124 162 210 260 322 380
#     4  10  23  40  62  93 122 166 214 258 319 378
#     4  10  21  40  65  94 122 163 213 263 322 374
#     4  10  22  39  64  94 124 158 211 268 311 379
#     4  11  24  40  60  89 127 168 209 256 320 389
#     4  10  22  41  63  89 128 165 210 263 317 388
#     4  12  20  38  64  94 116 158 206 272 308 378
#
# _framework density 22.947006999999999
#
# number of rings (size 3 to 8) (size 9 to 14) (size 15 to 20)
#    0.000    1.517    1.379    3.310    0.966    7.172 
#    0.000    2.759    0.000    0.000    0.000    0.000 
#    0.000    0.000    0.000    0.000    0.000    0.000 
#
# Total GULP energy -323540.585523 kJ/mol
# GULP energy per Si atom -5578.285957 kJ/mol
# Density = 2.289478 g / cm^3
# Si number density = 22.947007 Si / 1000 Ang^3
#
#
#
# Elastic Constant Matrix: (Units=GPa)
#
#
# Indices 1 2 3 4 5 6 
#
# 1 93.3568 10.0859 25.7777 0.0000 0.0000 0.0000
# 2 10.0859 48.1652 15.4193 0.0000 0.0000 0.0000
# 3 25.7777 15.4193 119.2145 0.0000 0.0000 0.0000
# 4 0.0000 0.0000 0.0000 1768.1848 0.0000 0.0000
# 5 0.0000 0.0000 0.0000 0.0000 30.3516 0.0000
# 6 0.0000 0.0000 0.0000 0.0000 0.0000 22.4529
#
#
#
# Elastic Compliance Matrix: (Units=1/GPa)
#
#
# Indices 1 2 3 4 5 6 
#
# 1 0.011521 -0.001685 -0.002273 0.000000 0.000000 0.000000
# 2 -0.001685 0.021905 -0.002469 0.000000 0.000000 0.000000
# 3 -0.002273 -0.002469 0.009199 0.000000 0.000000 0.000000
# 4 0.000000 0.000000 0.000000 0.000566 0.000000 0.000000
# 5 0.000000 0.000000 0.000000 0.000000 0.032947 0.000000
# 6 0.000000 0.000000 0.000000 0.000000 0.000000 0.044538
#
#
# Mechanical properties :
#
#
# Convention : Reuss Voigt Hill
#
# Bulk Modulus (GPa) = 33.58929 40.36692 36.97811
# Shear Modulus (GPa) = 34.85441 378.16144 206.50792
#
# Velocity S-wave (km/s) = 3.90155 12.85128 9.49678
# Velocity P-wave (km/s) = 5.91317 15.42196 11.67909
#
# Compressibility (1/GPa) = 0.02977139
#
# Stress axis : x y z
#
# Youngs Moduli (GPa) = 86.79549 45.65152 108.70590
#
# Poissons Ratio (x) = 0.07692 0.24713
# Poissons Ratio (y) = 0.14624 0.26838
# Poissons Ratio (z) = 0.19732 0.11271
#
# Static dielectric constant tensor:
#      x y z
#    x 1.827930 0.000000 0.000000 
#    y 0.000000 1.724670 0.000000 
#    z 0.000000 0.000000 0.789300 
# 
# From -- ./inp_files/18170.got.cif
#   From: 2010.05.17/outbox.cif.g08.bks.cpg/sg49_10_cif.got.tgz:18170.got - 2010.06.03 21:02:19.
