data_PCOD9394753
_publ_section_title
;
Structure prediction by ZEFSAII (Michael W. Deem and Ramdas Pophale) SiO2 
 PCOD9394753
Probable space group: P C C M
;
_chemical_formula_sum "Si O2"
_cell_formula_units_Z 40
_cell_length_a 14.017276
_cell_length_b 8.711527
_cell_length_c 14.259195
_cell_angle_alpha 90.000000
_cell_angle_beta 90.000000
_cell_angle_gamma 90.000000
_cell_volume 1741.217085
_symmetry_space_group_name_H-M "P C C M"
_symmetry_group_IT_number 49
_symmetry_cell_setting 'orthorhombic'
loop_
_space_group_symop_operation_xyz
x,y,z
-x,-y,z
x,-y,1/2-z
-x,y,1/2-z
-x,-y,-z
x,y,-z
-x,y,1/2+z
x,-y,1/2+z
loop_
_atom_site_type_symbol
_atom_site_label
_atom_site_fract_x
_atom_site_fract_y
_atom_site_fract_z
Si Si1 0.904656 0.917162 0.889623
Si Si2 0.402423 0.226695 0.500000
Si Si3 0.284257 0.875786 0.306970
Si Si4 0.622145 0.141533 0.500000
Si Si5 0.101151 0.553164 0.357946
Si Si6 0.292739 0.607682 0.833138
O O1 0.807169 0.970004 0.843496
O O2 0.902478 0.735072 0.872206
O O3 0.898672 0.946217 0.000000
O O4 0.000000 0.000000 0.855220
O O5 0.516226 0.209132 0.500000
O O6 0.362603 0.318252 0.590433
O O7 0.371712 0.045994 0.500000
O O8 0.329703 0.810293 0.402031
O O9 0.256850 0.745022 0.233887
O O10 0.347410 0.000000 0.250000
O O11 0.097375 0.500000 0.250000
O O12 0.202873 0.476272 0.384465
O O13 0.000000 0.500000 0.399881
O O14 0.335960 0.500000 0.750000
#
# Coordination Sequence:
#
# PCOD9394753 Si02
#       6
#     8   4   8   4   8   8
#     4  11  25  42  66 103 147 197 255 309 367 452
#     4  11  26  49  76 113 148 202 256 328 394 468
#     4  12  24  44  74 106 147 203 253 318 380 466
#     4  11  26  49  76 109 150 191 266 331 388 457
#     4  10  22  40  64  97 142 191 241 296 367 446
#     4  11  24  46  76 109 153 204 252 314 396 460
#
# _framework density 22.972435999999998
#
# number of rings (size 3 to 8) (size 9 to 14) (size 15 to 20)
#    0.000    1.000    7.000    0.000    4.200    2.400 
#    0.000    3.000    0.000    0.000    0.000    0.000 
#    0.000    0.000    0.000    0.000    0.000    0.000 
#
# Total GULP energy -223157.895024 kJ/mol
# GULP energy per Si atom -5578.947376 kJ/mol
# Density = 2.292015 g / cm^3
# Si number density = 22.972436 Si / 1000 Ang^3
#
#
#
# Elastic Constant Matrix: (Units=GPa)
#
#
# Indices 1 2 3 4 5 6 
#
# 1 138.5389 53.1741 63.8334 0.0000 0.0000 0.0000
# 2 53.1741 114.3451 43.2961 0.0000 0.0000 0.0000
# 3 63.8334 43.2961 165.8764 0.0000 0.0000 0.0000
# 4 0.0000 0.0000 0.0000 29.7529 0.0000 0.0000
# 5 0.0000 0.0000 0.0000 0.0000 6.2136 0.0000
# 6 0.0000 0.0000 0.0000 0.0000 0.0000 57.4393
#
#
#
# Elastic Compliance Matrix: (Units=1/GPa)
#
#
# Indices 1 2 3 4 5 6 
#
# 1 0.009897 -0.003507 -0.002893 0.000000 0.000000 0.000000
# 2 -0.003507 0.010947 -0.001508 0.000000 0.000000 0.000000
# 3 -0.002893 -0.001508 0.007536 0.000000 0.000000 0.000000
# 4 0.000000 0.000000 0.000000 0.033610 0.000000 0.000000
# 5 0.000000 0.000000 0.000000 0.000000 0.160938 0.000000
# 6 0.000000 0.000000 0.000000 0.000000 0.000000 0.017410
#
#
# Mechanical properties :
#
#
# Convention : Reuss Voigt Hill
#
# Bulk Modulus (GPa) = 79.59367 82.15198 80.87283
# Shear Modulus (GPa) = 19.20547 35.91160 27.55854
#
# Velocity S-wave (km/s) = 2.89454 3.95808 3.46733
# Velocity P-wave (km/s) = 6.77450 7.53175 7.16314
#
# Compressibility (1/GPa) = 0.01256381
#
# Stress axis : x y z
#
# Youngs Moduli (GPa) = 101.03624 91.34703 132.70366
#
# Poissons Ratio (x) = 0.32036 0.38396
# Poissons Ratio (y) = 0.35434 0.20009
# Poissons Ratio (z) = 0.29234 0.13773
#
# Static dielectric constant tensor:
#      x y z
#    x 1.921270 0.000000 0.000000 
#    y 0.000000 1.993480 0.000000 
#    z 0.000000 0.000000 1.882530 
# 
# From -- ./inp_files/13366.got.cif
#   From: 2010.05.17/outbox.cif.g08.bks.cpg/sg49_7_cif.got.tgz:13366.got - 2010.06.03 21:02:19.
