data_PCOD9394669
_publ_section_title
;
Structure prediction by ZEFSAII (Michael W. Deem and Ramdas Pophale) SiO2 
 PCOD9394669
Probable space group: P C C M
;
_chemical_formula_sum "Si O2"
_cell_formula_units_Z 30
_cell_length_a 12.192939
_cell_length_b 5.585993
_cell_length_c 19.340461
_cell_angle_alpha 90.000000
_cell_angle_beta 90.000000
_cell_angle_gamma 90.000000
_cell_volume 1317.272453
_symmetry_space_group_name_H-M "P C C M"
_symmetry_group_IT_number 49
_symmetry_cell_setting 'orthorhombic'
loop_
_space_group_symop_operation_xyz
x,y,z
-x,-y,z
x,-y,1/2-z
-x,y,1/2-z
-x,-y,-z
x,y,-z
-x,y,1/2+z
x,-y,1/2+z
loop_
_atom_site_type_symbol
_atom_site_label
_atom_site_fract_x
_atom_site_fract_y
_atom_site_fract_z
Si Si1 0.305200 0.832411 0.500000
Si Si2 0.110803 0.147723 0.355361
Si Si3 0.185357 0.500000 0.250000
Si Si4 0.500000 0.000000 0.250000
Si Si5 0.174359 0.338780 0.500000
Si Si6 0.321469 0.205356 0.150078
O O1 0.216337 0.613620 0.500000
O O2 0.365079 0.783330 0.427836
O O3 0.259321 0.107119 0.500000
O O4 0.114408 0.294844 0.284481
O O5 0.113825 0.298604 0.426924
O O6 0.221807 0.987228 0.352572
O O7 0.000000 0.000000 0.358762
O O8 0.262045 0.429490 0.185237
O O9 0.419372 0.144918 0.200845
#
# Coordination Sequence:
#
# PCOD9394669 Si02
#       6
#     4   8   4   2   4   8
#     4  10  22  45  73 103 147 192 254 307 370 451
#     4  11  24  43  69 106 145 191 240 305 375 454
#     4  12  22  44  70 100 144 191 245 302 376 442
#     4  12  24  48  70 100 150 194 256 320 380 432
#     4  10  21  44  72 104 147 193 242 304 371 458
#     4  11  25  44  69 103 143 191 250 309 372 442
#
# _framework density 22.774329999999999
#
# number of rings (size 3 to 8) (size 9 to 14) (size 15 to 20)
#    0.000    1.067    5.333    0.400    0.000    5.333 
#    0.000    2.667    0.000    4.800    0.000    0.933 
#    0.000    0.000    0.000    0.000    0.000    0.000 
#
# Total GULP energy -167505.418312 kJ/mol
# GULP energy per Si atom -5583.513944 kJ/mol
# Density = 2.272249 g / cm^3
# Si number density = 22.774330 Si / 1000 Ang^3
#
#
#
# Elastic Constant Matrix: (Units=GPa)
#
#
# Indices 1 2 3 4 5 6 
#
# 1 94.5328 7.4063 29.1338 0.0000 0.0000 0.0000
# 2 7.4063 39.1041 -5.8969 0.0000 0.0000 0.0000
# 3 29.1338 -5.8969 173.0604 0.0000 0.0000 0.0000
# 4 0.0000 0.0000 0.0000 32.7496 0.0000 0.0000
# 5 0.0000 0.0000 0.0000 0.0000 40.2002 0.0000
# 6 0.0000 0.0000 0.0000 0.0000 0.0000 -2.2011
#
#
#
# Elastic Compliance Matrix: (Units=1/GPa)
#
#
# Indices 1 2 3 4 5 6 
#
# 1 0.011388 -0.002459 -0.002001 0.000000 0.000000 0.000000
# 2 -0.002459 0.026236 0.001308 0.000000 0.000000 0.000000
# 3 -0.002001 0.001308 0.006160 0.000000 0.000000 0.000000
# 4 0.000000 0.000000 0.000000 0.030535 0.000000 0.000000
# 5 0.000000 0.000000 0.000000 0.000000 0.024876 0.000000
# 6 0.000000 0.000000 0.000000 0.000000 0.000000 -0.454321
#
#
# Mechanical properties :
#
#
# Convention : Reuss Voigt Hill
#
# Bulk Modulus (GPa) = 26.68095 40.88709 33.78402
# Shear Modulus (GPa) = -14.86629 32.55336 8.84353
#
# Velocity S-wave (km/s) = -2.55770 3.78483 1.97270
# Velocity P-wave (km/s) = 1.73734 6.09032 4.47830
#
# Compressibility (1/GPa) = 0.03747993
#
# Stress axis : x y z
#
# Youngs Moduli (GPa) = 87.81502 38.11609 162.34512
#
# Poissons Ratio (x) = 0.09371 0.32482
# Poissons Ratio (y) = 0.21590 -0.21232
# Poissons Ratio (z) = 0.17570 -0.04985
#
# Static dielectric constant tensor:
#      x y z
#    x 1.980240 0.000000 0.000000 
#    y 0.000000 2.017110 0.000000 
#    z 0.000000 0.000000 1.869970 
# 
# From -- ./inp_files/18701.got.cif
#   From: 2010.05.17/outbox.cif.g08.bks.cpg/sg49_10_cif.got.tgz:18701.got - 2010.06.03 21:02:19.
