data_PCOD9394270
_publ_section_title
;
Structure prediction by ZEFSAII (Michael W. Deem and Ramdas Pophale) SiO2 
 PCOD9394270
Probable space group: P C C M
;
_chemical_formula_sum "Si O2"
_cell_formula_units_Z 58
_cell_length_a 5.790887
_cell_length_b 20.895854
_cell_length_c 26.130668
_cell_angle_alpha 90.000000
_cell_angle_beta 90.000000
_cell_angle_gamma 90.000000
_cell_volume 3161.955312
_symmetry_space_group_name_H-M "P C C M"
_symmetry_group_IT_number 49
_symmetry_cell_setting 'orthorhombic'
loop_
_space_group_symop_operation_xyz
x,y,z
-x,-y,z
x,-y,1/2-z
-x,y,1/2-z
-x,-y,-z
x,y,-z
-x,y,1/2+z
x,-y,1/2+z
loop_
_atom_site_type_symbol
_atom_site_label
_atom_site_fract_x
_atom_site_fract_y
_atom_site_fract_z
Si Si1 0.946070 0.073349 0.443969
Si Si2 0.301203 0.113069 0.292750
Si Si3 0.000000 0.000000 0.750000
Si Si4 0.498547 0.423386 0.810462
Si Si5 0.757964 0.195870 0.057473
Si Si6 0.002363 0.374463 0.309733
Si Si7 0.385461 0.151200 0.877770
Si Si8 0.996315 0.773224 0.334876
O O1 0.829735 0.079068 0.500000
O O2 0.791938 0.101037 0.399623
O O3 0.160034 0.121954 0.445578
O O4 0.000000 0.000000 0.436106
O O5 0.500000 0.118305 0.250000
O O6 0.155767 0.049290 0.282286
O O7 0.426041 0.111909 0.347071
O O8 0.145102 0.176614 0.299900
O O9 0.500000 0.500000 0.814351
O O10 0.500000 0.405168 0.750000
O O11 0.748715 0.399000 0.831261
O O12 0.248811 0.397982 0.830992
O O13 0.495305 0.192135 0.076372
O O14 0.894977 0.225129 0.106354
O O15 0.790054 0.222813 0.000000
O O16 0.009405 0.297949 0.314190
O O17 0.000000 0.395001 0.250000
O O18 0.253872 0.199167 0.839984
#
# Coordination Sequence:
#
# PCOD9394270 Si02
#       8
#     8   8   2   8   8   8   8   8
#     4   9  18  35  55  79 103 124 167 224 289 364
#     4  11  25  43  58  70 103 144 192 241 292 345
#     4  12  26  48  52  78  94 156 192 248 296 346
#     4   9  18  34  54  85 122 162 202 233 273 335
#     4   9  19  37  56  76 106 141 175 230 296 348
#     4  10  21  32  57  85 121 167 194 236 286 336
#     4  10  21  38  54  79  99 141 172 241 283 349
#     4  10  23  38  56  86 113 141 194 241 283 346
#
# _framework density 18.34308
#
# number of rings (size 3 to 8) (size 9 to 14) (size 15 to 20)
#    0.000    2.207    0.000    1.862    6.759    3.310 
#   29.793    2.069    0.000    0.000    0.000    0.000 
#    0.000    3.310    0.000    0.000    0.000    0.000 
#
# Total GULP energy -323063.976307 kJ/mol
# GULP energy per Si atom -5570.068557 kJ/mol
# Density = 1.830133 g / cm^3
# Si number density = 18.343080 Si / 1000 Ang^3
#
#
#
# Elastic Constant Matrix: (Units=GPa)
#
#
# Indices 1 2 3 4 5 6 
#
# 1 118.4132 43.5156 19.0084 0.0000 0.0000 0.0000
# 2 43.5156 59.6108 -5.3101 0.0000 0.0000 0.0000
# 3 19.0084 -5.3101 53.1258 0.0000 0.0000 0.0000
# 4 0.0000 0.0000 0.0000 24.0743 0.0000 0.0000
# 5 0.0000 0.0000 0.0000 0.0000 15.2784 0.0000
# 6 0.0000 0.0000 0.0000 0.0000 0.0000 3.6710
#
#
#
# Elastic Compliance Matrix: (Units=1/GPa)
#
#
# Indices 1 2 3 4 5 6 
#
# 1 0.013038 -0.010022 -0.005667 0.000000 0.000000 0.000000
# 2 -0.010022 0.024630 0.006048 0.000000 0.000000 0.000000
# 3 -0.005667 0.006048 0.021455 0.000000 0.000000 0.000000
# 4 0.000000 0.000000 0.000000 0.041538 0.000000 0.000000
# 5 0.000000 0.000000 0.000000 0.000000 0.065452 0.000000
# 6 0.000000 0.000000 0.000000 0.000000 0.000000 0.272406
#
#
# Mechanical properties :
#
#
# Convention : Reuss Voigt Hill
#
# Bulk Modulus (GPa) = 25.09961 38.39752 31.74857
# Shear Modulus (GPa) = 10.61388 20.20048 15.40718
#
# Velocity S-wave (km/s) = 2.40808 3.32212 2.90132
# Velocity P-wave (km/s) = 4.63087 5.97442 5.34503
#
# Compressibility (1/GPa) = 0.03984126
#
# Stress axis : x y z
#
# Youngs Moduli (GPa) = 76.70053 40.60022 46.60865
#
# Poissons Ratio (x) = 0.40691 0.26411
# Poissons Ratio (y) = 0.76871 -0.28188
# Poissons Ratio (z) = 0.43463 -0.24554
#
# Static dielectric constant tensor:
#      x y z
#    x 1.800750 0.000000 0.000000 
#    y 0.000000 1.594740 0.000000 
#    z 0.000000 0.000000 1.676200 
# 
# From -- ./inp_files/24069.got.cif
#   From: 2010.05.17/outbox.cif.g08.bks.cpg/sg49_13_cif.got.tgz:24069.got - 2010.06.03 21:02:19.
