data_PCOD9394387
_publ_section_title
;
Structure prediction by ZEFSAII (Michael W. Deem and Ramdas Pophale) SiO2 
 PCOD9394387
Probable space group: P C C M
;
_chemical_formula_sum "Si O2"
_cell_formula_units_Z 64
_cell_length_a 9.479593
_cell_length_b 21.323479
_cell_length_c 16.150659
_cell_angle_alpha 90.000000
_cell_angle_beta 90.000000
_cell_angle_gamma 90.000000
_cell_volume 3264.660330
_symmetry_space_group_name_H-M "P C C M"
_symmetry_group_IT_number 49
_symmetry_cell_setting 'orthorhombic'
loop_
_space_group_symop_operation_xyz
x,y,z
-x,-y,z
x,-y,1/2-z
-x,y,1/2-z
-x,-y,-z
x,y,-z
-x,y,1/2+z
x,-y,1/2+z
loop_
_atom_site_type_symbol
_atom_site_label
_atom_site_fract_x
_atom_site_fract_y
_atom_site_fract_z
Si Si1 0.337560 0.377556 0.398621
Si Si2 0.161828 0.742415 0.900365
Si Si3 0.337558 0.377557 0.101379
Si Si4 0.340969 0.000001 0.901358
Si Si5 0.160884 0.880547 0.151221
Si Si6 0.837266 0.499999 0.101222
Si Si7 0.839115 0.119454 0.651219
Si Si8 0.161822 0.257588 0.900365
O O1 0.338083 0.377439 0.500000
O O2 0.261345 0.313691 0.370918
O O3 0.500001 0.381413 0.371935
O O4 0.246664 0.437826 0.372758
O O5 0.211352 0.812071 0.877336
O O6 0.000004 0.735160 0.869929
O O7 0.157473 0.738603 0.000000
O O8 0.246665 0.437828 0.127241
O O9 0.261338 0.313693 0.129082
O O10 0.338080 0.377440 0.000000
O O11 0.257376 0.062104 0.875443
O O12 0.500000 0.000000 0.867163
O O13 0.257372 0.937900 0.875438
O O14 0.348542 0.999998 0.000000
O O15 0.155002 0.880221 0.250001
O O16 0.000000 0.888767 0.119089
O O17 0.000000 0.500000 0.128344
O O18 0.838802 0.499999 0.000000
O O19 0.788652 0.187931 0.622663
O O20 0.157465 0.261401 0.000000
#
# Coordination Sequence:
#
# PCOD9394387 Si02
#       8
#     8   8   8   8   8   8   8   8
#     4   9  16  25  39  62  93 127 163 205 251 298
#     4   9  17  30  48  70  97 130 167 206 249 298
#     4   9  16  25  39  62  93 127 163 205 251 298
#     4  11  24  39  56  80 108 137 170 209 254 304
#     4  10  21  37  57  80 105 135 172 212 254 303
#     4   9  15  23  37  59  90 127 164 203 250 302
#     4  10  21  37  57  80 105 135 172 212 254 303
#     4   9  17  30  48  70  97 130 167 206 249 298
#
# _framework density 19.603877000000001
#
# number of rings (size 3 to 8) (size 9 to 14) (size 15 to 20)
#    0.000    2.500    0.000    2.625    0.000    9.500 
#    0.000    2.500    0.000    0.000    0.000    0.875 
#    0.000    7.000    0.000    0.000    0.000    0.000 
#
# Total GULP energy -357263.465884 kJ/mol
# GULP energy per Si atom -5582.241654 kJ/mol
# Density = 1.955926 g / cm^3
# Si number density = 19.603877 Si / 1000 Ang^3
#
#
#
# Elastic Constant Matrix: (Units=GPa)
#
#
# Indices 1 2 3 4 5 6 
#
# 1 158.2202 142.8602 9.6482 0.0000 0.0000 0.0000
# 2 142.8602 232.8451 11.4643 0.0000 0.0000 0.0000
# 3 9.6482 11.4643 13.8165 0.0000 0.0000 0.0000
# 4 0.0000 0.0000 0.0000 -40.9690 0.0000 0.0000
# 5 0.0000 0.0000 0.0000 0.0000 8.5078 0.0000
# 6 0.0000 0.0000 0.0000 0.0000 0.0000 -5.4570
#
#
#
# Elastic Compliance Matrix: (Units=1/GPa)
#
#
# Indices 1 2 3 4 5 6 
#
# 1 0.014275 -0.008620 -0.002816 0.000000 0.000000 0.000000
# 2 -0.008620 0.009682 -0.002015 0.000000 0.000000 0.000000
# 3 -0.002816 -0.002015 0.076016 0.000000 0.000000 0.000000
# 4 0.000000 0.000000 0.000000 -0.024409 0.000000 0.000000
# 5 0.000000 0.000000 0.000000 0.000000 0.117540 0.000000
# 6 0.000000 0.000000 0.000000 0.000000 0.000000 -0.183252
#
#
# Mechanical properties :
#
#
# Convention : Reuss Voigt Hill
#
# Bulk Modulus (GPa) = 13.68520 81.42525 47.55522
# Shear Modulus (GPa) = 81.82030 8.47697 45.14863
#
# Velocity S-wave (km/s) = 6.46741 2.08171 4.80421
# Velocity P-wave (km/s) = 7.92249 6.88502 7.42191
#
# Compressibility (1/GPa) = 0.07307165
#
# Stress axis : x y z
#
# Youngs Moduli (GPa) = 70.05374 103.28091 13.15520
#
# Poissons Ratio (x) = 0.89023 0.03705
# Poissons Ratio (y) = 0.60383 0.02651
# Poissons Ratio (z) = 0.19728 0.20810
#
# Static dielectric constant tensor:
#      x y z
#    x 1.684810 0.000000 0.000000 
#    y 0.000000 1.670040 0.000000 
#    z 0.000000 0.000000 1.684180 
# 
# From -- ./inp_files/16580.got.cif
#   From: 2010.05.17/outbox.cif.g08.bks.cpg/sg49_9_cif.got.tgz:16580.got - 2010.06.03 21:02:19.
