data_PCOD9394874
_publ_section_title
;
Structure prediction by ZEFSAII (Michael W. Deem and Ramdas Pophale) SiO2 
 PCOD9394874
Probable space group: P C C M
;
_chemical_formula_sum "Si O2"
_cell_formula_units_Z 48
_cell_length_a 9.111039
_cell_length_b 9.814114
_cell_length_c 28.337620
_cell_angle_alpha 90.000000
_cell_angle_beta 90.000000
_cell_angle_gamma 90.000000
_cell_volume 2533.858603
_symmetry_space_group_name_H-M "P C C M"
_symmetry_group_IT_number 49
_symmetry_cell_setting 'orthorhombic'
loop_
_space_group_symop_operation_xyz
x,y,z
-x,-y,z
x,-y,1/2-z
-x,y,1/2-z
-x,-y,-z
x,y,-z
-x,y,1/2+z
x,-y,1/2+z
loop_
_atom_site_type_symbol
_atom_site_label
_atom_site_fract_x
_atom_site_fract_y
_atom_site_fract_z
Si Si1 0.658799 0.200442 0.272722
Si Si2 0.326910 0.006317 0.862579
Si Si3 0.179843 0.745967 0.818706
Si Si4 0.872266 0.112154 0.446755
Si Si5 0.069062 0.647860 0.615966
Si Si6 0.658754 0.539777 0.165210
O O1 0.500000 0.162946 0.250000
O O2 0.692507 0.099969 0.315950
O O3 0.788146 0.200970 0.234022
O O4 0.640221 0.353953 0.292182
O O5 0.245170 0.068687 0.907471
O O6 0.500000 0.000000 0.870988
O O7 0.259643 0.857828 0.851401
O O8 0.260088 0.599603 0.820982
O O9 0.018275 0.717664 0.839929
O O10 0.814389 0.122690 0.500000
O O11 0.940052 0.253459 0.428318
O O12 0.000000 0.000000 0.446151
O O13 0.236721 0.618804 0.629223
O O14 0.000000 0.500000 0.607750
O O15 0.500000 0.500000 0.146268
#
# Coordination Sequence:
#
# PCOD9394874 Si02
#       6
#     8   8   8   8   8   8
#     4  12  22  36  61  94 130 180 214 250 308 378
#     4  12  23  40  64  95 131 166 216 266 315 383
#     4  11  23  36  59  93 136 168 212 255 311 374
#     4  11  24  46  71  91 119 164 214 272 338 392
#     4  10  23  43  64  95 126 164 212 271 324 381
#     4  11  21  38  62  90 127 175 217 254 308 373
#
# _framework density 18.943439999999999
#
# number of rings (size 3 to 8) (size 9 to 14) (size 15 to 20)
#    0.000    0.833    6.667    1.000    0.000    1.333 
#    0.000    2.500    0.000    0.500    0.000    0.000 
#    0.000    0.000    0.000    0.000    0.000    0.000 
#
# Total GULP energy -268140.026643 kJ/mol
# GULP energy per Si atom -5586.250555 kJ/mol
# Density = 1.890032 g / cm^3
# Si number density = 18.943440 Si / 1000 Ang^3
#
#
#
# Elastic Constant Matrix: (Units=GPa)
#
#
# Indices 1 2 3 4 5 6 
#
# 1 88.7790 30.2897 40.1411 0.0000 0.0000 0.0000
# 2 30.2897 109.7816 54.0669 0.0000 0.0000 0.0000
# 3 40.1411 54.0669 127.9644 0.0000 0.0000 0.0000
# 4 0.0000 0.0000 0.0000 11.8419 0.0000 0.0000
# 5 0.0000 0.0000 0.0000 0.0000 28.8473 0.0000
# 6 0.0000 0.0000 0.0000 0.0000 0.0000 27.0075
#
#
#
# Elastic Compliance Matrix: (Units=1/GPa)
#
#
# Indices 1 2 3 4 5 6 
#
# 1 0.013487 -0.002068 -0.003357 0.000000 0.000000 0.000000
# 2 -0.002068 0.011820 -0.004345 0.000000 0.000000 0.000000
# 3 -0.003357 -0.004345 0.010704 0.000000 0.000000 0.000000
# 4 0.000000 0.000000 0.000000 0.084446 0.000000 0.000000
# 5 0.000000 0.000000 0.000000 0.000000 0.034665 0.000000
# 6 0.000000 0.000000 0.000000 0.000000 0.000000 0.037027
#
#
# Mechanical properties :
#
#
# Convention : Reuss Voigt Hill
#
# Bulk Modulus (GPa) = 60.71629 63.94672 62.33151
# Shear Modulus (GPa) = 23.02246 27.00782 25.01514
#
# Velocity S-wave (km/s) = 3.48994 3.77995 3.63783
# Velocity P-wave (km/s) = 6.95417 7.27191 7.11481
#
# Compressibility (1/GPa) = 0.01647004
#
# Stress axis : x y z
#
# Youngs Moduli (GPa) = 74.14342 84.60539 93.42561
#
# Poissons Ratio (x) = 0.17496 0.31364
# Poissons Ratio (y) = 0.15332 0.40596
# Poissons Ratio (z) = 0.24891 0.36763
#
# Static dielectric constant tensor:
#      x y z
#    x 1.669380 0.000000 0.000000 
#    y 0.000000 1.678380 0.000000 
#    z 0.000000 0.000000 1.642450 
# 
# From -- ./inp_files/26255.got.cif
#   From: 2010.05.17/outbox.cif.g08.bks.cpg/sg49_14_cif.got.tgz:26255.got - 2010.06.03 21:02:19.
