data_PCOD9394375
_publ_section_title
;
Structure prediction by ZEFSAII (Michael W. Deem and Ramdas Pophale) SiO2 
 PCOD9394375
Probable space group: P C C M
;
_chemical_formula_sum "Si O2"
_cell_formula_units_Z 64
_cell_length_a 8.978072
_cell_length_b 22.022858
_cell_length_c 16.644598
_cell_angle_alpha 90.000000
_cell_angle_beta 90.000000
_cell_angle_gamma 90.000000
_cell_volume 3291.016601
_symmetry_space_group_name_H-M "P C C M"
_symmetry_group_IT_number 49
_symmetry_cell_setting 'orthorhombic'
loop_
_space_group_symop_operation_xyz
x,y,z
-x,-y,z
x,-y,1/2-z
-x,y,1/2-z
-x,-y,-z
x,y,-z
-x,y,1/2+z
x,-y,1/2+z
loop_
_atom_site_type_symbol
_atom_site_label
_atom_site_fract_x
_atom_site_fract_y
_atom_site_fract_z
Si Si1 0.925708 0.561429 0.096464
Si Si2 0.916284 0.059625 0.903976
Si Si3 0.573957 0.817171 0.837005
Si Si4 0.932820 0.821821 0.839225
Si Si5 0.056251 0.310386 0.841190
Si Si6 0.609956 0.309357 0.404181
Si Si7 0.577687 0.937652 0.597037
Si Si8 0.578749 0.439704 0.402690
O O1 0.995693 0.625728 0.121978
O O2 0.752341 0.559150 0.119600
O O3 0.000000 0.500000 0.127956
O O4 0.931706 0.560079 0.000000
O O5 0.747722 0.064543 0.872796
O O6 0.007331 0.120309 0.886145
O O7 0.905340 0.052559 0.000000
O O8 0.000000 0.000000 0.871697
O O9 0.500000 0.811502 0.750000
O O10 0.753485 0.822315 0.834768
O O11 0.536594 0.754967 0.884497
O O12 0.509378 0.877903 0.876211
O O13 0.984834 0.756438 0.874931
O O14 0.000000 0.825790 0.750000
O O15 0.234953 0.311187 0.854959
O O16 0.000000 0.310127 0.750000
O O17 0.644796 0.311994 0.500000
O O18 0.523200 0.371566 0.382390
O O19 0.578779 0.938615 0.500000
O O20 0.500000 0.000000 0.624541
O O21 0.500000 0.500000 0.370330
O O22 0.570380 0.443101 0.500000
#
# Coordination Sequence:
#
# PCOD9394375 Si02
#       8
#     8   8   8   8   8   8   8   8
#     4   9  17  30  49  75 106 141 183 227 273 331
#     4  10  21  37  58  84 111 140 178 225 274 326
#     4  11  22  36  57  82 112 147 186 234 288 341
#     4  10  21  37  55  77 107 144 184 223 273 336
#     4   9  18  32  52  78 108 142 181 231 283 334
#     4   9  18  34  57  81 108 148 193 232 280 348
#     4  10  21  38  59  84 114 145 183 231 280 337
#     4   8  14  28  50  75 102 134 177 225 268 316
#
# _framework density 19.446878999999999
#
# number of rings (size 3 to 8) (size 9 to 14) (size 15 to 20)
#    0.000    2.500    0.000    3.000    0.000    4.750 
#    0.000    7.500    0.000    4.875    0.000    0.000 
#    0.000    0.000    0.000    0.000    0.000    0.500 
#
# Total GULP energy -356528.735529 kJ/mol
# GULP energy per Si atom -5570.761493 kJ/mol
# Density = 1.940262 g / cm^3
# Si number density = 19.446879 Si / 1000 Ang^3
#
#
#
# Elastic Constant Matrix: (Units=GPa)
#
#
# Indices 1 2 3 4 5 6 
#
# 1 78.0674 72.3257 21.3635 0.0000 0.0000 0.0000
# 2 72.3257 231.7728 26.4264 0.0000 0.0000 0.0000
# 3 21.3635 26.4264 24.2630 0.0000 0.0000 0.0000
# 4 0.0000 0.0000 0.0000 4.7195 0.0000 0.0000
# 5 0.0000 0.0000 0.0000 0.0000 17.9006 0.0000
# 6 0.0000 0.0000 0.0000 0.0000 0.0000 31.2299
#
#
#
# Elastic Compliance Matrix: (Units=1/GPa)
#
#
# Indices 1 2 3 4 5 6 
#
# 1 0.021097 -0.005098 -0.013022 0.000000 0.000000 0.000000
# 2 -0.005098 0.006159 -0.002218 0.000000 0.000000 0.000000
# 3 -0.013022 -0.002218 0.055098 0.000000 0.000000 0.000000
# 4 0.000000 0.000000 0.000000 0.211887 0.000000 0.000000
# 5 0.000000 0.000000 0.000000 0.000000 0.055864 0.000000
# 6 0.000000 0.000000 0.000000 0.000000 0.000000 0.032021
#
#
# Mechanical properties :
#
#
# Convention : Reuss Voigt Hill
#
# Bulk Modulus (GPa) = 23.99579 63.81491 43.90535
# Shear Modulus (GPa) = 11.44965 25.03583 18.24274
#
# Velocity S-wave (km/s) = 2.42908 3.59192 3.06613
# Velocity P-wave (km/s) = 4.49813 7.07734 5.92967
#
# Compressibility (1/GPa) = 0.04167398
#
# Stress axis : x y z
#
# Youngs Moduli (GPa) = 47.40102 162.37673 18.14962
#
# Poissons Ratio (x) = 0.82787 0.23635
# Poissons Ratio (y) = 0.24167 0.04026
# Poissons Ratio (z) = 0.61728 0.36022
#
# Static dielectric constant tensor:
#      x y z
#    x 1.725720 0.000000 0.000000 
#    y 0.000000 1.726980 0.000000 
#    z 0.000000 0.000000 1.675810 
# 
# From -- ./inp_files/16573.got.cif
#   From: 2010.05.17/outbox.cif.g08.bks.cpg/sg49_9_cif.got.tgz:16573.got - 2010.06.03 21:02:19.
