data_PCOD9394512
_publ_section_title
;
Structure prediction by ZEFSAII (Michael W. Deem and Ramdas Pophale) SiO2 
 PCOD9394512
Probable space group: P C C M
;
_chemical_formula_sum "Si O2"
_cell_formula_units_Z 64
_cell_length_a 12.011296
_cell_length_b 18.222206
_cell_length_c 14.214753
_cell_angle_alpha 90.000000
_cell_angle_beta 90.000000
_cell_angle_gamma 90.000000
_cell_volume 3111.215826
_symmetry_space_group_name_H-M "P C C M"
_symmetry_group_IT_number 49
_symmetry_cell_setting 'orthorhombic'
loop_
_space_group_symop_operation_xyz
x,y,z
-x,-y,z
x,-y,1/2-z
-x,y,1/2-z
-x,-y,-z
x,y,-z
-x,y,1/2+z
x,-y,1/2+z
loop_
_atom_site_type_symbol
_atom_site_label
_atom_site_fract_x
_atom_site_fract_y
_atom_site_fract_z
Si Si1 0.768848 0.441136 0.885933
Si Si2 0.199959 0.814644 0.606972
Si Si3 0.242685 0.603644 0.614603
Si Si4 0.989718 0.635757 0.613427
Si Si5 0.870727 0.780392 0.308604
Si Si6 0.342013 0.288316 0.613584
Si Si7 0.994225 0.082991 0.390654
Si Si8 0.591488 0.732343 0.112339
O O1 0.729314 0.521086 0.854810
O O2 0.897822 0.425605 0.861075
O O3 0.697912 0.370027 0.856859
O O4 0.764586 0.442182 0.000000
O O5 0.178015 0.784403 0.500000
O O6 0.144920 0.776037 0.696643
O O7 0.134924 0.891162 0.609665
O O8 0.331536 0.804692 0.623051
O O9 0.243477 0.605072 0.500000
O O10 0.330308 0.665244 0.645855
O O11 0.115333 0.619336 0.643640
O O12 0.990617 0.640095 0.500000
O O13 0.938891 0.711731 0.650739
O O14 0.747967 0.770016 0.350862
O O15 0.930094 0.856422 0.338174
O O16 0.338474 0.287399 0.500000
O O17 0.465907 0.269948 0.647705
O O18 0.030408 0.084482 0.500000
O O19 0.000000 0.000000 0.356189
O O20 0.580148 0.722034 0.000000
#
# Coordination Sequence:
#
# PCOD9394512 Si02
#       8
#     8   8   8   8   8   8   8   8
#     4   8  14  24  41  71 109 145 182 228 282 340
#     4  10  22  38  55  80 112 145 184 228 272 320
#     4   9  15  24  43  71 108 152 187 222 278 342
#     4   9  16  27  46  76 112 147 186 229 277 337
#     4  11  20  33  57  82 111 148 185 225 272 324
#     4   9  18  32  51  78 111 146 187 232 278 332
#     4  10  21  38  62  93 125 150 174 210 259 317
#     4   9  18  32  49  72 106 148 192 235 276 323
#
# _framework density 20.570734999999999
#
# number of rings (size 3 to 8) (size 9 to 14) (size 15 to 20)
#    0.000    2.625    0.000    3.375    0.000    5.500 
#    0.000    2.500    0.000    3.750    0.000   13.125 
#    0.000   20.000    0.000    0.000    0.000    0.000 
#
# Total GULP energy -357173.980788 kJ/mol
# GULP energy per Si atom -5580.843450 kJ/mol
# Density = 2.052392 g / cm^3
# Si number density = 20.570735 Si / 1000 Ang^3
#
#
#
# Elastic Constant Matrix: (Units=GPa)
#
#
# Indices 1 2 3 4 5 6 
#
# 1 180.6052 70.6713 18.3809 0.0000 0.0000 0.0000
# 2 70.6713 126.3391 9.0504 0.0000 0.0000 0.0000
# 3 18.3809 9.0504 89.5427 0.0000 0.0000 0.0000
# 4 0.0000 0.0000 0.0000 0.8290 0.0000 0.0000
# 5 0.0000 0.0000 0.0000 0.0000 14.7492 0.0000
# 6 0.0000 0.0000 0.0000 0.0000 0.0000 17.3487
#
#
#
# Elastic Compliance Matrix: (Units=1/GPa)
#
#
# Indices 1 2 3 4 5 6 
#
# 1 0.007190 -0.003945 -0.001077 0.000000 0.000000 0.000000
# 2 -0.003945 0.010137 -0.000215 0.000000 0.000000 0.000000
# 3 -0.001077 -0.000215 0.011411 0.000000 0.000000 0.000000
# 4 0.000000 0.000000 0.000000 1.206279 0.000000 0.000000
# 5 0.000000 0.000000 0.000000 0.000000 0.067800 0.000000
# 6 0.000000 0.000000 0.000000 0.000000 0.000000 0.057641
#
#
# Mechanical properties :
#
#
# Convention : Reuss Voigt Hill
#
# Bulk Modulus (GPa) = 54.75167 65.85471 60.30319
# Shear Modulus (GPa) = 3.63103 26.47768 15.05436
#
# Velocity S-wave (km/s) = 1.33003 3.59158 2.70818
# Velocity P-wave (km/s) = 5.38820 7.02016 6.25761
#
# Compressibility (1/GPa) = 0.01826428
#
# Stress axis : x y z
#
# Youngs Moduli (GPa) = 139.07791 98.64591 87.63698
#
# Poissons Ratio (x) = 0.38915 0.09441
# Poissons Ratio (y) = 0.54865 0.01883
# Poissons Ratio (z) = 0.14982 0.02119
#
# Static dielectric constant tensor:
#      x y z
#    x 1.747590 0.000000 0.000000 
#    y 0.000000 1.723130 0.000000 
#    z 0.000000 0.000000 1.814310 
# 
# From -- ./inp_files/13088.got.cif
#   From: 2010.05.17/outbox.cif.g08.bks.cpg/sg49_7_cif.got.tgz:13088.got - 2010.06.03 21:02:19.
