data_PCOD9394507
_publ_section_title
;
Structure prediction by ZEFSAII (Michael W. Deem and Ramdas Pophale) SiO2 
 PCOD9394507
Probable space group: P C C M
;
_chemical_formula_sum "Si O2"
_cell_formula_units_Z 64
_cell_length_a 10.372323
_cell_length_b 16.506224
_cell_length_c 17.334994
_cell_angle_alpha 90.000000
_cell_angle_beta 90.000000
_cell_angle_gamma 90.000000
_cell_volume 2967.887691
_symmetry_space_group_name_H-M "P C C M"
_symmetry_group_IT_number 49
_symmetry_cell_setting 'orthorhombic'
loop_
_space_group_symop_operation_xyz
x,y,z
-x,-y,z
x,-y,1/2-z
-x,y,1/2-z
-x,-y,-z
x,y,-z
-x,y,1/2+z
x,-y,1/2+z
loop_
_atom_site_type_symbol
_atom_site_label
_atom_site_fract_x
_atom_site_fract_y
_atom_site_fract_z
Si Si1 0.770315 0.343294 0.872502
Si Si2 0.298263 0.589422 0.710778
Si Si3 0.770315 0.843294 0.627498
Si Si4 0.500650 0.096514 0.418106
Si Si5 0.298263 0.910578 0.289222
Si Si6 0.955093 0.655193 0.160288
Si Si7 0.044907 0.155193 0.839712
Si Si8 0.500650 0.403486 0.581894
O O1 0.729801 0.352712 0.782782
O O2 0.779190 0.250000 0.893148
O O3 0.648383 0.380059 0.914260
O O4 0.915728 0.375817 0.882444
O O5 0.314186 0.500000 0.750000
O O6 0.170091 0.598305 0.658000
O O7 0.417489 0.616812 0.658052
O O8 0.648383 0.880059 0.585740
O O9 0.915728 0.875817 0.617556
O O10 0.729800 0.852712 0.717218
O O11 0.555738 0.127006 0.500000
O O12 0.582511 0.116812 0.341948
O O13 0.500000 0.000000 0.418615
O O14 0.170091 0.901694 0.342000
O O15 0.314186 0.000000 0.250000
O O16 0.927002 0.750000 0.139833
O O17 0.000000 0.656210 0.250000
O O18 0.000000 0.156210 0.750000
O O19 0.500000 0.500000 0.581385
O O20 0.555738 0.372994 0.500000
#
# Coordination Sequence:
#
# PCOD9394507 Si02
#       8
#     8   8   8   8   8   8   8   8
#     4  10  21  38  62  89 117 153 196 244 294 348
#     4  11  20  35  61  92 115 154 195 242 296 351
#     4  10  21  38  62  89 117 153 196 244 294 348
#     4  11  24  41  56  81 123 160 195 239 288 347
#     4  11  20  35  61  92 115 154 195 242 296 351
#     4   8  17  34  56  88 121 144 184 246 297 342
#     4   8  17  34  56  88 121 144 184 246 297 342
#     4  11  24  41  56  81 123 160 195 239 288 347
#
# _framework density 21.564157000000002
#
# number of rings (size 3 to 8) (size 9 to 14) (size 15 to 20)
#    0.000    2.000    2.500    3.000    0.000    8.000 
#    0.000    1.250    0.000    4.500    0.000    0.000 
#    0.000    0.000    0.000    0.000    0.000    0.000 
#
# Total GULP energy -356577.679238 kJ/mol
# GULP energy per Si atom -5571.526238 kJ/mol
# Density = 2.151508 g / cm^3
# Si number density = 21.564157 Si / 1000 Ang^3
#
#
#
# Elastic Constant Matrix: (Units=GPa)
#
#
# Indices 1 2 3 4 5 6 
#
# 1 135.0132 17.7338 39.7480 0.0000 0.0000 0.0000
# 2 17.7338 23.6979 -2.3077 0.0000 0.0000 0.0000
# 3 39.7480 -2.3077 63.6818 0.0000 0.0000 0.0000
# 4 0.0000 0.0000 0.0000 905.2257 0.0000 0.0000
# 5 0.0000 0.0000 0.0000 0.0000 28.2645 0.0000
# 6 0.0000 0.0000 0.0000 0.0000 0.0000 24.2001
#
#
#
# Elastic Compliance Matrix: (Units=1/GPa)
#
#
# Indices 1 2 3 4 5 6 
#
# 1 0.010567 -0.008580 -0.006906 0.000000 0.000000 0.000000
# 2 -0.008580 0.049314 0.007142 0.000000 0.000000 0.000000
# 3 -0.006906 0.007142 0.020273 0.000000 0.000000 0.000000
# 4 0.000000 0.000000 0.000000 0.001105 0.000000 0.000000
# 5 0.000000 0.000000 0.000000 0.000000 0.035380 0.000000
# 6 0.000000 0.000000 0.000000 0.000000 0.000000 0.041322
#
#
# Mechanical properties :
#
#
# Convention : Reuss Voigt Hill
#
# Bulk Modulus (GPa) = 15.75657 36.97123 26.36390
# Shear Modulus (GPa) = 25.53573 202.68597 114.11085
#
# Velocity S-wave (km/s) = 3.44492 9.70547 7.28229
# Velocity P-wave (km/s) = 4.81103 11.94892 9.10831
#
# Compressibility (1/GPa) = 0.06346560
#
# Stress axis : x y z
#
# Youngs Moduli (GPa) = 94.63484 20.27816 49.32750
#
# Poissons Ratio (x) = 0.17399 0.34068
# Poissons Ratio (y) = 0.81197 -0.35232
# Poissons Ratio (z) = 0.65359 -0.14484
#
# Static dielectric constant tensor:
#      x y z
#    x 1.951680 0.000000 0.000000 
#    y 0.000000 1.763100 0.000000 
#    z 0.000000 0.000000 1.837200 
# 
# From -- ./inp_files/20033.got.cif
#   From: 2010.05.17/outbox.cif.g08.bks.cpg/sg49_11_cif.got.tgz:20033.got - 2010.06.03 21:02:19.
