data_PCOD9394142
_publ_section_title
;
Structure prediction by ZEFSAII (Michael W. Deem and Ramdas Pophale) SiO2 
 PCOD9394142
Probable space group: P C C M
;
_chemical_formula_sum "Si O2"
_cell_formula_units_Z 48
_cell_length_a 9.182657
_cell_length_b 28.870163
_cell_length_c 9.370334
_cell_angle_alpha 90.000000
_cell_angle_beta 90.000000
_cell_angle_gamma 90.000000
_cell_volume 2484.120562
_symmetry_space_group_name_H-M "P C C M"
_symmetry_group_IT_number 49
_symmetry_cell_setting 'orthorhombic'
loop_
_space_group_symop_operation_xyz
x,y,z
-x,-y,z
x,-y,1/2-z
-x,y,1/2-z
-x,-y,-z
x,y,-z
-x,y,1/2+z
x,-y,1/2+z
loop_
_atom_site_type_symbol
_atom_site_label
_atom_site_fract_x
_atom_site_fract_y
_atom_site_fract_z
Si Si1 0.000000 0.114199 0.750000
Si Si2 0.458369 0.947174 0.500000
Si Si3 0.344244 0.271964 0.327848
Si Si4 0.655264 0.546939 0.673175
Si Si5 0.500000 0.117360 0.250000
Si Si6 0.150778 0.363231 0.667779
Si Si7 0.901025 0.952434 0.000000
Si Si8 0.238986 0.181514 0.168615
O O1 0.951846 0.079052 0.629659
O O2 0.868171 0.150130 0.763053
O O3 0.533512 0.919463 0.371881
O O4 0.278463 0.950042 0.500000
O O5 0.500000 0.000000 0.500000
O O6 0.500000 0.275929 0.250000
O O7 0.359584 0.263718 0.500000
O O8 0.254016 0.319060 0.306529
O O9 0.262738 0.230125 0.246973
O O10 0.709629 0.500000 0.750000
O O11 0.500000 0.556119 0.750000
O O12 0.639087 0.541466 0.500000
O O13 0.761452 0.589853 0.701394
O O14 0.385852 0.151807 0.177631
O O15 0.118179 0.364066 0.500000
O O16 0.000000 0.359775 0.750000
O O17 0.000000 0.000000 0.000000
O O18 0.196037 0.185694 0.000000
#
# Coordination Sequence:
#
# PCOD9394142 Si02
#       8
#     4   4   8   8   4   8   4   8
#     4  12  25  48  68  92 134 166 207 258 318 382
#     4  12  28  46  68 100 126 164 210 258 311 376
#     4  11  25  43  68  99 129 171 217 270 328 385
#     4  10  20  37  63  95 130 172 225 277 332 393
#     4  12  23  46  68  94 132 156 209 260 312 374
#     4  10  24  43  62  92 133 176 223 272 331 392
#     4  12  28  48  66  98 130 168 212 254 315 388
#     4  12  26  46  67  99 128 168 216 263 320 389
#
# _framework density 19.322735000000002
#
# number of rings (size 3 to 8) (size 9 to 14) (size 15 to 20)
#    0.000    0.833    4.167    2.500    5.833    4.333 
#    0.000    1.667    0.000    0.000    0.000    0.000 
#    0.000    0.000    0.000    0.000    0.000    0.000 
#
# Total GULP energy -267535.861335 kJ/mol
# GULP energy per Si atom -5573.663778 kJ/mol
# Density = 1.927876 g / cm^3
# Si number density = 19.322735 Si / 1000 Ang^3
#
#
#
# Elastic Constant Matrix: (Units=GPa)
#
#
# Indices 1 2 3 4 5 6 
#
# 1 70.8505 53.1204 27.6526 0.0000 0.0000 0.0000
# 2 53.1204 164.6091 53.3581 0.0000 0.0000 0.0000
# 3 27.6526 53.3581 91.4819 0.0000 0.0000 0.0000
# 4 0.0000 0.0000 0.0000 49.9224 0.0000 0.0000
# 5 0.0000 0.0000 0.0000 0.0000 33.4088 0.0000
# 6 0.0000 0.0000 0.0000 0.0000 0.0000 36.7063
#
#
#
# Elastic Compliance Matrix: (Units=1/GPa)
#
#
# Indices 1 2 3 4 5 6 
#
# 1 0.019142 -0.005305 -0.002692 0.000000 0.000000 0.000000
# 2 -0.005305 0.008961 -0.003623 0.000000 0.000000 0.000000
# 3 -0.002692 -0.003623 0.013858 0.000000 0.000000 0.000000
# 4 0.000000 0.000000 0.000000 0.020031 0.000000 0.000000
# 5 0.000000 0.000000 0.000000 0.000000 0.029932 0.000000
# 6 0.000000 0.000000 0.000000 0.000000 0.000000 0.027243
#
#
# Mechanical properties :
#
#
# Convention : Reuss Voigt Hill
#
# Bulk Modulus (GPa) = 53.41477 66.13374 59.77425
# Shear Modulus (GPa) = 33.63625 36.86154 35.24889
#
# Velocity S-wave (km/s) = 4.17677 4.37243 4.27572
# Velocity P-wave (km/s) = 7.13891 7.73247 7.44161
#
# Compressibility (1/GPa) = 0.01872141
#
# Stress axis : x y z
#
# Youngs Moduli (GPa) = 52.24082 111.59023 72.15896
#
# Poissons Ratio (x) = 0.59194 0.19426
# Poissons Ratio (y) = 0.27712 0.26146
# Poissons Ratio (z) = 0.14064 0.40434
#
# Static dielectric constant tensor:
#      x y z
#    x 1.719900 0.000000 0.000000 
#    y 0.000000 1.664360 0.000000 
#    z 0.000000 0.000000 1.553290 
# 
# From -- ./inp_files/2187.got.cif
#   From: 2010.05.17/outbox.cif.g08.bks.cpg/sg49_2_cif.got.tgz:2187.got - 2010.06.03 21:02:19.
