data_PCOD9394566
_publ_section_title
;
Structure prediction by ZEFSAII (Michael W. Deem and Ramdas Pophale) SiO2 
 PCOD9394566
Probable space group: P C C M
;
_chemical_formula_sum "Si O2"
_cell_formula_units_Z 40
_cell_length_a 9.119014
_cell_length_b 24.494221
_cell_length_c 9.344942
_cell_angle_alpha 90.000000
_cell_angle_beta 90.000000
_cell_angle_gamma 90.000000
_cell_volume 2087.315628
_symmetry_space_group_name_H-M "P C C M"
_symmetry_group_IT_number 49
_symmetry_cell_setting 'orthorhombic'
loop_
_space_group_symop_operation_xyz
x,y,z
-x,-y,z
x,-y,1/2-z
-x,y,1/2-z
-x,-y,-z
x,y,-z
-x,y,1/2+z
x,-y,1/2+z
loop_
_atom_site_type_symbol
_atom_site_label
_atom_site_fract_x
_atom_site_fract_y
_atom_site_fract_z
Si Si1 0.856568 0.920696 0.000000
Si Si2 0.147700 0.226859 0.663414
Si Si3 0.158148 0.649684 0.173962
Si Si4 0.339827 0.554805 0.323780
Si Si5 0.193162 0.949771 0.000000
Si Si6 0.674481 0.878247 0.735215
O O1 0.776413 0.891886 0.869496
O O2 0.033628 0.919815 0.000000
O O3 0.825205 0.985617 0.000000
O O4 0.099519 0.229223 0.500000
O O5 0.206843 0.287420 0.697903
O O6 0.267088 0.179804 0.679947
O O7 0.000000 0.214886 0.750000
O O8 0.255476 0.606810 0.260949
O O9 0.000000 0.646226 0.250000
O O10 0.154726 0.639576 0.000000
O O11 0.273171 0.500000 0.250000
O O12 0.500000 0.558090 0.250000
O O13 0.344144 0.552196 0.500000
O O14 0.284104 0.927900 0.867695
O O15 0.500000 0.876411 0.750000
#
# Coordination Sequence:
#
# PCOD9394566 Si02
#       6
#     4   8   8   8   4   8
#     4  11  25  41  67  91 115 167 204 257 304 385
#     4  10  22  41  65  89 121 164 208 253 306 378
#     4  10  21  39  62  92 124 162 210 263 315 372
#     4  11  22  39  62  91 126 170 215 262 320 381
#     4  11  23  45  65  87 123 157 216 247 310 381
#     4  12  25  40  61  94 126 159 201 260 320 372
#
# _framework density 19.16337
#
# number of rings (size 3 to 8) (size 9 to 14) (size 15 to 20)
#    0.000    1.200    1.000    6.000    1.400    6.000 
#    0.000    2.000    0.000    0.000    0.000    0.000 
#    0.000    0.000    0.000    0.000    0.000    0.000 
#
# Total GULP energy -223088.343800 kJ/mol
# GULP energy per Si atom -5577.208595 kJ/mol
# Density = 1.911975 g / cm^3
# Si number density = 19.163370 Si / 1000 Ang^3
#
#
#
# Elastic Constant Matrix: (Units=GPa)
#
#
# Indices 1 2 3 4 5 6 
#
# 1 79.0541 44.4038 7.9115 0.0000 0.0000 0.0000
# 2 44.4038 101.2546 21.8913 0.0000 0.0000 0.0000
# 3 7.9115 21.8913 105.2720 0.0000 0.0000 0.0000
# 4 0.0000 0.0000 0.0000 34.4814 0.0000 0.0000
# 5 0.0000 0.0000 0.0000 0.0000 29.8361 0.0000
# 6 0.0000 0.0000 0.0000 0.0000 0.0000 103.7134
#
#
#
# Elastic Compliance Matrix: (Units=1/GPa)
#
#
# Indices 1 2 3 4 5 6 
#
# 1 0.016792 -0.007425 0.000282 0.000000 0.000000 0.000000
# 2 -0.007425 0.013624 -0.002275 0.000000 0.000000 0.000000
# 3 0.000282 -0.002275 0.009951 0.000000 0.000000 0.000000
# 4 0.000000 0.000000 0.000000 0.029001 0.000000 0.000000
# 5 0.000000 0.000000 0.000000 0.000000 0.033516 0.000000
# 6 0.000000 0.000000 0.000000 0.000000 0.000000 0.009642
#
#
# Mechanical properties :
#
#
# Convention : Reuss Voigt Hill
#
# Bulk Modulus (GPa) = 46.44431 48.22156 47.33294
# Shear Modulus (GPa) = 36.09086 47.69777 41.89432
#
# Velocity S-wave (km/s) = 4.34444 4.99441 4.68072
# Velocity P-wave (km/s) = 7.03236 7.64702 7.34612
#
# Compressibility (1/GPa) = 0.02153116
#
# Stress axis : x y z
#
# Youngs Moduli (GPa) = 59.55304 73.39983 100.49119
#
# Poissons Ratio (x) = 0.54498 -0.02834
# Poissons Ratio (y) = 0.44217 0.22863
# Poissons Ratio (z) = -0.01680 0.16699
#
# Static dielectric constant tensor:
#      x y z
#    x 1.645300 0.000000 0.000000 
#    y 0.000000 1.685830 0.000000 
#    z 0.000000 0.000000 1.644640 
# 
# From -- ./inp_files/1736.got.cif
#   From: 2010.05.17/outbox.cif.g08.bks.cpg/sg49_1_cif.got.tgz:1736.got - 2010.06.03 21:02:19.
