data_PCOD9394194
_publ_section_title
;
Structure prediction by ZEFSAII (Michael W. Deem and Ramdas Pophale) SiO2 
 PCOD9394194
Probable space group: P C C M
;
_chemical_formula_sum "Si O2"
_cell_formula_units_Z 56
_cell_length_a 16.685429
_cell_length_b 8.556314
_cell_length_c 19.961197
_cell_angle_alpha 90.000000
_cell_angle_beta 90.000000
_cell_angle_gamma 90.000000
_cell_volume 2849.775655
_symmetry_space_group_name_H-M "P C C M"
_symmetry_group_IT_number 49
_symmetry_cell_setting 'orthorhombic'
loop_
_space_group_symop_operation_xyz
x,y,z
-x,-y,z
x,-y,1/2-z
-x,y,1/2-z
-x,-y,-z
x,y,-z
-x,y,1/2+z
x,-y,1/2+z
loop_
_atom_site_type_symbol
_atom_site_label
_atom_site_fract_x
_atom_site_fract_y
_atom_site_fract_z
Si Si1 0.880646 0.870512 0.000000
Si Si2 0.388088 0.159843 0.077458
Si Si3 0.483025 0.683068 0.828466
Si Si4 0.191977 0.164007 0.738804
Si Si5 0.060175 0.227636 0.500000
Si Si6 0.221051 0.708916 0.613739
Si Si7 0.169131 0.648047 0.887900
Si Si8 0.320113 0.165113 0.629925
O O1 0.829696 0.821225 0.064872
O O2 0.964865 0.779956 0.000000
O O3 0.903893 0.051979 0.000000
O O4 0.459164 0.210744 0.126306
O O5 0.312976 0.273704 0.091482
O O6 0.355283 0.986718 0.094195
O O7 0.412523 0.168274 0.000000
O O8 0.500000 0.500000 0.840197
O O9 0.500000 0.715120 0.750000
O O10 0.392320 0.722736 0.848764
O O11 0.211381 0.238426 0.809733
O O12 0.153184 0.287724 0.687355
O O13 0.146714 0.000000 0.750000
O O14 0.272601 0.880963 0.802368
O O15 0.095907 0.311621 0.564726
O O16 0.190339 0.532827 0.608447
O O17 0.249466 0.744642 0.909523
#
# Coordination Sequence:
#
# PCOD9394194 Si02
#       8
#     4   8   8   8   4   8   8   8
#     4  11  25  41  73  90 131 174 209 269 313 409
#     4  12  25  41  64  92 133 171 224 269 328 398
#     4  11  25  42  62  90 128 171 223 284 337 389
#     4  10  20  38  66  95 124 170 215 264 311 392
#     4  11  23  47  63 100 127 168 221 253 333 385
#     4  12  21  41  63  99 129 167 214 261 330 376
#     4  10  24  37  67  95 130 166 208 272 315 392
#     4  10  23  39  61  92 122 173 214 267 322 382
#
# _framework density 19.650669000000001
#
# number of rings (size 3 to 8) (size 9 to 14) (size 15 to 20)
#    0.857    0.286    2.143    4.714    1.000    4.286 
#    0.000    0.714    0.000    4.286    0.000    0.000 
#    0.000    0.000    0.000    0.000    0.000    0.000 
#
# Total GULP energy -312737.553601 kJ/mol
# GULP energy per Si atom -5584.599171 kJ/mol
# Density = 1.960594 g / cm^3
# Si number density = 19.650669 Si / 1000 Ang^3
#
#
#
# Elastic Constant Matrix: (Units=GPa)
#
#
# Indices 1 2 3 4 5 6 
#
# 1 43.0340 -22.4544 2.7796 0.0000 0.0000 0.0000
# 2 -22.4544 55.1710 2.7815 0.0000 0.0000 0.0000
# 3 2.7796 2.7815 107.2823 0.0000 0.0000 0.0000
# 4 0.0000 0.0000 0.0000 1.6396 0.0000 0.0000
# 5 0.0000 0.0000 0.0000 0.0000 85.2415 0.0000
# 6 0.0000 0.0000 0.0000 0.0000 0.0000 26.6219
#
#
#
# Elastic Compliance Matrix: (Units=1/GPa)
#
#
# Indices 1 2 3 4 5 6 
#
# 1 0.029628 0.012113 -0.001082 0.000000 0.000000 0.000000
# 2 0.012113 0.023101 -0.000913 0.000000 0.000000 0.000000
# 3 -0.001082 -0.000913 0.009373 0.000000 0.000000 0.000000
# 4 0.000000 0.000000 0.000000 0.609908 0.000000 0.000000
# 5 0.000000 0.000000 0.000000 0.000000 0.011731 0.000000
# 6 0.000000 0.000000 0.000000 0.000000 0.000000 0.037563
#
#
# Mechanical properties :
#
#
# Convention : Reuss Voigt Hill
#
# Bulk Modulus (GPa) = 12.14497 19.07786 15.61141
# Shear Modulus (GPa) = 6.86328 37.52598 22.19463
#
# Velocity S-wave (km/s) = 1.87089 4.37470 3.36439
# Velocity P-wave (km/s) = 3.29558 5.93691 4.80144
#
# Compressibility (1/GPa) = 0.08233864
#
# Stress axis : x y z
#
# Youngs Moduli (GPa) = 33.75230 43.28749 106.69066
#
# Poissons Ratio (x) = -0.52434 0.11541
# Poissons Ratio (y) = -0.40884 0.09739
# Poissons Ratio (z) = 0.03651 0.03951
#
# Static dielectric constant tensor:
#      x y z
#    x 1.658260 0.000000 0.000000 
#    y 0.000000 1.707090 0.000000 
#    z 0.000000 0.000000 1.667890 
# 
# From -- ./inp_files/20914.got.cif
#   From: 2010.05.17/outbox.cif.g08.bks.cpg/sg49_11_cif.got.tgz:20914.got - 2010.06.03 21:02:19.
