data_PCOD9394769
_publ_section_title
;
Structure prediction by ZEFSAII (Michael W. Deem and Ramdas Pophale) SiO2 
 PCOD9394769
Probable space group: P C C M
;
_chemical_formula_sum "Si O2"
_cell_formula_units_Z 56
_cell_length_a 7.990981
_cell_length_b 23.609165
_cell_length_c 14.404364
_cell_angle_alpha 90.000000
_cell_angle_beta 90.000000
_cell_angle_gamma 90.000000
_cell_volume 2717.532915
_symmetry_space_group_name_H-M "P C C M"
_symmetry_group_IT_number 49
_symmetry_cell_setting 'orthorhombic'
loop_
_space_group_symop_operation_xyz
x,y,z
-x,-y,z
x,-y,1/2-z
-x,y,1/2-z
-x,-y,-z
x,y,-z
-x,y,1/2+z
x,-y,1/2+z
loop_
_atom_site_type_symbol
_atom_site_label
_atom_site_fract_x
_atom_site_fract_y
_atom_site_fract_z
Si Si1 0.720752 0.153104 0.105626
Si Si2 0.610626 0.423615 0.611148
Si Si3 0.717718 0.626495 0.283930
Si Si4 0.827231 0.533625 0.394822
Si Si5 0.296671 0.064377 0.243611
Si Si6 0.810433 0.748732 0.735938
Si Si7 0.683556 0.164870 0.608189
O O1 0.763029 0.098803 0.166912
O O2 0.806507 0.206386 0.153007
O O3 0.519633 0.163158 0.111880
O O4 0.767919 0.145800 0.000000
O O5 0.609834 0.415969 0.500000
O O6 0.437010 0.404052 0.660015
O O7 0.728228 0.384187 0.673905
O O8 0.683686 0.486773 0.629862
O O9 0.856372 0.588485 0.332386
O O10 0.708310 0.693346 0.293916
O O11 0.788451 0.551645 0.500000
O O12 0.000000 0.500000 0.394876
O O13 0.500000 0.062243 0.250000
O O14 0.258309 0.105474 0.155985
O O15 0.235873 0.000000 0.250000
O O16 0.743438 0.783618 0.825573
O O17 0.000000 0.729316 0.750000
O O18 0.732704 0.169799 0.500000
#
# Coordination Sequence:
#
# PCOD9394769 Si02
#       7
#     8   8   8   8   8   8   8
#     4   9  19  36  59  84 116 157 198 244 296 351
#     4  10  23  41  62  88 116 147 188 235 288 358
#     4  11  24  39  63  87 113 153 192 241 298 353
#     4  10  22  41  64  90 121 153 188 236 294 357
#     4   8  14  27  52  89 127 153 188 242 296 353
#     4  11  25  40  56  84 116 153 201 253 301 358
#     4   9  19  37  60  83 117 160 200 245 297 353
#
# _framework density 20.606928
#
# number of rings (size 3 to 8) (size 9 to 14) (size 15 to 20)
#    0.000    2.286    0.000    2.571    6.000    5.714 
#    0.000    2.857    0.000    6.857    0.000    8.000 
#    0.000    0.000    0.000    0.000    0.000    0.000 
#
# Total GULP energy -312006.444865 kJ/mol
# GULP energy per Si atom -5571.543658 kJ/mol
# Density = 2.056003 g / cm^3
# Si number density = 20.606928 Si / 1000 Ang^3
#
#
#
# Elastic Constant Matrix: (Units=GPa)
#
#
# Indices 1 2 3 4 5 6 
#
# 1 41.7115 13.1925 8.3989 0.0000 0.0000 0.0000
# 2 13.1925 155.6652 53.7167 0.0000 0.0000 0.0000
# 3 8.3989 53.7167 120.3259 0.0000 0.0000 0.0000
# 4 0.0000 0.0000 0.0000 2.9363 0.0000 0.0000
# 5 0.0000 0.0000 0.0000 0.0000 16.8117 0.0000
# 6 0.0000 0.0000 0.0000 0.0000 0.0000 10.7974
#
#
#
# Elastic Compliance Matrix: (Units=1/GPa)
#
#
# Indices 1 2 3 4 5 6 
#
# 1 0.024723 -0.001773 -0.000934 0.000000 0.000000 0.000000
# 2 -0.001773 0.007721 -0.003323 0.000000 0.000000 0.000000
# 3 -0.000934 -0.003323 0.009860 0.000000 0.000000 0.000000
# 4 0.000000 0.000000 0.000000 0.340569 0.000000 0.000000
# 5 0.000000 0.000000 0.000000 0.000000 0.059483 0.000000
# 6 0.000000 0.000000 0.000000 0.000000 0.000000 0.092615
#
#
# Mechanical properties :
#
#
# Convention : Reuss Voigt Hill
#
# Bulk Modulus (GPa) = 33.06541 52.03542 42.55042
# Shear Modulus (GPa) = 8.97486 22.26871 15.62179
#
# Velocity S-wave (km/s) = 2.08919 3.29088 2.75632
# Velocity P-wave (km/s) = 4.67977 6.30445 5.55186
#
# Compressibility (1/GPa) = 0.03024308
#
# Stress axis : x y z
#
# Youngs Moduli (GPa) = 40.44815 129.51648 101.42502
#
# Poissons Ratio (x) = 0.22961 0.09476
# Poissons Ratio (y) = 0.07171 0.33705
# Poissons Ratio (z) = 0.03779 0.43040
#
# Static dielectric constant tensor:
#      x y z
#    x 1.971070 0.000000 0.000000 
#    y 0.000000 1.734820 0.000000 
#    z 0.000000 0.000000 1.753210 
# 
# From -- ./inp_files/12012.got.cif
#   From: 2010.05.17/outbox.cif.g08.bks.cpg/sg49_7_cif.got.tgz:12012.got - 2010.06.03 21:02:19.
