data_PCOD9394647
_publ_section_title
;
Structure prediction by ZEFSAII (Michael W. Deem and Ramdas Pophale) SiO2 
 PCOD9394647
Probable space group: P C C M
;
_chemical_formula_sum "Si O2"
_cell_formula_units_Z 58
_cell_length_a 11.173716
_cell_length_b 9.637352
_cell_length_c 28.083699
_cell_angle_alpha 90.000000
_cell_angle_beta 90.000000
_cell_angle_gamma 90.000000
_cell_volume 3024.194088
_symmetry_space_group_name_H-M "P C C M"
_symmetry_group_IT_number 49
_symmetry_cell_setting 'orthorhombic'
loop_
_space_group_symop_operation_xyz
x,y,z
-x,-y,z
x,-y,1/2-z
-x,y,1/2-z
-x,-y,-z
x,y,-z
-x,y,1/2+z
x,-y,1/2+z
loop_
_atom_site_type_symbol
_atom_site_label
_atom_site_fract_x
_atom_site_fract_y
_atom_site_fract_z
Si Si1 0.613211 0.910321 0.556613
Si Si2 0.856643 0.487197 0.194744
Si Si3 0.154761 0.831824 0.826412
Si Si4 0.000000 0.000000 0.750000
Si Si5 0.362869 0.980095 0.693724
Si Si6 0.459487 0.341897 0.943703
Si Si7 0.123590 0.987904 0.413395
Si Si8 0.745878 0.264095 0.367473
O O1 0.607357 0.920579 0.500000
O O2 0.573689 0.754355 0.568837
O O3 0.500000 0.000000 0.575520
O O4 0.746282 0.962366 0.567915
O O5 0.815189 0.500000 0.250000
O O6 0.834831 0.331474 0.176951
O O7 0.800294 0.604575 0.160643
O O8 0.000000 0.500000 0.194945
O O9 0.082496 0.899815 0.782176
O O10 0.286039 0.897190 0.828279
O O11 0.094843 0.898913 0.872379
O O12 0.314021 0.836937 0.672198
O O13 0.500000 0.000000 0.682858
O O14 0.347040 0.000000 0.750000
O O15 0.500000 0.500000 0.939459
O O16 0.351068 0.306689 0.907730
O O17 0.427221 0.315592 0.000000
O O18 0.155576 0.835379 0.392570
O O19 0.000000 0.000000 0.443153
#
# Coordination Sequence:
#
# PCOD9394647 Si02
#       8
#     8   8   8   2   8   8   8   8
#     4  10  21  41  68  95 123 161 211 260 312 380
#     4  11  24  39  60  88 126 169 214 263 317 382
#     4  11  23  36  62  84 119 160 213 257 305 369
#     4  12  20  40  64  84 114 172 218 266 296 372
#     4  10  22  38  58  86 123 165 209 254 313 376
#     4  10  23  43  68  95 124 166 217 271 328 395
#     4  11  23  37  61  95 128 162 205 261 319 377
#     4  11  24  39  63  93 129 168 217 267 324 384
#
# _framework density 19.178664000000001
#
# number of rings (size 3 to 8) (size 9 to 14) (size 15 to 20)
#    0.000    1.379    2.759    2.483    9.655    0.276 
#    0.000    0.000    0.000    2.897    0.000    0.000 
#    0.000    0.000    0.000    0.000    0.000    0.000 
#
# Total GULP energy -323432.758267 kJ/mol
# GULP energy per Si atom -5576.426867 kJ/mol
# Density = 1.913501 g / cm^3
# Si number density = 19.178664 Si / 1000 Ang^3
#
#
#
# Elastic Constant Matrix: (Units=GPa)
#
#
# Indices 1 2 3 4 5 6 
#
# 1 156.1833 65.9082 38.0950 0.0000 0.0000 0.0000
# 2 65.9082 181.8952 49.4050 0.0000 0.0000 0.0000
# 3 38.0950 49.4050 94.4915 0.0000 0.0000 0.0000
# 4 0.0000 0.0000 0.0000 25.3086 0.0000 0.0000
# 5 0.0000 0.0000 0.0000 0.0000 14.3230 0.0000
# 6 0.0000 0.0000 0.0000 0.0000 0.0000 17.4220
#
#
#
# Elastic Compliance Matrix: (Units=1/GPa)
#
#
# Indices 1 2 3 4 5 6 
#
# 1 0.007857 -0.002315 -0.001957 0.000000 0.000000 0.000000
# 2 -0.002315 0.007090 -0.002774 0.000000 0.000000 0.000000
# 3 -0.001957 -0.002774 0.012822 0.000000 0.000000 0.000000
# 4 0.000000 0.000000 0.000000 0.039512 0.000000 0.000000
# 5 0.000000 0.000000 0.000000 0.000000 0.069818 0.000000
# 6 0.000000 0.000000 0.000000 0.000000 0.000000 0.057399
#
#
# Mechanical properties :
#
#
# Convention : Reuss Voigt Hill
#
# Bulk Modulus (GPa) = 73.11413 82.15405 77.63409
# Shear Modulus (GPa) = 23.45773 30.02149 26.73961
#
# Velocity S-wave (km/s) = 3.50110 3.96075 3.73800
# Velocity P-wave (km/s) = 7.38573 7.99036 7.69399
#
# Compressibility (1/GPa) = 0.01367725
#
# Stress axis : x y z
#
# Youngs Moduli (GPa) = 127.27227 141.04443 77.99029
#
# Poissons Ratio (x) = 0.32658 0.15263
# Poissons Ratio (y) = 0.29469 0.21631
# Poissons Ratio (z) = 0.24908 0.39119
#
# Static dielectric constant tensor:
#      x y z
#    x 1.685590 0.000000 0.000000 
#    y 0.000000 1.693390 0.000000 
#    z 0.000000 0.000000 1.794030 
# 
# From -- ./inp_files/24845.got.cif
#   From: 2010.05.17/outbox.cif.g08.bks.cpg/sg49_13_cif.got.tgz:24845.got - 2010.06.03 21:02:19.
