data_PCOD9394400
_publ_section_title
;
Structure prediction by ZEFSAII (Michael W. Deem and Ramdas Pophale) SiO2 
 PCOD9394400
Probable space group: P C C M
;
_chemical_formula_sum "Si O2"
_cell_formula_units_Z 40
_cell_length_a 9.044598
_cell_length_b 15.352907
_cell_length_c 15.272353
_cell_angle_alpha 90.000000
_cell_angle_beta 90.000000
_cell_angle_gamma 90.000000
_cell_volume 2120.732254
_symmetry_space_group_name_H-M "P C C M"
_symmetry_group_IT_number 49
_symmetry_cell_setting 'orthorhombic'
loop_
_space_group_symop_operation_xyz
x,y,z
-x,-y,z
x,-y,1/2-z
-x,y,1/2-z
-x,-y,-z
x,y,-z
-x,y,1/2+z
x,-y,1/2+z
loop_
_atom_site_type_symbol
_atom_site_label
_atom_site_fract_x
_atom_site_fract_y
_atom_site_fract_z
Si Si1 0.429717 0.904505 0.500000
Si Si2 0.928706 0.778037 0.154487
Si Si3 0.927433 0.906315 0.000000
Si Si4 0.599055 0.416522 0.604988
Si Si5 0.427939 0.776452 0.342483
Si Si6 0.066621 0.413953 0.847860
O O1 0.251166 0.912671 0.500000
O O2 0.471917 0.846417 0.415769
O O3 0.500000 0.000000 0.500000
O O4 0.971782 0.851840 0.085954
O O5 0.750607 0.778638 0.163591
O O6 0.967490 0.682165 0.116335
O O7 0.000000 0.789065 0.250000
O O8 0.000000 0.000000 0.000000
O O9 0.500000 0.500000 0.626731
O O10 0.624158 0.415632 0.500000
O O11 0.531681 0.322836 0.630626
O O12 0.757283 0.424103 0.651529
O O13 0.500000 0.796995 0.250000
O O14 0.000000 0.500000 0.891885
O O15 0.000000 0.411267 0.750000
#
# Coordination Sequence:
#
# PCOD9394400 Si02
#       6
#     4   8   4   8   8   8
#     4  10  22  42  61  84 118 148 189 242 295 352
#     4   9  20  38  58  83 116 148 190 232 283 342
#     4  10  22  40  61  82 108 152 185 232 295 342
#     4  10  21  37  58  86 121 160 200 243 294 350
#     4  10  21  38  63  84 115 157 193 236 292 346
#     4   9  19  35  56  83 118 154 196 236 285 340
#
# _framework density 18.861409999999999
#
# number of rings (size 3 to 8) (size 9 to 14) (size 15 to 20)
#    0.000    2.400    1.000    0.000    4.200   11.200 
#    0.000    4.000    0.000    0.000    0.000    0.000 
#    0.000    0.000    0.000    0.000    0.000    0.000 
#
# Total GULP energy -223155.176521 kJ/mol
# GULP energy per Si atom -5578.879413 kJ/mol
# Density = 1.881848 g / cm^3
# Si number density = 18.861410 Si / 1000 Ang^3
#
#
#
# Elastic Constant Matrix: (Units=GPa)
#
#
# Indices 1 2 3 4 5 6 
#
# 1 31.8348 56.5511 44.8114 0.0000 0.0000 0.0000
# 2 56.5511 216.0224 89.9060 0.0000 0.0000 0.0000
# 3 44.8114 89.9060 127.3272 0.0000 0.0000 0.0000
# 4 0.0000 0.0000 0.0000 19.3464 0.0000 0.0000
# 5 0.0000 0.0000 0.0000 0.0000 6.9886 0.0000
# 6 0.0000 0.0000 0.0000 0.0000 0.0000 36.1218
#
#
#
# Elastic Compliance Matrix: (Units=1/GPa)
#
#
# Indices 1 2 3 4 5 6 
#
# 1 0.083360 -0.013613 -0.019726 0.000000 0.000000 0.000000
# 2 -0.013613 0.008779 -0.001408 0.000000 0.000000 0.000000
# 3 -0.019726 -0.001408 0.015790 0.000000 0.000000 0.000000
# 4 0.000000 0.000000 0.000000 0.051689 0.000000 0.000000
# 5 0.000000 0.000000 0.000000 0.000000 0.143090 0.000000
# 6 0.000000 0.000000 0.000000 0.000000 0.000000 0.027684
#
#
# Mechanical properties :
#
#
# Convention : Reuss Voigt Hill
#
# Bulk Modulus (GPa) = 26.01711 84.19128 55.10420
# Shear Modulus (GPa) = 12.11546 24.75242 18.43394
#
# Velocity S-wave (km/s) = 2.53719 3.62654 3.12963
# Velocity P-wave (km/s) = 4.73359 7.89110 6.50678
#
# Compressibility (1/GPa) = 0.03843625
#
# Stress axis : x y z
#
# Youngs Moduli (GPa) = 11.99622 113.91310 63.33116
#
# Poissons Ratio (x) = 1.55066 1.24924
# Poissons Ratio (y) = 0.16330 0.08916
# Poissons Ratio (z) = 0.23663 0.16037
#
# Static dielectric constant tensor:
#      x y z
#    x 1.636990 0.000000 0.000000 
#    y 0.000000 1.672310 0.000000 
#    z 0.000000 0.000000 1.699150 
# 
# From -- ./inp_files/11610.got.cif
#   From: 2010.05.17/outbox.cif.g08.bks.cpg/sg49_6_cif.got.tgz:11610.got - 2010.06.03 21:02:19.
