data_PCOD9394094
_publ_section_title
;
Structure prediction by ZEFSAII (Michael W. Deem and Ramdas Pophale) SiO2 
 PCOD9394094
Probable space group: P C C M
;
_chemical_formula_sum "Si O2"
_cell_formula_units_Z 48
_cell_length_a 9.059275
_cell_length_b 29.522826
_cell_length_c 9.280866
_cell_angle_alpha 90.000000
_cell_angle_beta 90.000000
_cell_angle_gamma 90.000000
_cell_volume 2482.217724
_symmetry_space_group_name_H-M "P C C M"
_symmetry_group_IT_number 49
_symmetry_cell_setting 'orthorhombic'
loop_
_space_group_symop_operation_xyz
x,y,z
-x,-y,z
x,-y,1/2-z
-x,y,1/2-z
-x,-y,-z
x,y,-z
-x,y,1/2+z
x,-y,1/2+z
loop_
_atom_site_type_symbol
_atom_site_label
_atom_site_fract_x
_atom_site_fract_y
_atom_site_fract_z
Si Si1 0.840977 0.375256 0.326635
Si Si2 0.338593 0.454591 0.676539
Si Si3 0.175340 0.899016 0.732461
Si Si4 0.641272 0.066731 0.000000
Si Si5 0.843337 0.728413 0.171288
Si Si6 0.696445 0.959542 0.000000
Si Si7 0.647314 0.188948 0.664729
O O1 0.847207 0.384988 0.500000
O O2 0.744857 0.410975 0.238002
O O3 0.788649 0.323179 0.310060
O O4 0.000000 0.376858 0.250000
O O5 0.270496 0.500000 0.750000
O O6 0.500000 0.452088 0.750000
O O7 0.343128 0.456960 0.500000
O O8 0.211341 0.941882 0.633653
O O9 0.237486 0.852303 0.669104
O O10 0.000000 0.895541 0.750000
O O11 0.278752 0.909162 0.868281
O O12 0.462782 0.066386 0.000000
O O13 0.675069 0.012999 0.000000
O O14 0.728360 0.766151 0.222924
O O15 0.000000 0.733316 0.250000
O O16 0.866401 0.735475 0.000000
O O17 0.500000 0.177421 0.750000
O O18 0.605114 0.197641 0.500000
#
# Coordination Sequence:
#
# PCOD9394094 Si02
#       7
#     8   8   8   4   8   4   8
#     4  10  20  37  60  88 122 160 202 252 310 368
#     4  11  22  38  59  85 119 160 207 257 313 372
#     4  12  25  41  64  92 125 160 204 252 305 363
#     4  11  25  41  69  89 125 163 203 245 310 357
#     4   9  20  39  62  89 122 157 199 250 303 365
#     4  11  23  45  63  95 123 163 201 251 298 373
#     4  11  24  42  63  89 122 159 203 250 303 364
#
# _framework density 19.337544999999999
#
# number of rings (size 3 to 8) (size 9 to 14) (size 15 to 20)
#    0.000    1.333    0.833    5.500    1.167    5.667 
#    0.000    3.333    0.000    0.000    0.000    0.000 
#    0.000    0.000    0.000    0.000    0.000    0.000 
#
# Total GULP energy -267849.767999 kJ/mol
# GULP energy per Si atom -5580.203500 kJ/mol
# Density = 1.929353 g / cm^3
# Si number density = 19.337545 Si / 1000 Ang^3
#
#
#
# Elastic Constant Matrix: (Units=GPa)
#
#
# Indices 1 2 3 4 5 6 
#
# 1 103.5922 48.6458 20.0907 0.0000 0.0000 0.0000
# 2 48.6458 95.4306 26.8913 0.0000 0.0000 0.0000
# 3 20.0907 26.8913 102.6342 0.0000 0.0000 0.0000
# 4 0.0000 0.0000 0.0000 31.8420 0.0000 0.0000
# 5 0.0000 0.0000 0.0000 0.0000 26.4224 0.0000
# 6 0.0000 0.0000 0.0000 0.0000 0.0000 54.0091
#
#
#
# Elastic Compliance Matrix: (Units=1/GPa)
#
#
# Indices 1 2 3 4 5 6 
#
# 1 0.012761 -0.006263 -0.000857 0.000000 0.000000 0.000000
# 2 -0.006263 0.014388 -0.002544 0.000000 0.000000 0.000000
# 3 -0.000857 -0.002544 0.010578 0.000000 0.000000 0.000000
# 4 0.000000 0.000000 0.000000 0.031405 0.000000 0.000000
# 5 0.000000 0.000000 0.000000 0.000000 0.037847 0.000000
# 6 0.000000 0.000000 0.000000 0.000000 0.000000 0.018515
#
#
# Mechanical properties :
#
#
# Convention : Reuss Voigt Hill
#
# Bulk Modulus (GPa) = 54.35209 54.76809 54.56009
# Shear Modulus (GPa) = 33.12256 36.18997 34.65627
#
# Velocity S-wave (km/s) = 4.14316 4.33076 4.23800
# Velocity P-wave (km/s) = 7.14533 7.30691 7.22657
#
# Compressibility (1/GPa) = 0.01839856
#
# Stress axis : x y z
#
# Youngs Moduli (GPa) = 78.36634 69.50061 94.53948
#
# Poissons Ratio (x) = 0.43530 0.08101
# Poissons Ratio (y) = 0.49083 0.24050
# Poissons Ratio (z) = 0.06715 0.17680
#
# Static dielectric constant tensor:
#      x y z
#    x 1.660430 0.000000 0.000000 
#    y 0.000000 1.686020 0.000000 
#    z 0.000000 0.000000 1.638680 
# 
# From -- ./inp_files/2151.got.cif
#   From: 2010.05.17/outbox.cif.g08.bks.cpg/sg49_2_cif.got.tgz:2151.got - 2010.06.03 21:02:19.
