data_PCOD9394310
_publ_section_title
;
Structure prediction by ZEFSAII (Michael W. Deem and Ramdas Pophale) SiO2 
 PCOD9394310
Probable space group: P C C M
;
_chemical_formula_sum "Si O2"
_cell_formula_units_Z 38
_cell_length_a 5.008099
_cell_length_b 19.357325
_cell_length_c 16.001458
_cell_angle_alpha 90.000000
_cell_angle_beta 90.000000
_cell_angle_gamma 90.000000
_cell_volume 1551.235743
_symmetry_space_group_name_H-M "P C C M"
_symmetry_group_IT_number 49
_symmetry_cell_setting 'orthorhombic'
loop_
_space_group_symop_operation_xyz
x,y,z
-x,-y,z
x,-y,1/2-z
-x,y,1/2-z
-x,-y,-z
x,y,-z
-x,y,1/2+z
x,-y,1/2+z
loop_
_atom_site_type_symbol
_atom_site_label
_atom_site_fract_x
_atom_site_fract_y
_atom_site_fract_z
Si Si1 0.749948 0.951197 0.500000
Si Si2 0.978237 0.334863 0.850609
Si Si3 0.471689 0.577739 0.351087
Si Si4 0.500000 0.000000 0.250000
Si Si5 0.719296 0.801621 0.898427
Si Si6 0.779993 0.870752 0.333743
O O1 0.751216 0.900885 0.424913
O O2 0.500000 0.000000 0.500000
O O3 0.000000 0.000000 0.500000
O O4 0.175787 0.397697 0.869636
O O5 0.116883 0.269697 0.894445
O O6 0.000000 0.321660 0.750000
O O7 0.686622 0.363038 0.875807
O O8 0.500000 0.500000 0.383641
O O9 0.500000 0.574717 0.250000
O O10 0.302226 0.058128 0.288094
O O11 0.439258 0.808352 0.845976
O O12 0.911161 0.847666 0.836198
O O13 0.701868 0.819058 0.000000
#
# Coordination Sequence:
#
# PCOD9394310 Si02
#       6
#     4   8   8   2   8   8
#     4  12  22  44  68  88 118 156 205 248 303 384
#     4  10  21  35  59  93 126 161 212 263 308 358
#     4   9  17  33  58  90 128 168 208 255 309 364
#     4  12  32  44  68  98 128 152 202 270 328 360
#     4  12  25  45  67  91 126 171 212 253 313 385
#     4  12  27  44  66  92 122 163 205 256 317 381
#
# _framework density 24.496597999999999
#
# number of rings (size 3 to 8) (size 9 to 14) (size 15 to 20)
#    0.000    1.053    3.158    3.158    2.947    3.368 
#    0.000    0.000    0.000    3.789    0.000    0.000 
#    0.000    0.000    0.000    0.000    0.000    0.000 
#
# Total GULP energy -211595.093914 kJ/mol
# GULP energy per Si atom -5568.291945 kJ/mol
# Density = 2.444084 g / cm^3
# Si number density = 24.496598 Si / 1000 Ang^3
#
#
#
# Elastic Constant Matrix: (Units=GPa)
#
#
# Indices 1 2 3 4 5 6 
#
# 1 113.5157 -5.7119 0.4054 0.0000 0.0000 0.0000
# 2 -5.7119 94.0875 9.0302 0.0000 0.0000 0.0000
# 3 0.4054 9.0302 25.9083 0.0000 0.0000 0.0000
# 4 0.0000 0.0000 0.0000 -0.4689 0.0000 0.0000
# 5 0.0000 0.0000 0.0000 0.0000 -40.2099 0.0000
# 6 0.0000 0.0000 0.0000 0.0000 0.0000 13.3094
#
#
#
# Elastic Compliance Matrix: (Units=1/GPa)
#
#
# Indices 1 2 3 4 5 6 
#
# 1 0.008839 0.000569 -0.000337 0.000000 0.000000 0.000000
# 2 0.000569 0.011033 -0.003854 0.000000 0.000000 0.000000
# 3 -0.000337 -0.003854 0.039946 0.000000 0.000000 0.000000
# 4 0.000000 0.000000 0.000000 -2.132757 0.000000 0.000000
# 5 0.000000 0.000000 0.000000 0.000000 -0.024870 0.000000
# 6 0.000000 0.000000 0.000000 0.000000 0.000000 0.075135
#
#
# Mechanical properties :
#
#
# Convention : Reuss Voigt Hill
#
# Bulk Modulus (GPa) = 19.02069 26.77323 22.89696
# Shear Modulus (GPa) = -2.50262 9.84532 3.67135
#
# Velocity S-wave (km/s) = -1.01185 2.00693 1.22555
# Velocity P-wave (km/s) = 2.53305 4.04023 3.37193
#
# Compressibility (1/GPa) = 0.05257432
#
# Stress axis : x y z
#
# Youngs Moduli (GPa) = 113.13260 90.63829 25.03355
#
# Poissons Ratio (x) = -0.05157 0.00843
# Poissons Ratio (y) = -0.06436 0.09649
# Poissons Ratio (z) = 0.03808 0.34935
#
# Static dielectric constant tensor:
#      x y z
#    x 1.867880 0.000000 0.000000 
#    y 0.000000 1.910470 0.000000 
#    z 0.000000 0.000000 2.020260 
# 
# From -- ./inp_files/15281.got.cif
#   From: 2010.05.17/outbox.cif.g08.bks.cpg/sg49_8_cif.got.tgz:15281.got - 2010.06.03 21:02:19.
