data_PCOD9394356
_publ_section_title
;
Structure prediction by ZEFSAII (Michael W. Deem and Ramdas Pophale) SiO2 
 PCOD9394356
Probable space group: P C C M
;
_chemical_formula_sum "Si O2"
_cell_formula_units_Z 64
_cell_length_a 14.046406
_cell_length_b 12.054879
_cell_length_c 17.957596
_cell_angle_alpha 90.000000
_cell_angle_beta 90.000000
_cell_angle_gamma 90.000000
_cell_volume 3040.718872
_symmetry_space_group_name_H-M "P C C M"
_symmetry_group_IT_number 49
_symmetry_cell_setting 'orthorhombic'
loop_
_space_group_symop_operation_xyz
x,y,z
-x,-y,z
x,-y,1/2-z
-x,y,1/2-z
-x,-y,-z
x,y,-z
-x,y,1/2+z
x,-y,1/2+z
loop_
_atom_site_type_symbol
_atom_site_label
_atom_site_fract_x
_atom_site_fract_y
_atom_site_fract_z
Si Si1 0.295669 0.021212 0.415594
Si Si2 0.766150 0.436870 0.177902
Si Si3 0.075892 0.084901 0.416054
Si Si4 0.269388 0.166254 0.800997
Si Si5 0.374003 0.757290 0.842093
Si Si6 0.243773 0.356533 0.084507
Si Si7 0.899223 0.760592 0.711387
Si Si8 0.528190 0.623660 0.086073
O O1 0.326263 0.988770 0.500000
O O2 0.181351 0.034053 0.417616
O O3 0.342409 0.137827 0.391689
O O4 0.311611 0.933402 0.349431
O O5 0.722987 0.500000 0.250000
O O6 0.692457 0.350096 0.142176
O O7 0.796079 0.530570 0.119762
O O8 0.849652 0.359071 0.209300
O O9 0.043773 0.106471 0.500000
O O10 0.083818 0.197553 0.371527
O O11 0.000000 0.000000 0.381110
O O12 0.348182 0.212424 0.743266
O O13 0.228860 0.254213 0.860618
O O14 0.176529 0.152606 0.748026
O O15 0.478518 0.715849 0.863081
O O16 0.358430 0.369285 0.085512
O O17 0.212562 0.336961 0.000000
O O18 0.000000 0.759470 0.750000
O O19 0.500000 0.500000 0.110892
O O20 0.494804 0.637625 0.000000
#
# Coordination Sequence:
#
# PCOD9394356 Si02
#       8
#     8   8   8   8   8   8   8   8
#     4  11  22  38  63  91 129 175 217 272 329 389
#     4  11  21  41  60  94 128 166 217 267 324 391
#     4  10  21  37  60  96 131 164 217 277 328 385
#     4  11  23  41  59  93 129 174 224 262 330 401
#     4  11  21  37  65  95 129 162 218 270 320 398
#     4  11  23  41  64  89 129 170 210 268 332 401
#     4  11  23  39  66  93 129 176 223 277 329 398
#     4  10  21  36  61  97 127 161 208 263 333 397
#
# _framework density 21.047654999999999
#
# number of rings (size 3 to 8) (size 9 to 14) (size 15 to 20)
#    0.000    1.250    6.250    1.875    0.000    3.000 
#    0.000    2.500    0.000    4.500    0.000    0.000 
#    0.000    0.000    0.000    0.000    0.000    0.000 
#
# Total GULP energy -357381.613311 kJ/mol
# GULP energy per Si atom -5584.087708 kJ/mol
# Density = 2.099975 g / cm^3
# Si number density = 21.047655 Si / 1000 Ang^3
#
#
#
# Elastic Constant Matrix: (Units=GPa)
#
#
# Indices 1 2 3 4 5 6 
#
# 1 41.4597 7.1155 13.4218 0.0000 0.0000 0.0000
# 2 7.1155 87.5465 33.4477 0.0000 0.0000 0.0000
# 3 13.4218 33.4477 105.0256 0.0000 0.0000 0.0000
# 4 0.0000 0.0000 0.0000 34.0304 0.0000 0.0000
# 5 0.0000 0.0000 0.0000 0.0000 19.5836 0.0000
# 6 0.0000 0.0000 0.0000 0.0000 0.0000 11.9700
#
#
#
# Elastic Compliance Matrix: (Units=1/GPa)
#
#
# Indices 1 2 3 4 5 6 
#
# 1 0.025227 -0.000932 -0.002927 0.000000 0.000000 0.000000
# 2 -0.000932 0.013039 -0.004034 0.000000 0.000000 0.000000
# 3 -0.002927 -0.004034 0.011180 0.000000 0.000000 0.000000
# 4 0.000000 0.000000 0.000000 0.029386 0.000000 0.000000
# 5 0.000000 0.000000 0.000000 0.000000 0.051063 0.000000
# 6 0.000000 0.000000 0.000000 0.000000 0.000000 0.083542
#
#
# Mechanical properties :
#
#
# Convention : Reuss Voigt Hill
#
# Bulk Modulus (GPa) = 29.70764 38.00020 33.85392
# Shear Modulus (GPa) = 20.79489 25.11990 22.95739
#
# Velocity S-wave (km/s) = 3.14664 3.45842 3.30621
# Velocity P-wave (km/s) = 5.22943 5.83448 5.54022
#
# Compressibility (1/GPa) = 0.03366137
#
# Stress axis : x y z
#
# Youngs Moduli (GPa) = 39.63946 76.69126 89.44441
#
# Poissons Ratio (x) = 0.07148 0.26181
# Poissons Ratio (y) = 0.03695 0.36078
# Poissons Ratio (z) = 0.11603 0.30934
#
# Static dielectric constant tensor:
#      x y z
#    x 1.773780 0.000000 0.000000 
#    y 0.000000 1.780960 0.000000 
#    z 0.000000 0.000000 1.794510 
# 
# From -- ./inp_files/17929.got.cif
#   From: 2010.05.17/outbox.cif.g08.bks.cpg/sg49_9_cif.got.tgz:17929.got - 2010.06.03 21:02:19.
