data_PCOD9394358
_publ_section_title
;
Structure prediction by ZEFSAII (Michael W. Deem and Ramdas Pophale) SiO2 
 PCOD9394358
Probable space group: P C C M
;
_chemical_formula_sum "Si O2"
_cell_formula_units_Z 56
_cell_length_a 9.155616
_cell_length_b 17.496392
_cell_length_c 16.515675
_cell_angle_alpha 90.000000
_cell_angle_beta 90.000000
_cell_angle_gamma 90.000000
_cell_volume 2645.650050
_symmetry_space_group_name_H-M "P C C M"
_symmetry_group_IT_number 49
_symmetry_cell_setting 'orthorhombic'
loop_
_space_group_symop_operation_xyz
x,y,z
-x,-y,z
x,-y,1/2-z
-x,y,1/2-z
-x,-y,-z
x,y,-z
-x,y,1/2+z
x,-y,1/2+z
loop_
_atom_site_type_symbol
_atom_site_label
_atom_site_fract_x
_atom_site_fract_y
_atom_site_fract_z
Si Si1 0.749314 0.995741 0.370479
Si Si2 0.425710 0.741078 0.664475
Si Si3 0.028837 0.898154 0.590873
Si Si4 0.518718 0.896333 0.409282
Si Si5 0.926373 0.259252 0.664631
Si Si6 0.076060 0.576716 0.403893
Si Si7 0.423937 0.423342 0.903924
O O1 0.864513 0.061748 0.342191
O O2 0.627741 0.052820 0.407768
O O3 0.631440 0.931217 0.342504
O O4 0.872954 0.939288 0.406172
O O5 0.500000 0.755707 0.750000
O O6 0.478144 0.809270 0.606761
O O7 0.249732 0.742985 0.668783
O O8 0.470283 0.656528 0.635269
O O9 0.089631 0.912316 0.500000
O O10 0.023631 0.808552 0.605752
O O11 0.583627 0.904298 0.500000
O O12 0.970836 0.343911 0.636195
O O13 0.000000 0.243197 0.750000
O O14 0.045667 0.582462 0.500000
O O15 0.249984 0.569127 0.393771
O O16 0.000000 0.500000 0.372394
O O17 0.500000 0.500000 0.872019
O O18 0.454495 0.418119 0.000000
#
# Coordination Sequence:
#
# PCOD9394358 Si02
#       7
#     8   8   8   8   8   8   8
#     4  10  21  36  63  92 115 148 197 254 301 346
#     4  11  25  41  58  84 123 163 197 237 291 353
#     4  11  20  38  63  89 116 150 199 250 298 346
#     4  11  20  38  63  89 116 150 199 250 298 346
#     4  11  25  41  58  84 123 163 197 237 291 353
#     4   9  19  39  66  93 117 148 192 241 292 344
#     4   9  19  39  66  93 117 148 192 241 292 344
#
# _framework density 21.166820999999999
#
# number of rings (size 3 to 8) (size 9 to 14) (size 15 to 20)
#    0.000    1.714    1.429    4.286    2.000    2.857 
#    0.000    7.143    0.000    0.000    0.000    0.000 
#    0.000    0.000    0.000    0.000    0.000    0.000 
#
# Total GULP energy -311776.342457 kJ/mol
# GULP energy per Si atom -5567.434687 kJ/mol
# Density = 2.111864 g / cm^3
# Si number density = 21.166821 Si / 1000 Ang^3
#
#
#
# Elastic Constant Matrix: (Units=GPa)
#
#
# Indices 1 2 3 4 5 6 
#
# 1 67.6546 43.1636 17.8064 0.0000 0.0000 0.0000
# 2 43.1636 184.5309 29.8443 0.0000 0.0000 0.0000
# 3 17.8064 29.8443 26.7230 0.0000 0.0000 0.0000
# 4 0.0000 0.0000 0.0000 -30.2327 0.0000 0.0000
# 5 0.0000 0.0000 0.0000 0.0000 16.7152 0.0000
# 6 0.0000 0.0000 0.0000 0.0000 0.0000 37.1643
#
#
#
# Elastic Compliance Matrix: (Units=1/GPa)
#
#
# Indices 1 2 3 4 5 6 
#
# 1 0.019155 -0.002949 -0.009470 0.000000 0.000000 0.000000
# 2 -0.002949 0.007068 -0.005928 0.000000 0.000000 0.000000
# 3 -0.009470 -0.005928 0.050352 0.000000 0.000000 0.000000
# 4 0.000000 0.000000 0.000000 -0.033077 0.000000 0.000000
# 5 0.000000 0.000000 0.000000 0.000000 0.059826 0.000000
# 6 0.000000 0.000000 0.000000 0.000000 0.000000 0.026908
#
#
# Mechanical properties :
#
#
# Convention : Reuss Voigt Hill
#
# Bulk Modulus (GPa) = 25.07533 51.17080 38.12306
# Shear Modulus (GPa) = 27.74403 17.26899 22.50651
#
# Velocity S-wave (km/s) = 3.62433 2.85941 3.26435
# Velocity P-wave (km/s) = 5.42094 5.92698 5.67960
#
# Compressibility (1/GPa) = 0.03987983
#
# Stress axis : x y z
#
# Youngs Moduli (GPa) = 52.20611 141.48862 19.86020
#
# Poissons Ratio (x) = 0.41723 0.18808
# Poissons Ratio (y) = 0.15395 0.11774
# Poissons Ratio (z) = 0.49440 0.83879
#
# Static dielectric constant tensor:
#      x y z
#    x 1.738800 0.000000 0.000000 
#    y 0.000000 1.767780 0.000000 
#    z 0.000000 0.000000 1.831500 
# 
# From -- ./inp_files/19854.got.cif
#   From: 2010.05.17/outbox.cif.g08.bks.cpg/sg49_10_cif.got.tgz:19854.got - 2010.06.03 21:02:19.
