data_PCOD9394169
_publ_section_title
;
Structure prediction by ZEFSAII (Michael W. Deem and Ramdas Pophale) SiO2 
 PCOD9394169
Probable space group: P C C M
;
_chemical_formula_sum "Si O2"
_cell_formula_units_Z 60
_cell_length_a 11.621712
_cell_length_b 11.538751
_cell_length_c 22.785901
_cell_angle_alpha 90.000000
_cell_angle_beta 90.000000
_cell_angle_gamma 90.000000
_cell_volume 3055.590257
_symmetry_space_group_name_H-M "P C C M"
_symmetry_group_IT_number 49
_symmetry_cell_setting 'orthorhombic'
loop_
_space_group_symop_operation_xyz
x,y,z
-x,-y,z
x,-y,1/2-z
-x,y,1/2-z
-x,-y,-z
x,y,-z
-x,y,1/2+z
x,-y,1/2+z
loop_
_atom_site_type_symbol
_atom_site_label
_atom_site_fract_x
_atom_site_fract_y
_atom_site_fract_z
Si Si1 0.809719 0.158173 0.143623
Si Si2 0.252665 0.560600 0.433301
Si Si3 0.000000 0.000000 0.652733
Si Si4 0.660729 0.314654 0.067165
Si Si5 0.586177 0.217804 0.431780
Si Si6 0.166472 0.176951 0.221510
Si Si7 0.126461 0.443097 0.810342
Si Si8 0.627259 0.039518 0.331624
O O1 0.763063 0.264424 0.106526
O O2 0.850070 0.189452 0.209043
O O3 0.915480 0.084754 0.117219
O O4 0.703241 0.072024 0.153761
O O5 0.199953 0.560039 0.500000
O O6 0.340525 0.453077 0.432955
O O7 0.319408 0.681207 0.425889
O O8 0.177606 0.537628 0.375389
O O9 0.083840 0.919167 0.691988
O O10 0.537749 0.267239 0.086735
O O11 0.679810 0.276402 0.000000
O O12 0.580181 0.185749 0.500000
O O13 0.614399 0.110590 0.391430
O O14 0.137578 0.303926 0.196936
O O15 0.295056 0.124718 0.209443
O O16 0.180443 0.500000 0.750000
O O17 0.000000 0.500000 0.811681
O O18 0.500000 0.000000 0.312422
#
# Coordination Sequence:
#
# PCOD9394169 Si02
#       8
#     8   8   4   8   8   8   8   8
#     4  11  22  37  62  86 120 162 202 257 307 373
#     4  10  21  41  65  88 120 164 212 257 315 383
#     4  10  23  38  63  86 115 164 212 246 305 382
#     4  10  21  37  61  89 117 159 207 251 307 375
#     4  10  20  38  62  88 123 162 206 256 305 377
#     4  11  23  41  61  90 124 162 208 256 313 382
#     4  11  25  40  65  95 126 161 209 268 324 380
#     4  11  21  38  58  93 123 162 204 251 311 375
#
# _framework density 19.636140999999999
#
# number of rings (size 3 to 8) (size 9 to 14) (size 15 to 20)
#    0.000    1.467    2.667    3.600    5.600    3.733 
#    0.000    0.333    0.000    1.600    0.000    0.000 
#    0.000    0.000    0.000    0.000    0.000    0.000 
#
# Total GULP energy -334613.940144 kJ/mol
# GULP energy per Si atom -5576.899002 kJ/mol
# Density = 1.959145 g / cm^3
# Si number density = 19.636141 Si / 1000 Ang^3
#
#
#
# Elastic Constant Matrix: (Units=GPa)
#
#
# Indices 1 2 3 4 5 6 
#
# 1 87.6667 16.0177 27.6300 0.0000 0.0000 0.0000
# 2 16.0177 90.7327 27.8449 0.0000 0.0000 0.0000
# 3 27.6300 27.8449 92.4541 0.0000 0.0000 0.0000
# 4 0.0000 0.0000 0.0000 31.2336 0.0000 0.0000
# 5 0.0000 0.0000 0.0000 0.0000 20.6732 0.0000
# 6 0.0000 0.0000 0.0000 0.0000 0.0000 21.3770
#
#
#
# Elastic Compliance Matrix: (Units=1/GPa)
#
#
# Indices 1 2 3 4 5 6 
#
# 1 0.012708 -0.001188 -0.003440 0.000000 0.000000 0.000000
# 2 -0.001188 0.012255 -0.003336 0.000000 0.000000 0.000000
# 3 -0.003440 -0.003336 0.012849 0.000000 0.000000 0.000000
# 4 0.000000 0.000000 0.000000 0.032017 0.000000 0.000000
# 5 0.000000 0.000000 0.000000 0.000000 0.048372 0.000000
# 6 0.000000 0.000000 0.000000 0.000000 0.000000 0.046779
#
#
# Mechanical properties :
#
#
# Convention : Reuss Voigt Hill
#
# Bulk Modulus (GPa) = 45.69468 45.98208 45.83838
# Shear Modulus (GPa) = 26.56722 27.94750 27.25736
#
# Velocity S-wave (km/s) = 3.68227 3.77672 3.72979
# Velocity P-wave (km/s) = 6.43429 6.51813 6.47634
#
# Compressibility (1/GPa) = 0.02188439
#
# Stress axis : x y z
#
# Youngs Moduli (GPa) = 78.69019 81.60055 77.82738
#
# Poissons Ratio (x) = 0.09692 0.26773
# Poissons Ratio (y) = 0.09346 0.25962
# Poissons Ratio (z) = 0.27070 0.27221
#
# Static dielectric constant tensor:
#      x y z
#    x 1.715500 0.000000 0.000000 
#    y 0.000000 1.686320 0.000000 
#    z 0.000000 0.000000 1.711750 
# 
# From -- ./inp_files/20572.got.cif
#   From: 2010.05.17/outbox.cif.g08.bks.cpg/sg49_11_cif.got.tgz:20572.got - 2010.06.03 21:02:19.
