data_PCOD9394171
_publ_section_title
;
Structure prediction by ZEFSAII (Michael W. Deem and Ramdas Pophale) SiO2 
 PCOD9394171
Probable space group: P C C M
;
_chemical_formula_sum "Si O2"
_cell_formula_units_Z 48
_cell_length_a 15.420832
_cell_length_b 18.241173
_cell_length_c 8.611484
_cell_angle_alpha 90.000000
_cell_angle_beta 90.000000
_cell_angle_gamma 90.000000
_cell_volume 2422.359334
_symmetry_space_group_name_H-M "P C C M"
_symmetry_group_IT_number 49
_symmetry_cell_setting 'orthorhombic'
loop_
_space_group_symop_operation_xyz
x,y,z
-x,-y,z
x,-y,1/2-z
-x,y,1/2-z
-x,-y,-z
x,y,-z
-x,y,1/2+z
x,-y,1/2+z
loop_
_atom_site_type_symbol
_atom_site_label
_atom_site_fract_x
_atom_site_fract_y
_atom_site_fract_z
Si Si1 0.406225 0.364244 0.814319
Si Si2 0.905899 0.693407 0.813374
Si Si3 0.276827 0.078286 0.813047
Si Si4 0.907633 0.864462 0.186227
Si Si5 0.770400 0.577259 0.314954
Si Si6 0.593685 0.800295 0.686110
O O1 0.500000 0.388040 0.750000
O O2 0.326207 0.410410 0.750248
O O3 0.392083 0.280787 0.755553
O O4 0.407444 0.365443 0.000000
O O5 0.894984 0.778960 0.767983
O O6 0.831069 0.642980 0.744144
O O7 0.000000 0.670084 0.750000
O O8 0.904242 0.688957 0.000000
O O9 0.176912 0.091188 0.763635
O O10 0.334083 0.143648 0.744306
O O11 0.306988 0.000000 0.750000
O O12 0.281378 0.080292 0.000000
O O13 0.000000 0.890141 0.250000
O O14 0.911718 0.866511 0.000000
O O15 0.804076 0.500000 0.250000
O O16 0.768589 0.576265 0.500000
O O17 0.500000 0.824928 0.750000
O O18 0.592086 0.795844 0.500000
#
# Coordination Sequence:
#
# PCOD9394171 Si02
#       6
#     8   8   8   8   8   8
#     4  11  22  40  64  91 120 154 195 242 290 345
#     4  10  20  38  62  89 117 152 195 245 297 351
#     4  11  23  39  57  84 119 157 196 241 293 350
#     4   9  20  37  60  85 114 149 191 239 289 341
#     4  12  25  41  60  87 120 158 198 242 295 353
#     4  11  22  39  63  90 117 152 194 241 291 346
#
# _framework density 19.815391999999999
#
# number of rings (size 3 to 8) (size 9 to 14) (size 15 to 20)
#    0.000    1.333    0.000    7.500    0.000    4.667 
#    0.000    6.667    0.000    0.000    0.000    0.000 
#    0.000    0.000    0.000    0.000    0.000    0.000 
#
# Total GULP energy -268503.681737 kJ/mol
# GULP energy per Si atom -5593.826703 kJ/mol
# Density = 1.977029 g / cm^3
# Si number density = 19.815392 Si / 1000 Ang^3
#
#
#
# Elastic Constant Matrix: (Units=GPa)
#
#
# Indices 1 2 3 4 5 6 
#
# 1 71.3431 15.9333 22.6713 0.0000 0.0000 0.0000
# 2 15.9333 27.5688 12.8532 0.0000 0.0000 0.0000
# 3 22.6713 12.8532 131.8340 0.0000 0.0000 0.0000
# 4 0.0000 0.0000 0.0000 28.3797 0.0000 0.0000
# 5 0.0000 0.0000 0.0000 0.0000 38.5974 0.0000
# 6 0.0000 0.0000 0.0000 0.0000 0.0000 -31.6338
#
#
#
# Elastic Compliance Matrix: (Units=1/GPa)
#
#
# Indices 1 2 3 4 5 6 
#
# 1 0.016587 -0.008650 -0.002009 0.000000 0.000000 0.000000
# 2 -0.008650 0.042511 -0.002657 0.000000 0.000000 0.000000
# 3 -0.002009 -0.002657 0.008190 0.000000 0.000000 0.000000
# 4 0.000000 0.000000 0.000000 0.035236 0.000000 0.000000
# 5 0.000000 0.000000 0.000000 0.000000 0.025908 0.000000
# 6 0.000000 0.000000 0.000000 0.000000 0.000000 -0.031612
#
#
# Mechanical properties :
#
#
# Convention : Reuss Voigt Hill
#
# Bulk Modulus (GPa) = 24.59682 37.07350 30.83516
# Shear Modulus (GPa) = 36.49513 19.02119 27.75816
#
# Velocity S-wave (km/s) = 4.29623 3.10162 3.74684
# Velocity P-wave (km/s) = 6.08687 5.61932 5.85776
#
# Compressibility (1/GPa) = 0.04065566
#
# Stress axis : x y z
#
# Youngs Moduli (GPa) = 60.28816 23.52349 122.10223
#
# Poissons Ratio (x) = 0.20347 0.24532
# Poissons Ratio (y) = 0.52147 0.32444
# Poissons Ratio (z) = 0.12113 0.06250
#
# Static dielectric constant tensor:
#      x y z
#    x 1.693500 0.000000 0.000000 
#    y 0.000000 1.688790 0.000000 
#    z 0.000000 0.000000 1.659830 
# 
# From -- ./inp_files/3707.got.cif
#   From: 2010.05.17/outbox.cif.g08.bks.cpg/sg49_2_cif.got.tgz:3707.got - 2010.06.03 21:02:19.
