data_PCOD9394959
_publ_section_title
;
Structure prediction by ZEFSAII (Michael W. Deem and Ramdas Pophale) SiO2 
 PCOD9394959
Probable space group: P C C M
;
_chemical_formula_sum "Si O2"
_cell_formula_units_Z 64
_cell_length_a 13.026469
_cell_length_b 17.806973
_cell_length_c 16.265244
_cell_angle_alpha 90.000000
_cell_angle_beta 90.000000
_cell_angle_gamma 90.000000
_cell_volume 3772.918232
_symmetry_space_group_name_H-M "P C C M"
_symmetry_group_IT_number 49
_symmetry_cell_setting 'orthorhombic'
loop_
_space_group_symop_operation_xyz
x,y,z
-x,-y,z
x,-y,1/2-z
-x,y,1/2-z
-x,-y,-z
x,y,-z
-x,y,1/2+z
x,-y,1/2+z
loop_
_atom_site_type_symbol
_atom_site_label
_atom_site_fract_x
_atom_site_fract_y
_atom_site_fract_z
Si Si1 0.401515 0.093870 0.401012
Si Si2 0.204360 0.819577 0.856848
Si Si3 0.878038 0.336474 0.652002
Si Si4 0.010111 0.085575 0.403587
Si Si5 0.818559 0.823995 0.161652
Si Si6 0.117957 0.337403 0.646841
Si Si7 0.368268 0.923928 0.599308
Si Si8 0.875126 0.500407 0.153568
O O1 0.403912 0.091582 0.500000
O O2 0.319236 0.154940 0.375156
O O3 0.519112 0.104896 0.373670
O O4 0.363893 0.011055 0.373425
O O5 0.188115 0.820454 0.759451
O O6 0.177562 0.735205 0.884883
O O7 0.122748 0.878958 0.893229
O O8 0.818570 0.261259 0.627721
O O9 0.876925 0.339235 0.752578
O O10 0.841715 0.418176 0.620611
O O11 0.997374 0.327902 0.627183
O O12 0.984074 0.084138 0.500000
O O13 0.926799 0.138114 0.360468
O O14 0.000000 0.000000 0.372489
O O15 0.725490 0.874569 0.130079
O O16 0.155353 0.419567 0.617596
O O17 0.365572 0.923652 0.500000
O O18 0.846199 0.500000 0.250000
O O19 0.000000 0.500000 0.150956
#
# Coordination Sequence:
#
# PCOD9394959 Si02
#       8
#     8   8   8   8   8   8   8   8
#     4   9  19  36  53  66  85 118 159 196 228 271
#     4  11  20  30  47  72  98 118 145 192 240 273
#     4   8  13  23  38  62  94 122 147 178 218 266
#     4  11  23  35  45  60  89 130 166 185 211 271
#     4  11  20  30  47  72  98 118 145 192 240 273
#     4   8  13  23  38  62  94 122 147 178 218 266
#     4   9  19  36  53  66  85 118 159 196 228 271
#     4   7  10  18  36  58  85 122 153 173 206 261
#
# _framework density 16.962997000000001
#
# number of rings (size 3 to 8) (size 9 to 14) (size 15 to 20)
#    0.000    2.750    1.250    4.125    0.000    5.000 
#    0.000    1.250    0.000    0.000    0.000    5.250 
#    0.000    7.000    0.000    0.000    0.000    0.000 
#
# Total GULP energy -356565.158621 kJ/mol
# GULP energy per Si atom -5571.330603 kJ/mol
# Density = 1.692439 g / cm^3
# Si number density = 16.962997 Si / 1000 Ang^3
#
#
#
# Elastic Constant Matrix: (Units=GPa)
#
#
# Indices 1 2 3 4 5 6 
#
# 1 37.0883 11.1526 -4.4586 0.0000 0.0000 0.0000
# 2 11.1526 94.0090 -2.5876 0.0000 0.0000 0.0000
# 3 -4.4586 -2.5876 11.6027 0.0000 0.0000 0.0000
# 4 0.0000 0.0000 0.0000-2218.1893 0.0000 0.0000
# 5 0.0000 0.0000 0.0000 0.0000 28.4170 0.0000
# 6 0.0000 0.0000 0.0000 0.0000 0.0000 19.8563
#
#
#
# Elastic Compliance Matrix: (Units=1/GPa)
#
#
# Indices 1 2 3 4 5 6 
#
# 1 0.029180 -0.003173 0.010506 0.000000 0.000000 0.000000
# 2 -0.003173 0.011048 0.001245 0.000000 0.000000 0.000000
# 3 0.010506 0.001245 0.090501 0.000000 0.000000 0.000000
# 4 0.000000 0.000000 0.000000 -0.000451 0.000000 0.000000
# 5 0.000000 0.000000 0.000000 0.000000 0.035190 0.000000
# 6 0.000000 0.000000 0.000000 0.000000 0.000000 0.050362
#
#
# Mechanical properties :
#
#
# Convention : Reuss Voigt Hill
#
# Bulk Modulus (GPa) = 6.76204 16.76808 11.76506
# Shear Modulus (GPa) = 20.16378 -424.74362 -202.28992
#
# Velocity S-wave (km/s) = 3.45148 -15.84102 -10.93218
# Velocity P-wave (km/s) = 4.45855 18.01880 12.34501
#
# Compressibility (1/GPa) = 0.14788445
#
# Stress axis : x y z
#
# Youngs Moduli (GPa) = 34.27053 90.51486 11.04955
#
# Poissons Ratio (x) = 0.28716 -0.11608
# Poissons Ratio (y) = 0.10872 -0.01375
# Poissons Ratio (z) = -0.36003 -0.11267
#
# Static dielectric constant tensor:
#      x y z
#    x 1.540800 0.000000 0.000000 
#    y 0.000000 1.628990 0.000000 
#    z 0.000000 0.000000 1.607070 
# 
# From -- ./inp_files/17400.got.cif
#   From: 2010.05.17/outbox.cif.g08.bks.cpg/sg49_9_cif.got.tgz:17400.got - 2010.06.03 21:02:19.
