data_PCOD9394469
_publ_section_title
;
Structure prediction by ZEFSAII (Michael W. Deem and Ramdas Pophale) SiO2 
 PCOD9394469
Probable space group: P C C M
;
_chemical_formula_sum "Si O2"
_cell_formula_units_Z 38
_cell_length_a 13.852252
_cell_length_b 16.653240
_cell_length_c 9.365815
_cell_angle_alpha 90.000000
_cell_angle_beta 90.000000
_cell_angle_gamma 90.000000
_cell_volume 2160.551882
_symmetry_space_group_name_H-M "P C C M"
_symmetry_group_IT_number 49
_symmetry_cell_setting 'orthorhombic'
loop_
_space_group_symop_operation_xyz
x,y,z
-x,-y,z
x,-y,1/2-z
-x,y,1/2-z
-x,-y,-z
x,y,-z
-x,y,1/2+z
x,-y,1/2+z
loop_
_atom_site_type_symbol
_atom_site_label
_atom_site_fract_x
_atom_site_fract_y
_atom_site_fract_z
Si Si1 0.000000 0.500000 0.500000
Si Si2 0.216854 0.670544 0.333328
Si Si3 0.153743 0.500000 0.750000
Si Si4 0.902844 0.198591 0.167407
Si Si5 0.282128 0.084401 0.330755
Si Si6 0.597477 0.218391 0.668979
O O1 0.917915 0.517677 0.621189
O O2 0.187177 0.675055 0.500000
O O3 0.215409 0.578720 0.286181
O O4 0.141542 0.721902 0.240045
O O5 0.320256 0.713404 0.319054
O O6 0.820502 0.130518 0.180727
O O7 0.000000 0.176121 0.250000
O O8 0.922026 0.211901 0.000000
O O9 0.304055 0.075940 0.500000
O O10 0.359115 0.140816 0.249990
O O11 0.277781 0.000000 0.250000
O O12 0.500000 0.241712 0.750000
O O13 0.581810 0.202877 0.500000
#
# Coordination Sequence:
#
# PCOD9394469 Si02
#       6
#     2   8   4   8   8   8
#     4  10  24  34  56  82 118 154 186 234 272 322
#     4  10  22  38  58  81 113 148 188 233 280 329
#     4  11  22  38  53  86 116 152 193 230 273 320
#     4  10  22  35  54  80 112 151 190 228 275 330
#     4  10  21  38  58  84 113 146 184 230 279 331
#     4  10  21  40  62  86 111 143 183 231 283 337
#
# _framework density 17.588097999999999
#
# number of rings (size 3 to 8) (size 9 to 14) (size 15 to 20)
#    0.000    1.895    1.053    1.895    4.421    4.211 
#    0.000    4.737    0.000    2.526    0.000    0.000 
#    0.000    0.000    0.000    0.000    0.000    0.000 
#
# Total GULP energy -211564.580668 kJ/mol
# GULP energy per Si atom -5567.488965 kJ/mol
# Density = 1.754807 g / cm^3
# Si number density = 17.588098 Si / 1000 Ang^3
#
#
#
# Elastic Constant Matrix: (Units=GPa)
#
#
# Indices 1 2 3 4 5 6 
#
# 1 57.9860 10.8130 54.0147 0.0000 0.0000 0.0000
# 2 10.8130 103.6113 51.0731 0.0000 0.0000 0.0000
# 3 54.0147 51.0731 176.0452 0.0000 0.0000 0.0000
# 4 0.0000 0.0000 0.0000 54.7640 0.0000 0.0000
# 5 0.0000 0.0000 0.0000 0.0000 45.0131 0.0000
# 6 0.0000 0.0000 0.0000 0.0000 0.0000 -2.4207
#
#
#
# Elastic Compliance Matrix: (Units=1/GPa)
#
#
# Indices 1 2 3 4 5 6 
#
# 1 0.024303 0.001329 -0.007842 0.000000 0.000000 0.000000
# 2 0.001329 0.011335 -0.003696 0.000000 0.000000 0.000000
# 3 -0.007842 -0.003696 0.009159 0.000000 0.000000 0.000000
# 4 0.000000 0.000000 0.000000 0.018260 0.000000 0.000000
# 5 0.000000 0.000000 0.000000 0.000000 0.022216 0.000000
# 6 0.000000 0.000000 0.000000 0.000000 0.000000 -0.413100
#
#
# Mechanical properties :
#
#
# Convention : Reuss Voigt Hill
#
# Bulk Modulus (GPa) = 41.02029 63.27157 52.14593
# Shear Modulus (GPa) = -16.70657 34.25406 8.77374
#
# Velocity S-wave (km/s) = -3.08536 4.41792 2.23591
# Velocity P-wave (km/s) = 3.26815 7.87884 6.03146
#
# Compressibility (1/GPa) = 0.02437818
#
# Stress axis : x y z
#
# Youngs Moduli (GPa) = 41.14732 88.22461 109.18324
#
# Poissons Ratio (x) = -0.11729 0.85626
# Poissons Ratio (y) = -0.05470 0.40357
# Poissons Ratio (z) = 0.32269 0.32610
#
# Static dielectric constant tensor:
#      x y z
#    x 1.579720 0.000000 0.000000 
#    y 0.000000 1.591490 0.000000 
#    z 0.000000 0.000000 1.588190 
# 
# From -- ./inp_files/2708.got.cif
#   From: 2010.05.17/outbox.cif.g08.bks.cpg/sg49_2_cif.got.tgz:2708.got - 2010.06.03 21:02:19.
