data_PCOD9394781
_publ_section_title
;
Structure prediction by ZEFSAII (Michael W. Deem and Ramdas Pophale) SiO2 
 PCOD9394781
Probable space group: P C C M
;
_chemical_formula_sum "Si O2"
_cell_formula_units_Z 48
_cell_length_a 14.087187
_cell_length_b 17.987485
_cell_length_c 9.315499
_cell_angle_alpha 90.000000
_cell_angle_beta 90.000000
_cell_angle_gamma 90.000000
_cell_volume 2360.482842
_symmetry_space_group_name_H-M "P C C M"
_symmetry_group_IT_number 49
_symmetry_cell_setting 'orthorhombic'
loop_
_space_group_symop_operation_xyz
x,y,z
-x,-y,z
x,-y,1/2-z
-x,y,1/2-z
-x,-y,-z
x,y,-z
-x,y,1/2+z
x,-y,1/2+z
loop_
_atom_site_type_symbol
_atom_site_label
_atom_site_fract_x
_atom_site_fract_y
_atom_site_fract_z
Si Si1 0.095895 0.388216 0.500000
Si Si2 0.887709 0.434597 0.500000
Si Si3 0.212784 0.656730 0.272524
Si Si4 0.410801 0.919696 0.829123
Si Si5 0.090531 0.207004 0.164289
Si Si6 0.601794 0.578565 0.823766
Si Si7 0.804015 0.920518 0.329154
O O1 0.099985 0.477839 0.500000
O O2 0.153331 0.353495 0.370581
O O3 0.981734 0.382163 0.500000
O O4 0.826661 0.411147 0.365881
O O5 0.176497 0.734125 0.335499
O O6 0.324438 0.642294 0.275604
O O7 0.500000 0.881155 0.750000
O O8 0.304131 0.889276 0.812790
O O9 0.404952 0.000000 0.750000
O O10 0.428950 0.927287 0.000000
O O11 0.124643 0.135309 0.252244
O O12 0.000000 0.238567 0.250000
O O13 0.065331 0.189524 0.000000
O O14 0.632675 0.500000 0.750000
O O15 0.500000 0.593045 0.750000
O O16 0.597172 0.573243 0.000000
O O17 0.821353 0.928312 0.500000
O O18 0.809007 0.000000 0.250000
#
# Coordination Sequence:
#
# PCOD9394781 Si02
#       7
#     4   4   8   8   8   8   8
#     4  11  24  34  65  91 130 168 213 258 315 373
#     4  11  20  42  57  95 128 168 211 262 309 377
#     4  12  25  40  64  93 131 171 214 267 325 385
#     4   9  16  28  52  86 123 158 195 243 301 365
#     4  12  26  45  67  92 126 169 212 263 327 397
#     4  11  23  41  65  95 129 171 224 275 327 385
#     4  10  22  41  65  95 127 164 215 271 324 389
#
# _framework density 20.334821000000002
#
# number of rings (size 3 to 8) (size 9 to 14) (size 15 to 20)
#    0.000    1.167    1.667    6.000    4.667    3.667 
#    0.000    2.500    0.000    2.000    0.000    0.000 
#    0.000    0.000    0.000    0.000    0.000    0.000 
#
# Total GULP energy -267727.089090 kJ/mol
# GULP energy per Si atom -5577.647689 kJ/mol
# Density = 2.028854 g / cm^3
# Si number density = 20.334821 Si / 1000 Ang^3
#
#
#
# Elastic Constant Matrix: (Units=GPa)
#
#
# Indices 1 2 3 4 5 6 
#
# 1 103.2099 31.7790 44.1030 0.0000 0.0000 0.0000
# 2 31.7790 54.5411 19.1335 0.0000 0.0000 0.0000
# 3 44.1030 19.1335 143.0012 0.0000 0.0000 0.0000
# 4 0.0000 0.0000 0.0000 13.3421 0.0000 0.0000
# 5 0.0000 0.0000 0.0000 0.0000 31.6871 0.0000
# 6 0.0000 0.0000 0.0000 0.0000 0.0000 34.1347
#
#
#
# Elastic Compliance Matrix: (Units=1/GPa)
#
#
# Indices 1 2 3 4 5 6 
#
# 1 0.013034 -0.006489 -0.003152 0.000000 0.000000 0.000000
# 2 -0.006489 0.022468 -0.001005 0.000000 0.000000 0.000000
# 3 -0.003152 -0.001005 0.008099 0.000000 0.000000 0.000000
# 4 0.000000 0.000000 0.000000 0.074951 0.000000 0.000000
# 5 0.000000 0.000000 0.000000 0.000000 0.031559 0.000000
# 6 0.000000 0.000000 0.000000 0.000000 0.000000 0.029296
#
#
# Mechanical properties :
#
#
# Convention : Reuss Voigt Hill
#
# Bulk Modulus (GPa) = 44.82163 54.53145 49.67654
# Shear Modulus (GPa) = 24.02310 29.54855 26.78582
#
# Velocity S-wave (km/s) = 3.44085 3.81609 3.63332
# Velocity P-wave (km/s) = 6.15431 6.80380 6.48719
#
# Compressibility (1/GPa) = 0.02231066
#
# Stress axis : x y z
#
# Youngs Moduli (GPa) = 76.72502 44.50771 123.46615
#
# Poissons Ratio (x) = 0.28879 0.38911
# Poissons Ratio (y) = 0.49784 0.12409
# Poissons Ratio (z) = 0.24180 0.04473
#
# Static dielectric constant tensor:
#      x y z
#    x 1.790070 0.000000 0.000000 
#    y 0.000000 1.704630 0.000000 
#    z 0.000000 0.000000 1.690050 
# 
# From -- ./inp_files/3761.got.cif
#   From: 2010.05.17/outbox.cif.g08.bks.cpg/sg49_2_cif.got.tgz:3761.got - 2010.06.03 21:02:19.
