data_PCOD9394684
_publ_section_title
;
Structure prediction by ZEFSAII (Michael W. Deem and Ramdas Pophale) SiO2 
 PCOD9394684
Probable space group: P C C M
;
_chemical_formula_sum "Si O2"
_cell_formula_units_Z 64
_cell_length_a 11.795565
_cell_length_b 14.909081
_cell_length_c 16.363079
_cell_angle_alpha 90.000000
_cell_angle_beta 90.000000
_cell_angle_gamma 90.000000
_cell_volume 2877.627993
_symmetry_space_group_name_H-M "P C C M"
_symmetry_group_IT_number 49
_symmetry_cell_setting 'orthorhombic'
loop_
_space_group_symop_operation_xyz
x,y,z
-x,-y,z
x,-y,1/2-z
-x,y,1/2-z
-x,-y,-z
x,y,-z
-x,y,1/2+z
x,-y,1/2+z
loop_
_atom_site_type_symbol
_atom_site_label
_atom_site_fract_x
_atom_site_fract_y
_atom_site_fract_z
Si Si1 0.914962 0.582382 0.907204
Si Si2 0.293878 0.968612 0.341079
Si Si3 0.497128 0.640020 0.097262
Si Si4 0.311408 0.511106 0.903222
Si Si5 0.923062 0.917468 0.093801
Si Si6 0.044137 0.754626 0.160182
Si Si7 0.740353 0.163340 0.095470
Si Si8 0.527059 0.830664 0.902749
O O1 0.801365 0.537003 0.869434
O O2 0.000000 0.500000 0.913662
O O3 0.984484 0.660656 0.862017
O O4 0.886578 0.614722 0.000000
O O5 0.187764 0.902852 0.351969
O O6 0.404695 0.914874 0.368530
O O7 0.310902 0.000000 0.250000
O O8 0.247915 0.056279 0.389475
O O9 0.590894 0.563366 0.102141
O O10 0.376940 0.600141 0.129787
O O11 0.554700 0.731080 0.129476
O O12 0.476251 0.655887 0.000000
O O13 0.286510 0.528918 0.000000
O O14 0.996567 0.828756 0.098426
O O15 0.890583 0.934348 0.000000
O O16 0.000000 0.000000 0.123923
O O17 0.178704 0.772054 0.148457
O O18 0.000000 0.778700 0.250000
O O19 0.606938 0.170474 0.113286
O O20 0.758846 0.184164 0.000000
O O21 0.546794 0.836074 0.000000
#
# Coordination Sequence:
#
# PCOD9394684 Si02
#       8
#     8   8   8   8   8   8   8   8
#     4  10  22  38  63  96 129 170 221 274 332 401
#     4  12  25  41  63  93 136 177 218 274 347 411
#     4   8  15  30  53  86 123 158 201 263 321 369
#     4   8  15  30  53  85 126 158 198 260 324 377
#     4  11  23  41  68  96 128 177 234 289 337 399
#     4  12  26  43  64  95 135 176 224 279 354 424
#     4  11  23  43  66  90 126 172 225 278 330 393
#     4  10  22  37  63  95 126 170 226 276 322 390
#
# _framework density 22.240539999999999
#
# number of rings (size 3 to 8) (size 9 to 14) (size 15 to 20)
#    0.000    1.750    1.250    4.125    3.500    2.250 
#    0.000    0.000    0.000    0.000    0.000    0.000 
#    0.000    0.000    0.000    0.000    0.000    0.000 
#
# Total GULP energy -356767.805271 kJ/mol
# GULP energy per Si atom -5574.496957 kJ/mol
# Density = 2.218992 g / cm^3
# Si number density = 22.240540 Si / 1000 Ang^3
#
#
#
# Elastic Constant Matrix: (Units=GPa)
#
#
# Indices 1 2 3 4 5 6 
#
# 1 117.0469 53.6630 52.3581 0.0000 0.0000 0.0000
# 2 53.6630 64.3974 9.0029 0.0000 0.0000 0.0000
# 3 52.3581 9.0029 48.0911 0.0000 0.0000 0.0000
# 4 0.0000 0.0000 0.0000 -29.4788 0.0000 0.0000
# 5 0.0000 0.0000 0.0000 0.0000 10.0178 0.0000
# 6 0.0000 0.0000 0.0000 0.0000 0.0000 41.3789
#
#
#
# Elastic Compliance Matrix: (Units=1/GPa)
#
#
# Indices 1 2 3 4 5 6 
#
# 1 0.034052 -0.023817 -0.032615 0.000000 0.000000 0.000000
# 2 -0.023817 0.032603 0.019826 0.000000 0.000000 0.000000
# 3 -0.032615 0.019826 0.052591 0.000000 0.000000 0.000000
# 4 0.000000 0.000000 0.000000 -0.033923 0.000000 0.000000
# 5 0.000000 0.000000 0.000000 0.000000 0.099822 0.000000
# 6 0.000000 0.000000 0.000000 0.000000 0.000000 0.024167
#
#
# Mechanical properties :
#
#
# Convention : Reuss Voigt Hill
#
# Bulk Modulus (GPa) = 21.72215 51.06482 36.39348
# Shear Modulus (GPa) = 16.78582 12.01769 14.40175
#
# Velocity S-wave (km/s) = 2.75023 2.32707 2.54745
# Velocity P-wave (km/s) = 4.45793 5.49822 5.00518
#
# Compressibility (1/GPa) = 0.04603595
#
# Stress axis : x y z
#
# Youngs Moduli (GPa) = 29.36643 30.67164 19.01455
#
# Poissons Ratio (x) = 0.73049 0.62016
# Poissons Ratio (y) = 0.69941 -0.37699
# Poissons Ratio (z) = 0.95779 -0.60810
#
# Static dielectric constant tensor:
#      x y z
#    x 2.043820 0.000000 0.000000 
#    y 0.000000 1.943660 0.000000 
#    z 0.000000 0.000000 1.814370 
# 
# From -- ./inp_files/17248.got.cif
#   From: 2010.05.17/outbox.cif.g08.bks.cpg/sg49_9_cif.got.tgz:17248.got - 2010.06.03 21:02:19.
