data_PCOD9394832
_publ_section_title
;
Structure prediction by ZEFSAII (Michael W. Deem and Ramdas Pophale) SiO2 
 PCOD9394832
Probable space group: P C C M
;
_chemical_formula_sum "Si O2"
_cell_formula_units_Z 30
_cell_length_a 5.144623
_cell_length_b 20.858656
_cell_length_c 14.224088
_cell_angle_alpha 90.000000
_cell_angle_beta 90.000000
_cell_angle_gamma 90.000000
_cell_volume 1526.385765
_symmetry_space_group_name_H-M "P C C M"
_symmetry_group_IT_number 49
_symmetry_cell_setting 'orthorhombic'
loop_
_space_group_symop_operation_xyz
x,y,z
-x,-y,z
x,-y,1/2-z
-x,y,1/2-z
-x,-y,-z
x,y,-z
-x,y,1/2+z
x,-y,1/2+z
loop_
_atom_site_type_symbol
_atom_site_label
_atom_site_fract_x
_atom_site_fract_y
_atom_site_fract_z
Si Si1 0.000000 0.500000 0.250000
Si Si2 0.747440 0.045262 0.500000
Si Si3 0.360572 0.568249 0.104738
Si Si4 0.767088 0.125441 0.689340
Si Si5 0.000000 0.248904 0.750000
Si Si6 0.500000 0.334832 0.750000
O O1 0.144419 0.548723 0.179993
O O2 0.735960 0.089025 0.592582
O O3 0.500000 0.000000 0.500000
O O4 0.000000 0.000000 0.500000
O O5 0.500000 0.500000 0.095265
O O6 0.536394 0.620267 0.158226
O O7 0.276829 0.588450 0.000000
O O8 0.500000 0.128051 0.750000
O O9 0.000000 0.093433 0.750000
O O10 0.882442 0.197558 0.675227
O O11 0.246660 0.292582 0.726851
#
# Coordination Sequence:
#
# PCOD9394832 Si02
#       6
#     2   4   8   8   4   4
#     4  12  18  44  64  84 132 176 202 290 358 424
#     4  12  26  40  72 110 134 176 227 270 330 402
#     4  11  24  40  62  94 130 171 218 288 365 396
#     4  10  22  46  65  93 140 179 213 276 331 390
#     4  10  23  44  68  86 136 181 222 268 340 378
#     4  12  21  44  64  96 125 170 234 284 312 424
#
# _framework density 19.654271999999999
#
# number of rings (size 3 to 8) (size 9 to 14) (size 15 to 20)
#    0.800    0.267    4.000    2.800    0.000    3.200 
#    4.800    0.000    0.000    0.000    0.000    0.000 
#    0.000    0.000    0.000    0.000    0.000    0.000 
#
# Total GULP energy -167065.669708 kJ/mol
# GULP energy per Si atom -5568.855657 kJ/mol
# Density = 1.960954 g / cm^3
# Si number density = 19.654272 Si / 1000 Ang^3
#
#
#
# Elastic Constant Matrix: (Units=GPa)
#
#
# Indices 1 2 3 4 5 6 
#
# 1 140.1972 51.1955 60.0526 0.0000 0.0000 0.0000
# 2 51.1955 120.4493 63.5213 0.0000 0.0000 0.0000
# 3 60.0526 63.5213 170.9659 0.0000 0.0000 0.0000
# 4 0.0000 0.0000 0.0000 48.8581 0.0000 0.0000
# 5 0.0000 0.0000 0.0000 0.0000 52.8961 0.0000
# 6 0.0000 0.0000 0.0000 0.0000 0.0000 33.3683
#
#
#
# Elastic Compliance Matrix: (Units=1/GPa)
#
#
# Indices 1 2 3 4 5 6 
#
# 1 0.009051 -0.002699 -0.002176 0.000000 0.000000 0.000000
# 2 -0.002699 0.011130 -0.003187 0.000000 0.000000 0.000000
# 3 -0.002176 -0.003187 0.007798 0.000000 0.000000 0.000000
# 4 0.000000 0.000000 0.000000 0.020467 0.000000 0.000000
# 5 0.000000 0.000000 0.000000 0.000000 0.018905 0.000000
# 6 0.000000 0.000000 0.000000 0.000000 0.000000 0.029969
#
#
# Mechanical properties :
#
#
# Convention : Reuss Voigt Hill
#
# Bulk Modulus (GPa) = 84.36445 86.79457 85.57951
# Shear Modulus (GPa) = 42.59075 44.14736 43.36905
#
# Velocity S-wave (km/s) = 4.66015 4.74455 4.70254
# Velocity P-wave (km/s) = 8.48372 8.61805 8.55115
#
# Compressibility (1/GPa) = 0.01185333
#
# Stress axis : x y z
#
# Youngs Moduli (GPa) = 110.48943 89.84393 128.24206
#
# Poissons Ratio (x) = 0.24251 0.27908
# Poissons Ratio (y) = 0.29823 0.40875
# Poissons Ratio (z) = 0.24045 0.28636
#
# Static dielectric constant tensor:
#      x y z
#    x 1.753680 0.000000 0.000000 
#    y 0.000000 1.738600 0.000000 
#    z 0.000000 0.000000 1.763260 
# 
# From -- ./inp_files/7438.got.cif
#   From: 2010.05.17/outbox.cif.g08.bks.cpg/sg49_4_cif.got.tgz:7438.got - 2010.06.03 21:02:19.
