data_PCOD9394588
_publ_section_title
;
Structure prediction by ZEFSAII (Michael W. Deem and Ramdas Pophale) SiO2 
 PCOD9394588
Probable space group: P C C M
;
_chemical_formula_sum "Si O2"
_cell_formula_units_Z 34
_cell_length_a 9.315661
_cell_length_b 19.278080
_cell_length_c 9.636867
_cell_angle_alpha 90.000000
_cell_angle_beta 90.000000
_cell_angle_gamma 90.000000
_cell_volume 1730.666230
_symmetry_space_group_name_H-M "P C C M"
_symmetry_group_IT_number 49
_symmetry_cell_setting 'orthorhombic'
loop_
_space_group_symop_operation_xyz
x,y,z
-x,-y,z
x,-y,1/2-z
-x,y,1/2-z
-x,-y,-z
x,y,-z
-x,y,1/2+z
x,-y,1/2+z
loop_
_atom_site_type_symbol
_atom_site_label
_atom_site_fract_x
_atom_site_fract_y
_atom_site_fract_z
Si Si1 0.818311 0.433409 0.500000
Si Si2 0.848871 0.599307 0.500000
Si Si3 0.647420 0.804126 0.164264
Si Si4 0.000000 0.000000 0.750000
Si Si5 0.674026 0.349935 0.263812
Si Si6 0.272288 0.064513 0.340924
O O1 0.826830 0.516213 0.500000
O O2 0.728850 0.407030 0.370036
O O3 0.977042 0.397829 0.500000
O O4 0.766830 0.634267 0.371910
O O5 0.500000 0.799228 0.250000
O O6 0.711815 0.727290 0.181611
O O7 0.719857 0.867190 0.246384
O O8 0.630396 0.818651 0.000000
O O9 0.105054 0.044936 0.656221
O O10 0.500000 0.354257 0.250000
O O11 0.327137 0.070805 0.500000
O O12 0.336218 0.000000 0.250000
#
# Coordination Sequence:
#
# PCOD9394588 Si02
#       6
#     4   4   8   2   8   8
#     4  11  23  47  63  99 134 175 220 279 341 408
#     4  11  25  41  71  93 136 177 218 277 345 406
#     4  11  24  42  65  92 130 167 213 275 331 393
#     4   8  22  40  64  88 134 160 220 266 318 388
#     4  11  24  42  67  98 134 174 228 278 332 401
#     4  10  21  39  64  92 127 168 212 262 321 381
#
# _framework density 19.645613999999998
#
# number of rings (size 3 to 8) (size 9 to 14) (size 15 to 20)
#    0.706    0.706    1.176    3.882    6.588    5.176 
#    4.235    2.353    0.000    0.000    0.000    0.000 
#    0.000    0.000    0.000    0.000    0.000    0.000 
#
# Total GULP energy -189350.894433 kJ/mol
# GULP energy per Si atom -5569.143954 kJ/mol
# Density = 1.960090 g / cm^3
# Si number density = 19.645614 Si / 1000 Ang^3
#
#
#
# Elastic Constant Matrix: (Units=GPa)
#
#
# Indices 1 2 3 4 5 6 
#
# 1 89.7872 40.8923 31.0008 0.0000 0.0000 0.0000
# 2 40.8923 105.3148 44.6553 0.0000 0.0000 0.0000
# 3 31.0008 44.6553 184.9890 0.0000 0.0000 0.0000
# 4 0.0000 0.0000 0.0000 19.8331 0.0000 0.0000
# 5 0.0000 0.0000 0.0000 0.0000 24.2502 0.0000
# 6 0.0000 0.0000 0.0000 0.0000 0.0000 41.8655
#
#
#
# Elastic Compliance Matrix: (Units=1/GPa)
#
#
# Indices 1 2 3 4 5 6 
#
# 1 0.013739 -0.004855 -0.001130 0.000000 0.000000 0.000000
# 2 -0.004855 0.012294 -0.002154 0.000000 0.000000 0.000000
# 3 -0.001130 -0.002154 0.006115 0.000000 0.000000 0.000000
# 4 0.000000 0.000000 0.000000 0.050421 0.000000 0.000000
# 5 0.000000 0.000000 0.000000 0.000000 0.041237 0.000000
# 6 0.000000 0.000000 0.000000 0.000000 0.000000 0.023886
#
#
# Mechanical properties :
#
#
# Convention : Reuss Voigt Hill
#
# Bulk Modulus (GPa) = 63.01752 68.13198 65.57475
# Shear Modulus (GPa) = 29.54022 34.75926 32.14974
#
# Velocity S-wave (km/s) = 3.88191 4.21088 4.04974
# Velocity P-wave (km/s) = 7.22766 7.64185 7.43764
#
# Compressibility (1/GPa) = 0.01586860
#
# Stress axis : x y z
#
# Youngs Moduli (GPa) = 72.78530 81.34076 163.52910
#
# Poissons Ratio (x) = 0.39494 0.18485
# Poissons Ratio (y) = 0.35340 0.35224
# Poissons Ratio (z) = 0.08227 0.17521
#
# Static dielectric constant tensor:
#      x y z
#    x 1.724780 0.000000 0.000000 
#    y 0.000000 1.744300 0.000000 
#    z 0.000000 0.000000 0.855950 
# 
# From -- ./inp_files/1561.got.cif
#   From: 2010.05.17/outbox.cif.g08.bks.cpg/sg49_1_cif.got.tgz:1561.got - 2010.06.03 21:02:19.
