data_PCOD9394804
_publ_section_title
;
Structure prediction by ZEFSAII (Michael W. Deem and Ramdas Pophale) SiO2 
 PCOD9394804
Probable space group: P C C M
;
_chemical_formula_sum "Si O2"
_cell_formula_units_Z 28
_cell_length_a 9.175750
_cell_length_b 5.671101
_cell_length_c 25.051729
_cell_angle_alpha 90.000000
_cell_angle_beta 90.000000
_cell_angle_gamma 90.000000
_cell_volume 1303.606927
_symmetry_space_group_name_H-M "P C C M"
_symmetry_group_IT_number 49
_symmetry_cell_setting 'orthorhombic'
loop_
_space_group_symop_operation_xyz
x,y,z
-x,-y,z
x,-y,1/2-z
-x,y,1/2-z
-x,-y,-z
x,y,-z
-x,y,1/2+z
x,-y,1/2+z
loop_
_atom_site_type_symbol
_atom_site_label
_atom_site_fract_x
_atom_site_fract_y
_atom_site_fract_z
Si Si1 0.908594 0.253528 0.000000
Si Si2 0.743828 0.326903 0.299310
Si Si3 0.000000 0.000000 0.317945
Si Si4 0.762779 0.286000 0.114004
Si Si5 0.500000 0.000000 0.840541
O O1 0.810268 0.272398 0.052973
O O2 0.000000 0.500000 0.000000
O O3 0.000000 0.000000 0.000000
O O4 0.722384 0.500000 0.250000
O O5 0.757798 0.462828 0.355908
O O6 0.891104 0.181844 0.289602
O O7 0.606388 0.158447 0.305292
O O8 0.888435 0.853096 0.354228
O O9 0.608116 0.161749 0.124729
#
# Coordination Sequence:
#
# PCOD9394804 Si02
#       5
#     4   8   4   8   4
#     4  12  26  47  79 113 149 197 252 323 385 443
#     4  11  25  45  70 103 144 191 243 304 372 450
#     4  10  22  42  68 100 138 179 234 303 364 438
#     4  11  24  44  72 105 144 187 245 300 374 445
#     4  10  26  46  70 100 148 195 244 305 372 456
#
# _framework density 21.478867999999999
#
# number of rings (size 3 to 8) (size 9 to 14) (size 15 to 20)
#    0.000    1.143    1.429    3.429    4.000   12.000 
#    0.000    7.143    0.000    0.000    0.000    0.000 
#    0.000    0.000    0.000    0.000    0.000    0.000 
#
# Total GULP energy -156729.211894 kJ/mol
# GULP energy per Si atom -5597.471853 kJ/mol
# Density = 2.142998 g / cm^3
# Si number density = 21.478868 Si / 1000 Ang^3
#
#
#
# Elastic Constant Matrix: (Units=GPa)
#
#
# Indices 1 2 3 4 5 6 
#
# 1 205.3573 91.5635 81.0262 0.0000 0.0000 0.0000
# 2 91.5635 141.9093 77.1718 0.0000 0.0000 0.0000
# 3 81.0262 77.1718 167.8123 0.0000 0.0000 0.0000
# 4 0.0000 0.0000 0.0000 29.7822 0.0000 0.0000
# 5 0.0000 0.0000 0.0000 0.0000 37.6349 0.0000
# 6 0.0000 0.0000 0.0000 0.0000 0.0000 0.5007
#
#
#
# Elastic Compliance Matrix: (Units=1/GPa)
#
#
# Indices 1 2 3 4 5 6 
#
# 1 0.007219 -0.003683 -0.001792 0.000000 0.000000 0.000000
# 2 -0.003683 0.011276 -0.003407 0.000000 0.000000 0.000000
# 3 -0.001792 -0.003407 0.008391 0.000000 0.000000 0.000000
# 4 0.000000 0.000000 0.000000 0.033577 0.000000 0.000000
# 5 0.000000 0.000000 0.000000 0.000000 0.026571 0.000000
# 6 0.000000 0.000000 0.000000 0.000000 0.000000 1.997380
#
#
# Mechanical properties :
#
#
# Convention : Reuss Voigt Hill
#
# Bulk Modulus (GPa) = 109.62930 112.73356 111.18143
# Shear Modulus (GPa) = 2.37505 31.27137 16.82321
#
# Velocity S-wave (km/s) = 1.05269 3.81978 2.80169
# Velocity P-wave (km/s) = 7.25458 8.48847 7.89566
#
# Compressibility (1/GPa) = 0.00912165
#
# Stress axis : x y z
#
# Youngs Moduli (GPa) = 138.52659 88.68212 119.17663
#
# Poissons Ratio (x) = 0.32666 0.21352
# Poissons Ratio (y) = 0.51026 0.40604
# Poissons Ratio (z) = 0.24819 0.30215
#
# Static dielectric constant tensor:
#      x y z
#    x 1.737220 0.000000 0.000000 
#    y 0.000000 1.828670 0.000000 
#    z 0.000000 0.000000 1.767750 
# 
# From -- ./inp_files/24226.got.cif
#   From: 2010.05.17/outbox.cif.g08.bks.cpg/sg49_13_cif.got.tgz:24226.got - 2010.06.03 21:02:19.
