data_PCOD9394652
_publ_section_title
;
Structure prediction by ZEFSAII (Michael W. Deem and Ramdas Pophale) SiO2 
 PCOD9394652
Probable space group: P C C M
;
_chemical_formula_sum "Si O2"
_cell_formula_units_Z 54
_cell_length_a 5.305887
_cell_length_b 18.400629
_cell_length_c 27.587852
_cell_angle_alpha 90.000000
_cell_angle_beta 90.000000
_cell_angle_gamma 90.000000
_cell_volume 2693.447737
_symmetry_space_group_name_H-M "P C C M"
_symmetry_group_IT_number 49
_symmetry_cell_setting 'orthorhombic'
loop_
_space_group_symop_operation_xyz
x,y,z
-x,-y,z
x,-y,1/2-z
-x,y,1/2-z
-x,-y,-z
x,y,-z
-x,y,1/2+z
x,-y,1/2+z
loop_
_atom_site_type_symbol
_atom_site_label
_atom_site_fract_x
_atom_site_fract_y
_atom_site_fract_z
Si Si1 0.833901 0.930166 0.571981
Si Si2 0.581602 0.696047 0.896901
Si Si3 0.072250 0.237218 0.443931
Si Si4 0.379965 0.778766 0.696243
Si Si5 0.500000 0.000000 0.500000
Si Si6 0.000000 0.144542 0.750000
Si Si7 0.247370 0.452342 0.944376
Si Si8 0.647697 0.074407 0.822147
O O1 0.919029 0.850011 0.558825
O O2 0.575544 0.941754 0.542995
O O3 0.812315 0.933664 0.629669
O O4 0.000000 0.000000 0.554858
O O5 0.314277 0.723425 0.918916
O O6 0.578024 0.712737 0.839582
O O7 0.670778 0.615286 0.911206
O O8 0.811074 0.742496 0.918651
O O9 0.071933 0.259731 0.500000
O O10 0.500000 0.769300 0.750000
O O11 0.094834 0.802328 0.707745
O O12 0.487366 0.851944 0.671342
O O13 0.795195 0.092371 0.773174
O O14 0.500000 0.500000 0.945904
O O15 0.000000 0.500000 0.929745
O O16 0.195467 0.427196 0.000000
O O17 0.500000 0.000000 0.817511
#
# Coordination Sequence:
#
# PCOD9394652 Si02
#       8
#     8   8   8   8   2   4   8   8
#     4  12  27  41  59  82 125 178 227 283 338 400
#     4  12  25  44  70 104 136 178 221 273 341 404
#     4  12  26  41  66  97 136 175 230 284 331 402
#     4  10  24  43  64  91 126 172 225 283 342 396
#     4  12  26  44  60  78 122 184 234 270 350 386
#     4  10  24  43  60  86 119 162 220 290 349 398
#     4  10  21  41  70 105 144 175 208 255 321 404
#     4  11  24  41  60  86 119 165 221 286 346 399
#
# _framework density 20.048655
#
# number of rings (size 3 to 8) (size 9 to 14) (size 15 to 20)
#    0.000    0.889    2.963    3.333    8.296    4.444 
#    0.000    0.000    0.000    0.444    0.000    0.000 
#    0.000    0.000    0.000    0.000    0.000    0.000 
#
# Total GULP energy -301017.296746 kJ/mol
# GULP energy per Si atom -5574.394384 kJ/mol
# Density = 2.000302 g / cm^3
# Si number density = 20.048655 Si / 1000 Ang^3
#
#
#
# Elastic Constant Matrix: (Units=GPa)
#
#
# Indices 1 2 3 4 5 6 
#
# 1 63.7653 9.4283 6.9705 0.0000 0.0000 0.0000
# 2 9.4283 108.2089 31.8332 0.0000 0.0000 0.0000
# 3 6.9705 31.8332 102.4203 0.0000 0.0000 0.0000
# 4 0.0000 0.0000 0.0000 20.3909 0.0000 0.0000
# 5 0.0000 0.0000 0.0000 0.0000 -8.4234 0.0000
# 6 0.0000 0.0000 0.0000 0.0000 0.0000 33.1086
#
#
#
# Elastic Compliance Matrix: (Units=1/GPa)
#
#
# Indices 1 2 3 4 5 6 
#
# 1 0.015935 -0.001177 -0.000719 0.000000 0.000000 0.000000
# 2 -0.001177 0.010258 -0.003108 0.000000 0.000000 0.000000
# 3 -0.000719 -0.003108 0.010779 0.000000 0.000000 0.000000
# 4 0.000000 0.000000 0.000000 0.049042 0.000000 0.000000
# 5 0.000000 0.000000 0.000000 0.000000 -0.118717 0.000000
# 6 0.000000 0.000000 0.000000 0.000000 0.000000 0.030204
#
#
# Mechanical properties :
#
#
# Convention : Reuss Voigt Hill
#
# Bulk Modulus (GPa) = 37.08625 41.20651 39.14638
# Shear Modulus (GPa) = 303.09291 24.09272 163.59282
#
# Velocity S-wave (km/s) = 12.30881 3.47033 9.04296
# Velocity P-wave (km/s) = 14.85084 6.05438 11.34026
#
# Compressibility (1/GPa) = 0.02696417
#
# Stress axis : x y z
#
# Youngs Moduli (GPa) = 62.75456 97.48171 92.77568
#
# Poissons Ratio (x) = 0.11474 0.06668
# Poissons Ratio (y) = 0.07386 0.28837
# Poissons Ratio (z) = 0.04510 0.30300
#
# Static dielectric constant tensor:
#      x y z
#    x 1.851010 0.000000 0.000000 
#    y 0.000000 1.729710 0.000000 
#    z 0.000000 0.000000 1.728440 
# 
# From -- ./inp_files/25858.got.cif
#   From: 2010.05.17/outbox.cif.g08.bks.cpg/sg49_13_cif.got.tgz:25858.got - 2010.06.03 21:02:19.
