data_PCOD9394061
_publ_section_title
;
Structure prediction by ZEFSAII (Michael W. Deem and Ramdas Pophale) SiO2 
 PCOD9394061
Probable space group: P C C M
;
_chemical_formula_sum "Si O2"
_cell_formula_units_Z 40
_cell_length_a 5.417901
_cell_length_b 18.380904
_cell_length_c 19.251573
_cell_angle_alpha 90.000000
_cell_angle_beta 90.000000
_cell_angle_gamma 90.000000
_cell_volume 1917.185573
_symmetry_space_group_name_H-M "P C C M"
_symmetry_group_IT_number 49
_symmetry_cell_setting 'orthorhombic'
loop_
_space_group_symop_operation_xyz
x,y,z
-x,-y,z
x,-y,1/2-z
-x,y,1/2-z
-x,-y,-z
x,y,-z
-x,y,1/2+z
x,-y,1/2+z
loop_
_atom_site_type_symbol
_atom_site_label
_atom_site_fract_x
_atom_site_fract_y
_atom_site_fract_z
Si Si1 0.254090 0.584441 0.778054
Si Si2 0.749432 0.959292 0.584692
Si Si3 0.775533 0.791066 0.584837
Si Si4 0.059002 0.415590 0.575975
Si Si5 0.278582 0.286999 0.916479
O O1 0.252942 0.500000 0.750000
O O2 0.500000 0.619768 0.750000
O O3 0.000000 0.616943 0.750000
O O4 0.245035 0.588888 0.860634
O O5 0.749443 0.960353 0.500000
O O6 0.748252 0.874952 0.605768
O O7 0.500000 0.000000 0.607210
O O8 0.000000 0.000000 0.606852
O O9 0.778724 0.789763 0.500000
O O10 0.539827 0.743629 0.608974
O O11 0.038519 0.758592 0.607911
O O12 0.150755 0.389847 0.500000
O O13 0.812750 0.369934 0.593501
O O14 0.000000 0.500000 0.571191
O O15 0.290818 0.277722 0.000000
#
# Coordination Sequence:
#
# PCOD9394061 Si02
#       5
#     8   8   8   8   8
#     4  10  20  38  56  76 104 137 170 222 288 352
#     4   9  15  22  36  58  81 115 164 208 244 296
#     4   9  16  28  41  58  91 126 160 208 264 321
#     4  10  20  37  58  83 107 137 188 245 283 333
#     4   9  18  30  44  64  92 128 164 211 277 322
#
# _framework density 20.863916
#
# number of rings (size 3 to 8) (size 9 to 14) (size 15 to 20)
#    0.000    2.600    2.000    1.200    0.000    6.400 
#    0.000    5.000    0.000    0.000    0.000    0.000 
#    0.000    0.000    0.000    0.000    0.000   28.000 
#
# Total GULP energy -223141.953056 kJ/mol
# GULP energy per Si atom -5578.548826 kJ/mol
# Density = 2.081643 g / cm^3
# Si number density = 20.863916 Si / 1000 Ang^3
#
#
#
# Elastic Constant Matrix: (Units=GPa)
#
#
# Indices 1 2 3 4 5 6 
#
# 1 160.8491 51.6731 30.4431 0.0000 0.0000 0.0000
# 2 51.6731 142.8517 -3.7630 0.0000 0.0000 0.0000
# 3 30.4431 -3.7630 84.6746 0.0000 0.0000 0.0000
# 4 0.0000 0.0000 0.0000 -3.8870 0.0000 0.0000
# 5 0.0000 0.0000 0.0000 0.0000 10.1093 0.0000
# 6 0.0000 0.0000 0.0000 0.0000 0.0000 15.0319
#
#
#
# Elastic Compliance Matrix: (Units=1/GPa)
#
#
# Indices 1 2 3 4 5 6 
#
# 1 0.007681 -0.002854 -0.002888 0.000000 0.000000 0.000000
# 2 -0.002854 0.008069 0.001385 0.000000 0.000000 0.000000
# 3 -0.002888 0.001385 0.012910 0.000000 0.000000 0.000000
# 4 0.000000 0.000000 0.000000 -0.257268 0.000000 0.000000
# 5 0.000000 0.000000 0.000000 0.000000 0.098919 0.000000
# 6 0.000000 0.000000 0.000000 0.000000 0.000000 0.066525
#
#
# Mechanical properties :
#
#
# Convention : Reuss Voigt Hill
#
# Bulk Modulus (GPa) = 50.13999 60.56465 55.35232
# Shear Modulus (GPa) = -104.60144 24.91898 -39.84123
#
# Velocity S-wave (km/s) = -7.08830 3.45970 -4.37461
# Velocity P-wave (km/s) = 6.55041 6.71199 1.03512
#
# Compressibility (1/GPa) = 0.01994416
#
# Stress axis : x y z
#
# Youngs Moduli (GPa) = 130.19777 123.92738 77.46003
#
# Poissons Ratio (x) = 0.35373 0.22373
# Poissons Ratio (y) = 0.37163 -0.10727
# Poissons Ratio (z) = 0.37605 -0.17162
#
# Static dielectric constant tensor:
#      x y z
#    x 1.797570 0.000000 0.000000 
#    y 0.000000 1.762640 0.000000 
#    z 0.000000 0.000000 1.792260 
# 
# From -- ./inp_files/18927.got.cif
#   From: 2010.05.17/outbox.cif.g08.bks.cpg/sg49_10_cif.got.tgz:18927.got - 2010.06.03 21:02:19.
