data_PCOD9394937
_publ_section_title
;
Structure prediction by ZEFSAII (Michael W. Deem and Ramdas Pophale) SiO2 
 PCOD9394937
Probable space group: P C C M
;
_chemical_formula_sum "Si O2"
_cell_formula_units_Z 32
_cell_length_a 12.991297
_cell_length_b 7.796520
_cell_length_c 12.237688
_cell_angle_alpha 90.000000
_cell_angle_beta 90.000000
_cell_angle_gamma 90.000000
_cell_volume 1239.517565
_symmetry_space_group_name_H-M "P C C M"
_symmetry_group_IT_number 49
_symmetry_cell_setting 'orthorhombic'
loop_
_space_group_symop_operation_xyz
x,y,z
-x,-y,z
x,-y,1/2-z
-x,y,1/2-z
-x,-y,-z
x,y,-z
-x,y,1/2+z
x,-y,1/2+z
loop_
_atom_site_type_symbol
_atom_site_label
_atom_site_fract_x
_atom_site_fract_y
_atom_site_fract_z
Si Si1 0.725032 0.323869 0.294736
Si Si2 0.935141 0.747822 0.871985
Si Si3 0.846093 0.864597 0.373575
Si Si4 0.474129 0.200798 0.121819
O O1 0.680612 0.500000 0.250000
O O2 0.837364 0.368169 0.343561
O O3 0.749084 0.193327 0.195860
O O4 0.648008 0.236292 0.377679
O O5 0.054671 0.753503 0.833553
O O6 0.886078 0.940374 0.861463
O O7 0.952492 0.720176 0.000000
O O8 0.825857 0.836058 0.500000
O O9 0.500000 0.257773 0.250000
O O10 0.500000 0.000000 0.121270
O O11 0.513005 0.267335 0.000000
#
# Coordination Sequence:
#
# PCOD9394937 Si02
#       4
#     8   8   8   8
#     4  12  25  39  62 101 141 177 217 282 359 435
#     4   9  19  38  62  93 135 184 241 289 324 383
#     4   9  20  37  62  96 135 186 241 287 326 389
#     4  10  25  49  76 104 130 173 237 300 361 431
#
# _framework density 25.816496000000001
#
# number of rings (size 3 to 8) (size 9 to 14) (size 15 to 20)
#    0.000    2.000    0.000    3.750    7.000    7.500 
#    0.000    3.750    0.000    0.000    0.000    0.000 
#    0.000    0.000    0.000    0.000    0.000    0.000 
#
# Total GULP energy -178471.823301 kJ/mol
# GULP energy per Si atom -5577.244478 kJ/mol
# Density = 2.575774 g / cm^3
# Si number density = 25.816496 Si / 1000 Ang^3
#
#
#
# Elastic Constant Matrix: (Units=GPa)
#
#
# Indices 1 2 3 4 5 6 
#
# 1 77.4090 48.1313 35.1930 0.0000 0.0000 0.0000
# 2 48.1313 75.8632 5.2796 0.0000 0.0000 0.0000
# 3 35.1930 5.2796 135.2898 0.0000 0.0000 0.0000
# 4 0.0000 0.0000 0.0000 -15.6982 0.0000 0.0000
# 5 0.0000 0.0000 0.0000 0.0000 30.4728 0.0000
# 6 0.0000 0.0000 0.0000 0.0000 0.0000 31.6926
#
#
#
# Elastic Compliance Matrix: (Units=1/GPa)
#
#
# Indices 1 2 3 4 5 6 
#
# 1 0.025409 -0.015703 -0.005997 0.000000 0.000000 0.000000
# 2 -0.015703 0.022922 0.003190 0.000000 0.000000 0.000000
# 3 -0.005997 0.003190 0.008827 0.000000 0.000000 0.000000
# 4 0.000000 0.000000 0.000000 -0.063702 0.000000 0.000000
# 5 0.000000 0.000000 0.000000 0.000000 0.032816 0.000000
# 6 0.000000 0.000000 0.000000 0.000000 0.000000 0.031553
#
#
# Mechanical properties :
#
#
# Convention : Reuss Voigt Hill
#
# Bulk Modulus (GPa) = 49.65509 51.75220 50.70365
# Shear Modulus (GPa) = 49.23297 22.62397 35.92847
#
# Velocity S-wave (km/s) = 4.37170 2.96351 3.73458
# Velocity P-wave (km/s) = 6.69014 5.63911 6.18698
#
# Compressibility (1/GPa) = 0.02013892
#
# Stress axis : x y z
#
# Youngs Moduli (GPa) = 39.35666 43.62537 113.28900
#
# Poissons Ratio (x) = 0.68506 0.67937
# Poissons Ratio (y) = 0.61802 -0.36143
# Poissons Ratio (z) = 0.23601 -0.13918
#
# Static dielectric constant tensor:
#      x y z
#    x 2.056480 0.000000 0.000000 
#    y 0.000000 2.010020 0.000000 
#    z 0.000000 0.000000 2.204380 
# 
# From -- ./inp_files/11200.got.cif
#   From: 2010.05.17/outbox.cif.g08.bks.cpg/sg49_6_cif.got.tgz:11200.got - 2010.06.03 21:02:19.
