data_PCOD9394765
_publ_section_title
;
Structure prediction by ZEFSAII (Michael W. Deem and Ramdas Pophale) SiO2 
 PCOD9394765
Probable space group: P C C M
;
_chemical_formula_sum "Si O2"
_cell_formula_units_Z 40
_cell_length_a 8.016151
_cell_length_b 9.438649
_cell_length_c 24.259141
_cell_angle_alpha 90.000000
_cell_angle_beta 90.000000
_cell_angle_gamma 90.000000
_cell_volume 1835.486287
_symmetry_space_group_name_H-M "P C C M"
_symmetry_group_IT_number 49
_symmetry_cell_setting 'orthorhombic'
loop_
_space_group_symop_operation_xyz
x,y,z
-x,-y,z
x,-y,1/2-z
-x,y,1/2-z
-x,-y,-z
x,y,-z
-x,y,1/2+z
x,-y,1/2+z
loop_
_atom_site_type_symbol
_atom_site_label
_atom_site_fract_x
_atom_site_fract_y
_atom_site_fract_z
Si Si1 0.311336 0.293077 0.863788
Si Si2 0.701727 0.337604 0.755241
Si Si3 0.633569 0.204982 0.934500
Si Si4 0.171340 0.592002 0.866747
Si Si5 0.174768 0.078005 0.061815
O O1 0.262955 0.254073 0.800783
O O2 0.482928 0.243814 0.892849
O O3 0.304298 0.462487 0.866014
O O4 0.175661 0.213265 0.899927
O O5 0.761149 0.500000 0.750000
O O6 0.500000 0.339648 0.750000
O O7 0.785984 0.306099 0.813972
O O8 0.784799 0.312071 0.919274
O O9 0.692253 0.044236 0.923951
O O10 0.594030 0.217934 0.000000
O O11 0.000000 0.500000 0.864395
O O12 0.211278 0.125780 0.000000
O O13 0.000000 0.000000 0.062894
#
# Coordination Sequence:
#
# PCOD9394765 Si02
#       5
#     8   8   8   8   8
#     4  11  21  37  65  89 119 165 217 259 309 380
#     4   9  18  36  60  86 118 157 204 250 310 367
#     4  11  23  39  62  93 128 168 213 260 315 379
#     4  11  23  39  63  95 128 163 208 263 319 376
#     4  10  22  41  62  88 127 168 209 263 321 373
#
# _framework density 21.792590000000001
#
# number of rings (size 3 to 8) (size 9 to 14) (size 15 to 20)
#    0.000    1.600    2.000    3.000    0.000    8.000 
#    0.000    1.000    0.000    1.200    0.000    0.000 
#    0.000    0.000    0.000    0.000    0.000    0.000 
#
# Total GULP energy -222829.738954 kJ/mol
# GULP energy per Si atom -5570.743474 kJ/mol
# Density = 2.174299 g / cm^3
# Si number density = 21.792590 Si / 1000 Ang^3
#
#
#
# Elastic Constant Matrix: (Units=GPa)
#
#
# Indices 1 2 3 4 5 6 
#
# 1 93.3229 7.4756 32.4480 0.0000 0.0000 0.0000
# 2 7.4756 52.2735 52.1640 0.0000 0.0000 0.0000
# 3 32.4480 52.1640 126.7685 0.0000 0.0000 0.0000
# 4 0.0000 0.0000 0.0000 14.5842 0.0000 0.0000
# 5 0.0000 0.0000 0.0000 0.0000 19.0195 0.0000
# 6 0.0000 0.0000 0.0000 0.0000 0.0000 31.7178
#
#
#
# Elastic Compliance Matrix: (Units=1/GPa)
#
#
# Indices 1 2 3 4 5 6 
#
# 1 0.011919 0.002274 -0.003986 0.000000 0.000000 0.000000
# 2 0.002274 0.032892 -0.014117 0.000000 0.000000 0.000000
# 3 -0.003986 -0.014117 0.014718 0.000000 0.000000 0.000000
# 4 0.000000 0.000000 0.000000 0.068567 0.000000 0.000000
# 5 0.000000 0.000000 0.000000 0.000000 0.052578 0.000000
# 6 0.000000 0.000000 0.000000 0.000000 0.000000 0.031528
#
#
# Mechanical properties :
#
#
# Convention : Reuss Voigt Hill
#
# Bulk Modulus (GPa) = 35.88097 50.72670 43.30383
# Shear Modulus (GPa) = 19.75100 25.08278 22.41689
#
# Velocity S-wave (km/s) = 3.01378 3.39629 3.21073
# Velocity P-wave (km/s) = 5.34892 6.22152 5.80165
#
# Compressibility (1/GPa) = 0.02786992
#
# Stress axis : x y z
#
# Youngs Moduli (GPa) = 83.89651 30.40234 67.94535
#
# Poissons Ratio (x) = -0.06912 0.27086
# Poissons Ratio (y) = -0.19074 0.95917
# Poissons Ratio (z) = 0.33445 0.42918
#
# Static dielectric constant tensor:
#      x y z
#    x 1.955110 0.000000 0.000000 
#    y 0.000000 1.732410 0.000000 
#    z 0.000000 0.000000 1.877220 
# 
# From -- ./inp_files/22216.got.cif
#   From: 2010.05.17/outbox.cif.g08.bks.cpg/sg49_12_cif.got.tgz:22216.got - 2010.06.03 21:02:19.
