data_PCOD9394834
_publ_section_title
;
Structure prediction by ZEFSAII (Michael W. Deem and Ramdas Pophale) SiO2 
 PCOD9394834
Probable space group: P C C M
;
_chemical_formula_sum "Si O2"
_cell_formula_units_Z 22
_cell_length_a 5.269803
_cell_length_b 5.616408
_cell_length_c 31.277740
_cell_angle_alpha 90.000000
_cell_angle_beta 90.000000
_cell_angle_gamma 90.000000
_cell_volume 925.738647
_symmetry_space_group_name_H-M "P C C M"
_symmetry_group_IT_number 49
_symmetry_cell_setting 'orthorhombic'
loop_
_space_group_symop_operation_xyz
x,y,z
-x,-y,z
x,-y,1/2-z
-x,y,1/2-z
-x,-y,-z
x,y,-z
-x,y,1/2+z
x,-y,1/2+z
loop_
_atom_site_type_symbol
_atom_site_label
_atom_site_fract_x
_atom_site_fract_y
_atom_site_fract_z
Si Si1 0.240966 0.845248 0.685279
Si Si2 0.651204 0.753380 0.906575
Si Si3 0.755741 0.341598 0.500000
Si Si4 0.500000 0.500000 0.750000
O O1 0.187920 0.748180 0.637161
O O2 0.314884 0.645695 0.718927
O O3 0.500000 0.000000 0.684451
O O4 0.000000 0.000000 0.698040
O O5 0.500000 0.500000 0.906701
O O6 0.766460 0.783732 0.953980
O O7 0.500000 0.000000 0.902343
O O8 0.500000 0.500000 0.500000
O O9 0.000000 0.500000 0.500000
#
# Coordination Sequence:
#
# PCOD9394834 Si02
#       4
#     8   8   4   2
#     4  11  27  48  77 112 151 199 260 323 392 471
#     4  10  22  47  74 115 153 202 253 318 383 464
#     4  10  23  42  74 108 154 199 251 305 384 462
#     4  12  26  54  80 110 156 206 270 330 418 464
#
# _framework density 23.764806
#
# number of rings (size 3 to 8) (size 9 to 14) (size 15 to 20)
#    0.000    1.455    1.818    1.091    0.000   17.455 
#    0.000    8.182    0.000    0.000    0.000    0.000 
#    0.000    0.000    0.000    0.000    0.000    0.000 
#
# Total GULP energy -122869.298362 kJ/mol
# GULP energy per Si atom -5584.968107 kJ/mol
# Density = 2.371072 g / cm^3
# Si number density = 23.764806 Si / 1000 Ang^3
#
#
#
# Elastic Constant Matrix: (Units=GPa)
#
#
# Indices 1 2 3 4 5 6 
#
# 1 137.1160 55.2792 51.5165 0.0000 0.0000 0.0000
# 2 55.2792 138.4239 78.5327 0.0000 0.0000 0.0000
# 3 51.5165 78.5327 278.8500 0.0000 0.0000 0.0000
# 4 0.0000 0.0000 0.0000 61.8562 0.0000 0.0000
# 5 0.0000 0.0000 0.0000 0.0000 12.3996 0.0000
# 6 0.0000 0.0000 0.0000 0.0000 0.0000 46.4507
#
#
#
# Elastic Compliance Matrix: (Units=1/GPa)
#
#
# Indices 1 2 3 4 5 6 
#
# 1 0.008826 -0.003094 -0.000759 0.000000 0.000000 0.000000
# 2 -0.003094 0.009682 -0.002155 0.000000 0.000000 0.000000
# 3 -0.000759 -0.002155 0.004333 0.000000 0.000000 0.000000
# 4 0.000000 0.000000 0.000000 0.016167 0.000000 0.000000
# 5 0.000000 0.000000 0.000000 0.000000 0.080648 0.000000
# 6 0.000000 0.000000 0.000000 0.000000 0.000000 0.021528
#
#
# Mechanical properties :
#
#
# Convention : Reuss Voigt Hill
#
# Bulk Modulus (GPa) = 92.37937 102.78299 97.58118
# Shear Modulus (GPa) = 31.88595 48.74539 40.31567
#
# Velocity S-wave (km/s) = 3.66694 4.53389 4.12326
# Velocity P-wave (km/s) = 7.54223 8.41143 7.98866
#
# Compressibility (1/GPa) = 0.01082493
#
# Stress axis : x y z
#
# Youngs Moduli (GPa) = 113.30661 103.27956 230.76455
#
# Poissons Ratio (x) = 0.31952 0.17520
# Poissons Ratio (y) = 0.35054 0.49737
# Poissons Ratio (z) = 0.08602 0.22260
#
# Static dielectric constant tensor:
#      x y z
#    x 1.788690 0.000000 0.000000 
#    y 0.000000 1.807200 0.000000 
#    z 0.000000 0.000000 2.273900 
# 
# From -- ./inp_files/25331.got.cif
#   From: 2010.05.17/outbox.cif.g08.bks.cpg/sg49_13_cif.got.tgz:25331.got - 2010.06.03 21:02:19.
