data_PCOD9394791
_publ_section_title
;
Structure prediction by ZEFSAII (Michael W. Deem and Ramdas Pophale) SiO2 
 PCOD9394791
Probable space group: P C C M
;
_chemical_formula_sum "Si O2"
_cell_formula_units_Z 56
_cell_length_a 14.935327
_cell_length_b 9.011301
_cell_length_c 20.362338
_cell_angle_alpha 90.000000
_cell_angle_beta 90.000000
_cell_angle_gamma 90.000000
_cell_volume 2740.500428
_symmetry_space_group_name_H-M "P C C M"
_symmetry_group_IT_number 49
_symmetry_cell_setting 'orthorhombic'
loop_
_space_group_symop_operation_xyz
x,y,z
-x,-y,z
x,-y,1/2-z
-x,y,1/2-z
-x,-y,-z
x,y,-z
-x,y,1/2+z
x,-y,1/2+z
loop_
_atom_site_type_symbol
_atom_site_label
_atom_site_fract_x
_atom_site_fract_y
_atom_site_fract_z
Si Si1 0.618671 0.421807 0.178605
Si Si2 0.781214 0.197337 0.193671
Si Si3 0.520305 0.162342 0.673515
Si Si4 0.725701 0.391832 0.423851
Si Si5 0.920184 0.382617 0.425540
Si Si6 0.016081 0.823397 0.174900
Si Si7 0.729798 0.126562 0.662172
O O1 0.600218 0.500000 0.250000
O O2 0.708314 0.324672 0.187239
O O3 0.539301 0.308060 0.155765
O O4 0.650077 0.536262 0.122224
O O5 0.879552 0.215171 0.164025
O O6 0.785995 0.170926 0.272809
O O7 0.740367 0.049335 0.160478
O O8 0.500000 0.149717 0.750000
O O9 0.626835 0.169893 0.673234
O O10 0.500000 0.000000 0.641470
O O11 0.700966 0.401835 0.500000
O O12 0.824512 0.460835 0.412639
O O13 0.748894 0.223079 0.401852
O O14 0.914485 0.322420 0.500000
O O15 0.000000 0.500000 0.423575
O O16 0.949399 0.259606 0.373563
O O17 0.000000 0.777986 0.250000
O O18 0.000000 0.000000 0.169986
#
# Coordination Sequence:
#
# PCOD9394791 Si02
#       7
#     8   8   8   8   8   8   8
#     4  12  23  38  64  98 125 161 213 269 318 375
#     4  11  20  37  62  92 126 157 208 268 316 370
#     4  11  19  37  62  96 126 161 204 261 317 375
#     4  11  24  42  61  89 128 169 211 261 324 386
#     4  10  22  42  62  83 120 166 211 258 314 381
#     4  11  22  36  58  92 126 159 207 260 317 372
#     4  11  20  38  63  89 127 164 205 258 322 381
#
# _framework density 20.434225000000001
#
# number of rings (size 3 to 8) (size 9 to 14) (size 15 to 20)
#    0.000    1.000    4.286    5.143    0.000    2.571 
#    0.000    2.857    0.000    0.857    0.000    0.000 
#    0.000    0.000    0.000    0.000    0.000    0.000 
#
# Total GULP energy -312260.075262 kJ/mol
# GULP energy per Si atom -5576.072773 kJ/mol
# Density = 2.038772 g / cm^3
# Si number density = 20.434225 Si / 1000 Ang^3
#
#
#
# Elastic Constant Matrix: (Units=GPa)
#
#
# Indices 1 2 3 4 5 6 
#
# 1 134.3584 29.2853 38.6719 0.0000 0.0000 0.0000
# 2 29.2853 93.1349 52.9585 0.0000 0.0000 0.0000
# 3 38.6719 52.9585 99.1714 0.0000 0.0000 0.0000
# 4 0.0000 0.0000 0.0000 25.5018 0.0000 0.0000
# 5 0.0000 0.0000 0.0000 0.0000 19.5689 0.0000
# 6 0.0000 0.0000 0.0000 0.0000 0.0000 37.3308
#
#
#
# Elastic Compliance Matrix: (Units=1/GPa)
#
#
# Indices 1 2 3 4 5 6 
#
# 1 0.008465 -0.001127 -0.002699 0.000000 0.000000 0.000000
# 2 -0.001127 0.015569 -0.007875 0.000000 0.000000 0.000000
# 3 -0.002699 -0.007875 0.015341 0.000000 0.000000 0.000000
# 4 0.000000 0.000000 0.000000 0.039213 0.000000 0.000000
# 5 0.000000 0.000000 0.000000 0.000000 0.051101 0.000000
# 6 0.000000 0.000000 0.000000 0.000000 0.000000 0.026788
#
#
# Mechanical properties :
#
#
# Convention : Reuss Voigt Hill
#
# Bulk Modulus (GPa) = 62.60152 63.16624 62.88388
# Shear Modulus (GPa) = 26.99726 30.19690 28.59708
#
# Velocity S-wave (km/s) = 3.63875 3.84834 3.74501
# Velocity P-wave (km/s) = 6.95385 7.12217 7.03852
#
# Compressibility (1/GPa) = 0.01597405
#
# Stress axis : x y z
#
# Youngs Moduli (GPa) = 118.12876 64.22958 65.18377
#
# Poissons Ratio (x) = 0.07239 0.17595
# Poissons Ratio (y) = 0.13313 0.51330
# Poissons Ratio (z) = 0.31886 0.50578
#
# Static dielectric constant tensor:
#      x y z
#    x 1.468010 0.000000 0.000000 
#    y 0.000000 1.815770 0.000000 
#    z 0.000000 0.000000 1.665370 
# 
# From -- ./inp_files/20888.got.cif
#   From: 2010.05.17/outbox.cif.g08.bks.cpg/sg49_11_cif.got.tgz:20888.got - 2010.06.03 21:02:19.
