data_PCOD9394806
_publ_section_title
;
Structure prediction by ZEFSAII (Michael W. Deem and Ramdas Pophale) SiO2 
 PCOD9394806
Probable space group: P C C M
;
_chemical_formula_sum "Si O2"
_cell_formula_units_Z 48
_cell_length_a 9.686289
_cell_length_b 8.733162
_cell_length_c 27.706557
_cell_angle_alpha 90.000000
_cell_angle_beta 90.000000
_cell_angle_gamma 90.000000
_cell_volume 2343.751158
_symmetry_space_group_name_H-M "P C C M"
_symmetry_group_IT_number 49
_symmetry_cell_setting 'orthorhombic'
loop_
_space_group_symop_operation_xyz
x,y,z
-x,-y,z
x,-y,1/2-z
-x,y,1/2-z
-x,-y,-z
x,y,-z
-x,y,1/2+z
x,-y,1/2+z
loop_
_atom_site_type_symbol
_atom_site_label
_atom_site_fract_x
_atom_site_fract_y
_atom_site_fract_z
Si Si1 0.030324 0.322713 0.852920
Si Si2 0.587379 0.154274 0.944218
Si Si3 0.457229 0.673224 0.150240
Si Si4 0.915620 0.843024 0.555651
Si Si5 0.790050 0.819636 0.699043
Si Si6 0.717612 0.831590 0.811023
O O1 0.972738 0.275758 0.905308
O O2 0.946011 0.218723 0.814677
O O3 0.000000 0.500000 0.843486
O O4 0.188177 0.273704 0.845395
O O5 0.540396 0.279020 0.905614
O O6 0.751872 0.128715 0.937707
O O7 0.500000 0.000000 0.935255
O O8 0.564763 0.198643 0.000000
O O9 0.500000 0.500000 0.158013
O O10 0.304845 0.701485 0.170211
O O11 0.560443 0.786129 0.178839
O O12 0.936282 0.793867 0.500000
O O13 0.000000 0.000000 0.562921
O O14 0.757495 0.803823 0.755357
O O15 0.749211 0.989413 0.681335
#
# Coordination Sequence:
#
# PCOD9394806 Si02
#       6
#     8   8   8   8   8   8
#     4  12  25  40  63  96 131 165 203 259 323 374
#     4  10  22  42  68  95 125 165 213 260 309 374
#     4  12  25  40  63  96 131 165 203 259 323 374
#     4  10  22  42  68  95 125 165 213 260 309 374
#     4  11  23  45  64  91 124 167 219 258 304 371
#     4  11  25  41  68  91 122 169 215 260 306 371
#
# _framework density 20.479990000000001
#
# number of rings (size 3 to 8) (size 9 to 14) (size 15 to 20)
#    0.000    1.000    1.667    5.000    2.333    7.333 
#    0.000    0.000    0.000    0.000    0.000    0.000 
#    0.000    0.000    0.000    0.000    0.000    0.000 
#
# Total GULP energy -268558.670933 kJ/mol
# GULP energy per Si atom -5594.972311 kJ/mol
# Density = 2.043338 g / cm^3
# Si number density = 20.479990 Si / 1000 Ang^3
#
#
#
# Elastic Constant Matrix: (Units=GPa)
#
#
# Indices 1 2 3 4 5 6 
#
# 1 44.4364 -9.5219 -5.5818 0.0000 0.0000 0.0000
# 2 -9.5219 81.1101 18.8356 0.0000 0.0000 0.0000
# 3 -5.5818 18.8356 77.6482 0.0000 0.0000 0.0000
# 4 0.0000 0.0000 0.0000 -5.3510 0.0000 0.0000
# 5 0.0000 0.0000 0.0000 0.0000 29.5304 0.0000
# 6 0.0000 0.0000 0.0000 0.0000 0.0000 29.6424
#
#
#
# Elastic Compliance Matrix: (Units=1/GPa)
#
#
# Indices 1 2 3 4 5 6 
#
# 1 0.023168 0.002472 0.001066 0.000000 0.000000 0.000000
# 2 0.002472 0.013329 -0.003056 0.000000 0.000000 0.000000
# 3 0.001066 -0.003056 0.013696 0.000000 0.000000 0.000000
# 4 0.000000 0.000000 0.000000 -0.186880 0.000000 0.000000
# 5 0.000000 0.000000 0.000000 0.000000 0.033863 0.000000
# 6 0.000000 0.000000 0.000000 0.000000 0.000000 0.033735
#
#
# Mechanical properties :
#
#
# Convention : Reuss Voigt Hill
#
# Bulk Modulus (GPa) = 19.54735 23.40649 21.47692
# Shear Modulus (GPa) = -94.33779 24.06188 -35.13795
#
# Velocity S-wave (km/s) = -6.79436 3.43140 -4.14662
# Velocity P-wave (km/s) = 7.21012 5.21086 3.52369
#
# Compressibility (1/GPa) = 0.05115784
#
# Stress axis : x y z
#
# Youngs Moduli (GPa) = 43.16349 75.02599 73.01183
#
# Poissons Ratio (x) = -0.18549 -0.07781
# Poissons Ratio (y) = -0.10671 0.22309
# Poissons Ratio (z) = -0.04600 0.22924
#
# Static dielectric constant tensor:
#      x y z
#    x 1.688740 0.000000 0.000000 
#    y 0.000000 1.690040 0.000000 
#    z 0.000000 0.000000 1.727140 
# 
# From -- ./inp_files/26254.got.cif
#   From: 2010.05.17/outbox.cif.g08.bks.cpg/sg49_14_cif.got.tgz:26254.got - 2010.06.03 21:02:19.
