data_PCOD9394421
_publ_section_title
;
Structure prediction by ZEFSAII (Michael W. Deem and Ramdas Pophale) SiO2 
 PCOD9394421
Probable space group: P C C M
;
_chemical_formula_sum "Si O2"
_cell_formula_units_Z 64
_cell_length_a 20.855438
_cell_length_b 8.795636
_cell_length_c 17.406521
_cell_angle_alpha 90.000000
_cell_angle_beta 90.000000
_cell_angle_gamma 90.000000
_cell_volume 3192.997230
_symmetry_space_group_name_H-M "P C C M"
_symmetry_group_IT_number 49
_symmetry_cell_setting 'orthorhombic'
loop_
_space_group_symop_operation_xyz
x,y,z
-x,-y,z
x,-y,1/2-z
-x,y,1/2-z
-x,-y,-z
x,y,-z
-x,y,1/2+z
x,-y,1/2+z
loop_
_atom_site_type_symbol
_atom_site_label
_atom_site_fract_x
_atom_site_fract_y
_atom_site_fract_z
Si Si1 0.345154 0.822345 0.591378
Si Si2 0.223476 0.994955 0.586453
Si Si3 0.868238 0.844197 0.790177
Si Si4 0.693309 0.490014 0.341415
Si Si5 0.818523 0.319151 0.862956
Si Si6 0.484905 0.174637 0.165892
Si Si7 0.438685 0.403959 0.589089
Si Si8 0.930043 0.455414 0.659714
O O1 0.357771 0.807928 0.500000
O O2 0.299405 0.969422 0.603554
O O3 0.305509 0.678372 0.623152
O O4 0.412078 0.812097 0.636878
O O5 0.214294 0.934902 0.500000
O O6 0.183740 0.903655 0.649573
O O7 0.196414 0.166222 0.589935
O O8 0.833957 0.747258 0.722575
O O9 0.914093 0.724861 0.835081
O O10 0.895916 0.000000 0.750000
O O11 0.694543 0.500000 0.250000
O O12 0.754408 0.583580 0.368065
O O13 0.626468 0.561582 0.368527
O O14 0.876597 0.436450 0.879385
O O15 0.500000 0.245587 0.250000
O O16 0.535189 0.237238 0.104005
O O17 0.500000 0.000000 0.172802
O O18 0.500000 0.500000 0.617812
O O19 0.429456 0.439548 0.500000
O O20 0.929972 0.500000 0.750000
O O21 0.000000 0.500000 0.629024
#
# Coordination Sequence:
#
# PCOD9394421 Si02
#       8
#     8   8   8   8   8   8   8   8
#     4  11  23  41  60  83 115 155 199 245 313 378
#     4  10  22  38  58  86 121 161 205 254 305 368
#     4   9  18  37  61  89 125 163 201 251 306 358
#     4  12  23  37  62  88 116 153 194 253 310 374
#     4  10  21  37  59  92 124 154 202 254 305 362
#     4  11  25  43  61  84 112 148 195 251 305 372
#     4  11  24  41  59  84 116 151 195 244 303 371
#     4   9  17  34  62  94 128 161 205 255 301 358
#
# _framework density 20.043863000000002
#
# number of rings (size 3 to 8) (size 9 to 14) (size 15 to 20)
#    0.000    1.625    1.250    4.125    1.750    2.000 
#    4.500   11.250    0.000    2.250    0.000    0.000 
#    0.000    0.000    0.000    0.000    0.000    0.000 
#
# Total GULP energy -356865.704087 kJ/mol
# GULP energy per Si atom -5576.026626 kJ/mol
# Density = 1.999824 g / cm^3
# Si number density = 20.043863 Si / 1000 Ang^3
#
#
#
# Elastic Constant Matrix: (Units=GPa)
#
#
# Indices 1 2 3 4 5 6 
#
# 1 121.7578 54.0641 20.3545 0.0000 0.0000 0.0000
# 2 54.0641 98.5244 10.2618 0.0000 0.0000 0.0000
# 3 20.3545 10.2618 51.0961 0.0000 0.0000 0.0000
# 4 0.0000 0.0000 0.0000 19.6985 0.0000 0.0000
# 5 0.0000 0.0000 0.0000 0.0000 24.8352 0.0000
# 6 0.0000 0.0000 0.0000 0.0000 0.0000 13.2024
#
#
#
# Elastic Compliance Matrix: (Units=1/GPa)
#
#
# Indices 1 2 3 4 5 6 
#
# 1 0.011395 -0.005904 -0.003354 0.000000 0.000000 0.000000
# 2 -0.005904 0.013425 -0.000344 0.000000 0.000000 0.000000
# 3 -0.003354 -0.000344 0.020976 0.000000 0.000000 0.000000
# 4 0.000000 0.000000 0.000000 0.050765 0.000000 0.000000
# 5 0.000000 0.000000 0.000000 0.000000 0.040265 0.000000
# 6 0.000000 0.000000 0.000000 0.000000 0.000000 0.075744
#
#
# Mechanical properties :
#
#
# Convention : Reuss Voigt Hill
#
# Bulk Modulus (GPa) = 37.60410 48.97102 43.28756
# Shear Modulus (GPa) = 20.77808 23.99377 22.38593
#
# Velocity S-wave (km/s) = 3.22317 3.46361 3.34555
# Velocity P-wave (km/s) = 5.71431 6.36243 6.04706
#
# Compressibility (1/GPa) = 0.02659284
#
# Stress axis : x y z
#
# Youngs Moduli (GPa) = 87.75757 74.48691 47.67331
#
# Poissons Ratio (x) = 0.43974 0.15988
# Poissons Ratio (y) = 0.51808 0.01642
# Poissons Ratio (z) = 0.29431 0.02566
#
# Static dielectric constant tensor:
#      x y z
#    x 1.764460 0.000000 0.000000 
#    y 0.000000 1.817710 0.000000 
#    z 0.000000 0.000000 1.727210 
# 
# From -- ./inp_files/18302.got.cif
#   From: 2010.05.17/outbox.cif.g08.bks.cpg/sg49_10_cif.got.tgz:18302.got - 2010.06.03 21:02:19.
