data_PCOD9394934
_publ_section_title
;
Structure prediction by ZEFSAII (Michael W. Deem and Ramdas Pophale) SiO2 
 PCOD9394934
Probable space group: P C C M
;
_chemical_formula_sum "Si O2"
_cell_formula_units_Z 48
_cell_length_a 7.477307
_cell_length_b 15.006751
_cell_length_c 18.773261
_cell_angle_alpha 90.000000
_cell_angle_beta 90.000000
_cell_angle_gamma 90.000000
_cell_volume 2106.549199
_symmetry_space_group_name_H-M "P C C M"
_symmetry_group_IT_number 49
_symmetry_cell_setting 'orthorhombic'
loop_
_space_group_symop_operation_xyz
x,y,z
-x,-y,z
x,-y,1/2-z
-x,y,1/2-z
-x,-y,-z
x,y,-z
-x,y,1/2+z
x,-y,1/2+z
loop_
_atom_site_type_symbol
_atom_site_label
_atom_site_fract_x
_atom_site_fract_y
_atom_site_fract_z
Si Si1 0.731989 0.456912 0.500000
Si Si2 0.761779 0.075791 0.082884
Si Si3 0.898491 0.646928 0.500000
Si Si4 0.554404 0.595470 0.852753
Si Si5 0.248162 0.742735 0.133186
Si Si6 0.300295 0.244320 0.217168
Si Si7 0.812951 0.120065 0.585965
O O1 0.759342 0.563894 0.500000
O O2 0.634575 0.425322 0.570516
O O3 0.917667 0.404988 0.500000
O O4 0.664064 0.163324 0.110719
O O5 0.972999 0.100734 0.091414
O O6 0.728162 0.975730 0.108469
O O7 0.724681 0.070617 0.000000
O O8 0.877959 0.708710 0.430475
O O9 0.500000 0.500000 0.823850
O O10 0.389355 0.662793 0.860851
O O11 0.689996 0.652082 0.805225
O O12 0.177886 0.761880 0.212417
O O13 0.500000 0.220428 0.250000
O O14 0.246039 0.190517 0.146203
O O15 0.778231 0.138985 0.500000
#
# Coordination Sequence:
#
# PCOD9394934 Si02
#       7
#     4   8   4   8   8   8   8
#     4  11  24  41  68 100 121 172 225 272 336 388
#     4   9  19  37  69 100 129 168 219 270 334 403
#     4  11  23  42  65 100 133 161 227 285 318 394
#     4  11  23  43  65  91 128 175 216 265 331 399
#     4  11  22  40  64  96 132 173 214 268 329 391
#     4  10  25  41  61  97 130 174 226 268 327 402
#     4   9  20  42  66  98 132 170 217 278 339 391
#
# _framework density 22.786079999999998
#
# number of rings (size 3 to 8) (size 9 to 14) (size 15 to 20)
#    0.000    1.833    2.500    1.750    3.500    4.333 
#    1.500    7.500    0.000   10.000    0.000    0.000 
#    0.000    0.000    0.000    0.000    0.000    0.000 
#
# Total GULP energy -267841.251287 kJ/mol
# GULP energy per Si atom -5580.026068 kJ/mol
# Density = 2.273422 g / cm^3
# Si number density = 22.786080 Si / 1000 Ang^3
#
#
#
# Elastic Constant Matrix: (Units=GPa)
#
#
# Indices 1 2 3 4 5 6 
#
# 1 38.2727 14.9784 38.0912 0.0000 0.0000 0.0000
# 2 14.9784 200.7702 79.0881 0.0000 0.0000 0.0000
# 3 38.0912 79.0881 186.0021 0.0000 0.0000 0.0000
# 4 0.0000 0.0000 0.0000 -18.6913 0.0000 0.0000
# 5 0.0000 0.0000 0.0000 0.0000 22.5411 0.0000
# 6 0.0000 0.0000 0.0000 0.0000 0.0000 20.3648
#
#
#
# Elastic Compliance Matrix: (Units=1/GPa)
#
#
# Indices 1 2 3 4 5 6 
#
# 1 0.032826 0.000239 -0.006824 0.000000 0.000000 0.000000
# 2 0.000239 0.005985 -0.002594 0.000000 0.000000 0.000000
# 3 -0.006824 -0.002594 0.007877 0.000000 0.000000 0.000000
# 4 0.000000 0.000000 0.000000 -0.053501 0.000000 0.000000
# 5 0.000000 0.000000 0.000000 0.000000 0.044363 0.000000
# 6 0.000000 0.000000 0.000000 0.000000 0.000000 0.049104
#
#
# Mechanical properties :
#
#
# Convention : Reuss Voigt Hill
#
# Bulk Modulus (GPa) = 35.29771 76.59561 55.94666
# Shear Modulus (GPa) = 43.68504 24.36874 34.02689
#
# Velocity S-wave (km/s) = 4.38331 3.27380 3.86854
# Velocity P-wave (km/s) = 6.41424 6.92665 6.67536
#
# Compressibility (1/GPa) = 0.02833045
#
# Stress axis : x y z
#
# Youngs Moduli (GPa) = 30.46320 167.09322 126.95765
#
# Poissons Ratio (x) = -0.03997 0.86639
# Poissons Ratio (y) = -0.00729 0.32929
# Poissons Ratio (z) = 0.20789 0.43339
#
# Static dielectric constant tensor:
#      x y z
#    x 1.977550 0.000000 0.000000 
#    y 0.000000 1.865220 0.000000 
#    z 0.000000 0.000000 1.854950 
# 
# From -- ./inp_files/16358.got.cif
#   From: 2010.05.17/outbox.cif.g08.bks.cpg/sg49_9_cif.got.tgz:16358.got - 2010.06.03 21:02:19.
