data_PCOD9394280
_publ_section_title
;
Structure prediction by ZEFSAII (Michael W. Deem and Ramdas Pophale) SiO2 
 PCOD9394280
Probable space group: P C C M
;
_chemical_formula_sum "Si O2"
_cell_formula_units_Z 48
_cell_length_a 8.503679
_cell_length_b 29.310310
_cell_length_c 10.151240
_cell_angle_alpha 90.000000
_cell_angle_beta 90.000000
_cell_angle_gamma 90.000000
_cell_volume 2530.150561
_symmetry_space_group_name_H-M "P C C M"
_symmetry_group_IT_number 49
_symmetry_cell_setting 'orthorhombic'
loop_
_space_group_symop_operation_xyz
x,y,z
-x,-y,z
x,-y,1/2-z
-x,y,1/2-z
-x,-y,-z
x,y,-z
-x,y,1/2+z
x,-y,1/2+z
loop_
_atom_site_type_symbol
_atom_site_label
_atom_site_fract_x
_atom_site_fract_y
_atom_site_fract_z
Si Si1 0.850338 0.133566 0.654917
Si Si2 0.819761 0.604839 0.000000
Si Si3 0.311439 0.447274 0.749318
Si Si4 0.658227 0.040170 0.339769
Si Si5 0.198918 0.284729 0.500000
Si Si6 0.815204 0.709041 0.000000
Si Si7 0.192277 0.769783 0.743403
Si Si8 0.803071 0.609393 0.500000
O O1 0.892518 0.142170 0.500000
O O2 0.751437 0.087389 0.661919
O O3 0.761550 0.178495 0.709759
O O4 0.000000 0.127790 0.750000
O O5 0.757586 0.578077 0.874778
O O6 0.763179 0.657021 0.000000
O O7 0.008053 0.607800 0.000000
O O8 0.258232 0.500000 0.750000
O O9 0.500000 0.447426 0.750000
O O10 0.256043 0.418406 0.625084
O O11 0.500000 0.047062 0.250000
O O12 0.638775 0.029424 0.500000
O O13 0.737955 0.000000 0.250000
O O14 0.246939 0.254651 0.624725
O O15 0.250942 0.337578 0.500000
O O16 0.007074 0.288666 0.500000
O O17 0.761145 0.736383 0.126647
O O18 0.000000 0.771276 0.750000
#
# Coordination Sequence:
#
# PCOD9394280 Si02
#       8
#     8   4   8   8   4   4   8   4
#     4  10  21  34  55  86 118 148 189 237 284 333
#     4  11  22  36  61  92 110 149 191 246 296 323
#     4  11  24  41  59  81 116 158 193 230 291 364
#     4  10  21  39  59  82 109 151 197 240 291 351
#     4   9  18  30  50  81 111 141 176 233 280 333
#     4   9  16  30  52  77 111 139 176 225 278 333
#     4   9  16  29  48  77 111 143 178 219 279 334
#     4  11  22  38  61  90 118 141 197 250 288 341
#
# _framework density 18.971202000000002
#
# number of rings (size 3 to 8) (size 9 to 14) (size 15 to 20)
#    0.000    2.000    0.833    3.500    3.500    7.667 
#    0.000    1.667    0.000    6.000    0.000    0.000 
#    0.000    0.000    0.000    0.000    0.000    0.000 
#
# Total GULP energy -267532.460431 kJ/mol
# GULP energy per Si atom -5573.592926 kJ/mol
# Density = 1.892802 g / cm^3
# Si number density = 18.971202 Si / 1000 Ang^3
#
#
#
# Elastic Constant Matrix: (Units=GPa)
#
#
# Indices 1 2 3 4 5 6 
#
# 1 21.9274 34.4414 27.3565 0.0000 0.0000 0.0000
# 2 34.4414 216.7978 112.3400 0.0000 0.0000 0.0000
# 3 27.3565 112.3400 216.0707 0.0000 0.0000 0.0000
# 4 0.0000 0.0000 0.0000 40.8500 0.0000 0.0000
# 5 0.0000 0.0000 0.0000 0.0000 25.4234 0.0000
# 6 0.0000 0.0000 0.0000 0.0000 0.0000 -3.5926
#
#
#
# Elastic Compliance Matrix: (Units=1/GPa)
#
#
# Indices 1 2 3 4 5 6 
#
# 1 0.062960 -0.008037 -0.003793 0.000000 0.000000 0.000000
# 2 -0.008037 0.007339 -0.002798 0.000000 0.000000 0.000000
# 3 -0.003793 -0.002798 0.006563 0.000000 0.000000 0.000000
# 4 0.000000 0.000000 0.000000 0.024480 0.000000 0.000000
# 5 0.000000 0.000000 0.000000 0.000000 0.039334 0.000000
# 6 0.000000 0.000000 0.000000 0.000000 0.000000 -0.278347
#
#
# Mechanical properties :
#
#
# Convention : Reuss Voigt Hill
#
# Bulk Modulus (GPa) = 21.00534 89.23021 55.11777
# Shear Modulus (GPa) = -54.02779 31.24669 -11.39055
#
# Velocity S-wave (km/s) = -5.34235 4.06280 -2.45299
# Velocity P-wave (km/s) = 5.19211 8.31535 4.59277
#
# Compressibility (1/GPa) = 0.04760695
#
# Stress axis : x y z
#
# Youngs Moduli (GPa) = 15.88303 136.25073 152.36293
#
# Poissons Ratio (x) = 1.09501 0.57789
# Poissons Ratio (y) = 0.12765 0.42637
# Poissons Ratio (z) = 0.06024 0.38128
#
# Static dielectric constant tensor:
#      x y z
#    x 1.660860 0.000000 0.000000 
#    y 0.000000 1.659990 0.000000 
#    z 0.000000 0.000000 1.710400 
# 
# From -- ./inp_files/2182.got.cif
#   From: 2010.05.17/outbox.cif.g08.bks.cpg/sg49_2_cif.got.tgz:2182.got - 2010.06.03 21:02:19.
