data_PCOD9394899
_publ_section_title
;
Structure prediction by ZEFSAII (Michael W. Deem and Ramdas Pophale) SiO2 
 PCOD9394899
Probable space group: P C C M
;
_chemical_formula_sum "Si O2"
_cell_formula_units_Z 44
_cell_length_a 4.980295
_cell_length_b 15.203816
_cell_length_c 24.870916
_cell_angle_alpha 90.000000
_cell_angle_beta 90.000000
_cell_angle_gamma 90.000000
_cell_volume 1883.213046
_symmetry_space_group_name_H-M "P C C M"
_symmetry_group_IT_number 49
_symmetry_cell_setting 'orthorhombic'
loop_
_space_group_symop_operation_xyz
x,y,z
-x,-y,z
x,-y,1/2-z
-x,y,1/2-z
-x,-y,-z
x,y,-z
-x,y,1/2+z
x,-y,1/2+z
loop_
_atom_site_type_symbol
_atom_site_label
_atom_site_fract_x
_atom_site_fract_y
_atom_site_fract_z
Si Si1 0.349043 0.908888 0.828940
Si Si2 0.500138 0.620563 0.910391
Si Si3 0.281047 0.755406 0.000000
Si Si4 0.000000 0.000000 0.911513
Si Si5 0.236645 0.119552 0.000000
Si Si6 0.000000 0.500000 0.916899
Si Si7 0.000000 0.827190 0.750000
Si Si8 0.374535 0.731756 0.689239
O O1 0.226362 0.891041 0.770466
O O2 0.506087 0.819197 0.838361
O O3 0.500000 0.000000 0.829628
O O4 0.126020 0.926110 0.873408
O O5 0.372567 0.694417 0.949553
O O6 0.234356 0.563241 0.894986
O O7 0.604798 0.655742 0.853387
O O8 0.763394 0.571436 0.937736
O O9 0.982429 0.799247 0.000000
O O10 0.471920 0.839676 0.000000
O O11 0.195761 0.055260 0.949483
O O12 0.073867 0.762508 0.701968
O O13 0.500000 0.717541 0.750000
#
# Coordination Sequence:
#
# PCOD9394899 Si02
#       8
#     8   8   4   4   4   4   4   8
#     4  11  24  39  63  96 131 191 233 296 343 399
#     4  11  25  47  74 110 142 181 232 291 367 434
#     4  12  26  46  78 104 142 184 238 298 353 449
#     4  11  26  41  62  86 146 185 242 303 338 414
#     4  11  28  44  64 103 136 194 242 283 362 408
#     4  10  26  47  77 110 142 178 227 295 364 448
#     4  10  24  41  62  99 136 186 250 291 350 412
#     4  10  24  42  68  97 141 189 237 292 349 422
#
# _framework density 23.364325999999998
#
# number of rings (size 3 to 8) (size 9 to 14) (size 15 to 20)
#    0.000    1.273    0.000    3.273   12.727   11.636 
#    0.000    2.727    0.000    0.000    0.000    0.000 
#    0.000    0.000    0.000    0.000    0.000    0.000 
#
# Total GULP energy -245017.150396 kJ/mol
# GULP energy per Si atom -5568.571600 kJ/mol
# Density = 2.331115 g / cm^3
# Si number density = 23.364326 Si / 1000 Ang^3
#
#
#
# Elastic Constant Matrix: (Units=GPa)
#
#
# Indices 1 2 3 4 5 6 
#
# 1 110.3789 20.0285 17.3838 0.0000 0.0000 0.0000
# 2 20.0285 77.7577 39.8322 0.0000 0.0000 0.0000
# 3 17.3838 39.8322 104.7202 0.0000 0.0000 0.0000
# 4 0.0000 0.0000 0.0000 -9.4701 0.0000 0.0000
# 5 0.0000 0.0000 0.0000 0.0000 28.3124 0.0000
# 6 0.0000 0.0000 0.0000 0.0000 0.0000 44.3061
#
#
#
# Elastic Compliance Matrix: (Units=1/GPa)
#
#
# Indices 1 2 3 4 5 6 
#
# 1 0.009559 -0.002048 -0.000808 0.000000 0.000000 0.000000
# 2 -0.002048 0.016412 -0.005902 0.000000 0.000000 0.000000
# 3 -0.000808 -0.005902 0.011928 0.000000 0.000000 0.000000
# 4 0.000000 0.000000 0.000000 -0.105595 0.000000 0.000000
# 5 0.000000 0.000000 0.000000 0.000000 0.035320 0.000000
# 6 0.000000 0.000000 0.000000 0.000000 0.000000 0.022570
#
#
# Mechanical properties :
#
#
# Convention : Reuss Voigt Hill
#
# Bulk Modulus (GPa) = 49.06328 49.70509 49.38419
# Shear Modulus (GPa) = 344.71945 27.00383 185.86164
#
# Velocity S-wave (km/s) = 12.15982 3.40335 8.92872
# Velocity P-wave (km/s) = 14.77136 6.06332 11.29064
#
# Compressibility (1/GPa) = 0.02038184
#
# Stress axis : x y z
#
# Youngs Moduli (GPa) = 104.61812 60.93234 83.83341
#
# Poissons Ratio (x) = 0.12481 0.06771
# Poissons Ratio (y) = 0.21429 0.49482
# Poissons Ratio (z) = 0.08449 0.35965
#
# Static dielectric constant tensor:
#      x y z
#    x 1.985220 0.000000 0.000000 
#    y 0.000000 1.865910 0.000000 
#    z 0.000000 0.000000 1.885260 
# 
# From -- ./inp_files/23919.got.cif
#   From: 2010.05.17/outbox.cif.g08.bks.cpg/sg49_12_cif.got.tgz:23919.got - 2010.06.03 21:02:19.
