data_PCOD9394803
_publ_section_title
;
Structure prediction by ZEFSAII (Michael W. Deem and Ramdas Pophale) SiO2 
 PCOD9394803
Probable space group: P C C M
;
_chemical_formula_sum "Si O2"
_cell_formula_units_Z 36
_cell_length_a 14.319624
_cell_length_b 9.301959
_cell_length_c 13.729569
_cell_angle_alpha 90.000000
_cell_angle_beta 90.000000
_cell_angle_gamma 90.000000
_cell_volume 1828.786215
_symmetry_space_group_name_H-M "P C C M"
_symmetry_group_IT_number 49
_symmetry_cell_setting 'orthorhombic'
loop_
_space_group_symop_operation_xyz
x,y,z
-x,-y,z
x,-y,1/2-z
-x,y,1/2-z
-x,-y,-z
x,y,-z
-x,y,1/2+z
x,-y,1/2+z
loop_
_atom_site_type_symbol
_atom_site_label
_atom_site_fract_x
_atom_site_fract_y
_atom_site_fract_z
Si Si1 0.875052 0.915438 0.000000
Si Si2 0.942477 0.754783 0.500000
Si Si3 0.547922 0.759223 0.884511
Si Si4 0.500000 0.500000 0.250000
Si Si5 0.100959 0.336687 0.712627
Si Si6 0.500000 0.000000 0.750000
Si Si7 0.251010 0.862281 0.684599
O O1 0.815832 0.903886 0.096854
O O2 0.946159 0.779982 0.000000
O O3 0.913353 0.077751 0.000000
O O4 0.906402 0.676880 0.596414
O O5 0.547351 0.609759 0.825718
O O6 0.651696 0.815781 0.862208
O O7 0.477825 0.874474 0.832696
O O8 0.530749 0.745836 0.000000
O O9 0.106292 0.500000 0.750000
O O10 0.190567 0.251260 0.752670
O O11 0.000000 0.275947 0.750000
O O12 0.272122 0.000000 0.750000
#
# Coordination Sequence:
#
# PCOD9394803 Si02
#       7
#     4   4   8   2   8   2   8
#     4  11  22  37  66  93 122 173 224 272 311 380
#     4  11  22  40  63  88 125 180 227 261 324 374
#     4  11  23  43  69  97 130 167 209 264 326 398
#     4  10  26  46  68  96 134 170 214 258 332 408
#     4  11  25  40  59  88 129 171 214 265 315 375
#     4  10  22  42  68 100 122 162 206 266 328 388
#     4  12  23  40  65  97 128 163 217 267 321 373
#
# _framework density 19.685188
#
# number of rings (size 3 to 8) (size 9 to 14) (size 15 to 20)
#    0.000    0.889    6.667    0.667    1.556    3.111 
#    0.000    0.000    4.889    0.000    0.000    0.000 
#    0.000    0.000    0.000    0.000    0.000    0.000 
#
# Total GULP energy -200430.942034 kJ/mol
# GULP energy per Si atom -5567.526168 kJ/mol
# Density = 1.964038 g / cm^3
# Si number density = 19.685188 Si / 1000 Ang^3
#
#
#
# Elastic Constant Matrix: (Units=GPa)
#
#
# Indices 1 2 3 4 5 6 
#
# 1 30.0168 11.5043 11.7168 0.0000 0.0000 0.0000
# 2 11.5043 102.4911 47.6926 0.0000 0.0000 0.0000
# 3 11.7168 47.6926 194.4499 0.0000 0.0000 0.0000
# 4 0.0000 0.0000 0.0000 34.1976 0.0000 0.0000
# 5 0.0000 0.0000 0.0000 0.0000 32.8358 0.0000
# 6 0.0000 0.0000 0.0000 0.0000 0.0000 3.9876
#
#
#
# Elastic Compliance Matrix: (Units=1/GPa)
#
#
# Indices 1 2 3 4 5 6 
#
# 1 0.035100 -0.003336 -0.001297 0.000000 0.000000 0.000000
# 2 -0.003336 0.011331 -0.002578 0.000000 0.000000 0.000000
# 3 -0.001297 -0.002578 0.005853 0.000000 0.000000 0.000000
# 4 0.000000 0.000000 0.000000 0.029242 0.000000 0.000000
# 5 0.000000 0.000000 0.000000 0.000000 0.030455 0.000000
# 6 0.000000 0.000000 0.000000 0.000000 0.000000 0.250778
#
#
# Mechanical properties :
#
#
# Convention : Reuss Voigt Hill
#
# Bulk Modulus (GPa) = 26.41209 52.08724 39.24967
# Shear Modulus (GPa) = 12.82706 31.27380 22.05043
#
# Velocity S-wave (km/s) = 2.55543 3.99017 3.35050
# Velocity P-wave (km/s) = 4.70674 6.90986 5.91183
#
# Compressibility (1/GPa) = 0.03786145
#
# Stress axis : x y z
#
# Youngs Moduli (GPa) = 28.49039 88.25236 170.84720
#
# Poissons Ratio (x) = 0.29445 0.22153
# Poissons Ratio (y) = 0.09506 0.44047
# Poissons Ratio (z) = 0.03694 0.22753
#
# Static dielectric constant tensor:
#      x y z
#    x 1.793260 0.000000 0.000000 
#    y 0.000000 1.671970 0.000000 
#    z 0.000000 0.000000 1.653120 
# 
# From -- ./inp_files/11501.got.cif
#   From: 2010.05.17/outbox.cif.g08.bks.cpg/sg49_6_cif.got.tgz:11501.got - 2010.06.03 21:02:19.
