data_PCOD9394973
_publ_section_title
;
Structure prediction by ZEFSAII (Michael W. Deem and Ramdas Pophale) SiO2 
 PCOD9394973
Probable space group: P C C M
;
_chemical_formula_sum "Si O2"
_cell_formula_units_Z 28
_cell_length_a 5.021081
_cell_length_b 17.074598
_cell_length_c 14.515412
_cell_angle_alpha 90.000000
_cell_angle_beta 90.000000
_cell_angle_gamma 90.000000
_cell_volume 1244.448940
_symmetry_space_group_name_H-M "P C C M"
_symmetry_group_IT_number 49
_symmetry_cell_setting 'orthorhombic'
loop_
_space_group_symop_operation_xyz
x,y,z
-x,-y,z
x,-y,1/2-z
-x,y,1/2-z
-x,-y,-z
x,y,-z
-x,y,1/2+z
x,-y,1/2+z
loop_
_atom_site_type_symbol
_atom_site_label
_atom_site_fract_x
_atom_site_fract_y
_atom_site_fract_z
Si Si1 0.412203 0.279633 0.607407
Si Si2 0.248858 0.056724 0.000000
Si Si3 0.098129 0.819722 0.651330
Si Si4 0.237849 0.552408 0.891559
O O1 0.496522 0.291186 0.500000
O O2 0.669990 0.245439 0.658560
O O3 0.303421 0.361835 0.646142
O O4 0.165714 0.219483 0.608536
O O5 0.224108 0.113482 0.087839
O O6 0.500000 0.000000 0.000000
O O7 0.000000 0.000000 0.000000
O O8 0.000000 0.849403 0.750000
O O9 0.500000 0.500000 0.886504
O O10 0.000000 0.500000 0.852996
O O11 0.171180 0.566629 0.000000
#
# Coordination Sequence:
#
# PCOD9394973 Si02
#       4
#     8   4   8   8
#     4  11  20  39  67  96 139 188 234 286 343 406
#     4  12  26  48  76 102 138 178 224 278 352 428
#     4  12  25  44  70 104 139 180 231 283 343 416
#     4   9  17  29  52  91 131 175 232 283 330 388
#
# _framework density 22.499918999999998
#
# number of rings (size 3 to 8) (size 9 to 14) (size 15 to 20)
#    0.000    1.143    2.857    4.286    0.000    5.143 
#    0.000    1.429    0.000   12.857    0.000    0.000 
#    0.000    0.000    0.000    0.286    0.000    0.000 
#
# Total GULP energy -156675.998408 kJ/mol
# GULP energy per Si atom -5595.571372 kJ/mol
# Density = 2.244871 g / cm^3
# Si number density = 22.499919 Si / 1000 Ang^3
#
#
#
# Elastic Constant Matrix: (Units=GPa)
#
#
# Indices 1 2 3 4 5 6 
#
# 1 130.6033 42.0056 36.3570 0.0000 0.0000 0.0000
# 2 42.0056 133.0917 53.1203 0.0000 0.0000 0.0000
# 3 36.3570 53.1203 112.8450 0.0000 0.0000 0.0000
# 4 0.0000 0.0000 0.0000 2.3113 0.0000 0.0000
# 5 0.0000 0.0000 0.0000 0.0000 38.2463 0.0000
# 6 0.0000 0.0000 0.0000 0.0000 0.0000 48.9801
#
#
#
# Elastic Compliance Matrix: (Units=1/GPa)
#
#
# Indices 1 2 3 4 5 6 
#
# 1 0.008837 -0.002035 -0.001889 0.000000 0.000000 0.000000
# 2 -0.002035 0.009721 -0.003920 0.000000 0.000000 0.000000
# 3 -0.001889 -0.003920 0.011316 0.000000 0.000000 0.000000
# 4 0.000000 0.000000 0.000000 0.432658 0.000000 0.000000
# 5 0.000000 0.000000 0.000000 0.000000 0.026146 0.000000
# 6 0.000000 0.000000 0.000000 0.000000 0.000000 0.020416
#
#
# Mechanical properties :
#
#
# Convention : Reuss Voigt Hill
#
# Bulk Modulus (GPa) = 70.49908 71.05620 70.77764
# Shear Modulus (GPa) = 9.44267 34.24468 21.84367
#
# Velocity S-wave (km/s) = 2.05082 3.90550 3.11920
# Velocity P-wave (km/s) = 6.08349 7.21016 6.67066
#
# Compressibility (1/GPa) = 0.01418458
#
# Stress axis : x y z
#
# Youngs Moduli (GPa) = 113.15744 102.87483 88.37248
#
# Poissons Ratio (x) = 0.20936 0.16696
# Poissons Ratio (y) = 0.23029 0.34643
# Poissons Ratio (z) = 0.21378 0.40328
#
# Static dielectric constant tensor:
#      x y z
#    x 1.779420 0.000000 0.000000 
#    y 0.000000 1.807960 0.000000 
#    z 0.000000 0.000000 3.518560 
# 
# From -- ./inp_files/10495.got.cif
#   From: 2010.05.17/outbox.cif.g08.bks.cpg/sg49_6_cif.got.tgz:10495.got - 2010.06.03 21:02:19.
