data_PCOD9394097
_publ_section_title
;
Structure prediction by ZEFSAII (Michael W. Deem and Ramdas Pophale) SiO2 
 PCOD9394097
Probable space group: P C C M
;
_chemical_formula_sum "Si O2"
_cell_formula_units_Z 64
_cell_length_a 19.402339
_cell_length_b 12.504878
_cell_length_c 14.702345
_cell_angle_alpha 90.000000
_cell_angle_beta 90.000000
_cell_angle_gamma 90.000000
_cell_volume 3567.140020
_symmetry_space_group_name_H-M "P C C M"
_symmetry_group_IT_number 49
_symmetry_cell_setting 'orthorhombic'
loop_
_space_group_symop_operation_xyz
x,y,z
-x,-y,z
x,-y,1/2-z
-x,y,1/2-z
-x,-y,-z
x,y,-z
-x,y,1/2+z
x,-y,1/2+z
loop_
_atom_site_type_symbol
_atom_site_label
_atom_site_fract_x
_atom_site_fract_y
_atom_site_fract_z
Si Si1 0.067179 0.051607 0.105173
Si Si2 0.420951 0.871894 0.249140
Si Si3 0.904716 0.375143 0.259575
Si Si4 0.002809 0.713621 0.396640
Si Si5 0.742818 0.628141 0.750346
Si Si6 0.683839 0.210506 0.604353
Si Si7 0.309907 0.795707 0.894943
Si Si8 0.774993 0.994172 0.854500
O O1 0.042086 0.173254 0.105816
O O2 0.142570 0.023869 0.141911
O O3 0.071374 0.014207 0.000000
O O4 0.000000 0.000000 0.149807
O O5 0.500000 0.834556 0.250000
O O6 0.381505 0.830861 0.338614
O O7 0.376670 0.835278 0.161605
O O8 0.420772 0.000000 0.250000
O O9 0.916566 0.500000 0.250000
O O10 0.935438 0.357997 0.359635
O O11 0.824548 0.353052 0.253743
O O12 0.944182 0.307129 0.180446
O O13 0.979091 0.694042 0.500000
O O14 0.729485 0.500000 0.750000
O O15 0.712132 0.689155 0.838077
O O16 0.716408 0.692929 0.661776
O O17 0.669130 0.236732 0.500000
O O18 0.738373 0.111468 0.605949
O O19 0.254001 0.893815 0.893274
O O20 0.324505 0.771664 0.000000
O O21 0.753484 0.000000 0.750000
#
# Coordination Sequence:
#
# PCOD9394097 Si02
#       8
#     8   8   8   8   8   8   8   8
#     4  10  23  36  49  76 109 144 190 241 288 349
#     4  10  20  37  60  95 134 163 195 234 283 350
#     4  10  22  38  56  77 104 139 189 250 304 350
#     4  10  21  36  54  75 103 141 184 234 300 365
#     4  10  23  41  59  86 116 152 208 261 300 350
#     4  11  21  38  62  89 122 161 194 237 298 357
#     4  11  22  38  62  90 124 164 199 242 299 357
#     4  12  21  36  58  85 118 157 200 243 299 364
#
# _framework density 17.941544
#
# number of rings (size 3 to 8) (size 9 to 14) (size 15 to 20)
#    0.000    1.500    3.750    2.625    1.750    5.250 
#    0.000    3.750    0.000    6.000    0.000    7.000 
#    0.000    0.000    0.000    0.000    0.000    0.000 
#
# Total GULP energy -356562.927864 kJ/mol
# GULP energy per Si atom -5571.295748 kJ/mol
# Density = 1.790071 g / cm^3
# Si number density = 17.941544 Si / 1000 Ang^3
#
#
#
# Elastic Constant Matrix: (Units=GPa)
#
#
# Indices 1 2 3 4 5 6 
#
# 1 134.7225 48.5132 41.9931 0.0000 0.0000 0.0000
# 2 48.5132 54.1518 10.3513 0.0000 0.0000 0.0000
# 3 41.9931 10.3513 112.3244 0.0000 0.0000 0.0000
# 4 0.0000 0.0000 0.0000 13.9751 0.0000 0.0000
# 5 0.0000 0.0000 0.0000 0.0000 15.7190 0.0000
# 6 0.0000 0.0000 0.0000 0.0000 0.0000 22.8891
#
#
#
# Elastic Compliance Matrix: (Units=1/GPa)
#
#
# Indices 1 2 3 4 5 6 
#
# 1 0.012261 -0.010289 -0.003636 0.000000 0.000000 0.000000
# 2 -0.010289 0.027433 0.001319 0.000000 0.000000 0.000000
# 3 -0.003636 0.001319 0.010140 0.000000 0.000000 0.000000
# 4 0.000000 0.000000 0.000000 0.071556 0.000000 0.000000
# 5 0.000000 0.000000 0.000000 0.000000 0.063617 0.000000
# 6 0.000000 0.000000 0.000000 0.000000 0.000000 0.043689
#
#
# Mechanical properties :
#
#
# Convention : Reuss Voigt Hill
#
# Bulk Modulus (GPa) = 40.61513 55.87931 48.24722
# Shear Modulus (GPa) = 19.07554 23.87273 21.47413
#
# Velocity S-wave (km/s) = 3.26422 3.65167 3.46337
# Velocity P-wave (km/s) = 6.07400 6.99946 6.55309
#
# Compressibility (1/GPa) = 0.02462137
#
# Stress axis : x y z
#
# Youngs Moduli (GPa) = 81.55889 36.45306 98.61482
#
# Poissons Ratio (x) = 0.37508 0.35853
# Poissons Ratio (y) = 0.83919 -0.13004
# Poissons Ratio (z) = 0.29652 -0.04807
#
# Static dielectric constant tensor:
#      x y z
#    x 1.621490 0.000000 0.000000 
#    y 0.000000 1.512520 0.000000 
#    z 0.000000 0.000000 1.643280 
# 
# From -- ./inp_files/14207.got.cif
#   From: 2010.05.17/outbox.cif.g08.bks.cpg/sg49_8_cif.got.tgz:14207.got - 2010.06.03 21:02:19.
