data_PCOD9394734
_publ_section_title
;
Structure prediction by ZEFSAII (Michael W. Deem and Ramdas Pophale) SiO2 
 PCOD9394734
Probable space group: P C C M
;
_chemical_formula_sum "Si O2"
_cell_formula_units_Z 48
_cell_length_a 8.855574
_cell_length_b 30.033937
_cell_length_c 9.723810
_cell_angle_alpha 90.000000
_cell_angle_beta 90.000000
_cell_angle_gamma 90.000000
_cell_volume 2586.219883
_symmetry_space_group_name_H-M "P C C M"
_symmetry_group_IT_number 49
_symmetry_cell_setting 'orthorhombic'
loop_
_space_group_symop_operation_xyz
x,y,z
-x,-y,z
x,-y,1/2-z
-x,y,1/2-z
-x,-y,-z
x,y,-z
-x,y,1/2+z
x,-y,1/2+z
loop_
_atom_site_type_symbol
_atom_site_label
_atom_site_fract_x
_atom_site_fract_y
_atom_site_fract_z
Si Si1 0.147185 0.312037 0.841228
Si Si2 0.151834 0.564265 0.000000
Si Si3 0.321041 0.599638 0.265921
Si Si4 0.152684 0.860098 0.662108
Si Si5 0.802895 0.541470 0.000000
Si Si6 0.840011 0.959512 0.166385
Si Si7 0.347999 0.226429 0.835775
O O1 0.256191 0.354268 0.824071
O O2 0.236300 0.267204 0.802547
O O3 0.000000 0.318234 0.750000
O O4 0.101671 0.308264 0.000000
O O5 0.227550 0.587809 0.129751
O O6 0.186852 0.511529 0.000000
O O7 0.969584 0.564210 0.000000
O O8 0.500000 0.603196 0.250000
O O9 0.284166 0.559621 0.368870
O O10 0.113447 0.856821 0.500000
O O11 0.222850 0.909513 0.681669
O O12 0.265670 0.820209 0.695387
O O13 0.000000 0.856020 0.750000
O O14 0.000000 0.956067 0.250000
O O15 0.761705 0.000000 0.250000
O O16 0.855311 0.968138 0.000000
O O17 0.500000 0.230733 0.750000
O O18 0.378219 0.228138 0.000000
#
# Coordination Sequence:
#
# PCOD9394734 Si02
#       7
#     8   4   8   8   4   8   8
#     4  11  24  42  65  90 119 152 193 238 288 352
#     4  11  25  41  69  89 121 169 199 251 292 347
#     4  12  25  41  63  93 126 159 197 247 300 351
#     4   9  18  32  52  78 111 145 188 237 287 345
#     4  11  23  45  63  93 125 157 213 243 292 351
#     4   9  15  24  41  69 103 141 180 230 284 336
#     4  10  22  40  59  84 116 149 189 238 289 344
#
# _framework density 18.559906999999999
#
# number of rings (size 3 to 8) (size 9 to 14) (size 15 to 20)
#    0.000    1.667    0.833    4.500    1.167    5.333 
#    0.000    0.000    0.000    0.500    0.000    3.500 
#    0.000    0.000    0.000    0.000    0.000    0.000 
#
# Total GULP energy -267849.617536 kJ/mol
# GULP energy per Si atom -5580.200365 kJ/mol
# Density = 1.851766 g / cm^3
# Si number density = 18.559907 Si / 1000 Ang^3
#
#
#
# Elastic Constant Matrix: (Units=GPa)
#
#
# Indices 1 2 3 4 5 6 
#
# 1 97.6949 30.3086 25.0035 0.0000 0.0000 0.0000
# 2 30.3086 95.6033 11.2498 0.0000 0.0000 0.0000
# 3 25.0035 11.2498 69.1634 0.0000 0.0000 0.0000
# 4 0.0000 0.0000 0.0000 28.5944 0.0000 0.0000
# 5 0.0000 0.0000 0.0000 0.0000 30.0698 0.0000
# 6 0.0000 0.0000 0.0000 0.0000 0.0000 -3.0030
#
#
#
# Elastic Compliance Matrix: (Units=1/GPa)
#
#
# Indices 1 2 3 4 5 6 
#
# 1 0.012298 -0.003442 -0.003886 0.000000 0.000000 0.000000
# 2 -0.003442 0.011627 -0.000647 0.000000 0.000000 0.000000
# 3 -0.003886 -0.000647 0.015969 0.000000 0.000000 0.000000
# 4 0.000000 0.000000 0.000000 0.034972 0.000000 0.000000
# 5 0.000000 0.000000 0.000000 0.000000 0.033256 0.000000
# 6 0.000000 0.000000 0.000000 0.000000 0.000000 -0.332997
#
#
# Mechanical properties :
#
#
# Convention : Reuss Voigt Hill
#
# Bulk Modulus (GPa) = 41.76337 43.95394 42.85865
# Shear Modulus (GPa) = -24.88253 24.19220 -0.34516
#
# Velocity S-wave (km/s) = -3.66547 3.61427 -0.43171
# Velocity P-wave (km/s) = 2.15325 6.41490 4.78474
#
# Compressibility (1/GPa) = 0.02394443
#
# Stress axis : x y z
#
# Youngs Moduli (GPa) = 81.31226 86.00606 62.62262
#
# Poissons Ratio (x) = 0.29600 0.24336
# Poissons Ratio (y) = 0.27984 0.04052
# Poissons Ratio (z) = 0.31600 0.05565
#
# Static dielectric constant tensor:
#      x y z
#    x 1.601210 0.000000 0.000000 
#    y 0.000000 1.666240 0.000000 
#    z 0.000000 0.000000 1.618800 
# 
# From -- ./inp_files/2161.got.cif
#   From: 2010.05.17/outbox.cif.g08.bks.cpg/sg49_2_cif.got.tgz:2161.got - 2010.06.03 21:02:19.
