data_PCOD9394123
_publ_section_title
;
Structure prediction by ZEFSAII (Michael W. Deem and Ramdas Pophale) SiO2 
 PCOD9394123
Probable space group: P C C M
;
_chemical_formula_sum "Si O2"
_cell_formula_units_Z 56
_cell_length_a 9.067553
_cell_length_b 15.776883
_cell_length_c 19.295661
_cell_angle_alpha 90.000000
_cell_angle_beta 90.000000
_cell_angle_gamma 90.000000
_cell_volume 2760.393322
_symmetry_space_group_name_H-M "P C C M"
_symmetry_group_IT_number 49
_symmetry_cell_setting 'orthorhombic'
loop_
_space_group_symop_operation_xyz
x,y,z
-x,-y,z
x,-y,1/2-z
-x,y,1/2-z
-x,-y,-z
x,y,-z
-x,y,1/2+z
x,-y,1/2+z
loop_
_atom_site_type_symbol
_atom_site_label
_atom_site_fract_x
_atom_site_fract_y
_atom_site_fract_z
Si Si1 0.119088 0.658272 0.192999
Si Si2 0.356246 0.316612 0.082082
Si Si3 0.565241 0.591994 0.675164
Si Si4 0.096807 0.848938 0.183654
Si Si5 0.931939 0.590723 0.917636
Si Si6 0.327657 0.008374 0.333390
Si Si7 0.824071 0.855682 0.083471
O O1 0.260558 0.599438 0.185274
O O2 0.154444 0.756442 0.208091
O O3 0.000000 0.628763 0.250000
O O4 0.035873 0.656706 0.120085
O O5 0.504681 0.338529 0.121939
O O6 0.234753 0.387724 0.103462
O O7 0.280109 0.226409 0.096434
O O8 0.379883 0.322865 0.000000
O O9 0.500000 0.500000 0.655104
O O10 0.500000 0.612064 0.750000
O O11 0.000000 0.882768 0.250000
O O12 0.980500 0.842723 0.120983
O O13 0.233224 0.905644 0.158409
O O14 0.000000 0.500000 0.898902
O O15 0.937667 0.599450 0.000000
O O16 0.246398 0.935950 0.377491
O O17 0.500000 0.000000 0.352953
O O18 0.322295 0.000000 0.250000
O O19 0.836109 0.866235 0.000000
#
# Coordination Sequence:
#
# PCOD9394123 Si02
#       7
#     8   8   8   8   8   8   8
#     4  11  24  40  65  96 129 173 219 273 323 392
#     4  10  22  42  65  93 133 177 219 270 335 396
#     4  11  25  41  62  97 136 174 222 278 337 399
#     4  11  23  42  67  99 129 172 226 271 321 403
#     4  10  20  37  62  90 122 164 217 268 317 384
#     4  11  25  42  67 101 134 174 219 271 332 402
#     4  11  24  44  70  98 134 174 223 283 337 396
#
# _framework density 20.286964000000001
#
# number of rings (size 3 to 8) (size 9 to 14) (size 15 to 20)
#    0.000    1.286    2.857    2.143    4.000    3.714 
#    0.000    0.000    0.000    0.000    0.000    0.000 
#    0.000    0.000    0.000    0.000    0.000    0.000 
#
# Total GULP energy -312533.349553 kJ/mol
# GULP energy per Si atom -5580.952671 kJ/mol
# Density = 2.024079 g / cm^3
# Si number density = 20.286964 Si / 1000 Ang^3
#
#
#
# Elastic Constant Matrix: (Units=GPa)
#
#
# Indices 1 2 3 4 5 6 
#
# 1 123.5168 45.8714 29.4445 0.0000 0.0000 0.0000
# 2 45.8714 80.5592 34.7183 0.0000 0.0000 0.0000
# 3 29.4445 34.7183 46.1762 0.0000 0.0000 0.0000
# 4 0.0000 0.0000 0.0000 26.1380 0.0000 0.0000
# 5 0.0000 0.0000 0.0000 0.0000 31.8607 0.0000
# 6 0.0000 0.0000 0.0000 0.0000 0.0000 22.8836
#
#
#
# Elastic Compliance Matrix: (Units=1/GPa)
#
#
# Indices 1 2 3 4 5 6 
#
# 1 0.010593 -0.004617 -0.003284 0.000000 0.000000 0.000000
# 2 -0.004617 0.020376 -0.012376 0.000000 0.000000 0.000000
# 3 -0.003284 -0.012376 0.033055 0.000000 0.000000 0.000000
# 4 0.000000 0.000000 0.000000 0.038258 0.000000 0.000000
# 5 0.000000 0.000000 0.000000 0.000000 0.031387 0.000000
# 6 0.000000 0.000000 0.000000 0.000000 0.000000 0.043699
#
#
# Mechanical properties :
#
#
# Convention : Reuss Voigt Hill
#
# Bulk Modulus (GPa) = 42.60509 52.25784 47.43147
# Shear Modulus (GPa) = 22.14887 25.52435 23.83661
#
# Velocity S-wave (km/s) = 3.30779 3.55091 3.43150
# Velocity P-wave (km/s) = 5.96954 6.52895 6.25550
#
# Compressibility (1/GPa) = 0.02347137
#
# Stress axis : x y z
#
# Youngs Moduli (GPa) = 94.39799 49.07812 30.25260
#
# Poissons Ratio (x) = 0.22659 0.09934
# Poissons Ratio (y) = 0.43582 0.37440
# Poissons Ratio (z) = 0.30998 0.60738
#
# Static dielectric constant tensor:
#      x y z
#    x 1.758810 0.000000 0.000000 
#    y 0.000000 1.774050 0.000000 
#    z 0.000000 0.000000 1.701250 
# 
# From -- ./inp_files/19911.got.cif
#   From: 2010.05.17/outbox.cif.g08.bks.cpg/sg49_10_cif.got.tgz:19911.got - 2010.06.03 21:02:19.
