data_PCOD9394102
_publ_section_title
;
Structure prediction by ZEFSAII (Michael W. Deem and Ramdas Pophale) SiO2 
 PCOD9394102
Probable space group: P C C M
;
_chemical_formula_sum "Si O2"
_cell_formula_units_Z 52
_cell_length_a 18.665220
_cell_length_b 9.413778
_cell_length_c 14.525931
_cell_angle_alpha 90.000000
_cell_angle_beta 90.000000
_cell_angle_gamma 90.000000
_cell_volume 2552.354784
_symmetry_space_group_name_H-M "P C C M"
_symmetry_group_IT_number 49
_symmetry_cell_setting 'orthorhombic'
loop_
_space_group_symop_operation_xyz
x,y,z
-x,-y,z
x,-y,1/2-z
-x,y,1/2-z
-x,-y,-z
x,y,-z
-x,y,1/2+z
x,-y,1/2+z
loop_
_atom_site_type_symbol
_atom_site_label
_atom_site_fract_x
_atom_site_fract_y
_atom_site_fract_z
Si Si1 0.086129 0.772905 0.251027
Si Si2 0.389077 0.331858 0.104088
Si Si3 0.179854 0.500000 0.250000
Si Si4 0.086950 0.992932 0.397942
Si Si5 0.520557 0.846096 0.357402
Si Si6 0.327694 0.839218 0.778539
Si Si7 0.287624 0.419443 0.391039
O O1 0.127913 0.631051 0.237008
O O2 0.107040 0.881355 0.170327
O O3 0.000000 0.755346 0.250000
O O4 0.105807 0.847259 0.347360
O O5 0.473007 0.284648 0.105658
O O6 0.353734 0.235888 0.183837
O O7 0.363456 0.494651 0.122203
O O8 0.363346 0.300202 0.000000
O O9 0.229631 0.518229 0.340041
O O10 0.116088 0.006116 0.500000
O O11 0.000000 0.000000 0.401941
O O12 0.500000 0.850649 0.250000
O O13 0.605765 0.842562 0.351082
O O14 0.500000 0.000000 0.397697
O O15 0.279334 0.725792 0.832469
O O16 0.306040 0.000000 0.750000
O O17 0.277206 0.399581 0.500000
#
# Coordination Sequence:
#
# PCOD9394102 Si02
#       7
#     8   8   4   8   8   8   8
#     4   9  19  35  62  96 124 159 202 248 311 369
#     4  10  20  37  61  88 121 161 201 249 314 374
#     4  12  23  42  62  83 126 168 206 264 298 363
#     4   8  15  33  60  92 128 156 186 238 301 364
#     4   9  16  32  57  90 120 149 193 252 311 363
#     4  11  20  40  64  87 123 158 201 263 324 370
#     4  11  26  45  62  85 120 170 216 255 309 375
#
# _framework density 20.373343999999999
#
# number of rings (size 3 to 8) (size 9 to 14) (size 15 to 20)
#    0.000    2.154    4.615    1.154    0.000    3.385 
#    2.769    3.846    0.000    4.615    0.000    0.000 
#    0.000    0.000    0.000    0.000    0.000    0.000 
#
# Total GULP energy -289592.433168 kJ/mol
# GULP energy per Si atom -5569.085253 kJ/mol
# Density = 2.032697 g / cm^3
# Si number density = 20.373344 Si / 1000 Ang^3
#
#
#
# Elastic Constant Matrix: (Units=GPa)
#
#
# Indices 1 2 3 4 5 6 
#
# 1 39.7245 28.9891 10.9298 0.0000 0.0000 0.0000
# 2 28.9891 99.5910 27.2951 0.0000 0.0000 0.0000
# 3 10.9298 27.2951 125.6484 0.0000 0.0000 0.0000
# 4 0.0000 0.0000 0.0000 -9.5080 0.0000 0.0000
# 5 0.0000 0.0000 0.0000 0.0000 10.7681 0.0000
# 6 0.0000 0.0000 0.0000 0.0000 0.0000 -25.2270
#
#
#
# Elastic Compliance Matrix: (Units=1/GPa)
#
#
# Indices 1 2 3 4 5 6 
#
# 1 0.032040 -0.009104 -0.000809 0.000000 0.000000 0.000000
# 2 -0.009104 0.013264 -0.002089 0.000000 0.000000 0.000000
# 3 -0.000809 -0.002089 0.008483 0.000000 0.000000 0.000000
# 4 0.000000 0.000000 0.000000 -0.105175 0.000000 0.000000
# 5 0.000000 0.000000 0.000000 0.000000 0.092866 0.000000
# 6 0.000000 0.000000 0.000000 0.000000 0.000000 -0.039640
#
#
# Mechanical properties :
#
#
# Convention : Reuss Voigt Hill
#
# Bulk Modulus (GPa) = 33.57887 44.37688 38.97788
# Shear Modulus (GPa) = 139.77543 8.38996 74.08269
#
# Velocity S-wave (km/s) = 8.29192 2.03151 6.03668
# Velocity P-wave (km/s) = 10.40155 5.22799 8.23177
#
# Compressibility (1/GPa) = 0.02978063
#
# Stress axis : x y z
#
# Youngs Moduli (GPa) = 31.21096 75.39292 117.88282
#
# Poissons Ratio (x) = 0.68641 0.09540
# Poissons Ratio (y) = 0.28416 0.24630
# Poissons Ratio (z) = 0.02526 0.15752
#
# Static dielectric constant tensor:
#      x y z
#    x 1.907260 0.000000 0.000000 
#    y 0.000000 1.753310 0.000000 
#    z 0.000000 0.000000 1.716640 
# 
# From -- ./inp_files/14333.got.cif
#   From: 2010.05.17/outbox.cif.g08.bks.cpg/sg49_8_cif.got.tgz:14333.got - 2010.06.03 21:02:19.
