data_PCOD9394586
_publ_section_title
;
Structure prediction by ZEFSAII (Michael W. Deem and Ramdas Pophale) SiO2 
 PCOD9394586
Probable space group: P C C M
;
_chemical_formula_sum "Si O2"
_cell_formula_units_Z 48
_cell_length_a 10.332342
_cell_length_b 11.286376
_cell_length_c 16.721061
_cell_angle_alpha 90.000000
_cell_angle_beta 90.000000
_cell_angle_gamma 90.000000
_cell_volume 1949.921458
_symmetry_space_group_name_H-M "P C C M"
_symmetry_group_IT_number 49
_symmetry_cell_setting 'orthorhombic'
loop_
_space_group_symop_operation_xyz
x,y,z
-x,-y,z
x,-y,1/2-z
-x,y,1/2-z
-x,-y,-z
x,y,-z
-x,y,1/2+z
x,-y,1/2+z
loop_
_atom_site_type_symbol
_atom_site_label
_atom_site_fract_x
_atom_site_fract_y
_atom_site_fract_z
Si Si1 0.927344 0.311081 0.406577
Si Si2 0.584273 0.819445 0.145320
Si Si3 0.691110 0.132496 0.820706
Si Si4 0.778592 0.647954 0.588987
Si Si5 0.827802 0.935429 0.912161
Si Si6 0.314429 0.571026 0.332780
O O1 0.884875 0.326394 0.500000
O O2 0.930622 0.168126 0.392828
O O3 0.824595 0.363897 0.344459
O O4 0.067576 0.370447 0.401710
O O5 0.443990 0.873535 0.130464
O O6 0.641350 0.866847 0.230066
O O7 0.693736 0.860997 0.085354
O O8 0.583390 0.676732 0.153933
O O9 0.743599 0.260821 0.842198
O O10 0.796588 0.038334 0.849454
O O11 0.758102 0.698240 0.500000
O O12 0.695343 0.530262 0.600406
O O13 0.853722 0.985850 0.000000
O O14 0.329323 0.500000 0.250000
#
# Coordination Sequence:
#
# PCOD9394586 Si02
#       6
#     8   8   8   8   8   8
#     4   9  21  40  62  91 128 165 206 267 327 382
#     4  10  23  41  61  87 124 164 212 269 319 381
#     4  11  22  40  61  89 122 169 210 257 325 389
#     4  11  23  39  61  93 128 165 213 264 322 387
#     4  10  21  39  64  92 122 161 210 262 320 385
#     4  11  21  40  62  89 122 169 220 263 322 382
#
# _framework density 24.616377
#
# number of rings (size 3 to 8) (size 9 to 14) (size 15 to 20)
#    0.000    1.667    1.667    2.500    0.000    8.000 
#    0.000    3.333    0.000    2.000    0.000    0.000 
#    0.000    0.000    0.000    0.000    0.000    0.000 
#
# Total GULP energy -268273.534113 kJ/mol
# GULP energy per Si atom -5589.031961 kJ/mol
# Density = 2.456035 g / cm^3
# Si number density = 24.616377 Si / 1000 Ang^3
#
#
#
# Elastic Constant Matrix: (Units=GPa)
#
#
# Indices 1 2 3 4 5 6 
#
# 1 61.1482 -0.5685 20.2594 0.0000 0.0000 0.0000
# 2 -0.5685 117.3009 16.0173 0.0000 0.0000 0.0000
# 3 20.2594 16.0173 62.6938 0.0000 0.0000 0.0000
# 4 0.0000 0.0000 0.0000 33.8096 0.0000 0.0000
# 5 0.0000 0.0000 0.0000 0.0000 17.3615 0.0000
# 6 0.0000 0.0000 0.0000 0.0000 0.0000 9.1794
#
#
#
# Elastic Compliance Matrix: (Units=1/GPa)
#
#
# Indices 1 2 3 4 5 6 
#
# 1 0.018413 0.000934 -0.006189 0.000000 0.000000 0.000000
# 2 0.000934 0.008881 -0.002571 0.000000 0.000000 0.000000
# 3 -0.006189 -0.002571 0.018607 0.000000 0.000000 0.000000
# 4 0.000000 0.000000 0.000000 0.029577 0.000000 0.000000
# 5 0.000000 0.000000 0.000000 0.000000 0.057599 0.000000
# 6 0.000000 0.000000 0.000000 0.000000 0.000000 0.108939
#
#
# Mechanical properties :
#
#
# Convention : Reuss Voigt Hill
#
# Bulk Modulus (GPa) = 33.05764 34.72882 33.89323
# Shear Modulus (GPa) = 18.67413 25.76574 22.21994
#
# Velocity S-wave (km/s) = 2.75727 3.23877 3.00767
# Velocity P-wave (km/s) = 4.85747 5.30328 5.08526
#
# Compressibility (1/GPa) = 0.03025020
#
# Stress axis : x y z
#
# Youngs Moduli (GPa) = 54.30993 112.60436 53.74253
#
# Poissons Ratio (x) = -0.10521 0.33260
# Poissons Ratio (y) = -0.05074 0.13816
# Poissons Ratio (z) = 0.33611 0.28948
#
# Static dielectric constant tensor:
#      x y z
#    x 1.939000 0.000000 0.000000 
#    y 0.000000 2.029760 0.000000 
#    z 0.000000 0.000000 1.907250 
# 
# From -- ./inp_files/17104.got.cif
#   From: 2010.05.17/outbox.cif.g08.bks.cpg/sg49_9_cif.got.tgz:17104.got - 2010.06.03 21:02:19.
