data_PCOD9394607
_publ_section_title
;
Structure prediction by ZEFSAII (Michael W. Deem and Ramdas Pophale) SiO2 
 PCOD9394607
Probable space group: P C C M
;
_chemical_formula_sum "Si O2"
_cell_formula_units_Z 32
_cell_length_a 5.569663
_cell_length_b 9.298494
_cell_length_c 30.617768
_cell_angle_alpha 90.000000
_cell_angle_beta 90.000000
_cell_angle_gamma 90.000000
_cell_volume 1585.678222
_symmetry_space_group_name_H-M "P C C M"
_symmetry_group_IT_number 49
_symmetry_cell_setting 'orthorhombic'
loop_
_space_group_symop_operation_xyz
x,y,z
-x,-y,z
x,-y,1/2-z
-x,y,1/2-z
-x,-y,-z
x,y,-z
-x,y,1/2+z
x,-y,1/2+z
loop_
_atom_site_type_symbol
_atom_site_label
_atom_site_fract_x
_atom_site_fract_y
_atom_site_fract_z
Si Si1 0.000000 0.000000 0.179328
Si Si2 0.324063 0.752275 0.709326
Si Si3 0.249749 0.410466 0.449483
Si Si4 0.000000 0.500000 0.687992
Si Si5 0.710024 0.746360 0.637113
O O1 0.162965 0.894455 0.150336
O O2 0.841213 0.891666 0.207482
O O3 0.500000 0.763975 0.750000
O O4 0.176659 0.605765 0.713480
O O5 0.457193 0.746642 0.662420
O O6 0.500000 0.500000 0.444916
O O7 0.235227 0.363284 0.500000
O O8 0.279561 0.284852 0.414039
O O9 0.000000 0.500000 0.441120
O O10 0.151385 0.388653 0.658815
#
# Coordination Sequence:
#
# PCOD9394607 Si02
#       5
#     4   8   8   4   8
#     4  10  26  43  63  90 126 182 227 266 330 411
#     4  11  25  43  64  90 128 172 221 275 334 398
#     4  10  21  39  68 104 137 172 222 283 351 411
#     4  10  22  39  63  94 120 158 213 272 332 389
#     4  11  22  40  65  94 130 171 217 271 335 398
#
# _framework density 20.18064
#
# number of rings (size 3 to 8) (size 9 to 14) (size 15 to 20)
#    0.000    1.500    1.250    3.000    3.500   10.000 
#    0.000    4.375    0.000    3.000    0.000    0.000 
#    0.000    0.000    0.000    0.000    0.000    0.000 
#
# Total GULP energy -178933.914163 kJ/mol
# GULP energy per Si atom -5591.684818 kJ/mol
# Density = 2.013471 g / cm^3
# Si number density = 20.180640 Si / 1000 Ang^3
#
#
#
# Elastic Constant Matrix: (Units=GPa)
#
#
# Indices 1 2 3 4 5 6 
#
# 1 119.2779 64.0122 59.5243 0.0000 0.0000 0.0000
# 2 64.0122 164.5261 69.4822 0.0000 0.0000 0.0000
# 3 59.5243 69.4822 140.2907 0.0000 0.0000 0.0000
# 4 0.0000 0.0000 0.0000 -13.8172 0.0000 0.0000
# 5 0.0000 0.0000 0.0000 0.0000 18.0669 0.0000
# 6 0.0000 0.0000 0.0000 0.0000 0.0000 -83.4457
#
#
#
# Elastic Compliance Matrix: (Units=1/GPa)
#
#
# Indices 1 2 3 4 5 6 
#
# 1 0.011784 -0.003128 -0.003451 0.000000 0.000000 0.000000
# 2 -0.003128 0.008516 -0.002891 0.000000 0.000000 0.000000
# 3 -0.003451 -0.002891 0.010024 0.000000 0.000000 0.000000
# 4 0.000000 0.000000 0.000000 -0.072374 0.000000 0.000000
# 5 0.000000 0.000000 0.000000 0.000000 0.055350 0.000000
# 6 0.000000 0.000000 0.000000 0.000000 0.000000 -0.011984
#
#
# Mechanical properties :
#
#
# Convention : Reuss Voigt Hill
#
# Bulk Modulus (GPa) = 87.82972 90.01467 88.92220
# Shear Modulus (GPa) = 207.90082 -0.43414 103.73334
#
# Velocity S-wave (km/s) = 10.16089 -0.46432 7.17733
# Velocity P-wave (km/s) = 13.46382 6.66437 10.62281
#
# Compressibility (1/GPa) = 0.01138567
#
# Stress axis : x y z
#
# Youngs Moduli (GPa) = 84.85769 117.43110 99.76118
#
# Poissons Ratio (x) = 0.36727 0.34428
# Poissons Ratio (y) = 0.26540 0.28837
# Poissons Ratio (z) = 0.29285 0.33944
#
# Static dielectric constant tensor:
#      x y z
#    x 1.773280 0.000000 0.000000 
#    y 0.000000 1.677480 0.000000 
#    z 0.000000 0.000000 1.715630 
# 
# From -- ./inp_files/25473.got.cif
#   From: 2010.05.17/outbox.cif.g08.bks.cpg/sg49_13_cif.got.tgz:25473.got - 2010.06.03 21:02:19.
