data_PCOD9394336
_publ_section_title
;
Structure prediction by ZEFSAII (Michael W. Deem and Ramdas Pophale) SiO2 
 PCOD9394336
Probable space group: P C C M
;
_chemical_formula_sum "Si O2"
_cell_formula_units_Z 32
_cell_length_a 5.260690
_cell_length_b 9.023744
_cell_length_c 26.617273
_cell_angle_alpha 90.000000
_cell_angle_beta 90.000000
_cell_angle_gamma 90.000000
_cell_volume 1263.551756
_symmetry_space_group_name_H-M "P C C M"
_symmetry_group_IT_number 49
_symmetry_cell_setting 'orthorhombic'
loop_
_space_group_symop_operation_xyz
x,y,z
-x,-y,z
x,-y,1/2-z
-x,y,1/2-z
-x,-y,-z
x,y,-z
-x,y,1/2+z
x,-y,1/2+z
loop_
_atom_site_type_symbol
_atom_site_label
_atom_site_fract_x
_atom_site_fract_y
_atom_site_fract_z
Si Si1 0.742838 0.586502 0.830817
Si Si2 0.805133 0.875175 0.443537
Si Si3 0.301931 0.309570 0.058241
Si Si4 0.745652 0.930923 0.806130
O O1 0.500000 0.500000 0.810341
O O2 0.709955 0.592832 0.891450
O O3 0.749235 0.754625 0.810120
O O4 0.000000 0.500000 0.818483
O O5 0.755630 0.929513 0.500000
O O6 0.527596 0.810771 0.428451
O O7 0.008089 0.742073 0.444085
O O8 0.000000 0.000000 0.422964
O O9 0.360375 0.356175 0.000000
O O10 0.500000 0.000000 0.832284
O O11 0.739741 0.000000 0.750000
O O12 0.000000 0.000000 0.826815
#
# Coordination Sequence:
#
# PCOD9394336 Si02
#       4
#     8   8   8   8
#     4  12  26  44  68 104 144 181 229 286 341 407
#     4   9  17  31  52  82 121 172 235 290 332 380
#     4  10  21  36  56  87 132 185 232 276 330 393
#     4  10  23  48  76 104 136 177 225 280 353 423
#
# _framework density 25.325437999999998
#
# number of rings (size 3 to 8) (size 9 to 14) (size 15 to 20)
#    0.000    1.750    0.000    3.750    0.000    7.000 
#    0.000   15.000    0.000    0.000    0.000    0.000 
#    0.000    0.000    0.000    0.000    0.000    0.000 
#
# Total GULP energy -178373.562601 kJ/mol
# GULP energy per Si atom -5574.173831 kJ/mol
# Density = 2.526780 g / cm^3
# Si number density = 25.325438 Si / 1000 Ang^3
#
#
#
# Elastic Constant Matrix: (Units=GPa)
#
#
# Indices 1 2 3 4 5 6 
#
# 1 260.5924 92.1774 23.5132 0.0000 0.0000 0.0000
# 2 92.1774 182.9018 41.5931 0.0000 0.0000 0.0000
# 3 23.5132 41.5931 126.3143 0.0000 0.0000 0.0000
# 4 0.0000 0.0000 0.0000 10.5654 0.0000 0.0000
# 5 0.0000 0.0000 0.0000 0.0000 246.3673 0.0000
# 6 0.0000 0.0000 0.0000 0.0000 0.0000 53.0893
#
#
#
# Elastic Compliance Matrix: (Units=1/GPa)
#
#
# Indices 1 2 3 4 5 6 
#
# 1 0.004671 -0.002331 -0.000102 0.000000 0.000000 0.000000
# 2 -0.002331 0.007073 -0.001895 0.000000 0.000000 0.000000
# 3 -0.000102 -0.001895 0.008560 0.000000 0.000000 0.000000
# 4 0.000000 0.000000 0.000000 0.094649 0.000000 0.000000
# 5 0.000000 0.000000 0.000000 0.000000 0.004059 0.000000
# 6 0.000000 0.000000 0.000000 0.000000 0.000000 0.018836
#
#
# Mechanical properties :
#
#
# Convention : Reuss Voigt Hill
#
# Bulk Modulus (GPa) = 85.85252 98.26398 92.05825
# Shear Modulus (GPa) = 33.24763 89.50605 61.37684
#
# Velocity S-wave (km/s) = 3.62721 5.95139 4.92827
# Velocity P-wave (km/s) = 7.17743 9.27956 8.29535
#
# Compressibility (1/GPa) = 0.01164788
#
# Stress axis : x y z
#
# Youngs Moduli (GPa) = 214.08192 141.38075 116.82539
#
# Poissons Ratio (x) = 0.32955 0.01191
# Poissons Ratio (y) = 0.49901 0.22140
# Poissons Ratio (z) = 0.02183 0.26794
#
# Static dielectric constant tensor:
#      x y z
#    x 1.908710 0.000000 0.000000 
#    y 0.000000 2.074380 0.000000 
#    z 0.000000 0.000000 9.463320 
# 
# From -- ./inp_files/25455.got.cif
#   From: 2010.05.17/outbox.cif.g08.bks.cpg/sg49_13_cif.got.tgz:25455.got - 2010.06.03 21:02:19.
