data_PCOD9394049
_publ_section_title
;
Structure prediction by ZEFSAII (Michael W. Deem and Ramdas Pophale) SiO2 
 PCOD9394049
Probable space group: P C C M
;
_chemical_formula_sum "Si O2"
_cell_formula_units_Z 56
_cell_length_a 13.908124
_cell_length_b 11.467361
_cell_length_c 14.387747
_cell_angle_alpha 90.000000
_cell_angle_beta 90.000000
_cell_angle_gamma 90.000000
_cell_volume 2294.694269
_symmetry_space_group_name_H-M "P C C M"
_symmetry_group_IT_number 49
_symmetry_cell_setting 'orthorhombic'
loop_
_space_group_symop_operation_xyz
x,y,z
-x,-y,z
x,-y,1/2-z
-x,y,1/2-z
-x,-y,-z
x,y,-z
-x,y,1/2+z
x,-y,1/2+z
loop_
_atom_site_type_symbol
_atom_site_label
_atom_site_fract_x
_atom_site_fract_y
_atom_site_fract_z
Si Si1 0.538339 0.377601 0.355016
Si Si2 0.465659 0.128143 0.359159
Si Si3 0.856171 0.829568 0.106126
Si Si4 0.264498 0.958935 0.849198
Si Si5 0.759880 0.402305 0.386530
Si Si6 0.934966 0.849478 0.612450
Si Si7 0.912296 0.420673 0.112345
O O1 0.500000 0.500000 0.396933
O O2 0.500000 0.376112 0.250000
O O3 0.507441 0.251274 0.395446
O O4 0.652568 0.387146 0.353266
O O5 0.500000 0.129173 0.250000
O O6 0.351111 0.122544 0.381465
O O7 0.500000 0.000000 0.393514
O O8 0.822301 0.708061 0.148205
O O9 0.956421 0.883777 0.141917
O O10 0.768026 0.920069 0.103649
O O11 0.882691 0.800739 0.000000
O O12 0.161806 0.896815 0.841428
O O13 0.301213 0.000000 0.750000
O O14 0.756886 0.397574 0.500000
O O15 0.812388 0.521233 0.358198
O O16 0.922749 0.873602 0.500000
O O17 0.930948 0.712450 0.632894
O O18 0.000000 0.500000 0.145038
O O19 0.912199 0.427314 0.000000
#
# Coordination Sequence:
#
# PCOD9394049 Si02
#       7
#     8   8   8   8   8   8   8
#     4  10  23  40  62  88 119 159 210 261 315 370
#     4  10  20  41  62  82 108 158 210 252 304 366
#     4  10  21  39  61  90 127 163 197 246 311 377
#     4  12  24  37  63  90 117 164 211 258 302 371
#     4  10  20  36  63  93 124 160 203 252 307 371
#     4  10  21  38  61  92 131 165 199 250 312 374
#     4   9  16  33  61  93 124 160 203 241 296 378
#
# _framework density 24.404122999999998
#
# number of rings (size 3 to 8) (size 9 to 14) (size 15 to 20)
#    0.000    1.857    2.857    1.714    4.000    2.571 
#    0.000    1.429    0.000    3.857    0.000    0.000 
#    0.000    0.000    0.000    0.000    0.000    0.143 
#
# Total GULP energy -312701.604666 kJ/mol
# GULP energy per Si atom -5583.957226 kJ/mol
# Density = 2.434858 g / cm^3
# Si number density = 24.404123 Si / 1000 Ang^3
#
#
#
# Elastic Constant Matrix: (Units=GPa)
#
#
# Indices 1 2 3 4 5 6 
#
# 1 187.2677 50.7051 1.1868 0.0000 0.0000 0.0000
# 2 50.7051 141.4934 -5.5499 0.0000 0.0000 0.0000
# 3 1.1868 -5.5499 68.7464 0.0000 0.0000 0.0000
# 4 0.0000 0.0000 0.0000 27.6027 0.0000 0.0000
# 5 0.0000 0.0000 0.0000 0.0000 32.8607 0.0000
# 6 0.0000 0.0000 0.0000 0.0000 0.0000 51.4722
#
#
#
# Elastic Compliance Matrix: (Units=1/GPa)
#
#
# Indices 1 2 3 4 5 6 
#
# 1 0.005919 -0.002132 -0.000274 0.000000 0.000000 0.000000
# 2 -0.002132 0.007858 0.000671 0.000000 0.000000 0.000000
# 3 -0.000274 0.000671 0.014605 0.000000 0.000000 0.000000
# 4 0.000000 0.000000 0.000000 0.036228 0.000000 0.000000
# 5 0.000000 0.000000 0.000000 0.000000 0.030432 0.000000
# 6 0.000000 0.000000 0.000000 0.000000 0.000000 0.019428
#
#
# Mechanical properties :
#
#
# Convention : Reuss Voigt Hill
#
# Bulk Modulus (GPa) = 40.14151 54.46572 47.30362
# Shear Modulus (GPa) = 39.60601 45.79815 42.70208
#
# Velocity S-wave (km/s) = 4.03292 4.33674 4.18759
# Velocity P-wave (km/s) = 6.17821 6.88790 6.54268
#
# Compressibility (1/GPa) = 0.02491187
#
# Stress axis : x y z
#
# Youngs Moduli (GPa) = 168.94998 127.26282 68.46906
#
# Poissons Ratio (x) = 0.27130 0.01878
# Poissons Ratio (y) = 0.36017 -0.04595
# Poissons Ratio (z) = 0.04634 -0.08541
#
# Static dielectric constant tensor:
#      x y z
#    x 1.911890 0.000000 0.000000 
#    y 0.000000 1.951540 0.000000 
#    z 0.000000 0.000000 2.022380 
# 
# From -- ./inp_files/20520.got.cif
#   From: 2010.05.17/outbox.cif.g08.bks.cpg/sg49_11_cif.got.tgz:20520.got - 2010.06.03 21:02:19.
