data_PCOD9394373
_publ_section_title
;
Structure prediction by ZEFSAII (Michael W. Deem and Ramdas Pophale) SiO2 
 PCOD9394373
Probable space group: P C C M
;
_chemical_formula_sum "Si O2"
_cell_formula_units_Z 34
_cell_length_a 7.391914
_cell_length_b 16.162100
_cell_length_c 14.719823
_cell_angle_alpha 90.000000
_cell_angle_beta 90.000000
_cell_angle_gamma 90.000000
_cell_volume 1758.560374
_symmetry_space_group_name_H-M "P C C M"
_symmetry_group_IT_number 49
_symmetry_cell_setting 'orthorhombic'
loop_
_space_group_symop_operation_xyz
x,y,z
-x,-y,z
x,-y,1/2-z
-x,y,1/2-z
-x,-y,-z
x,y,-z
-x,y,1/2+z
x,-y,1/2+z
loop_
_atom_site_type_symbol
_atom_site_label
_atom_site_fract_x
_atom_site_fract_y
_atom_site_fract_z
Si Si1 0.559881 0.866139 0.605564
Si Si2 0.155803 0.278398 0.602967
Si Si3 0.779189 0.405818 0.749272
Si Si4 0.500000 0.000000 0.250000
Si Si5 0.263600 0.729441 0.608034
O O1 0.534005 0.893892 0.500000
O O2 0.726790 0.803656 0.606803
O O3 0.386880 0.808495 0.632177
O O4 0.594048 0.938077 0.678130
O O5 0.149607 0.309684 0.500000
O O6 0.249820 0.347752 0.663936
O O7 0.949230 0.256756 0.628200
O O8 0.715064 0.500000 0.750000
O O9 0.700772 0.353639 0.665064
O O10 0.000000 0.409924 0.750000
O O11 0.288741 0.716680 0.500000
#
# Coordination Sequence:
#
# PCOD9394373 Si02
#       5
#     8   8   8   2   8
#     4  10  21  37  55  76 100 128 166 205 246 303
#     4   9  18  34  54  73  99 136 170 202 244 292
#     4   9  17  29  48  76 105 133 170 210 245 286
#     4  12  22  36  58  78 102 130 154 204 266 298
#     4   9  18  34  54  73  99 136 170 202 244 292
#
# _framework density 19.333995000000002
#
# number of rings (size 3 to 8) (size 9 to 14) (size 15 to 20)
#    0.000    2.588    0.000    1.765    0.000    0.941 
#    0.000    9.412    0.000    9.882    0.000    0.000 
#    0.000    0.000    0.000    0.000    0.000    0.000 
#
# Total GULP energy -189420.000656 kJ/mol
# GULP energy per Si atom -5571.176490 kJ/mol
# Density = 1.928999 g / cm^3
# Si number density = 19.333995 Si / 1000 Ang^3
#
#
#
# Elastic Constant Matrix: (Units=GPa)
#
#
# Indices 1 2 3 4 5 6 
#
# 1 75.7393 25.7514 18.8304 0.0000 0.0000 0.0000
# 2 25.7514 108.0861 58.7242 0.0000 0.0000 0.0000
# 3 18.8304 58.7242 73.8894 0.0000 0.0000 0.0000
# 4 0.0000 0.0000 0.0000 8.3347 0.0000 0.0000
# 5 0.0000 0.0000 0.0000 0.0000 10.9977 0.0000
# 6 0.0000 0.0000 0.0000 0.0000 0.0000 -9.9934
#
#
#
# Elastic Compliance Matrix: (Units=1/GPa)
#
#
# Indices 1 2 3 4 5 6 
#
# 1 0.014483 -0.002544 -0.001669 0.000000 0.000000 0.000000
# 2 -0.002544 0.016729 -0.012648 0.000000 0.000000 0.000000
# 3 -0.001669 -0.012648 0.024011 0.000000 0.000000 0.000000
# 4 0.000000 0.000000 0.000000 0.119980 0.000000 0.000000
# 5 0.000000 0.000000 0.000000 0.000000 0.090928 0.000000
# 6 0.000000 0.000000 0.000000 0.000000 0.000000 -0.100066
#
#
# Mechanical properties :
#
#
# Convention : Reuss Voigt Hill
#
# Bulk Modulus (GPa) = 46.50680 51.59187 49.04933
# Shear Modulus (GPa) = 24.15997 12.16173 18.16085
#
# Velocity S-wave (km/s) = 3.53882 2.51078 3.06816
# Velocity P-wave (km/s) = 6.38782 5.92856 6.16247
#
# Compressibility (1/GPa) = 0.02150223
#
# Stress axis : x y z
#
# Youngs Moduli (GPa) = 69.04623 59.77467 41.64746
#
# Poissons Ratio (x) = 0.15204 0.06953
# Poissons Ratio (y) = 0.17562 0.52674
# Poissons Ratio (z) = 0.11527 0.75601
#
# Static dielectric constant tensor:
#      x y z
#    x 1.719430 0.000000 0.000000 
#    y 0.000000 1.645060 0.000000 
#    z 0.000000 0.000000 1.720730 
# 
# From -- ./inp_files/11400.got.cif
#   From: 2010.05.17/outbox.cif.g08.bks.cpg/sg49_6_cif.got.tgz:11400.got - 2010.06.03 21:02:19.
