data_PCOD9394289
_publ_section_title
;
Structure prediction by ZEFSAII (Michael W. Deem and Ramdas Pophale) SiO2 
 PCOD9394289
Probable space group: P C C M
;
_chemical_formula_sum "Si O2"
_cell_formula_units_Z 56
_cell_length_a 5.014785
_cell_length_b 21.741902
_cell_length_c 28.539910
_cell_angle_alpha 90.000000
_cell_angle_beta 90.000000
_cell_angle_gamma 90.000000
_cell_volume 3111.733900
_symmetry_space_group_name_H-M "P C C M"
_symmetry_group_IT_number 49
_symmetry_cell_setting 'orthorhombic'
loop_
_space_group_symop_operation_xyz
x,y,z
-x,-y,z
x,-y,1/2-z
-x,y,1/2-z
-x,-y,-z
x,y,-z
-x,y,1/2+z
x,-y,1/2+z
loop_
_atom_site_type_symbol
_atom_site_label
_atom_site_fract_x
_atom_site_fract_y
_atom_site_fract_z
Si Si1 0.020441 0.227717 0.944139
Si Si2 0.339729 0.440579 0.555979
Si Si3 0.433724 0.142357 0.696261
Si Si4 0.247563 0.044470 0.446361
Si Si5 0.519051 0.168264 0.096373
Si Si6 0.066443 0.065144 0.195302
Si Si7 0.847734 0.364102 0.556252
O O1 0.225906 0.176526 0.925014
O O2 0.101045 0.295453 0.926310
O O3 0.720904 0.214470 0.928561
O O4 0.038195 0.226747 0.000000
O O5 0.500000 0.500000 0.574584
O O6 0.304685 0.452521 0.500000
O O7 0.545920 0.384991 0.562848
O O8 0.054798 0.416417 0.573847
O O9 0.500000 0.162896 0.750000
O O10 0.504960 0.182973 0.651589
O O11 0.627548 0.083194 0.690256
O O12 0.132081 0.121386 0.685242
O O13 0.193336 0.067438 0.500000
O O14 0.344510 0.101849 0.414657
O O15 0.500000 0.000000 0.448081
O O16 0.000000 0.000000 0.433071
O O17 0.000000 0.058555 0.250000
O O18 0.000000 0.000000 0.172416
O O19 0.891572 0.362078 0.500000
#
# Coordination Sequence:
#
# PCOD9394289 Si02
#       7
#     8   8   8   8   8   8   8
#     4  11  22  36  53  72  96 126 167 212 243 278
#     4   9  15  24  40  63  92 126 162 193 223 266
#     4  10  21  35  50  71  97 120 150 192 237 297
#     4  10  21  36  51  68  92 118 149 196 247 293
#     4  12  23  36  54  73  92 125 165 199 252 305
#     4   9  17  31  50  69  91 117 140 172 225 287
#     4   9  17  28  42  63  91 123 159 200 235 260
#
# _framework density 17.996397999999999
#
# number of rings (size 3 to 8) (size 9 to 14) (size 15 to 20)
#    0.000    2.000    0.000    4.714    0.000    8.571 
#    0.000    0.000    0.000    0.000    0.000    0.000 
#    0.000    0.000    0.000    0.000    0.000   50.000 
#
# Total GULP energy -311940.073035 kJ/mol
# GULP energy per Si atom -5570.358447 kJ/mol
# Density = 1.795544 g / cm^3
# Si number density = 17.996398 Si / 1000 Ang^3
#
#
#
# Elastic Constant Matrix: (Units=GPa)
#
#
# Indices 1 2 3 4 5 6 
#
# 1 65.1562 -3.9276 2.6076 0.0000 0.0000 0.0000
# 2 -3.9276 33.4194 1.8882 0.0000 0.0000 0.0000
# 3 2.6076 1.8882 79.7927 0.0000 0.0000 0.0000
# 4 0.0000 0.0000 0.0000 -1.9526 0.0000 0.0000
# 5 0.0000 0.0000 0.0000 0.0000 9.9292 0.0000
# 6 0.0000 0.0000 0.0000 0.0000 0.0000 3.9378
#
#
#
# Elastic Compliance Matrix: (Units=1/GPa)
#
#
# Indices 1 2 3 4 5 6 
#
# 1 0.015481 0.001850 -0.000550 0.000000 0.000000 0.000000
# 2 0.001850 0.030184 -0.000775 0.000000 0.000000 0.000000
# 3 -0.000550 -0.000775 0.012569 0.000000 0.000000 0.000000
# 4 0.000000 0.000000 0.000000 -0.512131 0.000000 0.000000
# 5 0.000000 0.000000 0.000000 0.000000 0.100713 0.000000
# 6 0.000000 0.000000 0.000000 0.000000 0.000000 0.253949
#
#
# Mechanical properties :
#
#
# Convention : Reuss Voigt Hill
#
# Bulk Modulus (GPa) = 16.86736 19.94497 18.40617
# Shear Modulus (GPa) = -62.09191 14.23621 -23.92785
#
# Velocity S-wave (km/s) = -5.88025 2.81563 -3.65031
# Velocity P-wave (km/s) = 6.05889 4.65587 2.74162
#
# Compressibility (1/GPa) = 0.05928609
#
# Stress axis : x y z
#
# Youngs Moduli (GPa) = 64.59410 33.13018 79.56224
#
# Poissons Ratio (x) = -0.06131 0.04374
# Poissons Ratio (y) = -0.11953 0.06164
# Poissons Ratio (z) = 0.03551 0.02567
#
# Static dielectric constant tensor:
#      x y z
#    x 1.651470 0.000000 0.000000 
#    y 0.000000 1.666200 0.000000 
#    z 0.000000 0.000000 1.590530 
# 
# From -- ./inp_files/24090.got.cif
#   From: 2010.05.17/outbox.cif.g08.bks.cpg/sg49_13_cif.got.tgz:24090.got - 2010.06.03 21:02:19.
