data_PCOD9394984
_publ_section_title
;
Structure prediction by ZEFSAII (Michael W. Deem and Ramdas Pophale) SiO2 
 PCOD9394984
Probable space group: P C C M
;
_chemical_formula_sum "Si O2"
_cell_formula_units_Z 48
_cell_length_a 17.620754
_cell_length_b 4.902577
_cell_length_c 29.559954
_cell_angle_alpha 90.000000
_cell_angle_beta 90.000000
_cell_angle_gamma 90.000000
_cell_volume 2553.598799
_symmetry_space_group_name_H-M "P C C M"
_symmetry_group_IT_number 49
_symmetry_cell_setting 'orthorhombic'
loop_
_space_group_symop_operation_xyz
x,y,z
-x,-y,z
x,-y,1/2-z
-x,y,1/2-z
-x,-y,-z
x,y,-z
-x,y,1/2+z
x,-y,1/2+z
loop_
_atom_site_type_symbol
_atom_site_label
_atom_site_fract_x
_atom_site_fract_y
_atom_site_fract_z
Si Si1 0.717909 0.953764 0.901123
Si Si2 0.717072 0.927641 0.201168
Si Si3 0.948172 0.233153 0.948037
Si Si4 0.550356 0.728412 0.885049
Si Si5 0.382990 0.432536 0.298148
Si Si6 0.214166 0.557238 0.945721
O O1 0.747229 0.979141 0.849211
O O2 0.632131 0.835217 0.902513
O O3 0.771338 0.744513 0.927743
O O4 0.722421 0.245868 0.924687
O O5 0.694499 0.611103 0.202179
O O6 0.753552 0.000000 0.250000
O O7 0.640606 0.117619 0.200119
O O8 0.866519 0.320068 0.929644
O O9 0.000000 0.500000 0.949797
O O10 0.932384 0.139827 0.000000
O O11 0.000000 0.000000 0.925919
O O12 0.500000 0.500000 0.911615
O O13 0.573910 0.555600 0.840440
O O14 0.500000 0.000000 0.877256
O O15 0.419030 0.500000 0.250000
O O16 0.215838 0.556749 0.000000
#
# Coordination Sequence:
#
# PCOD9394984 Si02
#       6
#     8   8   8   8   8   8
#     4  11  21  36  54  75 105 139 179 224 264 310
#     4   9  17  31  51  73 101 135 169 212 263 315
#     4   9  17  31  52  80 112 138 158 189 244 315
#     4  11  21  34  50  68  94 134 178 224 276 313
#     4   9  17  30  46  68  96 125 163 212 271 337
#     4  11  22  36  57  82 108 140 174 209 255 312
#
# _framework density 18.797003
#
# number of rings (size 3 to 8) (size 9 to 14) (size 15 to 20)
#    0.000    2.000    0.000    6.500    0.000    3.000 
#    0.000    5.833    0.000   10.000    0.000    0.000 
#    0.000   10.000    0.000    0.167    0.000    0.000 
#
# Total GULP energy -267291.610555 kJ/mol
# GULP energy per Si atom -5568.575220 kJ/mol
# Density = 1.875422 g / cm^3
# Si number density = 18.797003 Si / 1000 Ang^3
#
#
#
# Elastic Constant Matrix: (Units=GPa)
#
#
# Indices 1 2 3 4 5 6 
#
# 1 46.4814 -0.8107 8.2722 0.0000 0.0000 0.0000
# 2 -0.8107 77.2892 9.9108 0.0000 0.0000 0.0000
# 3 8.2722 9.9108 77.8203 0.0000 0.0000 0.0000
# 4 0.0000 0.0000 0.0000 36.9897 0.0000 0.0000
# 5 0.0000 0.0000 0.0000 0.0000 -48.5267 0.0000
# 6 0.0000 0.0000 0.0000 0.0000 0.0000 18.4862
#
#
#
# Elastic Compliance Matrix: (Units=1/GPa)
#
#
# Indices 1 2 3 4 5 6 
#
# 1 0.021951 0.000538 -0.002402 0.000000 0.000000 0.000000
# 2 0.000538 0.013166 -0.001734 0.000000 0.000000 0.000000
# 3 -0.002402 -0.001734 0.013326 0.000000 0.000000 0.000000
# 4 0.000000 0.000000 0.000000 0.027035 0.000000 0.000000
# 5 0.000000 0.000000 0.000000 0.000000 -0.020607 0.000000
# 6 0.000000 0.000000 0.000000 0.000000 0.000000 0.054094
#
#
# Mechanical properties :
#
#
# Convention : Reuss Voigt Hill
#
# Bulk Modulus (GPa) = 24.24351 26.25951 25.25151
# Shear Modulus (GPa) = 38.48818 13.67108 26.07963
#
# Velocity S-wave (km/s) = 4.52992 2.69978 3.72887
# Velocity P-wave (km/s) = 6.34711 4.87019 5.65705
#
# Compressibility (1/GPa) = 0.04124815
#
# Stress axis : x y z
#
# Youngs Moduli (GPa) = 45.55640 75.95080 75.03978
#
# Poissons Ratio (x) = -0.04088 0.18024
# Poissons Ratio (y) = -0.02452 0.13012
# Poissons Ratio (z) = 0.10942 0.13170
#
# Static dielectric constant tensor:
#      x y z
#    x 1.686420 0.000000 0.000000 
#    y 0.000000 1.621460 0.000000 
#    z 0.000000 0.000000 1.699060 
# 
# From -- ./inp_files/26762.got.cif
#   From: 2010.05.17/outbox.cif.g08.bks.cpg/sg49_14_cif.got.tgz:26762.got - 2010.06.03 21:02:19.
