data_PCOD9394872
_publ_section_title
;
Structure prediction by ZEFSAII (Michael W. Deem and Ramdas Pophale) SiO2 
 PCOD9394872
Probable space group: P C C M
;
_chemical_formula_sum "Si O2"
_cell_formula_units_Z 22
_cell_length_a 5.271480
_cell_length_b 5.674285
_cell_length_c 31.490320
_cell_angle_alpha 90.000000
_cell_angle_beta 90.000000
_cell_angle_gamma 90.000000
_cell_volume 941.934670
_symmetry_space_group_name_H-M "P C C M"
_symmetry_group_IT_number 49
_symmetry_cell_setting 'orthorhombic'
loop_
_space_group_symop_operation_xyz
x,y,z
-x,-y,z
x,-y,1/2-z
-x,y,1/2-z
-x,-y,-z
x,y,-z
-x,y,1/2+z
x,-y,1/2+z
loop_
_atom_site_type_symbol
_atom_site_label
_atom_site_fract_x
_atom_site_fract_y
_atom_site_fract_z
Si Si1 0.500000 0.000000 0.750000
Si Si2 0.255808 0.157607 0.500000
Si Si3 0.255936 0.341314 0.314706
Si Si4 0.144088 0.747595 0.907897
O O1 0.306116 0.141981 0.719759
O O2 0.266826 0.285169 0.545502
O O3 0.500000 0.000000 0.500000
O O4 0.000000 0.000000 0.500000
O O5 0.500000 0.500000 0.308317
O O6 0.282467 0.239098 0.362648
O O7 0.000000 0.500000 0.310094
O O8 0.000000 0.500000 0.903059
O O9 0.000000 0.000000 0.910400
#
# Coordination Sequence:
#
# PCOD9394872 Si02
#       4
#     2   4   8   8
#     4  12  30  50  84 102 164 198 278 326 414 460
#     4  10  23  42  74 110 150 196 248 300 378 458
#     4  11  29  51  75 112 150 201 259 322 394 468
#     4  10  24  48  76 110 153 197 250 312 380 460
#
# _framework density 23.356186000000001
#
# number of rings (size 3 to 8) (size 9 to 14) (size 15 to 20)
#    0.000    1.455    0.000    1.091   12.727   10.182 
#    0.000    8.182    0.000    0.000    0.000    0.000 
#    0.000    0.000    0.000    0.000    0.000    0.000 
#
# Total GULP energy -122681.874509 kJ/mol
# GULP energy per Si atom -5576.448841 kJ/mol
# Density = 2.330303 g / cm^3
# Si number density = 23.356186 Si / 1000 Ang^3
#
#
#
# Elastic Constant Matrix: (Units=GPa)
#
#
# Indices 1 2 3 4 5 6 
#
# 1 126.7337 39.4486 40.5067 0.0000 0.0000 0.0000
# 2 39.4486 121.0519 72.3273 0.0000 0.0000 0.0000
# 3 40.5067 72.3273 273.3871 0.0000 0.0000 0.0000
# 4 0.0000 0.0000 0.0000 72.1593 0.0000 0.0000
# 5 0.0000 0.0000 0.0000 0.0000 2.5578 0.0000
# 6 0.0000 0.0000 0.0000 0.0000 0.0000 10.5706
#
#
#
# Elastic Compliance Matrix: (Units=1/GPa)
#
#
# Indices 1 2 3 4 5 6 
#
# 1 0.008878 -0.002503 -0.000653 0.000000 0.000000 0.000000
# 2 -0.002503 0.010518 -0.002412 0.000000 0.000000 0.000000
# 3 -0.000653 -0.002412 0.004393 0.000000 0.000000 0.000000
# 4 0.000000 0.000000 0.000000 0.013858 0.000000 0.000000
# 5 0.000000 0.000000 0.000000 0.000000 0.390958 0.000000
# 6 0.000000 0.000000 0.000000 0.000000 0.000000 0.094602
#
#
# Mechanical properties :
#
#
# Convention : Reuss Voigt Hill
#
# Bulk Modulus (GPa) = 79.03416 91.74865 85.39140
# Shear Modulus (GPa) = 9.28401 41.65020 25.46711
#
# Velocity S-wave (km/s) = 1.99590 4.22745 3.30567
# Velocity P-wave (km/s) = 6.26287 7.94960 7.15610
#
# Compressibility (1/GPa) = 0.01265276
#
# Stress axis : x y z
#
# Youngs Moduli (GPa) = 112.63188 95.07922 227.65338
#
# Poissons Ratio (x) = 0.23798 0.14872
# Poissons Ratio (y) = 0.28192 0.54902
# Poissons Ratio (z) = 0.07358 0.22930
#
# Static dielectric constant tensor:
#      x y z
#    x 2.057840 0.000000 0.000000 
#    y 0.000000 1.767810 0.000000 
#    z 0.000000 0.000000 2.220170 
# 
# From -- ./inp_files/25346.got.cif
#   From: 2010.05.17/outbox.cif.g08.bks.cpg/sg49_13_cif.got.tgz:25346.got - 2010.06.03 21:02:19.
