data_PCOD9394229
_publ_section_title
;
Structure prediction by ZEFSAII (Michael W. Deem and Ramdas Pophale) SiO2 
 PCOD9394229
Probable space group: P C C M
;
_chemical_formula_sum "Si O2"
_cell_formula_units_Z 30
_cell_length_a 6.377728
_cell_length_b 11.196403
_cell_length_c 19.412770
_cell_angle_alpha 90.000000
_cell_angle_beta 90.000000
_cell_angle_gamma 90.000000
_cell_volume 1386.219566
_symmetry_space_group_name_H-M "P C C M"
_symmetry_group_IT_number 49
_symmetry_cell_setting 'orthorhombic'
loop_
_space_group_symop_operation_xyz
x,y,z
-x,-y,z
x,-y,1/2-z
-x,y,1/2-z
-x,-y,-z
x,y,-z
-x,y,1/2+z
x,-y,1/2+z
loop_
_atom_site_type_symbol
_atom_site_label
_atom_site_fract_x
_atom_site_fract_y
_atom_site_fract_z
Si Si1 0.000000 0.000000 0.750000
Si Si2 0.150564 0.381062 0.000000
Si Si3 0.113172 0.130998 0.500000
Si Si4 0.848424 0.612717 0.850425
Si Si5 0.204389 0.184492 0.349262
Si Si6 0.500000 0.677921 0.750000
O O1 0.856523 0.076262 0.800401
O O2 0.261256 0.387585 0.925902
O O3 0.000000 0.500000 0.000000
O O4 0.033012 0.251643 0.000000
O O5 0.237088 0.144462 0.428055
O O6 0.000000 0.000000 0.500000
O O7 0.686058 0.611532 0.788869
O O8 0.000000 0.500000 0.846820
O O9 0.002522 0.726920 0.846765
O O10 0.397478 0.247339 0.312141
#
# Coordination Sequence:
#
# PCOD9394229 Si02
#       6
#     2   4   4   8   8   4
#     4  12  20  44  62  88 142 170 212 272 332 386
#     4   8  18  39  64  87 126 176 218 270 334 398
#     4  10  20  39  68  91 128 184 224 272 334 394
#     4  10  22  42  65  95 131 170 220 275 336 396
#     4  11  24  41  64  94 133 178 219 272 335 392
#     4  12  24  40  66 102 130 173 221 276 334 404
#
# _framework density 21.641593
#
# number of rings (size 3 to 8) (size 9 to 14) (size 15 to 20)
#    0.000    1.600    4.000    0.000    0.000    5.867 
#    0.000    0.000    0.000   14.400    0.000    2.800 
#    0.000    0.000    0.000    0.000    0.000    0.000 
#
# Total GULP energy -167486.121475 kJ/mol
# GULP energy per Si atom -5582.870716 kJ/mol
# Density = 2.159234 g / cm^3
# Si number density = 21.641593 Si / 1000 Ang^3
#
#
#
# Elastic Constant Matrix: (Units=GPa)
#
#
# Indices 1 2 3 4 5 6 
#
# 1 53.2950 22.8218 61.5314 0.0000 0.0000 0.0000
# 2 22.8218 110.7887 67.4947 0.0000 0.0000 0.0000
# 3 61.5314 67.4947 246.4516 0.0000 0.0000 0.0000
# 4 0.0000 0.0000 0.0000 42.9176 0.0000 0.0000
# 5 0.0000 0.0000 0.0000 0.0000 42.1457 0.0000
# 6 0.0000 0.0000 0.0000 0.0000 0.0000 19.8667
#
#
#
# Elastic Compliance Matrix: (Units=1/GPa)
#
#
# Indices 1 2 3 4 5 6 
#
# 1 0.026634 -0.001723 -0.006178 0.000000 0.000000 0.000000
# 2 -0.001723 0.010945 -0.002567 0.000000 0.000000 0.000000
# 3 -0.006178 -0.002567 0.006303 0.000000 0.000000 0.000000
# 4 0.000000 0.000000 0.000000 0.023300 0.000000 0.000000
# 5 0.000000 0.000000 0.000000 0.000000 0.023727 0.000000
# 6 0.000000 0.000000 0.000000 0.000000 0.000000 0.050336
#
#
# Mechanical properties :
#
#
# Convention : Reuss Voigt Hill
#
# Bulk Modulus (GPa) = 43.58034 79.35901 61.46968
# Shear Modulus (GPa) = 29.44122 38.23183 33.83653
#
# Velocity S-wave (km/s) = 3.69236 4.20764 3.95840
# Velocity P-wave (km/s) = 6.19347 7.76884 7.02545
#
# Compressibility (1/GPa) = 0.02294613
#
# Stress axis : x y z
#
# Youngs Moduli (GPa) = 37.54634 91.36446 158.65139
#
# Poissons Ratio (x) = 0.15740 0.98012
# Poissons Ratio (y) = 0.06468 0.40732
# Poissons Ratio (z) = 0.23195 0.23457
#
# Static dielectric constant tensor:
#      x y z
#    x 0.892650 0.000000 0.000000 
#    y 0.000000 1.799530 0.000000 
#    z 0.000000 0.000000 1.807600 
# 
# From -- ./inp_files/18769.got.cif
#   From: 2010.05.17/outbox.cif.g08.bks.cpg/sg49_10_cif.got.tgz:18769.got - 2010.06.03 21:02:19.
