data_PCOD9394858
_publ_section_title
;
Structure prediction by ZEFSAII (Michael W. Deem and Ramdas Pophale) SiO2 
 PCOD9394858
Probable space group: P C C M
;
_chemical_formula_sum "Si O2"
_cell_formula_units_Z 58
_cell_length_a 13.602163
_cell_length_b 10.879554
_cell_length_c 18.000649
_cell_angle_alpha 90.000000
_cell_angle_beta 90.000000
_cell_angle_gamma 90.000000
_cell_volume 2663.834446
_symmetry_space_group_name_H-M "P C C M"
_symmetry_group_IT_number 49
_symmetry_cell_setting 'orthorhombic'
loop_
_space_group_symop_operation_xyz
x,y,z
-x,-y,z
x,-y,1/2-z
-x,y,1/2-z
-x,-y,-z
x,y,-z
-x,y,1/2+z
x,-y,1/2+z
loop_
_atom_site_type_symbol
_atom_site_label
_atom_site_fract_x
_atom_site_fract_y
_atom_site_fract_z
Si Si1 0.000000 0.500000 0.500000
Si Si2 0.157087 0.332700 0.717902
Si Si3 0.357134 0.266114 0.085955
Si Si4 0.346411 0.521442 0.168437
Si Si5 0.267966 0.907242 0.812152
Si Si6 0.577248 0.760664 0.411068
Si Si7 0.832455 0.092657 0.413940
Si Si8 0.043639 0.679444 0.366427
O O1 0.049435 0.587672 0.435019
O O2 0.239503 0.420440 0.683857
O O3 0.214628 0.204963 0.729009
O O4 0.106548 0.366553 0.795740
O O5 0.068761 0.314792 0.660254
O O6 0.338453 0.388951 0.131707
O O7 0.463366 0.210259 0.105449
O O8 0.269058 0.170379 0.091838
O O9 0.364359 0.304142 0.000000
O O10 0.390891 0.500000 0.250000
O O11 0.403076 0.621817 0.118744
O O12 0.349911 0.850094 0.866422
O O13 0.186215 0.022595 0.638892
O O14 0.307897 0.000000 0.750000
O O15 0.594303 0.767656 0.500000
O O16 0.846746 0.057263 0.500000
O O17 0.916954 0.186260 0.388694
#
# Coordination Sequence:
#
# PCOD9394858 Si02
#       8
#     2   8   8   8   8   8   8   8
#     4  12  28  42  72 106 140 170 236 282 340 422
#     4  10  25  44  68  96 137 183 224 272 355 418
#     4  10  23  41  67  94 136 184 225 280 354 419
#     4  11  23  39  65  99 136 176 226 281 346 423
#     4  11  23  45  71  97 133 179 235 291 344 414
#     4  10  23  45  66  99 136 181 232 285 353 423
#     4  11  23  43  66  97 134 176 230 286 341 403
#     4  11  24  45  66 101 135 177 220 283 340 416
#
# _framework density 21.773126000000001
#
# number of rings (size 3 to 8) (size 9 to 14) (size 15 to 20)
#    0.000    1.379    2.069    2.069    5.793    3.862 
#    6.207    3.448    0.000    0.000    0.000    0.000 
#    0.000    0.000    0.000    0.000    0.000    0.000 
#
# Total GULP energy -324078.961883 kJ/mol
# GULP energy per Si atom -5587.568308 kJ/mol
# Density = 2.172357 g / cm^3
# Si number density = 21.773126 Si / 1000 Ang^3
#
#
#
# Elastic Constant Matrix: (Units=GPa)
#
#
# Indices 1 2 3 4 5 6 
#
# 1 105.4120 20.3256 38.9282 0.0000 0.0000 0.0000
# 2 20.3256 69.2921 29.4234 0.0000 0.0000 0.0000
# 3 38.9282 29.4234 120.8544 0.0000 0.0000 0.0000
# 4 0.0000 0.0000 0.0000 23.0863 0.0000 0.0000
# 5 0.0000 0.0000 0.0000 0.0000 8.7712 0.0000
# 6 0.0000 0.0000 0.0000 0.0000 0.0000 16.6668
#
#
#
# Elastic Compliance Matrix: (Units=1/GPa)
#
#
# Indices 1 2 3 4 5 6 
#
# 1 0.010992 -0.001919 -0.003073 0.000000 0.000000 0.000000
# 2 -0.001919 0.016431 -0.003382 0.000000 0.000000 0.000000
# 3 -0.003073 -0.003382 0.010088 0.000000 0.000000 0.000000
# 4 0.000000 0.000000 0.000000 0.043316 0.000000 0.000000
# 5 0.000000 0.000000 0.000000 0.000000 0.114010 0.000000
# 6 0.000000 0.000000 0.000000 0.000000 0.000000 0.059999
#
#
# Mechanical properties :
#
#
# Convention : Reuss Voigt Hill
#
# Bulk Modulus (GPa) = 48.16709 52.54590 50.35649
# Shear Modulus (GPa) = 17.95304 23.49695 20.72499
#
# Velocity S-wave (km/s) = 2.87461 3.28864 3.08857
# Velocity P-wave (km/s) = 5.76092 6.21337 5.99142
#
# Compressibility (1/GPa) = 0.02076106
#
# Stress axis : x y z
#
# Youngs Moduli (GPa) = 90.97876 60.86151 99.13033
#
# Poissons Ratio (x) = 0.11681 0.30465
# Poissons Ratio (y) = 0.17461 0.33526
# Poissons Ratio (z) = 0.27960 0.20584
#
# Static dielectric constant tensor:
#      x y z
#    x 1.792510 0.000000 0.000000 
#    y 0.000000 1.797930 0.000000 
#    z 0.000000 0.000000 1.785220 
# 
# From -- ./inp_files/17911.got.cif
#   From: 2010.05.17/outbox.cif.g08.bks.cpg/sg49_9_cif.got.tgz:17911.got - 2010.06.03 21:02:19.
