data_PCOD9394658
_publ_section_title
;
Structure prediction by ZEFSAII (Michael W. Deem and Ramdas Pophale) SiO2 
 PCOD9394658
Probable space group: P C C M
;
_chemical_formula_sum "Si O2"
_cell_formula_units_Z 48
_cell_length_a 9.251573
_cell_length_b 14.325873
_cell_length_c 16.870712
_cell_angle_alpha 90.000000
_cell_angle_beta 90.000000
_cell_angle_gamma 90.000000
_cell_volume 2235.991192
_symmetry_space_group_name_H-M "P C C M"
_symmetry_group_IT_number 49
_symmetry_cell_setting 'orthorhombic'
loop_
_space_group_symop_operation_xyz
x,y,z
-x,-y,z
x,-y,1/2-z
-x,y,1/2-z
-x,-y,-z
x,y,-z
-x,y,1/2+z
x,-y,1/2+z
loop_
_atom_site_type_symbol
_atom_site_label
_atom_site_fract_x
_atom_site_fract_y
_atom_site_fract_z
Si Si1 0.066944 0.764656 0.167750
Si Si2 0.097705 0.919365 0.407828
Si Si3 0.573801 0.098277 0.595625
Si Si4 0.399466 0.268055 0.326736
Si Si5 0.907462 0.406495 0.590492
Si Si6 0.660870 0.535560 0.410627
O O1 0.237326 0.771240 0.181106
O O2 0.000000 0.796748 0.250000
O O3 0.003605 0.829766 0.099418
O O4 0.996418 0.664509 0.144983
O O5 0.121571 0.944385 0.500000
O O6 0.259025 0.901730 0.375983
O O7 0.000000 0.000000 0.369676
O O8 0.571367 0.100658 0.500000
O O9 0.489225 0.190363 0.624266
O O10 0.500000 0.000000 0.620646
O O11 0.500000 0.283851 0.250000
O O12 0.358023 0.367754 0.365275
O O13 0.885834 0.369434 0.500000
O O14 0.756222 0.449082 0.622390
O O15 0.000000 0.500000 0.585675
O O16 0.500000 0.500000 0.417672
O O17 0.718925 0.554847 0.500000
#
# Coordination Sequence:
#
# PCOD9394658 Si02
#       6
#     8   8   8   8   8   8
#     4  12  26  42  63  94 134 174 219 272 330 394
#     4  10  22  42  70 101 130 167 216 270 326 390
#     4  10  22  42  70 100 131 168 215 269 327 394
#     4  12  26  43  62  94 134 176 219 267 333 398
#     4  10  21  42  68  95 123 164 219 271 325 382
#     4  10  23  42  67  94 125 167 217 271 324 384
#
# _framework density 21.466988000000001
#
# number of rings (size 3 to 8) (size 9 to 14) (size 15 to 20)
#    0.000    1.333    1.667    3.000    4.667    4.667 
#    0.000    3.333    0.000    0.000    0.000    0.000 
#    0.000    0.000    0.000    0.000    0.000    0.000 
#
# Total GULP energy -267599.993523 kJ/mol
# GULP energy per Si atom -5574.999865 kJ/mol
# Density = 2.141813 g / cm^3
# Si number density = 21.466988 Si / 1000 Ang^3
#
#
#
# Elastic Constant Matrix: (Units=GPa)
#
#
# Indices 1 2 3 4 5 6 
#
# 1 199.4117 37.7421 24.6081 0.0000 0.0000 0.0000
# 2 37.7421 74.4315 12.7841 0.0000 0.0000 0.0000
# 3 24.6081 12.7841 36.6121 0.0000 0.0000 0.0000
# 4 0.0000 0.0000 0.0000 -23.5325 0.0000 0.0000
# 5 0.0000 0.0000 0.0000 0.0000 17.6702 0.0000
# 6 0.0000 0.0000 0.0000 0.0000 0.0000 37.2202
#
#
#
# Elastic Compliance Matrix: (Units=1/GPa)
#
#
# Indices 1 2 3 4 5 6 
#
# 1 0.005857 -0.002440 -0.003085 0.000000 0.000000 0.000000
# 2 -0.002440 0.015309 -0.003705 0.000000 0.000000 0.000000
# 3 -0.003085 -0.003705 0.030681 0.000000 0.000000 0.000000
# 4 0.000000 0.000000 0.000000 -0.042494 0.000000 0.000000
# 5 0.000000 0.000000 0.000000 0.000000 0.056592 0.000000
# 6 0.000000 0.000000 0.000000 0.000000 0.000000 0.026867
#
#
# Mechanical properties :
#
#
# Convention : Reuss Voigt Hill
#
# Bulk Modulus (GPa) = 29.95268 51.19154 40.57211
# Shear Modulus (GPa) = 40.84920 21.95965 31.40442
#
# Velocity S-wave (km/s) = 4.36694 3.20183 3.82896
# Velocity P-wave (km/s) = 6.27774 6.12922 6.20393
#
# Compressibility (1/GPa) = 0.03338600
#
# Stress axis : x y z
#
# Youngs Moduli (GPa) = 170.72784 65.32115 32.59394
#
# Poissons Ratio (x) = 0.15940 0.10054
# Poissons Ratio (y) = 0.41661 0.12077
# Poissons Ratio (z) = 0.52666 0.24204
#
# Static dielectric constant tensor:
#      x y z
#    x 1.997360 0.000000 0.000000 
#    y 0.000000 1.770480 0.000000 
#    z 0.000000 0.000000 1.821590 
# 
# From -- ./inp_files/16323.got.cif
#   From: 2010.05.17/outbox.cif.g08.bks.cpg/sg49_9_cif.got.tgz:16323.got - 2010.06.03 21:02:19.
