data_PCOD9394712
_publ_section_title
;
Structure prediction by ZEFSAII (Michael W. Deem and Ramdas Pophale) SiO2 
 PCOD9394712
Probable space group: P C C M
;
_chemical_formula_sum "Si O2"
_cell_formula_units_Z 64
_cell_length_a 24.719469
_cell_length_b 9.001744
_cell_length_c 15.240207
_cell_angle_alpha 90.000000
_cell_angle_beta 90.000000
_cell_angle_gamma 90.000000
_cell_volume 3391.225437
_symmetry_space_group_name_H-M "P C C M"
_symmetry_group_IT_number 49
_symmetry_cell_setting 'orthorhombic'
loop_
_space_group_symop_operation_xyz
x,y,z
-x,-y,z
x,-y,1/2-z
-x,y,1/2-z
-x,-y,-z
x,y,-z
-x,y,1/2+z
x,-y,1/2+z
loop_
_atom_site_type_symbol
_atom_site_label
_atom_site_fract_x
_atom_site_fract_y
_atom_site_fract_z
Si Si1 0.611471 0.678161 0.101879
Si Si2 0.886801 0.674951 0.101146
Si Si3 0.697196 0.320978 0.750000
Si Si4 0.611471 0.678161 0.601879
Si Si5 0.000000 0.173079 0.144135
Si Si6 0.500000 0.829532 0.606855
Si Si7 0.185275 0.822526 0.750000
Si Si8 0.113199 0.674951 0.101146
O O1 0.660975 0.717350 0.165032
O O2 0.605205 0.500000 0.104676
O O3 0.555318 0.749678 0.133583
O O4 0.620827 0.720957 0.000000
O O5 0.946265 0.745078 0.111669
O O6 0.846568 0.759047 0.165959
O O7 0.888752 0.500000 0.123513
O O8 0.869738 0.689144 0.000000
O O9 0.705989 0.500000 0.750000
O O10 0.660975 0.282650 0.834968
O O11 0.753916 0.238315 0.750000
O O12 0.620827 0.720957 0.500000
O O13 0.555318 0.749678 0.633583
O O14 0.000000 0.177971 0.250000
O O15 0.946265 0.254922 0.111669
O O16 0.000000 0.000000 0.117455
O O17 0.500000 0.824753 0.500000
O O18 0.500000 0.000000 0.634790
O O19 0.153432 0.759047 0.834041
O O20 0.183680 0.000000 0.750000
O O21 0.130262 0.689144 0.000000
#
# Coordination Sequence:
#
# PCOD9394712 Si02
#       8
#     8   8   8   8   8   8   8   8
#     4   9  18  34  56  80 108 144 185 230 282 340
#     4  11  24  42  66  93 121 159 204 247 293 349
#     4  10  22  39  58  81 109 146 195 244 286 340
#     4   9  18  34  56  80 108 144 185 230 282 340
#     4  11  22  37  62  97 132 163 192 237 301 357
#     4   9  17  30  51  80 113 145 178 223 281 342
#     4  12  26  43  62  87 120 158 199 248 305 356
#     4  11  24  42  66  93 121 159 204 247 293 349
#
# _framework density 18.872235
#
# number of rings (size 3 to 8) (size 9 to 14) (size 15 to 20)
#    0.000    1.750    1.250    3.000    0.000    8.000 
#    0.000    5.000    0.000    0.000    0.000    0.000 
#    0.000    0.000    0.000    0.000    0.000    0.000 
#
# Total GULP energy -357709.223329 kJ/mol
# GULP energy per Si atom -5589.206615 kJ/mol
# Density = 1.882928 g / cm^3
# Si number density = 18.872235 Si / 1000 Ang^3
#
#
#
# Elastic Constant Matrix: (Units=GPa)
#
#
# Indices 1 2 3 4 5 6 
#
# 1 193.3132 95.7787 82.0933 0.0000 0.0000 0.0000
# 2 95.7787 119.7518 68.0524 0.0000 0.0000 0.0000
# 3 82.0933 68.0524 108.1753 0.0000 0.0000 0.0000
# 4 0.0000 0.0000 0.0000 -45.4701 0.0000 0.0000
# 5 0.0000 0.0000 0.0000 0.0000 -79.9943 0.0000
# 6 0.0000 0.0000 0.0000 0.0000 0.0000 250.7815
#
#
#
# Elastic Compliance Matrix: (Units=1/GPa)
#
#
# Indices 1 2 3 4 5 6 
#
# 1 0.009461 -0.005427 -0.003766 0.000000 0.000000 0.000000
# 2 -0.005427 0.016110 -0.006016 0.000000 0.000000 0.000000
# 3 -0.003766 -0.006016 0.015887 0.000000 0.000000 0.000000
# 4 0.000000 0.000000 0.000000 -0.021992 0.000000 0.000000
# 5 0.000000 0.000000 0.000000 0.000000 -0.012501 0.000000
# 6 0.000000 0.000000 0.000000 0.000000 0.000000 0.003988
#
#
# Mechanical properties :
#
#
# Convention : Reuss Voigt Hill
#
# Bulk Modulus (GPa) = 90.58065 101.45434 96.01749
# Shear Modulus (GPa) = 110.98755 36.75115 73.86935
#
# Velocity S-wave (km/s) = 7.67709 4.41768 6.26313
# Velocity P-wave (km/s) = 11.25542 8.93848 10.16319
#
# Compressibility (1/GPa) = 0.01103989
#
# Stress axis : x y z
#
# Youngs Moduli (GPa) = 105.69712 62.07297 62.94512
#
# Poissons Ratio (x) = 0.33687 0.23704
# Poissons Ratio (y) = 0.57362 0.37869
# Poissons Ratio (z) = 0.39803 0.37345
#
# Static dielectric constant tensor:
#      x y z
#    x 1.604990 0.000000 0.000000 
#    y 0.000000 1.629230 0.000000 
#    z 0.000000 0.000000 1.675560 
# 
# From -- ./inp_files/14514.got.cif
#   From: 2010.05.17/outbox.cif.g08.bks.cpg/sg49_8_cif.got.tgz:14514.got - 2010.06.03 21:02:19.
