data_PCOD9394987
_publ_section_title
;
Structure prediction by ZEFSAII (Michael W. Deem and Ramdas Pophale) SiO2 
 PCOD9394987
Probable space group: P C C M
;
_chemical_formula_sum "Si O2"
_cell_formula_units_Z 56
_cell_length_a 8.954183
_cell_length_b 15.368720
_cell_length_c 21.120329
_cell_angle_alpha 90.000000
_cell_angle_beta 90.000000
_cell_angle_gamma 90.000000
_cell_volume 2906.459953
_symmetry_space_group_name_H-M "P C C M"
_symmetry_group_IT_number 49
_symmetry_cell_setting 'orthorhombic'
loop_
_space_group_symop_operation_xyz
x,y,z
-x,-y,z
x,-y,1/2-z
-x,y,1/2-z
-x,-y,-z
x,y,-z
-x,y,1/2+z
x,-y,1/2+z
loop_
_atom_site_type_symbol
_atom_site_label
_atom_site_fract_x
_atom_site_fract_y
_atom_site_fract_z
Si Si1 0.314753 0.899800 0.818435
Si Si2 0.849913 0.422246 0.927479
Si Si3 0.677002 0.722003 0.626873
Si Si4 0.350386 0.760789 0.572696
Si Si5 0.678149 0.096430 0.673180
Si Si6 0.320141 0.601514 0.750880
Si Si7 0.179172 0.604852 0.619203
O O1 0.264552 0.819103 0.860781
O O2 0.273762 0.881314 0.745068
O O3 0.496341 0.902128 0.822725
O O4 0.269038 0.997178 0.837561
O O5 0.754732 0.335316 0.925703
O O6 0.767520 0.506697 0.897879
O O7 0.001671 0.403800 0.888813
O O8 0.883235 0.442747 0.000000
O O9 0.503848 0.731177 0.607366
O O10 0.709199 0.663863 0.689625
O O11 0.378902 0.788600 0.500000
O O12 0.283859 0.837135 0.617239
O O13 0.242902 0.677539 0.572911
O O14 0.272190 0.500000 0.750000
O O15 0.500000 0.601319 0.750000
O O16 0.239971 0.634209 0.687452
#
# Coordination Sequence:
#
# PCOD9394987 Si02
#       7
#     8   8   8   8   8   8   8
#     4   8  15  29  53  78 108 145 178 231 300 345
#     4  11  24  41  55  77 115 156 196 231 273 347
#     4  11  21  35  55  84 115 146 187 236 296 338
#     4  11  21  34  56  85 112 150 195 238 284 345
#     4   8  15  30  51  80 109 140 184 234 289 346
#     4  11  21  36  56  85 116 140 180 246 294 328
#     4  11  22  40  59  77 107 154 194 234 282 334
#
# _framework density 19.267424999999999
#
# number of rings (size 3 to 8) (size 9 to 14) (size 15 to 20)
#    0.000    1.857    2.857    3.857    2.000    1.143 
#    0.000    7.857    0.000    0.857    0.000    4.000 
#    0.000    0.000    0.000    0.000    0.000    0.000 
#
# Total GULP energy -311919.537894 kJ/mol
# GULP energy per Si atom -5569.991748 kJ/mol
# Density = 1.922357 g / cm^3
# Si number density = 19.267425 Si / 1000 Ang^3
#
#
#
# Elastic Constant Matrix: (Units=GPa)
#
#
# Indices 1 2 3 4 5 6 
#
# 1 15.0482 21.7593 17.0074 0.0000 0.0000 0.0000
# 2 21.7593 141.8690 53.7662 0.0000 0.0000 0.0000
# 3 17.0074 53.7662 124.5177 0.0000 0.0000 0.0000
# 4 0.0000 0.0000 0.0000 99.5320 0.0000 0.0000
# 5 0.0000 0.0000 0.0000 0.0000 27.1866 0.0000
# 6 0.0000 0.0000 0.0000 0.0000 0.0000 8.6926
#
#
#
# Elastic Compliance Matrix: (Units=1/GPa)
#
#
# Indices 1 2 3 4 5 6 
#
# 1 0.091126 -0.011071 -0.007666 0.000000 0.000000 0.000000
# 2 -0.011071 0.009773 -0.002708 0.000000 0.000000 0.000000
# 3 -0.007666 -0.002708 0.010247 0.000000 0.000000 0.000000
# 4 0.000000 0.000000 0.000000 0.010047 0.000000 0.000000
# 5 0.000000 0.000000 0.000000 0.000000 0.036783 0.000000
# 6 0.000000 0.000000 0.000000 0.000000 0.000000 0.115040
#
#
# Mechanical properties :
#
#
# Convention : Reuss Voigt Hill
#
# Bulk Modulus (GPa) = 14.65073 51.83342 33.24207
# Shear Modulus (GPa) = 14.76417 39.67572 27.21995
#
# Velocity S-wave (km/s) = 2.77117 4.54278 3.76273
# Velocity P-wave (km/s) = 4.22606 7.38080 6.01398
#
# Compressibility (1/GPa) = 0.06825598
#
# Stress axis : x y z
#
# Youngs Moduli (GPa) = 10.97386 102.32245 97.58706
#
# Poissons Ratio (x) = 1.13283 0.74810
# Poissons Ratio (y) = 0.12149 0.26424
# Poissons Ratio (z) = 0.08413 0.27707
#
# Static dielectric constant tensor:
#      x y z
#    x 1.672800 0.000000 0.000000 
#    y 0.000000 1.705540 0.000000 
#    z 0.000000 0.000000 1.715180 
# 
# From -- ./inp_files/19895.got.cif
#   From: 2010.05.17/outbox.cif.g08.bks.cpg/sg49_10_cif.got.tgz:19895.got - 2010.06.03 21:02:19.
