data_PCOD9394494
_publ_section_title
;
Structure prediction by ZEFSAII (Michael W. Deem and Ramdas Pophale) SiO2 
 PCOD9394494
Probable space group: P C C M
;
_chemical_formula_sum "Si O2"
_cell_formula_units_Z 40
_cell_length_a 13.749303
_cell_length_b 9.232055
_cell_length_c 15.592823
_cell_angle_alpha 90.000000
_cell_angle_beta 90.000000
_cell_angle_gamma 90.000000
_cell_volume 1979.264408
_symmetry_space_group_name_H-M "P C C M"
_symmetry_group_IT_number 49
_symmetry_cell_setting 'orthorhombic'
loop_
_space_group_symop_operation_xyz
x,y,z
-x,-y,z
x,-y,1/2-z
-x,y,1/2-z
-x,-y,-z
x,y,-z
-x,y,1/2+z
x,-y,1/2+z
loop_
_atom_site_type_symbol
_atom_site_label
_atom_site_fract_x
_atom_site_fract_y
_atom_site_fract_z
Si Si1 0.595447 0.070949 0.901988
Si Si2 0.109167 0.566416 0.500000
Si Si3 0.562114 0.626942 0.339029
Si Si4 0.806523 0.926262 0.663219
Si Si5 0.793734 0.582850 0.334836
Si Si6 0.897585 0.918344 0.000000
O O1 0.568257 0.238044 0.900523
O O2 0.690495 0.054202 0.845558
O O3 0.500000 0.000000 0.864441
O O4 0.612333 0.020443 0.000000
O O5 0.166602 0.503832 0.417162
O O6 0.000000 0.500000 0.500000
O O7 0.102436 0.742661 0.500000
O O8 0.500000 0.500000 0.379752
O O9 0.500000 0.657621 0.250000
O O10 0.675532 0.584882 0.327810
O O11 0.825087 0.752820 0.659996
O O12 0.846753 0.016449 0.583827
O O13 0.842522 0.000000 0.750000
O O14 0.830379 0.500000 0.250000
O O15 0.000000 0.000000 0.000000
#
# Coordination Sequence:
#
# PCOD9394494 Si02
#       6
#     8   4   8   8   8   4
#     4  10  23  38  58  92 134 178 230 279 333 401
#     4  12  28  48  75 106 135 180 231 296 362 426
#     4  10  21  38  60  94 136 179 231 275 336 406
#     4  11  24  42  69 100 138 184 231 287 349 416
#     4  11  23  44  70 101 142 184 233 289 348 416
#     4  12  26  50  75 102 137 170 231 294 358 428
#
# _framework density 20.209527000000001
#
# number of rings (size 3 to 8) (size 9 to 14) (size 15 to 20)
#    0.000    1.200    3.000    3.000    9.800    2.800 
#    0.000    4.000    0.000    0.000    0.000    0.000 
#    0.000    0.000    0.000    0.000    0.000    0.000 
#
# Total GULP energy -223052.090188 kJ/mol
# GULP energy per Si atom -5576.302255 kJ/mol
# Density = 2.016353 g / cm^3
# Si number density = 20.209527 Si / 1000 Ang^3
#
#
#
# Elastic Constant Matrix: (Units=GPa)
#
#
# Indices 1 2 3 4 5 6 
#
# 1 73.8476 60.3228 46.5544 0.0000 0.0000 0.0000
# 2 60.3228 174.7079 75.9247 0.0000 0.0000 0.0000
# 3 46.5544 75.9247 159.3435 0.0000 0.0000 0.0000
# 4 0.0000 0.0000 0.0000 37.1093 0.0000 0.0000
# 5 0.0000 0.0000 0.0000 0.0000-1969.9303 0.0000
# 6 0.0000 0.0000 0.0000 0.0000 0.0000 34.1622
#
#
#
# Elastic Compliance Matrix: (Units=1/GPa)
#
#
# Indices 1 2 3 4 5 6 
#
# 1 0.020102 -0.005535 -0.003236 0.000000 0.000000 0.000000
# 2 -0.005535 0.008742 -0.002549 0.000000 0.000000 0.000000
# 3 -0.003236 -0.002549 0.008436 0.000000 0.000000 0.000000
# 4 0.000000 0.000000 0.000000 0.026947 0.000000 0.000000
# 5 0.000000 0.000000 0.000000 0.000000 -0.000508 0.000000
# 6 0.000000 0.000000 0.000000 0.000000 0.000000 0.029272
#
#
# Mechanical properties :
#
#
# Convention : Reuss Voigt Hill
#
# Bulk Modulus (GPa) = 68.29723 85.94477 77.12100
# Shear Modulus (GPa) = 41.48984 -364.72530 -161.61773
#
# Velocity S-wave (km/s) = 4.53590 -13.44856 -8.95236
# Velocity P-wave (km/s) = 7.82946 14.09016 8.28348
#
# Compressibility (1/GPa) = 0.01464188
#
# Stress axis : x y z
#
# Youngs Moduli (GPa) = 49.74522 114.38513 118.54555
#
# Poissons Ratio (x) = 0.63308 0.38362
# Poissons Ratio (y) = 0.27532 0.30213
# Poissons Ratio (z) = 0.16098 0.29152
#
# Static dielectric constant tensor:
#      x y z
#    x 1.761370 0.000000 0.000000 
#    y 0.000000 1.374980 0.000000 
#    z 0.000000 0.000000 1.713900 
# 
# From -- ./inp_files/13376.got.cif
#   From: 2010.05.17/outbox.cif.g08.bks.cpg/sg49_7_cif.got.tgz:13376.got - 2010.06.03 21:02:19.
