data_PCOD9394111
_publ_section_title
;
Structure prediction by ZEFSAII (Michael W. Deem and Ramdas Pophale) SiO2 
 PCOD9394111
Probable space group: P C C M
;
_chemical_formula_sum "Si O2"
_cell_formula_units_Z 56
_cell_length_a 15.705942
_cell_length_b 10.181971
_cell_length_c 16.179685
_cell_angle_alpha 90.000000
_cell_angle_beta 90.000000
_cell_angle_gamma 90.000000
_cell_volume 2587.413902
_symmetry_space_group_name_H-M "P C C M"
_symmetry_group_IT_number 49
_symmetry_cell_setting 'orthorhombic'
loop_
_space_group_symop_operation_xyz
x,y,z
-x,-y,z
x,-y,1/2-z
-x,y,1/2-z
-x,-y,-z
x,y,-z
-x,y,1/2+z
x,-y,1/2+z
loop_
_atom_site_type_symbol
_atom_site_label
_atom_site_fract_x
_atom_site_fract_y
_atom_site_fract_z
Si Si1 0.310538 0.776916 0.128791
Si Si2 0.929464 0.611125 0.592274
Si Si3 0.029703 0.136066 0.154069
Si Si4 0.759245 0.496980 0.405534
Si Si5 0.659809 0.742968 0.175087
Si Si6 0.215781 0.034326 0.847288
Si Si7 0.499188 0.148139 0.904860
O O1 0.287448 0.636150 0.093235
O O2 0.323245 0.758971 0.227595
O O3 0.402483 0.814281 0.095509
O O4 0.239640 0.891834 0.113716
O O5 0.898239 0.642814 0.500000
O O6 0.849144 0.541315 0.635517
O O7 0.000000 0.500000 0.588997
O O8 0.977758 0.739411 0.623078
O O9 0.130931 0.122797 0.139180
O O10 0.000000 0.131691 0.250000
O O11 0.000000 0.000000 0.114056
O O12 0.772561 0.447656 0.500000
O O13 0.705711 0.388188 0.356951
O O14 0.705741 0.869966 0.135068
O O15 0.561617 0.757768 0.148719
O O16 0.209740 0.000000 0.750000
O O17 0.500000 0.000000 0.870466
O O18 0.467841 0.147165 0.000000
#
# Coordination Sequence:
#
# PCOD9394111 Si02
#       7
#     8   8   8   8   8   8   8
#     4  11  23  41  67  96 132 169 216 272 333 386
#     4  10  23  43  62  86 127 173 218 265 322 395
#     4  11  21  37  62  94 129 163 215 267 329 382
#     4  11  24  43  63  93 132 173 218 272 333 390
#     4  11  23  40  67  94 129 169 221 268 327 389
#     4  10  20  37  61  95 128 165 209 275 324 386
#     4  11  23  42  66  98 133 170 216 266 331 401
#
# _framework density 21.643231
#
# number of rings (size 3 to 8) (size 9 to 14) (size 15 to 20)
#    0.000    1.286    2.857    3.429    2.000    1.714 
#    2.571    5.000    0.000    0.000    0.000    0.000 
#    0.000    0.000    0.000    0.000    0.000    0.000 
#
# Total GULP energy -312341.468585 kJ/mol
# GULP energy per Si atom -5577.526225 kJ/mol
# Density = 2.159397 g / cm^3
# Si number density = 21.643231 Si / 1000 Ang^3
#
#
#
# Elastic Constant Matrix: (Units=GPa)
#
#
# Indices 1 2 3 4 5 6 
#
# 1 120.8518 34.8590 14.3706 0.0000 0.0000 0.0000
# 2 34.8590 133.2590 29.8629 0.0000 0.0000 0.0000
# 3 14.3706 29.8629 57.3817 0.0000 0.0000 0.0000
# 4 0.0000 0.0000 0.0000 39.9506 0.0000 0.0000
# 5 0.0000 0.0000 0.0000 0.0000 56.1710 0.0000
# 6 0.0000 0.0000 0.0000 0.0000 0.0000 45.1984
#
#
#
# Elastic Compliance Matrix: (Units=1/GPa)
#
#
# Indices 1 2 3 4 5 6 
#
# 1 0.009018 -0.002098 -0.001167 0.000000 0.000000 0.000000
# 2 -0.002098 0.008983 -0.004150 0.000000 0.000000 0.000000
# 3 -0.001167 -0.004150 0.019879 0.000000 0.000000 0.000000
# 4 0.000000 0.000000 0.000000 0.025031 0.000000 0.000000
# 5 0.000000 0.000000 0.000000 0.000000 0.017803 0.000000
# 6 0.000000 0.000000 0.000000 0.000000 0.000000 0.022125
#
#
# Mechanical properties :
#
#
# Convention : Reuss Voigt Hill
#
# Bulk Modulus (GPa) = 43.38021 52.18639 47.78330
# Shear Modulus (GPa) = 39.88810 43.75732 41.82271
#
# Velocity S-wave (km/s) = 4.29765 4.50127 4.40064
# Velocity P-wave (km/s) = 6.68680 7.15400 6.92434
#
# Compressibility (1/GPa) = 0.02305199
#
# Stress axis : x y z
#
# Youngs Moduli (GPa) = 110.88442 111.32396 50.30450
#
# Poissons Ratio (x) = 0.23351 0.05870
# Poissons Ratio (y) = 0.23259 0.20874
# Poissons Ratio (z) = 0.12939 0.46194
#
# Static dielectric constant tensor:
#      x y z
#    x 1.947100 0.000000 0.000000 
#    y 0.000000 1.775700 0.000000 
#    z 0.000000 0.000000 1.766610 
# 
# From -- ./inp_files/20844.got.cif
#   From: 2010.05.17/outbox.cif.g08.bks.cpg/sg49_11_cif.got.tgz:20844.got - 2010.06.03 21:02:19.
