data_PCOD9394006
_publ_section_title
;
Structure prediction by ZEFSAII (Michael W. Deem and Ramdas Pophale) SiO2 
 PCOD9394006
Probable space group: P C C M
;
_chemical_formula_sum "Si O2"
_cell_formula_units_Z 40
_cell_length_a 10.083778
_cell_length_b 9.793803
_cell_length_c 14.970153
_cell_angle_alpha 90.000000
_cell_angle_beta 90.000000
_cell_angle_gamma 90.000000
_cell_volume 1478.430382
_symmetry_space_group_name_H-M "P C C M"
_symmetry_group_IT_number 49
_symmetry_cell_setting 'orthorhombic'
loop_
_space_group_symop_operation_xyz
x,y,z
-x,-y,z
x,-y,1/2-z
-x,y,1/2-z
-x,-y,-z
x,y,-z
-x,y,1/2+z
x,-y,1/2+z
loop_
_atom_site_type_symbol
_atom_site_label
_atom_site_fract_x
_atom_site_fract_y
_atom_site_fract_z
Si Si1 0.165088 0.770339 0.102906
Si Si2 0.786329 0.516886 0.856885
Si Si3 0.612648 0.092021 0.397032
Si Si4 0.438726 0.669711 0.152372
Si Si5 0.884312 0.821685 0.106656
O O1 0.130162 0.607657 0.102759
O O2 0.305348 0.766751 0.153406
O O3 0.033609 0.839253 0.141330
O O4 0.187705 0.810502 0.000000
O O5 0.793899 0.500000 0.750000
O O6 0.635189 0.468443 0.881153
O O7 0.834036 0.665735 0.881458
O O8 0.626708 0.048310 0.500000
O O9 0.548386 0.243084 0.398481
O O10 0.760178 0.091719 0.358115
O O11 0.500000 0.000000 0.353335
O O12 0.500000 0.652730 0.250000
O O13 0.894930 0.845658 0.000000
#
# Coordination Sequence:
#
# PCOD9394006 Si02
#       5
#     8   8   8   8   8
#     4   9  20  37  59  87 122 161 200 249 308 373
#     4  10  21  34  57  87 127 160 199 253 309 376
#     4  10  22  40  60  83 116 158 208 260 310 363
#     4  10  22  38  57  85 120 158 199 250 310 376
#     4  10  20  36  59  89 121 161 208 252 308 375
#
# _framework density 27.055720999999998
#
# number of rings (size 3 to 8) (size 9 to 14) (size 15 to 20)
#    1.200    1.000    0.000    3.000    0.000    6.400 
#    0.000    3.000    0.000    4.800    0.000    2.800 
#    0.000    0.000    0.000    0.000    0.000    0.400 
#
# Total GULP energy -223409.725102 kJ/mol
# GULP energy per Si atom -5585.243128 kJ/mol
# Density = 2.699414 g / cm^3
# Si number density = 27.055721 Si / 1000 Ang^3
#
#
#
# Elastic Constant Matrix: (Units=GPa)
#
#
# Indices 1 2 3 4 5 6 
#
# 1 271.5605 51.8578 19.6054 0.0000 0.0000 0.0000
# 2 51.8578 104.6922 7.1263 0.0000 0.0000 0.0000
# 3 19.6054 7.1263 71.7406 0.0000 0.0000 0.0000
# 4 0.0000 0.0000 0.0000 -40.7543 0.0000 0.0000
# 5 0.0000 0.0000 0.0000 0.0000 33.5110 0.0000
# 6 0.0000 0.0000 0.0000 0.0000 0.0000 37.4938
#
#
#
# Elastic Compliance Matrix: (Units=1/GPa)
#
#
# Indices 1 2 3 4 5 6 
#
# 1 0.004128 -0.001981 -0.000931 0.000000 0.000000 0.000000
# 2 -0.001981 0.010568 -0.000508 0.000000 0.000000 0.000000
# 3 -0.000931 -0.000508 0.014244 0.000000 0.000000 0.000000
# 4 0.000000 0.000000 0.000000 -0.024537 0.000000 0.000000
# 5 0.000000 0.000000 0.000000 0.000000 0.029841 0.000000
# 6 0.000000 0.000000 0.000000 0.000000 0.000000 0.026671
#
#
# Mechanical properties :
#
#
# Convention : Reuss Voigt Hill
#
# Bulk Modulus (GPa) = 45.25278 67.24140 56.24709
# Shear Modulus (GPa) = 66.55789 30.67703 48.61746
#
# Velocity S-wave (km/s) = 4.96525 3.37092 4.24363
# Velocity P-wave (km/s) = 7.04512 6.32911 6.69669
#
# Compressibility (1/GPa) = 0.02209809
#
# Stress axis : x y z
#
# Youngs Moduli (GPa) = 242.24679 94.62663 70.20447
#
# Poissons Ratio (x) = 0.18749 0.06538
# Poissons Ratio (y) = 0.47998 0.03568
# Poissons Ratio (z) = 0.22560 0.04810
#
# Static dielectric constant tensor:
#      x y z
#    x 2.199140 0.000000 0.000000 
#    y 0.000000 2.303620 0.000000 
#    z 0.000000 0.000000 2.020780 
# 
# From -- ./inp_files/15973.got.cif
#   From: 2010.05.17/outbox.cif.g08.bks.cpg/sg49_8_cif.got.tgz:15973.got - 2010.06.03 21:02:19.
