data_PCOD9394143
_publ_section_title
;
Structure prediction by ZEFSAII (Michael W. Deem and Ramdas Pophale) SiO2 
 PCOD9394143
Probable space group: P C C M
;
_chemical_formula_sum "Si O2"
_cell_formula_units_Z 64
_cell_length_a 12.468629
_cell_length_b 15.464770
_cell_length_c 16.087324
_cell_angle_alpha 90.000000
_cell_angle_beta 90.000000
_cell_angle_gamma 90.000000
_cell_volume 3102.029880
_symmetry_space_group_name_H-M "P C C M"
_symmetry_group_IT_number 49
_symmetry_cell_setting 'orthorhombic'
loop_
_space_group_symop_operation_xyz
x,y,z
-x,-y,z
x,-y,1/2-z
-x,y,1/2-z
-x,-y,-z
x,y,-z
-x,y,1/2+z
x,-y,1/2+z
loop_
_atom_site_type_symbol
_atom_site_label
_atom_site_fract_x
_atom_site_fract_y
_atom_site_fract_z
Si Si1 0.173920 0.536294 0.595672
Si Si2 0.544403 0.097325 0.399918
Si Si3 0.834659 0.214397 0.856811
Si Si4 0.241103 0.903910 0.706367
Si Si5 0.980905 0.097837 0.350802
Si Si6 0.976484 0.384102 0.842839
Si Si7 0.394705 0.257061 0.406608
Si Si8 0.390259 0.451243 0.601836
O O1 0.196090 0.550940 0.500000
O O2 0.096466 0.453312 0.608929
O O3 0.287338 0.505911 0.634023
O O4 0.097701 0.616242 0.621831
O O5 0.565864 0.104427 0.500000
O O6 0.648393 0.104866 0.342137
O O7 0.460551 0.173530 0.374958
O O8 0.500000 0.000000 0.387061
O O9 0.780845 0.166421 0.777898
O O10 0.905365 0.298556 0.837388
O O11 0.731304 0.235821 0.910255
O O12 0.926626 0.152671 0.893174
O O13 0.144744 0.887019 0.641034
O O14 0.231278 0.000000 0.750000
O O15 0.000000 0.108064 0.250000
O O16 0.000000 0.000000 0.373004
O O17 0.000000 0.412466 0.750000
O O18 0.437624 0.268961 0.500000
O O19 0.398283 0.352325 0.365847
O O20 0.500000 0.500000 0.620247
O O21 0.379120 0.445919 0.500000
#
# Coordination Sequence:
#
# PCOD9394143 Si02
#       8
#     8   8   8   8   8   8   8   8
#     4  10  20  37  64  89 113 157 207 247 296 374
#     4  10  23  41  62  91 126 163 206 262 319 361
#     4  11  21  35  61  90 117 160 204 248 301 371
#     4  11  20  37  64  87 120 165 210 247 295 368
#     4   9  16  33  55  83 112 153 197 239 289 345
#     4  11  21  35  56  86 126 153 187 248 317 363
#     4  10  21  39  61  87 122 159 201 254 310 365
#     4   9  18  37  63  86 113 157 208 252 302 364
#
# _framework density 20.631651999999999
#
# number of rings (size 3 to 8) (size 9 to 14) (size 15 to 20)
#    0.000    1.875    3.750    3.375    0.000    2.250 
#    4.500    0.625    0.000    4.500    0.000    0.000 
#    0.000    0.000    0.000    0.000    0.000    0.000 
#
# Total GULP energy -356275.831337 kJ/mol
# GULP energy per Si atom -5566.809865 kJ/mol
# Density = 2.058469 g / cm^3
# Si number density = 20.631652 Si / 1000 Ang^3
#
#
#
# Elastic Constant Matrix: (Units=GPa)
#
#
# Indices 1 2 3 4 5 6 
#
# 1 188.2631 78.6654 26.1348 0.0000 0.0000 0.0000
# 2 78.6654 104.5424 23.7731 0.0000 0.0000 0.0000
# 3 26.1348 23.7731 28.6085 0.0000 0.0000 0.0000
# 4 0.0000 0.0000 0.0000 12.9245 0.0000 0.0000
# 5 0.0000 0.0000 0.0000 0.0000 123.5071 0.0000
# 6 0.0000 0.0000 0.0000 0.0000 0.0000 177.6280
#
#
#
# Elastic Compliance Matrix: (Units=1/GPa)
#
#
# Indices 1 2 3 4 5 6 
#
# 1 0.007928 -0.005325 -0.002818 0.000000 0.000000 0.000000
# 2 -0.005325 0.015371 -0.007908 0.000000 0.000000 0.000000
# 3 -0.002818 -0.007908 0.044100 0.000000 0.000000 0.000000
# 4 0.000000 0.000000 0.000000 0.077373 0.000000 0.000000
# 5 0.000000 0.000000 0.000000 0.000000 0.008097 0.000000
# 6 0.000000 0.000000 0.000000 0.000000 0.000000 0.005630
#
#
# Mechanical properties :
#
#
# Convention : Reuss Voigt Hill
#
# Bulk Modulus (GPa) = 28.33068 64.28451 46.30759
# Shear Modulus (GPa) = 24.70788 75.66797 50.18792
#
# Velocity S-wave (km/s) = 3.46435 6.06261 4.93746
# Velocity P-wave (km/s) = 5.45562 8.95728 7.41609
#
# Compressibility (1/GPa) = 0.03529742
#
# Stress axis : x y z
#
# Youngs Moduli (GPa) = 126.13869 65.05938 22.67559
#
# Poissons Ratio (x) = 0.34642 0.06389
# Poissons Ratio (y) = 0.67165 0.17933
# Poissons Ratio (z) = 0.35540 0.51451
#
# Static dielectric constant tensor:
#      x y z
#    x 1.771140 0.000000 0.000000 
#    y 0.000000 1.765560 0.000000 
#    z 0.000000 0.000000 1.742940 
# 
# From -- ./inp_files/17298.got.cif
#   From: 2010.05.17/outbox.cif.g08.bks.cpg/sg49_9_cif.got.tgz:17298.got - 2010.06.03 21:02:19.
