data_PCOD9394534
_publ_section_title
;
Structure prediction by ZEFSAII (Michael W. Deem and Ramdas Pophale) SiO2 
 PCOD9394534
Probable space group: P C C M
;
_chemical_formula_sum "Si O2"
_cell_formula_units_Z 28
_cell_length_a 5.291270
_cell_length_b 7.014083
_cell_length_c 29.531686
_cell_angle_alpha 90.000000
_cell_angle_beta 90.000000
_cell_angle_gamma 90.000000
_cell_volume 1096.021481
_symmetry_space_group_name_H-M "P C C M"
_symmetry_group_IT_number 49
_symmetry_cell_setting 'orthorhombic'
loop_
_space_group_symop_operation_xyz
x,y,z
-x,-y,z
x,-y,1/2-z
-x,y,1/2-z
-x,-y,-z
x,y,-z
-x,y,1/2+z
x,-y,1/2+z
loop_
_atom_site_type_symbol
_atom_site_label
_atom_site_fract_x
_atom_site_fract_y
_atom_site_fract_z
Si Si1 0.251890 0.714853 0.229857
Si Si2 0.248789 0.630465 0.500000
Si Si3 0.568192 0.773884 0.629726
Si Si4 0.067738 0.780047 0.592455
O O1 0.250814 0.500000 0.250000
O O2 0.500000 0.805709 0.250000
O O3 0.290931 0.728356 0.176475
O O4 0.000000 0.800639 0.250000
O O5 0.500000 0.500000 0.500000
O O6 0.000000 0.500000 0.500000
O O7 0.210844 0.758835 0.544752
O O8 0.779225 0.702342 0.593453
O O9 0.280933 0.695349 0.626362
O O10 0.500000 0.000000 0.625847
O O11 0.000000 0.000000 0.602907
#
# Coordination Sequence:
#
# PCOD9394534 Si02
#       4
#     8   4   8   8
#     4  10  21  39  57  89 126 162 212 257 334 393
#     4  12  25  44  61 104 136 164 216 270 333 402
#     4  10  21  40  65  93 122 168 226 270 315 388
#     4  10  22  43  68  92 128 176 218 266 329 392
#
# _framework density 25.546944
#
# number of rings (size 3 to 8) (size 9 to 14) (size 15 to 20)
#    0.000    1.714    0.000    3.857    0.000    0.571 
#   30.857    7.143    0.000    0.000    0.000    0.000 
#    0.000    0.000    0.000    0.000    0.000    0.000 
#
# Total GULP energy -156221.848904 kJ/mol
# GULP energy per Si atom -5579.351747 kJ/mol
# Density = 2.548880 g / cm^3
# Si number density = 25.546944 Si / 1000 Ang^3
#
#
#
# Elastic Constant Matrix: (Units=GPa)
#
#
# Indices 1 2 3 4 5 6 
#
# 1 307.2470 45.0175 74.7026 0.0000 0.0000 0.0000
# 2 45.0175 107.3665 -6.7211 0.0000 0.0000 0.0000
# 3 74.7026 -6.7211 121.9122 0.0000 0.0000 0.0000
# 4 0.0000 0.0000 0.0000 59.5546 0.0000 0.0000
# 5 0.0000 0.0000 0.0000 0.0000 46.5227 0.0000
# 6 0.0000 0.0000 0.0000 0.0000 0.0000 -36.7147
#
#
#
# Elastic Compliance Matrix: (Units=1/GPa)
#
#
# Indices 1 2 3 4 5 6 
#
# 1 0.004186 -0.001922 -0.002671 0.000000 0.000000 0.000000
# 2 -0.001922 0.010229 0.001742 0.000000 0.000000 0.000000
# 3 -0.002671 0.001742 0.009935 0.000000 0.000000 0.000000
# 4 0.000000 0.000000 0.000000 0.016791 0.000000 0.000000
# 5 0.000000 0.000000 0.000000 0.000000 0.021495 0.000000
# 6 0.000000 0.000000 0.000000 0.000000 0.000000 -0.027237
#
#
# Mechanical properties :
#
#
# Convention : Reuss Voigt Hill
#
# Bulk Modulus (GPa) = 53.62698 84.72485 69.17592
# Shear Modulus (GPa) = 105.66982 42.10764 73.88873
#
# Velocity S-wave (km/s) = 6.43838 4.06426 5.38382
# Velocity P-wave (km/s) = 8.73542 7.43375 8.11074
#
# Compressibility (1/GPa) = 0.01864733
#
# Stress axis : x y z
#
# Youngs Moduli (GPa) = 238.90767 97.76239 100.65221
#
# Poissons Ratio (x) = 0.18792 0.26882
# Poissons Ratio (y) = 0.45923 -0.17531
# Poissons Ratio (z) = 0.63808 -0.17028
#
# Static dielectric constant tensor:
#      x y z
#    x 2.010480 0.000000 0.000000 
#    y 0.000000 2.040200 0.000000 
#    z 0.000000 0.000000 2.205470 
# 
# From -- ./inp_files/23642.got.cif
#   From: 2010.05.17/outbox.cif.g08.bks.cpg/sg49_12_cif.got.tgz:23642.got - 2010.06.03 21:02:19.
