data_PCOD9394896
_publ_section_title
;
Structure prediction by ZEFSAII (Michael W. Deem and Ramdas Pophale) SiO2 
 PCOD9394896
Probable space group: P C C M
;
_chemical_formula_sum "Si O2"
_cell_formula_units_Z 20
_cell_length_a 18.526241
_cell_length_b 4.716058
_cell_length_c 9.060408
_cell_angle_alpha 90.000000
_cell_angle_beta 90.000000
_cell_angle_gamma 90.000000
_cell_volume 791.615341
_symmetry_space_group_name_H-M "P C C M"
_symmetry_group_IT_number 49
_symmetry_cell_setting 'orthorhombic'
loop_
_space_group_symop_operation_xyz
x,y,z
-x,-y,z
x,-y,1/2-z
-x,y,1/2-z
-x,-y,-z
x,y,-z
-x,y,1/2+z
x,-y,1/2+z
loop_
_atom_site_type_symbol
_atom_site_label
_atom_site_fract_x
_atom_site_fract_y
_atom_site_fract_z
Si Si1 0.500000 0.000000 0.000000
Si Si2 0.000000 0.000000 0.250000
Si Si3 0.908781 0.699766 0.500000
Si Si4 0.276756 0.500000 0.250000
Si Si5 0.187288 0.803628 0.500000
Si Si6 0.384530 0.463355 0.500000
O O1 0.452801 0.732827 0.000000
O O2 0.580644 0.780560 0.000000
O O3 0.951266 0.804241 0.356211
O O4 0.888510 0.370572 0.500000
O O5 0.832518 0.867562 0.500000
O O6 0.228682 0.705535 0.352551
O O7 0.333632 0.374917 0.364640
#
# Coordination Sequence:
#
# PCOD9394896 Si02
#       6
#     2   2   4   4   4   4
#     4  10  24  42  64  90 124 160 200 250 304 360
#     4  10  24  40  64  92 124 160 204 250 300 360
#     4  11  24  41  62  91 124 161 202 250 302 357
#     4  10  24  41  64  91 122 160 204 250 300 360
#     4  11  24  42  64  90 124 161 202 250 302 357
#     4  10  24  41  62  91 122 158 202 250 302 358
#
# _framework density 25.264797000000002
#
# number of rings (size 3 to 8) (size 9 to 14) (size 15 to 20)
#    0.000    1.600    0.000    2.400    0.000   20.800 
#    0.000    0.000    0.000    0.000    0.000    0.000 
#    0.000    0.000    0.000    0.000    0.000    0.000 
#
# Total GULP energy -111379.337844 kJ/mol
# GULP energy per Si atom -5568.966892 kJ/mol
# Density = 2.520729 g / cm^3
# Si number density = 25.264797 Si / 1000 Ang^3
#
#
#
# Elastic Constant Matrix: (Units=GPa)
#
#
# Indices 1 2 3 4 5 6 
#
# 1 131.1914 22.5936 55.2282 0.0000 0.0000 0.0000
# 2 22.5936 135.4640 10.8687 0.0000 0.0000 0.0000
# 3 55.2282 10.8687 176.7159 0.0000 0.0000 0.0000
# 4 0.0000 0.0000 0.0000 13.4372 0.0000 0.0000
# 5 0.0000 0.0000 0.0000 0.0000 227.7202 0.0000
# 6 0.0000 0.0000 0.0000 0.0000 0.0000 33.7451
#
#
#
# Elastic Compliance Matrix: (Units=1/GPa)
#
#
# Indices 1 2 3 4 5 6 
#
# 1 0.008993 -0.001281 -0.002732 0.000000 0.000000 0.000000
# 2 -0.001281 0.007601 -0.000067 0.000000 0.000000 0.000000
# 3 -0.002732 -0.000067 0.006517 0.000000 0.000000 0.000000
# 4 0.000000 0.000000 0.000000 0.074420 0.000000 0.000000
# 5 0.000000 0.000000 0.000000 0.000000 0.004391 0.000000
# 6 0.000000 0.000000 0.000000 0.000000 0.000000 0.029634
#
#
# Mechanical properties :
#
#
# Convention : Reuss Voigt Hill
#
# Bulk Modulus (GPa) = 66.88400 68.97247 67.92823
# Shear Modulus (GPa) = 34.55437 78.62589 56.59013
#
# Velocity S-wave (km/s) = 3.70224 5.58465 4.73787
# Velocity P-wave (km/s) = 6.69374 8.30322 7.54154
#
# Compressibility (1/GPa) = 0.01495126
#
# Stress axis : x y z
#
# Youngs Moduli (GPa) = 111.19736 131.56099 153.45232
#
# Poissons Ratio (x) = 0.16849 0.41920
# Poissons Ratio (y) = 0.14241 0.01032
# Poissons Ratio (z) = 0.30377 0.00884
#
# Static dielectric constant tensor:
#      x y z
#    x 2.205940 0.000000 0.000000 
#    y 0.000000 2.049630 0.000000 
#    z 0.000000 0.000000 1.497440 
# 
# From -- ./inp_files/803.got.cif
#   From: 2010.05.17/outbox.cif.g08.bks.cpg/sg49_1_cif.got.tgz:803.got - 2010.06.03 21:02:19.
