data_PCOD9394933
_publ_section_title
;
Structure prediction by ZEFSAII (Michael W. Deem and Ramdas Pophale) SiO2 
 PCOD9394933
Probable space group: P C C M
;
_chemical_formula_sum "Si O2"
_cell_formula_units_Z 16
_cell_length_a 4.878103
_cell_length_b 5.252477
_cell_length_c 26.470885
_cell_angle_alpha 90.000000
_cell_angle_beta 90.000000
_cell_angle_gamma 90.000000
_cell_volume 678.240293
_symmetry_space_group_name_H-M "P C C M"
_symmetry_group_IT_number 49
_symmetry_cell_setting 'orthorhombic'
loop_
_space_group_symop_operation_xyz
x,y,z
-x,-y,z
x,-y,1/2-z
-x,y,1/2-z
-x,-y,-z
x,y,-z
-x,y,1/2+z
x,-y,1/2+z
loop_
_atom_site_type_symbol
_atom_site_label
_atom_site_fract_x
_atom_site_fract_y
_atom_site_fract_z
Si Si1 0.180062 0.743264 0.660390
Si Si2 0.500000 0.500000 0.250000
Si Si3 0.500000 0.000000 0.078406
Si Si4 0.000000 0.000000 0.000000
O O1 0.320192 0.676564 0.713491
O O2 0.404659 0.782748 0.616982
O O3 0.000000 0.500000 0.647026
O O4 0.000000 0.000000 0.663615
O O5 0.236643 0.945616 0.043731
#
# Coordination Sequence:
#
# PCOD9394933 Si02
#       4
#     8   2   4   2
#     4  12  28  51  80 120 166 216 268 336 403 497
#     4  12  30  46  84 122 168 220 264 332 412 490
#     4  11  24  51  82 122 160 211 274 341 400 492
#     4  10  24  50  86 114 162 212 274 340 418 458
#
# _framework density 23.590461000000001
#
# number of rings (size 3 to 8) (size 9 to 14) (size 15 to 20)
#    0.000    0.500    2.500    3.750    0.000   15.000 
#    0.000    7.500    0.000    0.000    0.000    0.000 
#    0.000    0.000    0.000    0.000    0.000    0.000 
#
# Total GULP energy -89135.573563 kJ/mol
# GULP energy per Si atom -5570.973348 kJ/mol
# Density = 2.353677 g / cm^3
# Si number density = 23.590461 Si / 1000 Ang^3
#
#
#
# Elastic Constant Matrix: (Units=GPa)
#
#
# Indices 1 2 3 4 5 6 
#
# 1 223.3980 96.4245 117.2955 0.0000 0.0000 0.0000
# 2 96.4245 178.2440 74.9077 0.0000 0.0000 0.0000
# 3 117.2955 74.9077 231.2279 0.0000 0.0000 0.0000
# 4 0.0000 0.0000 0.0000 -28.6655 0.0000 0.0000
# 5 0.0000 0.0000 0.0000 0.0000 87.5929 0.0000
# 6 0.0000 0.0000 0.0000 0.0000 0.0000 28.7538
#
#
#
# Elastic Compliance Matrix: (Units=1/GPa)
#
#
# Indices 1 2 3 4 5 6 
#
# 1 0.007056 -0.002677 -0.002712 0.000000 0.000000 0.000000
# 2 -0.002677 0.007510 -0.001075 0.000000 0.000000 0.000000
# 3 -0.002712 -0.001075 0.006049 0.000000 0.000000 0.000000
# 4 0.000000 0.000000 0.000000 -0.034885 0.000000 0.000000
# 5 0.000000 0.000000 0.000000 0.000000 0.011416 0.000000
# 6 0.000000 0.000000 0.000000 0.000000 0.000000 0.034778
#
#
# Mechanical properties :
#
#
# Convention : Reuss Voigt Hill
#
# Bulk Modulus (GPa) = 130.09646 134.45838 132.27742
# Shear Modulus (GPa) = 105.45317 40.48572 72.96944
#
# Velocity S-wave (km/s) = 6.69318 4.14719 5.56767
# Velocity P-wave (km/s) = 10.72377 8.94723 9.87553
#
# Compressibility (1/GPa) = 0.00768660
#
# Stress axis : x y z
#
# Youngs Moduli (GPa) = 141.72785 133.14956 165.32686
#
# Poissons Ratio (x) = 0.35648 0.44835
# Poissons Ratio (y) = 0.37945 0.17771
# Poissons Ratio (z) = 0.38435 0.14312
#
# Static dielectric constant tensor:
#      x y z
#    x 1.939300 0.000000 0.000000 
#    y 0.000000 1.865080 0.000000 
#    z 0.000000 0.000000 1.882150 
# 
# From -- ./inp_files/21325.got.cif
#   From: 2010.05.17/outbox.cif.g08.bks.cpg/sg49_11_cif.got.tgz:21325.got - 2010.06.03 21:02:19.
