data_PCOD9394780
_publ_section_title
;
Structure prediction by ZEFSAII (Michael W. Deem and Ramdas Pophale) SiO2 
 PCOD9394780
Probable space group: P C C M
;
_chemical_formula_sum "Si O2"
_cell_formula_units_Z 34
_cell_length_a 23.341409
_cell_length_b 8.017415
_cell_length_c 8.292769
_cell_angle_alpha 90.000000
_cell_angle_beta 90.000000
_cell_angle_gamma 90.000000
_cell_volume 1551.890237
_symmetry_space_group_name_H-M "P C C M"
_symmetry_group_IT_number 49
_symmetry_cell_setting 'orthorhombic'
loop_
_space_group_symop_operation_xyz
x,y,z
-x,-y,z
x,-y,1/2-z
-x,y,1/2-z
-x,-y,-z
x,y,-z
-x,y,1/2+z
x,-y,1/2+z
loop_
_atom_site_type_symbol
_atom_site_label
_atom_site_fract_x
_atom_site_fract_y
_atom_site_fract_z
Si Si1 0.500000 0.500000 0.750000
Si Si2 0.059797 0.690409 0.309661
Si Si3 0.698915 0.319484 0.193265
Si Si4 0.817919 0.814944 0.307341
Si Si5 0.420380 0.813913 0.196277
O O1 0.548025 0.347648 0.723270
O O2 0.060414 0.500000 0.250000
O O3 0.058329 0.692125 0.500000
O O4 0.119256 0.767297 0.252779
O O5 0.000000 0.769027 0.250000
O O6 0.680861 0.500000 0.250000
O O7 0.763156 0.287198 0.256111
O O8 0.647046 0.198816 0.239585
O O9 0.702234 0.313645 0.000000
O O10 0.819364 0.803301 0.500000
O O11 0.805953 0.000000 0.250000
O O12 0.439017 0.000000 0.250000
O O13 0.427794 0.795677 0.000000
#
# Coordination Sequence:
#
# PCOD9394780 Si02
#       5
#     2   8   8   8   8
#     4  12  24  44  72  96 138 176 228 270 330 394
#     4  11  22  39  62  89 122 161 208 259 315 380
#     4  10  22  41  65  93 126 166 215 266 325 388
#     4  11  23  39  60  89 124 163 209 261 321 385
#     4  11  25  44  68 100 134 176 223 276 333 395
#
# _framework density 21.908766
#
# number of rings (size 3 to 8) (size 9 to 14) (size 15 to 20)
#    0.000    1.176    1.176    5.647    0.000    8.000 
#    0.000    2.353    0.000    0.000    0.000    0.000 
#    0.000    0.000    0.000    0.000    0.000    0.000 
#
# Total GULP energy -189345.048598 kJ/mol
# GULP energy per Si atom -5568.972018 kJ/mol
# Density = 2.185890 g / cm^3
# Si number density = 21.908766 Si / 1000 Ang^3
#
#
#
# Elastic Constant Matrix: (Units=GPa)
#
#
# Indices 1 2 3 4 5 6 
#
# 1 178.6686 41.2019 28.7214 0.0000 0.0000 0.0000
# 2 41.2019 124.0307 -7.9187 0.0000 0.0000 0.0000
# 3 28.7214 -7.9187 52.0885 0.0000 0.0000 0.0000
# 4 0.0000 0.0000 0.0000 19.0714 0.0000 0.0000
# 5 0.0000 0.0000 0.0000 0.0000 248.4897 0.0000
# 6 0.0000 0.0000 0.0000 0.0000 0.0000 2.3483
#
#
#
# Elastic Compliance Matrix: (Units=1/GPa)
#
#
# Indices 1 2 3 4 5 6 
#
# 1 0.006853 -0.002542 -0.004165 0.000000 0.000000 0.000000
# 2 -0.002542 0.009085 0.002783 0.000000 0.000000 0.000000
# 3 -0.004165 0.002783 0.021918 0.000000 0.000000 0.000000
# 4 0.000000 0.000000 0.000000 0.052434 0.000000 0.000000
# 5 0.000000 0.000000 0.000000 0.000000 0.004024 0.000000
# 6 0.000000 0.000000 0.000000 0.000000 0.000000 0.425847
#
#
# Mechanical properties :
#
#
# Convention : Reuss Voigt Hill
#
# Bulk Modulus (GPa) = 33.32633 53.19965 43.26299
# Shear Modulus (GPa) = 9.29346 73.50077 41.39711
#
# Velocity S-wave (km/s) = 2.06182 5.79840 4.35158
# Velocity P-wave (km/s) = 4.57303 8.31647 6.71104
#
# Compressibility (1/GPa) = 0.03000630
#
# Stress axis : x y z
#
# Youngs Moduli (GPa) = 145.92615 110.07469 45.62504
#
# Poissons Ratio (x) = 0.27985 0.19003
# Poissons Ratio (y) = 0.37100 -0.12697
# Poissons Ratio (z) = 0.60780 -0.30633
#
# Static dielectric constant tensor:
#      x y z
#    x 1.882080 0.000000 0.000000 
#    y 0.000000 1.775990 0.000000 
#    z 0.000000 0.000000 1.756830 
# 
# From -- ./inp_files/5524.got.cif
#   From: 2010.05.17/outbox.cif.g08.bks.cpg/sg49_3_cif.got.tgz:5524.got - 2010.06.03 21:02:19.
