data_PCOD9395309
_publ_section_title
;
Structure prediction by ZEFSAII (Michael W. Deem and Ramdas Pophale) SiO2 
 PCOD9395309
Probable space group: P C C M
;
_chemical_formula_sum "Si O2"
_cell_formula_units_Z 52
_cell_length_a 21.000000
_cell_length_b 9.000000
_cell_length_c 15.000000
_cell_angle_alpha 90.000000
_cell_angle_beta 90.000000
_cell_angle_gamma 90.000000
_cell_volume 2835.000000
_symmetry_space_group_name_H-M "P C C M"
_symmetry_group_IT_number 49
_symmetry_cell_setting 'orthorhombic'
loop_
_space_group_symop_operation_xyz
x,y,z
-x,-y,z
x,-y,1/2-z
-x,y,1/2-z
-x,-y,-z
x,y,-z
-x,y,1/2+z
x,-y,1/2+z
loop_
_atom_site_type_symbol
_atom_site_label
_atom_site_fract_x
_atom_site_fract_y
_atom_site_fract_z
Si Si1 0.077736 0.757386 0.250751
Si Si2 0.404391 0.396810 0.166237
Si Si3 0.183722 0.500000 0.250000
Si Si4 0.076211 0.004644 0.600612
Si Si5 0.518906 0.824259 0.397022
Si Si6 0.350439 0.835282 0.786987
Si Si7 0.287831 0.406552 0.396435
O O1 0.132672 0.634267 0.256793
O O2 0.089816 0.865186 0.335286
O O3 0.000000 0.717791 0.250000
O O4 0.090018 0.849961 0.159821
O O5 0.425451 0.500000 0.250000
O O6 0.463753 0.298517 0.127448
O O7 0.355792 0.273267 0.202973
O O8 0.356446 0.504915 0.111191
O O9 0.232537 0.477414 0.333791
O O10 0.103238 0.002143 0.500000
O O11 0.000000 0.000000 0.592050
O O12 0.536555 0.794639 0.500000
O O13 0.579694 0.820662 0.332569
O O14 0.500000 0.000000 0.391870
O O15 0.302060 0.757698 0.855590
O O16 0.338304 0.000000 0.750000
O O17 0.269908 0.402178 0.500000
#
# Coordination Sequence:
#
# PCOD9395309 Si02
#       7
#     8   8   4   8   8   8   8
#     4   9  19  35  62  94 127 161 198 251 312 367
#     4  10  21  40  63  89 118 160 199 247 311 369
#     4  12  23  42  60  89 124 164 212 262 300 369
#     4   8  15  33  60  92 126 157 191 236 298 367
#     4  11  22  34  58  97 125 150 194 253 312 376
#     4  11  21  40  63  87 121 157 201 257 316 370
#     4  11  25  46  64  85 121 170 213 256 309 370
#
# _framework density 18.342151999999999
#
# number of rings (size 3 to 8) (size 9 to 14) (size 15 to 20)
#    0.000    1.846    3.846    2.538    0.000    5.538 
#    2.769    3.846    0.000    4.615    0.000    0.000 
#    0.000    0.000    0.000    0.000    0.000    0.000 
#
# Total GULP energy -289555.048197 kJ/mol
# GULP energy per Si atom -5568.366311 kJ/mol
# Density = 1.830040 g / cm^3
# Si number density = 18.342152 Si / 1000 Ang^3
#
#
#
# Elastic Constant Matrix: (Units=GPa)
#
#
# Indices 1 2 3 4 5 6 
#
# 1 91.2997 45.8000 42.1663 0.0000 0.0000 0.0000
# 2 45.8000 133.7381 58.7240 0.0000 0.0000 0.0000
# 3 42.1663 58.7240 146.6359 0.0000 0.0000 0.0000
# 4 0.0000 0.0000 0.0000 21.4648 0.0000 0.0000
# 5 0.0000 0.0000 0.0000 0.0000 21.6239 0.0000
# 6 0.0000 0.0000 0.0000 0.0000 0.0000 22.8735
#
#
#
# Elastic Compliance Matrix: (Units=1/GPa)
#
#
# Indices 1 2 3 4 5 6 
#
# 1 0.013968 -0.003664 -0.002549 0.000000 0.000000 0.000000
# 2 -0.003664 0.010034 -0.002965 0.000000 0.000000 0.000000
# 3 -0.002549 -0.002965 0.008740 0.000000 0.000000 0.000000
# 4 0.000000 0.000000 0.000000 0.046588 0.000000 0.000000
# 5 0.000000 0.000000 0.000000 0.000000 0.046245 0.000000
# 6 0.000000 0.000000 0.000000 0.000000 0.000000 0.043719
#
#
# Mechanical properties :
#
#
# Convention : Reuss Voigt Hill
#
# Bulk Modulus (GPa) = 69.51233 73.89493 71.70363
# Shear Modulus (GPa) = 25.98135 28.19135 27.08635
#
# Velocity S-wave (km/s) = 3.76770 3.92467 3.84699
# Velocity P-wave (km/s) = 7.54369 7.80460 7.67526
#
# Compressibility (1/GPa) = 0.01438594
#
# Stress axis : x y z
#
# Youngs Moduli (GPa) = 71.58977 99.66179 114.41709
#
# Poissons Ratio (x) = 0.36519 0.29168
# Poissons Ratio (y) = 0.26232 0.33921
# Poissons Ratio (z) = 0.18250 0.29546
#
# Static dielectric constant tensor:
#      x y z
#    x 1.624080 0.000000 0.000000 
#    y 0.000000 1.687760 0.000000 
#    z 0.000000 0.000000 1.661110 
# 
# From -- ./inp_files/14334.got.cif
#   From: 2010.05.17/outbox.ucp.g08.bks.cvg/sg49_8_cif.got.tgz:14334.got - 2010.06.11 16:40:14.
