data_PCOD9395715
_publ_section_title
;
Structure prediction by ZEFSAII (Michael W. Deem and Ramdas Pophale) SiO2 
 PCOD9395715
Probable space group: P B A N
;
_chemical_formula_sum "Si O2"
_cell_formula_units_Z 48
_cell_length_a 5.372221
_cell_length_b 26.059276
_cell_length_c 14.064784
_cell_angle_alpha 90.000000
_cell_angle_beta 90.000000
_cell_angle_gamma 90.000000
_cell_volume 1969.016170
_symmetry_space_group_name_H-M "P B A N"
_symmetry_group_IT_number 50
_space_group.IT_coordinate_system_code '2'
_symmetry_cell_setting 'orthorhombic'
loop_
_space_group_symop_operation_xyz
x,y,z
1/2-x,1/2-y,z
x,1/2-y,-z
1/2-x,y,-z
-x,-y,-z
1/2+x,1/2+y,-z
-x,1/2+y,z
1/2+x,-y,z
loop_
_atom_site_type_symbol
_atom_site_label
_atom_site_fract_x
_atom_site_fract_y
_atom_site_fract_z
Si Si1 0.837033 0.360724 0.135475
Si Si2 0.058971 0.980931 0.392967
Si Si3 0.749582 0.020711 0.108975
Si Si4 0.838463 0.136215 0.634985
Si Si5 0.336691 0.193227 0.864860
Si Si6 0.165326 0.307427 0.633389
O O1 0.775915 0.418536 0.107715
O O2 0.838302 0.359485 0.250345
O O3 0.610533 0.324135 0.103274
O O4 0.112490 0.344102 0.104624
O O5 0.168161 0.923632 0.389903
O O6 0.279846 0.016066 0.350622
O O7 0.000000 0.000000 0.500000
O O8 0.505947 0.996539 0.154629
O O9 0.750000 0.000611 0.000000
O O10 0.601393 0.169876 0.601983
O O11 0.105092 0.157270 0.602759
O O12 0.250000 0.250000 0.892125
O O13 0.345511 0.192477 0.749159
O O14 0.250000 0.250000 0.606693
#
# Coordination Sequence:
#
# PCOD9395715 Si02
#       6
#     8   8   8   8   8   8
#     4  10  19  31  51  76 101 132 169 214 256 299
#     4  10  21  36  52  73 101 138 172 202 248 304
#     4  10  21  36  52  70  96 134 175 215 263 311
#     4  10  19  31  51  79 105 132 171 211 253 307
#     4   9  17  30  49  74 105 136 164 201 259 315
#     4   9  17  30  49  77 109 135 162 207 261 306
#
# _framework density 24.377656999999999
#
# number of rings (size 3 to 8) (size 9 to 14) (size 15 to 20)
#    0.000    2.333    0.000    3.000    0.000    5.333 
#    0.000    0.000    0.000    3.000    0.000   35.000 
#    0.000    0.000    0.000    0.000    0.000    0.000 
#
# Total GULP energy -268442.516325 kJ/mol
# GULP energy per Si atom -5592.552423 kJ/mol
# Density = 2.432217 g / cm^3
# Si number density = 24.377657 Si / 1000 Ang^3
#
#
#
# Elastic Constant Matrix: (Units=GPa)
#
#
# Indices 1 2 3 4 5 6 
#
# 1 221.1777 59.8928 22.7151 0.0000 0.0000 0.0000
# 2 59.8928 121.7525 -25.9861 0.0000 0.0000 0.0000
# 3 22.7151 -25.9861 91.9878 0.0000 0.0000 0.0000
# 4 0.0000 0.0000 0.0000 25.5293 0.0000 0.0000
# 5 0.0000 0.0000 0.0000 0.0000 13.0957 0.0000
# 6 0.0000 0.0000 0.0000 0.0000 0.0000 53.3908
#
#
#
# Elastic Compliance Matrix: (Units=1/GPa)
#
#
# Indices 1 2 3 4 5 6 
#
# 1 0.005645 -0.003272 -0.002318 0.000000 0.000000 0.000000
# 2 -0.003272 0.010637 0.003813 0.000000 0.000000 0.000000
# 3 -0.002318 0.003813 0.012521 0.000000 0.000000 0.000000
# 4 0.000000 0.000000 0.000000 0.039171 0.000000 0.000000
# 5 0.000000 0.000000 0.000000 0.000000 0.076361 0.000000
# 6 0.000000 0.000000 0.000000 0.000000 0.000000 0.018730
#
#
# Mechanical properties :
#
#
# Convention : Reuss Voigt Hill
#
# Bulk Modulus (GPa) = 39.60766 60.90686 50.25726
# Shear Modulus (GPa) = 28.56579 43.62292 36.09435
#
# Velocity S-wave (km/s) = 3.42687 4.23479 3.85207
# Velocity P-wave (km/s) = 5.65161 6.99645 6.35968
#
# Compressibility (1/GPa) = 0.02524764
#
# Stress axis : x y z
#
# Youngs Moduli (GPa) = 177.13737 94.01452 79.86862
#
# Poissons Ratio (x) = 0.30760 0.18516
# Poissons Ratio (y) = 0.57957 -0.30452
# Poissons Ratio (z) = 0.41066 -0.35845
#
# Static dielectric constant tensor:
#      x y z
#    x 1.983150 0.000000 0.000000 
#    y 0.000000 1.879250 0.000000 
#    z 0.000000 0.000000 2.172650 
# 
# From -- ./inp_files/28270.got.cif
#   From: 2010.05.17/outbox.cif.g08.bks.cpg/sg50_15_cif.got.tgz:28270.got - 2010.06.03 11:33:33.
