data_PCOD9395558
_publ_section_title
;
Structure prediction by ZEFSAII (Michael W. Deem and Ramdas Pophale) SiO2 
 PCOD9395558
Probable space group: P B A N
;
_chemical_formula_sum "Si O2"
_cell_formula_units_Z 48
_cell_length_a 22.651934
_cell_length_b 10.869464
_cell_length_c 9.882372
_cell_angle_alpha 90.000000
_cell_angle_beta 90.000000
_cell_angle_gamma 90.000000
_cell_volume 2433.182106
_symmetry_space_group_name_H-M "P B A N"
_symmetry_group_IT_number 50
_space_group.IT_coordinate_system_code '2'
_symmetry_cell_setting 'orthorhombic'
loop_
_space_group_symop_operation_xyz
x,y,z
1/2-x,1/2-y,z
x,1/2-y,-z
1/2-x,y,-z
-x,-y,-z
1/2+x,1/2+y,-z
-x,1/2+y,z
1/2+x,-y,z
loop_
_atom_site_type_symbol
_atom_site_label
_atom_site_fract_x
_atom_site_fract_y
_atom_site_fract_z
Si Si1 0.170055 0.636158 0.207068
Si Si2 0.009656 0.145321 0.889514
Si Si3 0.482451 0.873158 0.577512
Si Si4 0.897685 0.498253 0.017373
Si Si5 0.197575 0.927517 0.218880
Si Si6 0.154387 0.887559 0.489769
O O1 0.175582 0.784468 0.209759
O O2 0.234499 0.579958 0.175929
O O3 0.150944 0.580163 0.352315
O O4 0.125034 0.599981 0.091335
O O5 0.006010 0.154559 0.727951
O O6 0.957373 0.045784 0.910202
O O7 0.994186 0.250000 0.000000
O O8 0.076490 0.109663 0.929967
O O9 0.500887 0.750000 0.500000
O O10 0.410982 0.877327 0.572893
O O11 0.500000 0.000000 0.500000
O O12 0.845251 0.508494 0.125786
O O13 0.191870 0.959944 0.378192
O O14 0.180903 0.750000 0.500000
#
# Coordination Sequence:
#
# PCOD9395558 Si02
#       6
#     8   8   8   8   8   8
#     4  10  19  31  53  81 116 150 195 242 306 368
#     4  11  25  39  59  84 119 162 202 252 306 360
#     4  11  24  40  63  88 123 163 209 252 305 366
#     4  11  22  35  55  80 118 149 202 237 301 355
#     4  10  18  32  52  82 113 154 190 245 305 368
#     4   9  18  31  50  79 116 152 194 246 302 363
#
# _framework density 19.727252
#
# number of rings (size 3 to 8) (size 9 to 14) (size 15 to 20)
#    0.000    1.667    1.667    3.500    9.333    3.333 
#    0.000    0.000    0.000    2.000    0.000    0.000 
#    0.000    4.000    0.000    0.000    0.000    0.000 
#
# Total GULP energy -267216.140942 kJ/mol
# GULP energy per Si atom -5567.002936 kJ/mol
# Density = 1.968235 g / cm^3
# Si number density = 19.727252 Si / 1000 Ang^3
#
#
#
# Elastic Constant Matrix: (Units=GPa)
#
#
# Indices 1 2 3 4 5 6 
#
# 1 88.9521 12.5026 36.6504 0.0000 0.0000 0.0000
# 2 12.5026 39.0236 28.3410 0.0000 0.0000 0.0000
# 3 36.6504 28.3410 153.0817 0.0000 0.0000 0.0000
# 4 0.0000 0.0000 0.0000 12.0168 0.0000 0.0000
# 5 0.0000 0.0000 0.0000 0.0000 27.0577 0.0000
# 6 0.0000 0.0000 0.0000 0.0000 0.0000 23.4946
#
#
#
# Elastic Compliance Matrix: (Units=1/GPa)
#
#
# Indices 1 2 3 4 5 6 
#
# 1 0.012625 -0.002137 -0.002627 0.000000 0.000000 0.000000
# 2 -0.002137 0.029968 -0.005037 0.000000 0.000000 0.000000
# 3 -0.002627 -0.005037 0.008094 0.000000 0.000000 0.000000
# 4 0.000000 0.000000 0.000000 0.083217 0.000000 0.000000
# 5 0.000000 0.000000 0.000000 0.000000 0.036958 0.000000
# 6 0.000000 0.000000 0.000000 0.000000 0.000000 0.042563
#
#
# Mechanical properties :
#
#
# Convention : Reuss Voigt Hill
#
# Bulk Modulus (GPa) = 32.16917 48.44947 40.30932
# Shear Modulus (GPa) = 20.54343 26.08473 23.31408
#
# Velocity S-wave (km/s) = 3.23053 3.64025 3.44149
# Velocity P-wave (km/s) = 5.50068 6.50242 6.02242
#
# Compressibility (1/GPa) = 0.03108566
#
# Stress axis : x y z
#
# Youngs Moduli (GPa) = 79.20960 33.36899 123.55074
#
# Poissons Ratio (x) = 0.07131 0.32456
# Poissons Ratio (y) = 0.16927 0.62227
# Poissons Ratio (z) = 0.20808 0.16806
#
# Static dielectric constant tensor:
#      x y z
#    x 1.704240 0.000000 0.000000 
#    y 0.000000 1.714260 0.000000 
#    z 0.000000 0.000000 2.224830 
# 
# From -- ./inp_files/15977.got.cif
#   From: 2010.05.17/outbox.cif.g08.bks.cpg/sg50_8_cif.got.tgz:15977.got - 2010.06.03 11:33:33.
