data_PCOD9395608
_publ_section_title
;
Structure prediction by ZEFSAII (Michael W. Deem and Ramdas Pophale) SiO2 
 PCOD9395608
Probable space group: P B A N
;
_chemical_formula_sum "Si O2"
_cell_formula_units_Z 44
_cell_length_a 15.685447
_cell_length_b 14.611214
_cell_length_c 9.006671
_cell_angle_alpha 90.000000
_cell_angle_beta 90.000000
_cell_angle_gamma 90.000000
_cell_volume 2064.179688
_symmetry_space_group_name_H-M "P B A N"
_symmetry_group_IT_number 50
_space_group.IT_coordinate_system_code '2'
_symmetry_cell_setting 'orthorhombic'
loop_
_space_group_symop_operation_xyz
x,y,z
1/2-x,1/2-y,z
x,1/2-y,-z
1/2-x,y,-z
-x,-y,-z
1/2+x,1/2+y,-z
-x,1/2+y,z
1/2+x,-y,z
loop_
_atom_site_type_symbol
_atom_site_label
_atom_site_fract_x
_atom_site_fract_y
_atom_site_fract_z
Si Si1 0.371563 0.313644 0.251245
Si Si2 0.250000 0.250000 0.000000
Si Si3 0.250000 0.941084 0.500000
Si Si4 0.750000 0.439412 0.000000
Si Si5 0.881676 0.010497 0.742612
Si Si6 0.750000 0.750000 0.500000
Si Si7 0.523029 0.298982 0.666063
Si Si8 0.826173 0.178520 0.255950
O O1 0.422784 0.409455 0.254096
O O2 0.310043 0.308326 0.393088
O O3 0.431079 0.224317 0.266060
O O4 0.311563 0.307242 0.107632
O O5 0.191265 0.991637 0.383295
O O6 0.183698 0.880799 0.595654
O O7 0.824282 0.480861 0.107224
O O8 0.694032 0.381011 0.114121
O O9 0.943077 0.096702 0.696961
O O10 0.522543 0.250000 0.500000
O O11 0.589351 0.236155 0.754073
O O12 0.750000 0.250000 0.269791
#
# Coordination Sequence:
#
# PCOD9395608 Si02
#       8
#     8   2   4   4   8   2   8   8
#     4  11  25  47  71  97 130 180 230 280 337 395
#     4  10  26  54  74  86 134 184 230 286 338 394
#     4  10  18  34  61  93 130 180 221 261 319 399
#     4  10  22  34  61  97 134 178 227 257 319 405
#     4  11  23  39  66 102 137 177 227 273 327 404
#     4  10  22  50  74  90 128 182 238 278 322 394
#     4  12  23  40  66 102 141 169 220 283 343 390
#     4  11  18  34  59  92 139 183 204 261 337 403
#
# _framework density 21.315971999999999
#
# number of rings (size 3 to 8) (size 9 to 14) (size 15 to 20)
#    0.000    1.091    6.364    1.636    0.000    2.182 
#    0.000    5.455    0.000    0.000    0.000    0.000 
#    0.000    0.000    0.000    0.000    0.000    0.000 
#
# Total GULP energy -245123.232954 kJ/mol
# GULP energy per Si atom -5570.982567 kJ/mol
# Density = 2.126746 g / cm^3
# Si number density = 21.315972 Si / 1000 Ang^3
#
#
#
# Elastic Constant Matrix: (Units=GPa)
#
#
# Indices 1 2 3 4 5 6 
#
# 1 108.4781 47.2787 46.0747 0.0000 0.0000 0.0000
# 2 47.2787 144.8898 56.0672 0.0000 0.0000 0.0000
# 3 46.0747 56.0672 152.4121 0.0000 0.0000 0.0000
# 4 0.0000 0.0000 0.0000 -28.4481 0.0000 0.0000
# 5 0.0000 0.0000 0.0000 0.0000 25.3742 0.0000
# 6 0.0000 0.0000 0.0000 0.0000 0.0000 24.7970
#
#
#
# Elastic Compliance Matrix: (Units=1/GPa)
#
#
# Indices 1 2 3 4 5 6 
#
# 1 0.011475 -0.002801 -0.002439 0.000000 0.000000 0.000000
# 2 -0.002801 0.008731 -0.002365 0.000000 0.000000 0.000000
# 3 -0.002439 -0.002365 0.008168 0.000000 0.000000 0.000000
# 4 0.000000 0.000000 0.000000 -0.035152 0.000000 0.000000
# 5 0.000000 0.000000 0.000000 0.000000 0.039410 0.000000
# 6 0.000000 0.000000 0.000000 0.000000 0.000000 0.040327
#
#
# Mechanical properties :
#
#
# Convention : Reuss Voigt Hill
#
# Bulk Modulus (GPa) = 75.95725 78.29124 77.12424
# Shear Modulus (GPa) = 54.02061 21.43526 37.72793
#
# Velocity S-wave (km/s) = 5.03962 3.17455 4.21163
# Velocity P-wave (km/s) = 8.34117 7.08842 7.74018
#
# Compressibility (1/GPa) = 0.01316530
#
# Stress axis : x y z
#
# Youngs Moduli (GPa) = 87.14703 114.53559 122.42270
#
# Poissons Ratio (x) = 0.32078 0.29854
# Poissons Ratio (y) = 0.24407 0.28955
# Poissons Ratio (z) = 0.21252 0.27089
#
# Static dielectric constant tensor:
#      x y z
#    x 1.767510 0.000000 0.000000 
#    y 0.000000 1.827490 0.000000 
#    z 0.000000 0.000000 1.789440 
# 
# From -- ./inp_files/12942.got.cif
#   From: 2010.05.17/outbox.cif.g08.bks.cpg/sg50_7_cif.got.tgz:12942.got - 2010.06.03 11:33:33.
