data_PCOD9395025
_publ_section_title
;
Structure prediction by ZEFSAII (Michael W. Deem and Ramdas Pophale) SiO2 
 PCOD9395025
Probable space group: P C C M
;
_chemical_formula_sum "Si O2"
_cell_formula_units_Z 34
_cell_length_a 6.975501
_cell_length_b 9.407597
_cell_length_c 24.334069
_cell_angle_alpha 90.000000
_cell_angle_beta 90.000000
_cell_angle_gamma 90.000000
_cell_volume 1596.867365
_symmetry_space_group_name_H-M "P C C M"
_symmetry_group_IT_number 49
_symmetry_cell_setting 'orthorhombic'
loop_
_space_group_symop_operation_xyz
x,y,z
-x,-y,z
x,-y,1/2-z
-x,y,1/2-z
-x,-y,-z
x,y,-z
-x,y,1/2+z
x,-y,1/2+z
loop_
_atom_site_type_symbol
_atom_site_label
_atom_site_fract_x
_atom_site_fract_y
_atom_site_fract_z
Si Si1 0.926616 0.851083 0.687459
Si Si2 0.500000 0.500000 0.750000
Si Si3 0.767463 0.366574 0.655806
Si Si4 0.562143 0.842183 0.380060
Si Si5 0.705990 0.578413 0.560234
O O1 0.701616 0.846487 0.673564
O O2 0.000000 0.856619 0.750000
O O3 0.033125 0.710681 0.666891
O O4 0.000000 0.000000 0.661471
O O5 0.647831 0.419220 0.709121
O O6 0.629519 0.244356 0.632147
O O7 0.788376 0.490945 0.611413
O O8 0.675206 0.743029 0.423353
O O9 0.500000 0.000000 0.396640
O O10 0.500000 0.500000 0.555821
O O11 0.797742 0.567998 0.500000
#
# Coordination Sequence:
#
# PCOD9395025 Si02
#       5
#     8   2   8   8   8
#     4  11  24  39  59  93 128 169 210 257 314 379
#     4  12  20  40  66  96 128 174 210 262 326 376
#     4  11  22  41  63  93 129 163 211 257 313 382
#     4  11  21  41  65  89 125 165 209 262 313 377
#     4   9  20  41  66  93 123 164 210 261 317 372
#
# _framework density 21.291688000000001
#
# number of rings (size 3 to 8) (size 9 to 14) (size 15 to 20)
#    0.000    1.412    5.882    1.412    0.000    1.412 
#    0.000    2.353    0.000    1.412    0.000    0.000 
#    0.000    0.000    0.000    0.000    0.000    0.000 
#
# Total GULP energy -189611.243336 kJ/mol
# GULP energy per Si atom -5576.801275 kJ/mol
# Density = 2.124323 g / cm^3
# Si number density = 21.291688 Si / 1000 Ang^3
#
#
#
# Elastic Constant Matrix: (Units=GPa)
#
#
# Indices 1 2 3 4 5 6 
#
# 1 80.6752 41.1262 17.9813 0.0000 0.0000 0.0000
# 2 41.1262 189.0275 79.3431 0.0000 0.0000 0.0000
# 3 17.9813 79.3431 108.0222 0.0000 0.0000 0.0000
# 4 0.0000 0.0000 0.0000 11.7602 0.0000 0.0000
# 5 0.0000 0.0000 0.0000 0.0000 -11.5507 0.0000
# 6 0.0000 0.0000 0.0000 0.0000 0.0000 15.0354
#
#
#
# Elastic Compliance Matrix: (Units=1/GPa)
#
#
# Indices 1 2 3 4 5 6 
#
# 1 0.013943 -0.002977 -0.000134 0.000000 0.000000 0.000000
# 2 -0.002977 0.008284 -0.005589 0.000000 0.000000 0.000000
# 3 -0.000134 -0.005589 0.013385 0.000000 0.000000 0.000000
# 4 0.000000 0.000000 0.000000 0.085033 0.000000 0.000000
# 5 0.000000 0.000000 0.000000 0.000000 -0.086574 0.000000
# 6 0.000000 0.000000 0.000000 0.000000 0.000000 0.066510
#
#
# Mechanical properties :
#
#
# Convention : Reuss Voigt Hill
#
# Bulk Modulus (GPa) = 54.91184 72.73624 63.82404
# Shear Modulus (GPa) = 40.30607 19.00060 29.65333
#
# Velocity S-wave (km/s) = 4.35563 2.99054 3.73596
# Velocity P-wave (km/s) = 7.15134 6.79414 6.97503
#
# Compressibility (1/GPa) = 0.01821101
#
# Stress axis : x y z
#
# Youngs Moduli (GPa) = 71.72054 120.71546 74.71128
#
# Poissons Ratio (x) = 0.35940 0.01002
# Poissons Ratio (y) = 0.21353 0.41756
# Poissons Ratio (z) = 0.00962 0.67468
#
# Static dielectric constant tensor:
#      x y z
#    x 1.784740 0.000000 0.000000 
#    y 0.000000 1.804050 0.000000 
#    z 0.000000 0.000000 1.876550 
# 
# From -- ./inp_files/24264.got.cif
#   From: 2010.05.17/outbox.cif.g08.bks.cpg/sg49_13_cif.got.tgz:24264.got - 2010.06.03 21:02:19.
