data_PCOD9395174
_publ_section_title
;
Structure prediction by ZEFSAII (Michael W. Deem and Ramdas Pophale) SiO2 
 PCOD9395174
Probable space group: P C C M
;
_chemical_formula_sum "Si O2"
_cell_formula_units_Z 32
_cell_length_a 14.033719
_cell_length_b 11.386285
_cell_length_c 10.027619
_cell_angle_alpha 90.000000
_cell_angle_beta 90.000000
_cell_angle_gamma 90.000000
_cell_volume 1602.332535
_symmetry_space_group_name_H-M "P C C M"
_symmetry_group_IT_number 49
_symmetry_cell_setting 'orthorhombic'
loop_
_space_group_symop_operation_xyz
x,y,z
-x,-y,z
x,-y,1/2-z
-x,y,1/2-z
-x,-y,-z
x,y,-z
-x,y,1/2+z
x,-y,1/2+z
loop_
_atom_site_type_symbol
_atom_site_label
_atom_site_fract_x
_atom_site_fract_y
_atom_site_fract_z
Si Si1 0.216796 0.639270 0.265979
Si Si2 0.674611 0.000000 0.750000
Si Si3 0.183879 0.007810 0.000000
Si Si4 0.089328 0.263855 0.000000
Si Si5 0.585857 0.758955 0.840447
Si Si6 0.131931 0.748087 0.000000
O O1 0.217192 0.500000 0.250000
O O2 0.137899 0.679091 0.371528
O O3 0.318596 0.683388 0.319775
O O4 0.189047 0.702254 0.128123
O O5 0.745608 0.999778 0.874852
O O6 0.610979 0.114494 0.724477
O O7 0.124546 0.888869 0.000000
O O8 0.121355 0.126192 0.000000
O O9 0.977655 0.290609 0.000000
O O10 0.500000 0.709909 0.750000
O O11 0.565301 0.768471 0.000000
#
# Coordination Sequence:
#
# PCOD9395174 Si02
#       6
#     8   4   4   4   8   4
#     4  12  26  47  69  98 143 187 231 284 336 406
#     4  12  21  42  71  96 142 182 219 284 351 412
#     4  12  21  42  71 102 138 180 223 284 357 404
#     4  12  24  48  67 103 145 179 229 293 345 398
#     4  12  27  46  71 103 139 179 228 288 350 412
#     4  12  26  40  77 105 131 187 237 277 347 416
#
# _framework density 19.970884999999999
#
# number of rings (size 3 to 8) (size 9 to 14) (size 15 to 20)
#    0.000    0.000    7.500    2.250    3.500    4.500 
#    0.000    5.000    0.000    0.000    0.000    0.000 
#    0.000    0.000    0.000    0.000    0.000    0.000 
#
# Total GULP energy -178963.642275 kJ/mol
# GULP energy per Si atom -5592.613821 kJ/mol
# Density = 1.992543 g / cm^3
# Si number density = 19.970885 Si / 1000 Ang^3
#
#
#
# Elastic Constant Matrix: (Units=GPa)
#
#
# Indices 1 2 3 4 5 6 
#
# 1 91.8442 -9.8019 10.4016 0.0000 0.0000 0.0000
# 2 -9.8019 116.1042 -6.3325 0.0000 0.0000 0.0000
# 3 10.4016 -6.3325 122.1016 0.0000 0.0000 0.0000
# 4 0.0000 0.0000 0.0000 24.0266 0.0000 0.0000
# 5 0.0000 0.0000 0.0000 0.0000 -6.3349 0.0000
# 6 0.0000 0.0000 0.0000 0.0000 0.0000 -8.4252
#
#
#
# Elastic Compliance Matrix: (Units=1/GPa)
#
#
# Indices 1 2 3 4 5 6 
#
# 1 0.011084 0.000887 -0.000898 0.000000 0.000000 0.000000
# 2 0.000887 0.008708 0.000376 0.000000 0.000000 0.000000
# 3 -0.000898 0.000376 0.008286 0.000000 0.000000 0.000000
# 4 0.000000 0.000000 0.000000 0.041621 0.000000 0.000000
# 5 0.000000 0.000000 0.000000 0.000000 -0.157856 0.000000
# 6 0.000000 0.000000 0.000000 0.000000 0.000000 -0.118692
#
#
# Mechanical properties :
#
#
# Convention : Reuss Voigt Hill
#
# Bulk Modulus (GPa) = 34.71277 35.39829 35.05553
# Shear Modulus (GPa) = -25.25564 24.23883 -0.50840
#
# Velocity S-wave (km/s) = -3.56001 3.48761 -0.50510
# Velocity P-wave (km/s) = 0.72193 5.82935 4.15346
#
# Compressibility (1/GPa) = 0.02880784
#
# Stress axis : x y z
#
# Youngs Moduli (GPa) = 90.21711 114.83259 120.68654
#
# Poissons Ratio (x) = -0.10183 0.10841
# Poissons Ratio (y) = -0.08000 -0.04539
# Poissons Ratio (z) = 0.08104 -0.04319
#
# Static dielectric constant tensor:
#      x y z
#    x 1.726970 0.000000 0.000000 
#    y 0.000000 1.710750 0.000000 
#    z 0.000000 0.000000 1.646470 
# 
# From -- ./inp_files/2586.got.cif
#   From: 2010.05.17/outbox.cif.g08.bks.cpg/sg49_2_cif.got.tgz:2586.got - 2010.06.03 21:02:19.
