data_PCOD9395184
_publ_section_title
;
Structure prediction by ZEFSAII (Michael W. Deem and Ramdas Pophale) SiO2 
 PCOD9395184
Probable space group: P C C M
;
_chemical_formula_sum "Si O2"
_cell_formula_units_Z 20
_cell_length_a 5.181899
_cell_length_b 5.526824
_cell_length_c 28.354902
_cell_angle_alpha 90.000000
_cell_angle_beta 90.000000
_cell_angle_gamma 90.000000
_cell_volume 812.068621
_symmetry_space_group_name_H-M "P C C M"
_symmetry_group_IT_number 49
_symmetry_cell_setting 'orthorhombic'
loop_
_space_group_symop_operation_xyz
x,y,z
-x,-y,z
x,-y,1/2-z
-x,y,1/2-z
-x,-y,-z
x,y,-z
-x,y,1/2+z
x,-y,1/2+z
loop_
_atom_site_type_symbol
_atom_site_label
_atom_site_fract_x
_atom_site_fract_y
_atom_site_fract_z
Si Si1 0.251079 0.834590 0.173747
Si Si2 0.745467 0.344919 0.931375
Si Si3 0.500000 0.000000 0.500000
Si Si4 0.000000 0.500000 0.250000
O O1 0.277831 0.694915 0.124477
O O2 0.182347 0.659601 0.216629
O O3 0.500000 0.000000 0.182199
O O4 0.000000 0.000000 0.167810
O O5 0.500000 0.500000 0.948010
O O6 0.000000 0.500000 0.941783
O O7 0.703328 0.095801 0.958756
#
# Coordination Sequence:
#
# PCOD9395184 Si02
#       4
#     8   8   2   2
#     4  12  28  52  79 113 157 205 260 330 399 473
#     4  12  27  50  77 113 158 204 260 326 394 469
#     4  12  28  46  84 112 160 208 266 318 402 472
#     4  12  30  50  80 110 156 206 266 330 404 482
#
# _framework density 24.628461000000001
#
# number of rings (size 3 to 8) (size 9 to 14) (size 15 to 20)
#    0.000    0.000    4.000    4.200    0.000    6.400 
#    0.000    0.000    0.000    0.000    0.000    0.000 
#    0.000    0.000    0.000    0.000    0.000    0.000 
#
# Total GULP energy -111755.888397 kJ/mol
# GULP energy per Si atom -5587.794420 kJ/mol
# Density = 2.457241 g / cm^3
# Si number density = 24.628461 Si / 1000 Ang^3
#
#
#
# Elastic Constant Matrix: (Units=GPa)
#
#
# Indices 1 2 3 4 5 6 
#
# 1 253.5283 92.3318 66.1374 0.0000 0.0000 0.0000
# 2 92.3318 80.3929 54.8956 0.0000 0.0000 0.0000
# 3 66.1374 54.8956 228.0967 0.0000 0.0000 0.0000
# 4 0.0000 0.0000 0.0000 -29.0543 0.0000 0.0000
# 5 0.0000 0.0000 0.0000 0.0000 195.8324 0.0000
# 6 0.0000 0.0000 0.0000 0.0000 0.0000 65.4094
#
#
#
# Elastic Compliance Matrix: (Units=1/GPa)
#
#
# Indices 1 2 3 4 5 6 
#
# 1 0.006783 -0.007715 -0.000110 0.000000 0.000000 0.000000
# 2 -0.007715 0.023660 -0.003457 0.000000 0.000000 0.000000
# 3 -0.000110 -0.003457 0.005248 0.000000 0.000000 0.000000
# 4 0.000000 0.000000 0.000000 -0.034418 0.000000 0.000000
# 5 0.000000 0.000000 0.000000 0.000000 0.005106 0.000000
# 6 0.000000 0.000000 0.000000 0.000000 0.000000 0.015288
#
#
# Mechanical properties :
#
#
# Convention : Reuss Voigt Hill
#
# Bulk Modulus (GPa) = 76.18033 109.86083 93.02058
# Shear Modulus (GPa) = 102.86549 69.68106 86.27328
#
# Velocity S-wave (km/s) = 6.46974 5.32488 5.92503
# Velocity P-wave (km/s) = 9.31714 9.08349 9.20106
#
# Compressibility (1/GPa) = 0.01312675
#
# Stress axis : x y z
#
# Youngs Moduli (GPa) = 147.43471 42.26496 190.54708
#
# Poissons Ratio (x) = 0.32607 0.02095
# Poissons Ratio (y) = 1.13744 0.65878
# Poissons Ratio (z) = 0.01621 0.14612
#
# Static dielectric constant tensor:
#      x y z
#    x 1.996930 0.000000 0.000000 
#    y 0.000000 2.615690 0.000000 
#    z 0.000000 0.000000 1.958380 
# 
# From -- ./inp_files/23523.got.cif
#   From: 2010.05.17/outbox.cif.g08.bks.cpg/sg49_12_cif.got.tgz:23523.got - 2010.06.03 21:02:19.
