data_PCOD9395949
_publ_section_title
;
Structure prediction by ZEFSAII (Michael W. Deem and Ramdas Pophale) SiO2 
 PCOD9395949
Probable space group: P B A N
;
_chemical_formula_sum "Si O2"
_cell_formula_units_Z 64
_cell_length_a 19.331134
_cell_length_b 8.612097
_cell_length_c 20.682072
_cell_angle_alpha 90.000000
_cell_angle_beta 90.000000
_cell_angle_gamma 90.000000
_cell_volume 3443.184461
_symmetry_space_group_name_H-M "P B A N"
_symmetry_group_IT_number 50
_space_group.IT_coordinate_system_code '2'
_symmetry_cell_setting 'orthorhombic'
loop_
_space_group_symop_operation_xyz
x,y,z
1/2-x,1/2-y,z
x,1/2-y,-z
1/2-x,y,-z
-x,-y,-z
1/2+x,1/2+y,-z
-x,1/2+y,z
1/2+x,-y,z
loop_
_atom_site_type_symbol
_atom_site_label
_atom_site_fract_x
_atom_site_fract_y
_atom_site_fract_z
Si Si1 0.675540 0.695022 0.072745
Si Si2 0.417535 0.341199 0.175655
Si Si3 0.825395 0.328556 0.783904
Si Si4 0.552371 0.868915 0.637549
Si Si5 0.043052 0.844772 0.239540
Si Si6 0.530394 0.368431 0.452221
Si Si7 0.678435 0.678943 0.271317
Si Si8 0.173129 0.822630 0.932874
O O1 0.750000 0.750000 0.101458
O O2 0.610509 0.776079 0.107962
O O3 0.673867 0.509079 0.066984
O O4 0.674822 0.750000 0.000000
O O5 0.435229 0.517394 0.191445
O O6 0.484453 0.250800 0.201681
O O7 0.352496 0.297974 0.219847
O O8 0.750000 0.250000 0.775575
O O9 0.888333 0.252995 0.744184
O O10 0.819041 0.509942 0.763925
O O11 0.850280 0.296820 0.858428
O O12 0.494479 0.896470 0.693682
O O13 0.524340 0.737794 0.587833
O O14 0.622177 0.822005 0.672515
O O15 0.567661 0.029104 0.600957
O O16 0.569233 0.250000 0.500000
O O17 0.500000 0.500000 0.500000
O O18 0.750000 0.750000 0.293813
O O19 0.250000 0.750000 0.932777
O O20 0.141218 0.750000 0.000000
#
# Coordination Sequence:
#
# PCOD9395949 Si02
#       8
#     8   8   8   8   8   8   8   8
#     4  11  23  38  61  85 110 147 200 253 308 364
#     4  11  23  38  58  82 116 154 195 247 307 358
#     4  11  23  36  59  85 115 152 199 251 306 365
#     4  10  19  36  59  89 122 159 192 239 290 340
#     4  11  23  38  58  85 122 156 192 240 303 364
#     4   9  18  33  59  91 119 150 196 239 273 328
#     4  11  21  37  58  89 122 157 198 244 298 359
#     4  10  21  36  57  80 110 148 197 252 307 359
#
# _framework density 18.587444999999999
#
# number of rings (size 3 to 8) (size 9 to 14) (size 15 to 20)
#    0.000    1.500    1.250    6.375    5.250    0.000 
#    0.000    1.250    0.000    3.375    0.000    7.875 
#    0.000    0.000    0.000    0.000    0.000    0.000 
#
# Total GULP energy -356344.311597 kJ/mol
# GULP energy per Si atom -5567.879869 kJ/mol
# Density = 1.854514 g / cm^3
# Si number density = 18.587445 Si / 1000 Ang^3
#
#
#
# Elastic Constant Matrix: (Units=GPa)
#
#
# Indices 1 2 3 4 5 6 
#
# 1 62.4897 10.6861 34.5301 0.0000 0.0000 0.0000
# 2 10.6861 92.6769 30.2908 0.0000 0.0000 0.0000
# 3 34.5301 30.2908 88.0447 0.0000 0.0000 0.0000
# 4 0.0000 0.0000 0.0000 32.5241 0.0000 0.0000
# 5 0.0000 0.0000 0.0000 0.0000 13.8098 0.0000
# 6 0.0000 0.0000 0.0000 0.0000 0.0000 22.9389
#
#
#
# Elastic Compliance Matrix: (Units=1/GPa)
#
#
# Indices 1 2 3 4 5 6 
#
# 1 0.020437 0.000297 -0.008117 0.000000 0.000000 0.000000
# 2 0.000297 0.012162 -0.004300 0.000000 0.000000 0.000000
# 3 -0.008117 -0.004300 0.016021 0.000000 0.000000 0.000000
# 4 0.000000 0.000000 0.000000 0.030746 0.000000 0.000000
# 5 0.000000 0.000000 0.000000 0.000000 0.072412 0.000000
# 6 0.000000 0.000000 0.000000 0.000000 0.000000 0.043594
#
#
# Mechanical properties :
#
#
# Convention : Reuss Voigt Hill
#
# Bulk Modulus (GPa) = 41.02139 43.80283 42.41211
# Shear Modulus (GPa) = 21.95480 25.03484 23.49482
#
# Velocity S-wave (km/s) = 3.44053 3.67395 3.55916
# Velocity P-wave (km/s) = 6.15633 6.45091 6.30534
#
# Compressibility (1/GPa) = 0.02437753
#
# Stress axis : x y z
#
# Youngs Moduli (GPa) = 48.93005 82.22659 62.41857
#
# Poissons Ratio (x) = -0.02439 0.50667
# Poissons Ratio (y) = -0.01451 0.26842
# Poissons Ratio (z) = 0.39718 0.35360
#
# Static dielectric constant tensor:
#      x y z
#    x 1.621800 0.000000 0.000000 
#    y 0.000000 1.699400 0.000000 
#    z 0.000000 0.000000 1.706410 
# 
# From -- ./inp_files/31100.got.cif
#   From: 2010.05.17/outbox.cif.g08.bks.cpg/sg50_16_cif.got.tgz:31100.got - 2010.06.03 11:33:33.
