data_PCOD9395438
_publ_section_title
;
Structure prediction by ZEFSAII (Michael W. Deem and Ramdas Pophale) SiO2 
 PCOD9395438
Probable space group: P B A N
;
_chemical_formula_sum "Si O2"
_cell_formula_units_Z 40
_cell_length_a 20.412940
_cell_length_b 12.973511
_cell_length_c 7.910125
_cell_angle_alpha 90.000000
_cell_angle_beta 90.000000
_cell_angle_gamma 90.000000
_cell_volume 2094.818641
_symmetry_space_group_name_H-M "P B A N"
_symmetry_group_IT_number 50
_space_group.IT_coordinate_system_code '2'
_symmetry_cell_setting 'orthorhombic'
loop_
_space_group_symop_operation_xyz
x,y,z
1/2-x,1/2-y,z
x,1/2-y,-z
1/2-x,y,-z
-x,-y,-z
1/2+x,1/2+y,-z
-x,1/2+y,z
1/2+x,-y,z
loop_
_atom_site_type_symbol
_atom_site_label
_atom_site_fract_x
_atom_site_fract_y
_atom_site_fract_z
Si Si1 0.343631 0.563702 0.424409
Si Si2 0.090555 0.601795 0.102071
Si Si3 0.057750 0.443871 0.394373
Si Si4 0.455211 0.819116 0.754196
Si Si5 0.273103 0.867510 0.236047
O O1 0.378151 0.458197 0.487901
O O2 0.400598 0.641272 0.373185
O O3 0.290625 0.561677 0.273499
O O4 0.311196 0.615249 0.588101
O O5 0.072849 0.507491 0.223194
O O6 0.061851 0.704361 0.190993
O O7 0.170267 0.610387 0.098588
O O8 0.057858 0.607406 0.917907
O O9 0.000000 0.500000 0.500000
O O10 0.025818 0.337768 0.329831
O O11 0.250000 0.750000 0.217441
#
# Coordination Sequence:
#
# PCOD9395438 Si02
#       5
#     8   8   8   8   8
#     4   9  17  27  43  63  89 128 162 201 242 290
#     4  10  20  30  46  68  99 135 160 210 260 304
#     4   9  19  31  47  63  90 132 173 209 235 297
#     4  10  19  31  43  68  98 132 173 196 255 309
#     4  10  17  27  44  67  97 129 161 200 248 314
#
# _framework density 19.094733000000002
#
# number of rings (size 3 to 8) (size 9 to 14) (size 15 to 20)
#    0.000    2.400    2.000    1.800    2.800    3.200 
#    0.000    0.000    0.000    0.000    0.000    0.000 
#    0.000  155.200    0.000  257.400    0.000    0.400 
#
# Total GULP energy -222740.948823 kJ/mol
# GULP energy per Si atom -5568.523721 kJ/mol
# Density = 1.905127 g / cm^3
# Si number density = 19.094733 Si / 1000 Ang^3
#
#
#
# Elastic Constant Matrix: (Units=GPa)
#
#
# Indices 1 2 3 4 5 6 
#
# 1 110.0764 34.4401 29.8395 0.0000 0.0000 0.0000
# 2 34.4401 18.0304 5.4735 0.0000 0.0000 0.0000
# 3 29.8395 5.4735 69.1110 0.0000 0.0000 0.0000
# 4 0.0000 0.0000 0.0000 12.9677 0.0000 0.0000
# 5 0.0000 0.0000 0.0000 0.0000 23.1713 0.0000
# 6 0.0000 0.0000 0.0000 0.0000 0.0000 30.7687
#
#
#
# Elastic Compliance Matrix: (Units=1/GPa)
#
#
# Indices 1 2 3 4 5 6 
#
# 1 0.025826 -0.047077 -0.007422 0.000000 0.000000 0.000000
# 2 -0.047077 0.142642 0.009029 0.000000 0.000000 0.000000
# 3 -0.007422 0.009029 0.016959 0.000000 0.000000 0.000000
# 4 0.000000 0.000000 0.000000 0.077115 0.000000 0.000000
# 5 0.000000 0.000000 0.000000 0.000000 0.043157 0.000000
# 6 0.000000 0.000000 0.000000 0.000000 0.000000 0.032501
#
#
# Mechanical properties :
#
#
# Convention : Reuss Voigt Hill
#
# Bulk Modulus (GPa) = 10.58346 37.41377 23.99862
# Shear Modulus (GPa) = 10.85459 21.87918 16.36689
#
# Velocity S-wave (km/s) = 2.38683 3.38867 2.93087
# Velocity P-wave (km/s) = 3.62637 5.91161 4.90396
#
# Compressibility (1/GPa) = 0.09448708
#
# Stress axis : x y z
#
# Youngs Moduli (GPa) = 38.72121 7.01055 58.96576
#
# Poissons Ratio (x) = 0.33003 0.43765
# Poissons Ratio (y) = 1.82286 -0.53239
# Poissons Ratio (z) = 0.28739 -0.06330
#
# Static dielectric constant tensor:
#      x y z
#    x 1.752860 0.000000 0.000000 
#    y 0.000000 1.656020 0.000000 
#    z 0.000000 0.000000 1.745300 
# 
# From -- ./inp_files/11291.got.cif
#   From: 2010.05.17/outbox.cif.g08.bks.cpg/sg50_6_cif.got.tgz:11291.got - 2010.06.03 11:33:33.
