data_PCOD9395786
_publ_section_title
;
Structure prediction by ZEFSAII (Michael W. Deem and Ramdas Pophale) SiO2 
 PCOD9395786
Probable space group: P B A N
;
_chemical_formula_sum "Si O2"
_cell_formula_units_Z 54
_cell_length_a 5.224705
_cell_length_b 27.776318
_cell_length_c 20.012833
_cell_angle_alpha 90.000000
_cell_angle_beta 90.000000
_cell_angle_gamma 90.000000
_cell_volume 2904.323715
_symmetry_space_group_name_H-M "P B A N"
_symmetry_group_IT_number 50
_space_group.IT_coordinate_system_code '2'
_symmetry_cell_setting 'orthorhombic'
loop_
_space_group_symop_operation_xyz
x,y,z
1/2-x,1/2-y,z
x,1/2-y,-z
1/2-x,y,-z
-x,-y,-z
1/2+x,1/2+y,-z
-x,1/2+y,z
1/2+x,-y,z
loop_
_atom_site_type_symbol
_atom_site_label
_atom_site_fract_x
_atom_site_fract_y
_atom_site_fract_z
Si Si1 0.696604 0.305841 0.259816
Si Si2 0.190361 0.676264 0.101389
Si Si3 0.759321 0.965477 0.350877
Si Si4 0.696855 0.623054 0.107440
Si Si5 0.980873 0.518921 0.924030
Si Si6 0.250000 0.750000 0.000000
Si Si7 0.750000 0.532996 0.500000
Si Si8 0.196462 0.132323 0.732526
O O1 0.750000 0.250000 0.278400
O O2 0.681378 0.307829 0.178480
O O3 0.432469 0.331262 0.282281
O O4 0.932392 0.339580 0.282381
O O5 0.482569 0.661858 0.086334
O O6 0.097355 0.717090 0.051328
O O7 0.989586 0.633617 0.090083
O O8 0.754309 0.943655 0.426744
O O9 0.772375 0.919203 0.303025
O O10 0.506895 0.999318 0.342691
O O11 0.605506 0.573260 0.077559
O O12 0.689087 0.622258 0.187917
O O13 0.754326 0.488568 0.890566
O O14 0.000000 0.500000 0.000000
O O15 0.500000 0.500000 0.500000
#
# Coordination Sequence:
#
# PCOD9395786 Si02
#       8
#     8   8   8   8   8   2   4   8
#     4  10  19  38  56  77 106 138 174 234 274 329
#     4  10  23  37  56  74 101 124 162 212 274 323
#     4  10  19  33  53  83 120 151 184 224 260 319
#     4  10  22  39  51  74 103 130 162 218 261 305
#     4  10  21  35  53  69  89 127 169 198 236 302
#     4  12  24  38  56  82  92 130 164 204 276 338
#     4   8  16  30  50  76 113 156 185 216 266 304
#     4  10  21  33  56  82 104 141 184 217 275 324
#
# _framework density 18.592969
#
# number of rings (size 3 to 8) (size 9 to 14) (size 15 to 20)
#    0.000    2.074    0.741    2.222    0.000    6.519 
#    0.000    0.000    0.000    0.000    0.000    3.111 
#    0.000    0.000    0.000    0.000    0.000    0.000 
#
# Total GULP energy -300970.724781 kJ/mol
# GULP energy per Si atom -5573.531940 kJ/mol
# Density = 1.855065 g / cm^3
# Si number density = 18.592969 Si / 1000 Ang^3
#
#
#
# Elastic Constant Matrix: (Units=GPa)
#
#
# Indices 1 2 3 4 5 6 
#
# 1 137.2551 37.2177 25.4121 0.0000 0.0000 0.0000
# 2 37.2177 109.7226 37.2851 0.0000 0.0000 0.0000
# 3 25.4121 37.2851 48.8396 0.0000 0.0000 0.0000
# 4 0.0000 0.0000 0.0000 16.1115 0.0000 0.0000
# 5 0.0000 0.0000 0.0000 0.0000 5.1841 0.0000
# 6 0.0000 0.0000 0.0000 0.0000 0.0000 19.9592
#
#
#
# Elastic Compliance Matrix: (Units=1/GPa)
#
#
# Indices 1 2 3 4 5 6 
#
# 1 0.008325 -0.001825 -0.002938 0.000000 0.000000 0.000000
# 2 -0.001825 0.012707 -0.008751 0.000000 0.000000 0.000000
# 3 -0.002938 -0.008751 0.028684 0.000000 0.000000 0.000000
# 4 0.000000 0.000000 0.000000 0.062068 0.000000 0.000000
# 5 0.000000 0.000000 0.000000 0.000000 0.192899 0.000000
# 6 0.000000 0.000000 0.000000 0.000000 0.000000 0.050102
#
#
# Mechanical properties :
#
#
# Convention : Reuss Voigt Hill
#
# Bulk Modulus (GPa) = 44.07703 55.07190 49.57446
# Shear Modulus (GPa) = 12.84109 21.31110 17.07610
#
# Velocity S-wave (km/s) = 2.63086 3.38922 3.03383
# Velocity P-wave (km/s) = 5.74337 6.70819 6.24444
#
# Compressibility (1/GPa) = 0.02268755
#
# Stress axis : x y z
#
# Youngs Moduli (GPa) = 120.12585 78.69893 34.86221
#
# Poissons Ratio (x) = 0.14365 0.10242
# Poissons Ratio (y) = 0.21927 0.30507
# Poissons Ratio (z) = 0.35292 0.68867
#
# Static dielectric constant tensor:
#      x y z
#    x 1.711220 0.000000 0.000000 
#    y 0.000000 1.647430 0.000000 
#    z 0.000000 0.000000 1.647220 
# 
# From -- ./inp_files/30451.got.cif
#   From: 2010.05.17/outbox.cif.g08.bks.cpg/sg50_16_cif.got.tgz:30451.got - 2010.06.03 11:33:33.
