data_PCOD9395377
_publ_section_title
;
Structure prediction by ZEFSAII (Michael W. Deem and Ramdas Pophale) SiO2 
 PCOD9395377
Probable space group: P B A N
;
_chemical_formula_sum "Si O2"
_cell_formula_units_Z 48
_cell_length_a 5.431809
_cell_length_b 27.108544
_cell_length_c 13.765863
_cell_angle_alpha 90.000000
_cell_angle_beta 90.000000
_cell_angle_gamma 90.000000
_cell_volume 2027.001759
_symmetry_space_group_name_H-M "P B A N"
_symmetry_group_IT_number 50
_space_group.IT_coordinate_system_code '2'
_symmetry_cell_setting 'orthorhombic'
loop_
_space_group_symop_operation_xyz
x,y,z
1/2-x,1/2-y,z
x,1/2-y,-z
1/2-x,y,-z
-x,-y,-z
1/2+x,1/2+y,-z
-x,1/2+y,z
1/2+x,-y,z
loop_
_atom_site_type_symbol
_atom_site_label
_atom_site_fract_x
_atom_site_fract_y
_atom_site_fract_z
Si Si1 0.750500 0.308667 0.117746
Si Si2 0.251010 0.137552 0.882495
Si Si3 0.882191 0.982258 0.637262
Si Si4 0.322665 0.479061 0.140139
Si Si5 0.500960 0.380953 0.437937
Si Si6 0.000403 0.230246 0.386984
O O1 0.750000 0.250000 0.135041
O O2 0.497962 0.334534 0.152613
O O3 0.998384 0.336553 0.153380
O O4 0.750000 0.314173 0.000000
O O5 0.265685 0.079193 0.860618
O O6 0.250000 0.141672 0.000000
O O7 0.844240 0.997610 0.748462
O O8 0.976759 0.926673 0.633310
O O9 0.607836 0.986356 0.593512
O O10 0.590200 0.491646 0.097530
O O11 0.750000 0.386685 0.500000
O O12 0.510061 0.328039 0.389016
O O13 0.250000 0.380611 0.500000
O O14 0.250000 0.250000 0.341276
O O15 0.002470 0.250000 0.500000
O O16 0.750000 0.250000 0.343248
#
# Coordination Sequence:
#
# PCOD9395377 Si02
#       6
#     8   8   8   8   8   8
#     4   9  17  30  49  78 111 141 170 211 269 320
#     4  10  19  31  53  83 106 134 182 227 261 311
#     4  10  23  40  53  73 104 139 174 209 260 321
#     4  10  21  38  56  72 103 146 177 213 271 325
#     4  12  21  32  56  81 100 132 169 213 259 295
#     4  10  16  30  48  74 103 127 157 196 248 311
#
# _framework density 23.680292999999999
#
# number of rings (size 3 to 8) (size 9 to 14) (size 15 to 20)
#    0.000    1.833    3.333    2.500    0.000    4.667 
#    0.000    0.000    0.000    3.000    0.000    0.000 
#    0.000    0.000    0.000    0.000    0.000    0.000 
#
# Total GULP energy -268382.221748 kJ/mol
# GULP energy per Si atom -5591.296286 kJ/mol
# Density = 2.362640 g / cm^3
# Si number density = 23.680293 Si / 1000 Ang^3
#
#
#
# Elastic Constant Matrix: (Units=GPa)
#
#
# Indices 1 2 3 4 5 6 
#
# 1 275.4882 88.4576 24.7109 0.0000 0.0000 0.0000
# 2 88.4576 173.3543 -13.3695 0.0000 0.0000 0.0000
# 3 24.7109 -13.3695 59.9248 0.0000 0.0000 0.0000
# 4 0.0000 0.0000 0.0000 22.2685 0.0000 0.0000
# 5 0.0000 0.0000 0.0000 0.0000 8.0203 0.0000
# 6 0.0000 0.0000 0.0000 0.0000 0.0000 48.9028
#
#
#
# Elastic Compliance Matrix: (Units=1/GPa)
#
#
# Indices 1 2 3 4 5 6 
#
# 1 0.004685 -0.002584 -0.002508 0.000000 0.000000 0.000000
# 2 -0.002584 0.007295 0.002693 0.000000 0.000000 0.000000
# 3 -0.002508 0.002693 0.018323 0.000000 0.000000 0.000000
# 4 0.000000 0.000000 0.000000 0.044907 0.000000 0.000000
# 5 0.000000 0.000000 0.000000 0.000000 0.124684 0.000000
# 6 0.000000 0.000000 0.000000 0.000000 0.000000 0.020449
#
#
# Mechanical properties :
#
#
# Convention : Reuss Voigt Hill
#
# Bulk Modulus (GPa) = 39.20993 78.70725 58.95859
# Shear Modulus (GPa) = 21.40043 43.10287 32.25165
#
# Velocity S-wave (km/s) = 3.00946 4.27101 3.69448
# Velocity P-wave (km/s) = 5.35442 7.59155 6.56892
#
# Compressibility (1/GPa) = 0.02550374
#
# Stress axis : x y z
#
# Youngs Moduli (GPa) = 213.46744 137.08632 54.57715
#
# Poissons Ratio (x) = 0.35421 0.13689
# Poissons Ratio (y) = 0.55156 -0.14697
# Poissons Ratio (z) = 0.53542 -0.36917
#
# Static dielectric constant tensor:
#      x y z
#    x 1.983880 0.000000 0.000000 
#    y 0.000000 1.963100 0.000000 
#    z 0.000000 0.000000 1.906890 
# 
# From -- ./inp_files/24066.got.cif
#   From: 2010.05.17/outbox.cif.g08.bks.cpg/sg50_13_cif.got.tgz:24066.got - 2010.06.03 11:33:33.
