data_PCOD9395600
_publ_section_title
;
Structure prediction by ZEFSAII (Michael W. Deem and Ramdas Pophale) SiO2 
 PCOD9395600
Probable space group: P B A N
;
_chemical_formula_sum "Si O2"
_cell_formula_units_Z 58
_cell_length_a 12.269747
_cell_length_b 30.742009
_cell_length_c 8.594543
_cell_angle_alpha 90.000000
_cell_angle_beta 90.000000
_cell_angle_gamma 90.000000
_cell_volume 3241.833023
_symmetry_space_group_name_H-M "P B A N"
_symmetry_group_IT_number 50
_space_group.IT_coordinate_system_code '2'
_symmetry_cell_setting 'orthorhombic'
loop_
_space_group_symop_operation_xyz
x,y,z
1/2-x,1/2-y,z
x,1/2-y,-z
1/2-x,y,-z
-x,-y,-z
1/2+x,1/2+y,-z
-x,1/2+y,z
1/2+x,-y,z
loop_
_atom_site_type_symbol
_atom_site_label
_atom_site_fract_x
_atom_site_fract_y
_atom_site_fract_z
Si Si1 0.442022 0.793646 0.689398
Si Si2 0.891047 0.122469 0.843523
Si Si3 0.143318 0.979712 0.606005
Si Si4 0.750000 0.250000 0.500000
Si Si5 0.353835 0.603770 0.797879
Si Si6 0.537290 0.932263 0.607502
Si Si7 0.362987 0.232796 0.678729
Si Si8 0.958807 0.852418 0.588789
O O1 0.425833 0.827530 0.827604
O O2 0.330954 0.775815 0.614956
O O3 0.526224 0.755768 0.736381
O O4 0.492311 0.822524 0.548851
O O5 0.769525 0.120079 0.770957
O O6 0.973054 0.091989 0.745895
O O7 0.882622 0.108694 0.021716
O O8 0.250000 0.979641 0.500000
O O9 0.149870 0.946632 0.748997
O O10 0.051226 0.957466 0.498064
O O11 0.116528 0.028842 0.656126
O O12 0.442562 0.629982 0.695992
O O13 0.589150 0.894786 0.498055
O O14 0.250000 0.250000 0.751406
O O15 0.358882 0.250000 0.500000
O O16 0.377880 0.180690 0.676680
#
# Coordination Sequence:
#
# PCOD9395600 Si02
#       8
#     8   8   8   2   8   8   8   8
#     4  10  19  30  53  80 109 138 185 226 275 328
#     4  10  20  34  50  80 108 145 176 220 279 343
#     4  10  18  34  54  80 105 134 176 225 274 329
#     4  12  16  28  54  86 108 144 174 234 284 320
#     4  10  20  33  55  74 110 145 173 223 283 338
#     4   9  19  32  54  81 104 130 180 223 270 331
#     4   9  17  33  53  78 106 140 182 229 271 320
#     4   9  17  34  52  79  99 140 177 224 272 320
#
# _framework density 17.891112
#
# number of rings (size 3 to 8) (size 9 to 14) (size 15 to 20)
#    0.000    2.345    3.448    0.828    0.000    0.552 
#    7.448    0.690    0.000    1.655    0.000    0.000 
#    0.000    0.000    0.000    0.000    0.000    0.000 
#
# Total GULP energy -322958.632657 kJ/mol
# GULP energy per Si atom -5568.252287 kJ/mol
# Density = 1.785039 g / cm^3
# Si number density = 17.891112 Si / 1000 Ang^3
#
#
#
# Elastic Constant Matrix: (Units=GPa)
#
#
# Indices 1 2 3 4 5 6 
#
# 1 66.2566 55.1008 17.1024 0.0000 0.0000 0.0000
# 2 55.1008 139.8024 29.3973 0.0000 0.0000 0.0000
# 3 17.1024 29.3973 47.0378 0.0000 0.0000 0.0000
# 4 0.0000 0.0000 0.0000 -31.0792 0.0000 0.0000
# 5 0.0000 0.0000 0.0000 0.0000 9.9601 0.0000
# 6 0.0000 0.0000 0.0000 0.0000 0.0000 17.2752
#
#
#
# Elastic Compliance Matrix: (Units=1/GPa)
#
#
# Indices 1 2 3 4 5 6 
#
# 1 0.022834 -0.008351 -0.003083 0.000000 0.000000 0.000000
# 2 -0.008351 0.011290 -0.004019 0.000000 0.000000 0.000000
# 3 -0.003083 -0.004019 0.024892 0.000000 0.000000 0.000000
# 4 0.000000 0.000000 0.000000 -0.032176 0.000000 0.000000
# 5 0.000000 0.000000 0.000000 0.000000 0.100401 0.000000
# 6 0.000000 0.000000 0.000000 0.000000 0.000000 0.057887
#
#
# Mechanical properties :
#
#
# Convention : Reuss Voigt Hill
#
# Bulk Modulus (GPa) = 35.57579 50.69977 43.13778
# Shear Modulus (GPa) = 22.18242 9.33095 15.75668
#
# Velocity S-wave (km/s) = 3.52498 2.28620 2.97088
# Velocity P-wave (km/s) = 6.04112 5.94714 5.99431
#
# Compressibility (1/GPa) = 0.02810900
#
# Stress axis : x y z
#
# Youngs Moduli (GPa) = 43.79481 88.57674 40.17304
#
# Poissons Ratio (x) = 0.73973 0.12384
# Poissons Ratio (y) = 0.36574 0.16147
# Poissons Ratio (z) = 0.13501 0.35601
#
# Static dielectric constant tensor:
#      x y z
#    x 1.658620 0.000000 0.000000 
#    y 0.000000 1.644060 0.000000 
#    z 0.000000 0.000000 1.601620 
# 
# From -- ./inp_files/11827.got.cif
#   From: 2010.05.17/outbox.cif.g08.bks.cpg/sg50_6_cif.got.tgz:11827.got - 2010.06.03 11:33:33.
