data_PCOD9395644
_publ_section_title
;
Structure prediction by ZEFSAII (Michael W. Deem and Ramdas Pophale) SiO2 
 PCOD9395644
Probable space group: P B A N
;
_chemical_formula_sum "Si O2"
_cell_formula_units_Z 64
_cell_length_a 17.222439
_cell_length_b 13.442685
_cell_length_c 12.650108
_cell_angle_alpha 90.000000
_cell_angle_beta 90.000000
_cell_angle_gamma 90.000000
_cell_volume 2928.700157
_symmetry_space_group_name_H-M "P B A N"
_symmetry_group_IT_number 50
_space_group.IT_coordinate_system_code '2'
_symmetry_cell_setting 'orthorhombic'
loop_
_space_group_symop_operation_xyz
x,y,z
1/2-x,1/2-y,z
x,1/2-y,-z
1/2-x,y,-z
-x,-y,-z
1/2+x,1/2+y,-z
-x,1/2+y,z
1/2+x,-y,z
loop_
_atom_site_type_symbol
_atom_site_label
_atom_site_fract_x
_atom_site_fract_y
_atom_site_fract_z
Si Si1 0.418240 0.944298 0.997279
Si Si2 0.567295 0.392723 0.774081
Si Si3 0.958974 0.826466 0.403046
Si Si4 0.868173 0.026313 0.414882
Si Si5 0.461349 0.910554 0.223526
Si Si6 0.623971 0.682287 0.723439
Si Si7 0.166429 0.348233 0.950456
Si Si8 0.690400 0.488988 0.637020
O O1 0.420734 0.868241 0.898006
O O2 0.365506 0.040841 0.971258
O O3 0.412472 0.899698 0.115430
O O4 0.500000 0.000000 0.000000
O O5 0.531299 0.328817 0.678427
O O6 0.502046 0.480346 0.777081
O O7 0.650248 0.433301 0.734458
O O8 0.971740 0.750000 0.500000
O O9 0.929569 0.936119 0.434026
O O10 0.885777 0.784680 0.336064
O O11 0.843445 0.062233 0.531090
O O12 0.783078 0.001784 0.365968
O O13 0.910316 0.095499 0.329238
O O14 0.537746 0.843291 0.232292
O O15 0.674456 0.674324 0.827068
O O16 0.653871 0.599144 0.643215
O O17 0.123390 0.250000 0.000000
O O18 0.250000 0.349874 0.000000
#
# Coordination Sequence:
#
# PCOD9395644 Si02
#       8
#     8   8   8   8   8   8   8   8
#     4  10  18  38  55  79 113 156 204 238 282 348
#     4   9  20  36  59  78 112 158 200 252 279 355
#     4  11  23  36  58  88 120 160 197 246 309 366
#     4  10  22  35  57  85 116 159 193 249 299 361
#     4   9  20  34  59  80 110 155 206 242 282 353
#     4  11  22  38  53  84 120 153 195 243 295 366
#     4  11  25  36  55  88 124 159 185 244 309 369
#     4  10  20  38  55  83 119 155 201 243 299 360
#
# _framework density 21.852698
#
# number of rings (size 3 to 8) (size 9 to 14) (size 15 to 20)
#    0.000    1.875    5.000    0.000    8.750    3.000 
#    0.000    0.000    0.000    0.750    0.000    0.000 
#    0.000    3.500    0.000    0.000    0.000    0.000 
#
# Total GULP energy -356335.921104 kJ/mol
# GULP energy per Si atom -5567.748767 kJ/mol
# Density = 2.180296 g / cm^3
# Si number density = 21.852698 Si / 1000 Ang^3
#
#
#
# Elastic Constant Matrix: (Units=GPa)
#
#
# Indices 1 2 3 4 5 6 
#
# 1 70.0754 23.9251 42.6567 0.0000 0.0000 0.0000
# 2 23.9251 28.6494 20.0824 0.0000 0.0000 0.0000
# 3 42.6567 20.0824 126.4277 0.0000 0.0000 0.0000
# 4 0.0000 0.0000 0.0000 6.3425 0.0000 0.0000
# 5 0.0000 0.0000 0.0000 0.0000 23.8812 0.0000
# 6 0.0000 0.0000 0.0000 0.0000 0.0000 -13.4948
#
#
#
# Elastic Compliance Matrix: (Units=1/GPa)
#
#
# Indices 1 2 3 4 5 6 
#
# 1 0.022660 -0.015263 -0.005221 0.000000 0.000000 0.000000
# 2 -0.015263 0.049560 -0.002722 0.000000 0.000000 0.000000
# 3 -0.005221 -0.002722 0.010104 0.000000 0.000000 0.000000
# 4 0.000000 0.000000 0.000000 0.157666 0.000000 0.000000
# 5 0.000000 0.000000 0.000000 0.000000 0.041874 0.000000
# 6 0.000000 0.000000 0.000000 0.000000 0.000000 -0.074103
#
#
# Mechanical properties :
#
#
# Convention : Reuss Voigt Hill
#
# Bulk Modulus (GPa) = 27.84779 44.27566 36.06173
# Shear Modulus (GPa) = 18.78690 12.57834 15.68262
#
# Velocity S-wave (km/s) = 2.93526 2.40176 2.68181
# Velocity P-wave (km/s) = 4.92531 5.29115 5.11150
#
# Compressibility (1/GPa) = 0.03590949
#
# Stress axis : x y z
#
# Youngs Moduli (GPa) = 44.13139 20.17773 98.97458
#
# Poissons Ratio (x) = 0.30798 0.51673
# Poissons Ratio (y) = 0.67360 0.26945
# Poissons Ratio (z) = 0.23040 0.05493
#
# Static dielectric constant tensor:
#      x y z
#    x 1.784880 0.000000 0.000000 
#    y 0.000000 1.878310 0.000000 
#    z 0.000000 0.000000 1.854700 
# 
# From -- ./inp_files/21947.got.cif
#   From: 2010.05.17/outbox.cif.g08.bks.cpg/sg50_11_cif.got.tgz:21947.got - 2010.06.03 11:33:33.
