data_PCOD9395097
_publ_section_title
;
Structure prediction by ZEFSAII (Michael W. Deem and Ramdas Pophale) SiO2 
 PCOD9395097
Probable space group: P C C M
;
_chemical_formula_sum "Si O2"
_cell_formula_units_Z 48
_cell_length_a 10.253824
_cell_length_b 9.107128
_cell_length_c 26.877804
_cell_angle_alpha 90.000000
_cell_angle_beta 90.000000
_cell_angle_gamma 90.000000
_cell_volume 2509.926951
_symmetry_space_group_name_H-M "P C C M"
_symmetry_group_IT_number 49
_symmetry_cell_setting 'orthorhombic'
loop_
_space_group_symop_operation_xyz
x,y,z
-x,-y,z
x,-y,1/2-z
-x,y,1/2-z
-x,-y,-z
x,y,-z
-x,y,1/2+z
x,-y,1/2+z
loop_
_atom_site_type_symbol
_atom_site_label
_atom_site_fract_x
_atom_site_fract_y
_atom_site_fract_z
Si Si1 0.879414 0.088474 0.942680
Si Si2 0.120117 0.410128 0.399030
Si Si3 0.633783 0.920355 0.905359
Si Si4 0.983784 0.753684 0.693331
Si Si5 0.217669 0.973914 0.693402
Si Si6 0.637162 0.414479 0.440440
O O1 0.860799 0.249144 0.921338
O O2 0.752119 0.991174 0.935964
O O3 0.910423 0.110292 0.000000
O O4 0.000000 0.000000 0.918760
O O5 0.070394 0.368998 0.343614
O O6 0.249955 0.502057 0.409627
O O7 0.000000 0.500000 0.422722
O O8 0.672262 0.958465 0.848241
O O9 0.625287 0.749214 0.918558
O O10 0.500000 0.000000 0.918337
O O11 0.000000 0.702322 0.750000
O O12 0.123935 0.832085 0.684223
O O13 0.878556 0.885979 0.688464
O O14 0.266586 0.000000 0.750000
O O15 0.500000 0.500000 0.435567
O O16 0.668963 0.409859 0.500000
#
# Coordination Sequence:
#
# PCOD9395097 Si02
#       6
#     8   8   8   8   8   8
#     4  11  23  39  62  91 123 161 215 268 311 374
#     4  12  23  37  62  92 131 166 208 264 325 386
#     4  12  24  40  66  93 122 169 221 270 321 386
#     4   9  18  35  63  95 125 160 205 263 322 381
#     4   9  18  36  63  96 126 156 206 269 326 378
#     4  11  26  45  62  90 135 180 218 267 333 394
#
# _framework density 19.124063
#
# number of rings (size 3 to 8) (size 9 to 14) (size 15 to 20)
#    0.000    1.333    1.667    6.000    0.000    6.000 
#    0.000    0.000    0.000    0.000    0.000    0.000 
#    0.000    0.000    0.000    0.000    0.000    0.000 
#
# Total GULP energy -267785.792878 kJ/mol
# GULP energy per Si atom -5578.870685 kJ/mol
# Density = 1.908054 g / cm^3
# Si number density = 19.124063 Si / 1000 Ang^3
#
#
#
# Elastic Constant Matrix: (Units=GPa)
#
#
# Indices 1 2 3 4 5 6 
#
# 1 97.3939 57.4687 5.9544 0.0000 0.0000 0.0000
# 2 57.4687 148.6353 38.8526 0.0000 0.0000 0.0000
# 3 5.9544 38.8526 90.8698 0.0000 0.0000 0.0000
# 4 0.0000 0.0000 0.0000 80.2736 0.0000 0.0000
# 5 0.0000 0.0000 0.0000 0.0000 166.1031 0.0000
# 6 0.0000 0.0000 0.0000 0.0000 0.0000 31.4019
#
#
#
# Elastic Compliance Matrix: (Units=1/GPa)
#
#
# Indices 1 2 3 4 5 6 
#
# 1 0.013485 -0.005610 0.001515 0.000000 0.000000 0.000000
# 2 -0.005610 0.009908 -0.003869 0.000000 0.000000 0.000000
# 3 0.001515 -0.003869 0.012560 0.000000 0.000000 0.000000
# 4 0.000000 0.000000 0.000000 0.012457 0.000000 0.000000
# 5 0.000000 0.000000 0.000000 0.000000 0.006020 0.000000
# 6 0.000000 0.000000 0.000000 0.000000 0.000000 0.031845
#
#
# Mechanical properties :
#
#
# Convention : Reuss Voigt Hill
#
# Bulk Modulus (GPa) = 49.93630 60.16115 55.04872
# Shear Modulus (GPa) = 45.92263 71.19726 58.55994
#
# Velocity S-wave (km/s) = 4.90562 6.10819 5.53963
# Velocity P-wave (km/s) = 7.63252 9.01517 8.35250
#
# Compressibility (1/GPa) = 0.02002551
#
# Stress axis : x y z
#
# Youngs Moduli (GPa) = 74.15536 100.92644 79.62010
#
# Poissons Ratio (x) = 0.56619 -0.12062
# Poissons Ratio (y) = 0.41601 0.30803
# Poissons Ratio (z) = -0.11234 0.39046
#
# Static dielectric constant tensor:
#      x y z
#    x 1.080640 0.000000 0.000000 
#    y 0.000000 1.665050 0.000000 
#    z 0.000000 0.000000 1.805180 
# 
# From -- ./inp_files/26264.got.cif
#   From: 2010.05.17/outbox.cif.g08.bks.cpg/sg49_14_cif.got.tgz:26264.got - 2010.06.03 21:02:19.
