data_PCOD9395132
_publ_section_title
;
Structure prediction by ZEFSAII (Michael W. Deem and Ramdas Pophale) SiO2 
 PCOD9395132
Probable space group: P C C M
;
_chemical_formula_sum "Si O2"
_cell_formula_units_Z 64
_cell_length_a 26.780234
_cell_length_b 9.098822
_cell_length_c 14.904493
_cell_angle_alpha 90.000000
_cell_angle_beta 90.000000
_cell_angle_gamma 90.000000
_cell_volume 3631.756679
_symmetry_space_group_name_H-M "P C C M"
_symmetry_group_IT_number 49
_symmetry_cell_setting 'orthorhombic'
loop_
_space_group_symop_operation_xyz
x,y,z
-x,-y,z
x,-y,1/2-z
-x,y,1/2-z
-x,-y,-z
x,y,-z
-x,y,1/2+z
x,-y,1/2+z
loop_
_atom_site_type_symbol
_atom_site_label
_atom_site_fract_x
_atom_site_fract_y
_atom_site_fract_z
Si Si1 0.241573 0.825761 0.893250
Si Si2 0.581129 0.822133 0.250000
Si Si3 0.942224 0.324323 0.250000
Si Si4 0.241573 0.825761 0.606750
Si Si5 0.500000 0.821656 0.397242
Si Si6 0.689079 0.325125 0.250000
Si Si7 0.873439 0.174589 0.393935
Si Si8 0.873439 0.174589 0.106065
O O1 0.280001 0.733216 0.835572
O O2 0.184038 0.787641 0.870694
O O3 0.248122 1.000000 0.874466
O O4 0.247940 0.805430 0.000000
O O5 0.548238 0.780905 0.337600
O O6 0.548238 0.780905 0.162401
O O7 0.634394 0.746186 0.250000
O O8 0.586600 0.000000 0.250000
O O9 0.940598 0.500000 0.250000
O O10 0.912737 0.262192 0.335495
O O11 0.912738 0.262192 0.164505
O O12 0.000000 0.277169 0.250000
O O13 0.247941 0.805430 0.500000
O O14 0.280001 0.733216 0.664428
O O15 0.184038 0.787642 0.629305
O O16 0.500000 0.768382 0.500000
O O17 0.500000 0.000000 0.400187
O O18 0.686033 0.500000 0.250000
O O19 0.879845 0.199890 0.500000
O O20 0.879118 0.000000 0.377666
O O21 0.879844 0.199890 0.000000
#
# Coordination Sequence:
#
# PCOD9395132 Si02
#       8
#     8   8   8   8   8   8   8   8
#     4   9  19  37  59  80 103 136 179 222 264 313
#     4   9  18  33  53  77 103 134 176 219 260 309
#     4  11  24  37  50  75 110 144 175 209 258 320
#     4   9  19  37  59  80 103 136 179 222 264 313
#     4   8  15  31  56  80  98 124 172 229 270 301
#     4  12  24  34  49  79 119 151 175 212 259 312
#     4   9  19  37  60  82 102 130 174 225 270 312
#     4   9  19  37  60  82 102 130 174 225 270 312
#
# _framework density 17.622326000000001
#
# number of rings (size 3 to 8) (size 9 to 14) (size 15 to 20)
#    0.000    2.500    0.000    4.500    0.000    7.500 
#    0.000    8.750    0.000    0.750    0.000    0.000 
#    0.000    0.000    0.000    0.000    0.000    0.000 
#
# Total GULP energy -357191.882594 kJ/mol
# GULP energy per Si atom -5581.123166 kJ/mol
# Density = 1.758222 g / cm^3
# Si number density = 17.622326 Si / 1000 Ang^3
#
#
#
# Elastic Constant Matrix: (Units=GPa)
#
#
# Indices 1 2 3 4 5 6 
#
# 1 184.9491 84.0762 95.0853 0.0000 0.0000 0.0000
# 2 84.0762 61.5377 53.4746 0.0000 0.0000 0.0000
# 3 95.0853 53.4746 115.7286 0.0000 0.0000 0.0000
# 4 0.0000 0.0000 0.0000 147.8212 0.0000 0.0000
# 5 0.0000 0.0000 0.0000 0.0000 37.3722 0.0000
# 6 0.0000 0.0000 0.0000 0.0000 0.0000 -136.0792
#
#
#
# Elastic Compliance Matrix: (Units=1/GPa)
#
#
# Indices 1 2 3 4 5 6 
#
# 1 0.015854 -0.017280 -0.005042 0.000000 0.000000 0.000000
# 2 -0.017280 0.045986 -0.007051 0.000000 0.000000 0.000000
# 3 -0.005042 -0.007051 0.016042 0.000000 0.000000 0.000000
# 4 0.000000 0.000000 0.000000 0.006765 0.000000 0.000000
# 5 0.000000 0.000000 0.000000 0.000000 0.026758 0.000000
# 6 0.000000 0.000000 0.000000 0.000000 0.000000 -0.007349
#
#
# Mechanical properties :
#
#
# Convention : Reuss Voigt Hill
#
# Bulk Modulus (GPa) = 52.25696 91.94309 72.10002
# Shear Modulus (GPa) = 29.55434 18.46146 24.00790
#
# Velocity S-wave (km/s) = 4.09968 3.24020 3.69502
# Velocity P-wave (km/s) = 7.21998 8.14162 7.69461
#
# Compressibility (1/GPa) = 0.01913621
#
# Stress axis : x y z
#
# Youngs Moduli (GPa) = 63.07534 21.74573 62.33824
#
# Poissons Ratio (x) = 0.37576 0.31429
# Poissons Ratio (y) = 1.08992 0.43957
# Poissons Ratio (z) = 0.31801 0.15334
#
# Static dielectric constant tensor:
#      x y z
#    x 1.575850 0.000000 0.000000 
#    y 0.000000 1.573340 0.000000 
#    z 0.000000 0.000000 1.606510 
# 
# From -- ./inp_files/14528.got.cif
#   From: 2010.05.17/outbox.cif.g08.bks.cpg/sg49_8_cif.got.tgz:14528.got - 2010.06.03 21:02:19.
