data_PCOD9395222
_publ_section_title
;
Structure prediction by ZEFSAII (Michael W. Deem and Ramdas Pophale) SiO2 
 PCOD9395222
Probable space group: P C C M
;
_chemical_formula_sum "Si O2"
_cell_formula_units_Z 64
_cell_length_a 24.000000
_cell_length_b 15.000000
_cell_length_c 9.000000
_cell_angle_alpha 90.000000
_cell_angle_beta 90.000000
_cell_angle_gamma 90.000000
_cell_volume 3240.000000
_symmetry_space_group_name_H-M "P C C M"
_symmetry_group_IT_number 49
_symmetry_cell_setting 'orthorhombic'
loop_
_space_group_symop_operation_xyz
x,y,z
-x,-y,z
x,-y,1/2-z
-x,y,1/2-z
-x,-y,-z
x,y,-z
-x,y,1/2+z
x,-y,1/2+z
loop_
_atom_site_type_symbol
_atom_site_label
_atom_site_fract_x
_atom_site_fract_y
_atom_site_fract_z
Si Si1 0.942349 0.233223 0.821803
Si Si2 0.120028 0.406268 0.679096
Si Si3 0.732502 0.855403 0.678358
Si Si4 0.556024 0.262776 0.677061
Si Si5 0.754520 0.352424 0.177129
Si Si6 0.644402 0.585323 0.825450
Si Si7 0.608453 0.092650 0.179165
Si Si8 0.148237 0.912367 0.178762
O O1 0.924063 0.331769 0.774376
O O2 0.890369 0.170633 0.782760
O O3 0.000000 0.204905 0.750000
O O4 0.947822 0.231451 0.000000
O O5 0.106890 0.500000 0.750000
O O6 0.119684 0.410690 0.500000
O O7 0.183005 0.377870 0.722717
O O8 0.731906 0.867496 0.500000
O O9 0.742097 0.751225 0.705763
O O10 0.672517 0.888461 0.731146
O O11 0.788581 0.901126 0.736350
O O12 0.500000 0.299936 0.750000
O O13 0.549707 0.251639 0.500000
O O14 0.607750 0.328027 0.705581
O O15 0.570504 0.170825 0.757598
O O16 0.705942 0.403386 0.260440
O O17 0.749902 0.367439 0.000000
O O18 0.617176 0.500000 0.750000
O O19 0.647558 0.572045 0.000000
O O20 0.590722 0.000000 0.250000
O O21 0.606951 0.091036 0.000000
O O22 0.123173 0.000000 0.250000
O O23 0.149969 0.918488 0.000000
#
# Coordination Sequence:
#
# PCOD9395222 Si02
#       8
#     8   8   8   8   8   8   8   8
#     4  10  22  40  59  79 110 151 194 240 288 341
#     4  10  21  37  59  85 115 150 189 236 287 345
#     4   9  17  33  60  88 117 155 190 229 288 350
#     4  11  25  44  64  88 118 155 202 249 292 343
#     4  10  18  35  62  88 118 155 192 232 289 352
#     4  11  24  40  61  91 124 156 194 241 292 349
#     4  11  22  38  63  92 123 158 194 238 293 351
#     4  10  20  37  59  85 116 151 191 234 286 344
#
# _framework density 19.753086
#
# number of rings (size 3 to 8) (size 9 to 14) (size 15 to 20)
#    0.000    1.750    2.500    1.875    0.000    5.000 
#    0.000    6.250    0.000    0.000    0.000    0.000 
#    0.000    0.000    0.000    0.000    0.000    0.000 
#
# Total GULP energy -357264.127180 kJ/mol
# GULP energy per Si atom -5582.251987 kJ/mol
# Density = 1.970813 g / cm^3
# Si number density = 19.753086 Si / 1000 Ang^3
#
#
#
# Elastic Constant Matrix: (Units=GPa)
#
#
# Indices 1 2 3 4 5 6 
#
# 1 49.4127 18.3801 20.1727 0.0000 0.0000 0.0000
# 2 18.3801 13.5121 14.1988 0.0000 0.0000 0.0000
# 3 20.1727 14.1988 2.4393 0.0000 0.0000 0.0000
# 4 0.0000 0.0000 0.0000 23.8247 0.0000 0.0000
# 5 0.0000 0.0000 0.0000 0.0000 35.8585 0.0000
# 6 0.0000 0.0000 0.0000 0.0000 0.0000 -21.3438
#
#
#
# Elastic Compliance Matrix: (Units=1/GPa)
#
#
# Indices 1 2 3 4 5 6 
#
# 1 0.040867 -0.058543 0.002811 0.000000 0.000000 0.000000
# 2 -0.058543 0.069402 0.080166 0.000000 0.000000 0.000000
# 3 0.002811 0.080166 -0.079927 0.000000 0.000000 0.000000
# 4 0.000000 0.000000 0.000000 0.041973 0.000000 0.000000
# 5 0.000000 0.000000 0.000000 0.000000 0.027887 0.000000
# 6 0.000000 0.000000 0.000000 0.000000 0.000000 -0.046852
#
#
# Mechanical properties :
#
#
# Convention : Reuss Voigt Hill
#
# Bulk Modulus (GPa) = 12.62493 18.98528 15.80511
# Shear Modulus (GPa) = 161.88058 8.50871 85.19464
#
# Velocity S-wave (km/s) = 9.06256 2.07771 6.57445
# Velocity P-wave (km/s) = 10.76624 3.92276 8.10246
#
# Compressibility (1/GPa) = 0.07920833
#
# Stress axis : x y z
#
# Youngs Moduli (GPa) = 24.46978 14.40872 -12.51138
#
# Poissons Ratio (x) = 0.84354 0.03517
# Poissons Ratio (y) = 1.43254 1.00299
# Poissons Ratio (z) = -0.06878 -1.15509
#
# Static dielectric constant tensor:
#      x y z
#    x 1.676490 0.000000 0.000000 
#    y 0.000000 1.722850 0.000000 
#    z 0.000000 0.000000 1.651690 
# 
# From -- ./inp_files/4327.got.cif
#   From: 2010.05.17/outbox.ucp.g08.bks.cvg/sg49_3_cif.got.tgz:4327.got - 2010.06.11 16:40:14.
