data_PCOD9395636
_publ_section_title
;
Structure prediction by ZEFSAII (Michael W. Deem and Ramdas Pophale) SiO2 
 PCOD9395636
Probable space group: P B A N
;
_chemical_formula_sum "Si O2"
_cell_formula_units_Z 32
_cell_length_a 9.059583
_cell_length_b 18.216198
_cell_length_c 8.886003
_cell_angle_alpha 90.000000
_cell_angle_beta 90.000000
_cell_angle_gamma 90.000000
_cell_volume 1466.467363
_symmetry_space_group_name_H-M "P B A N"
_symmetry_group_IT_number 50
_space_group.IT_coordinate_system_code '2'
_symmetry_cell_setting 'orthorhombic'
loop_
_space_group_symop_operation_xyz
x,y,z
1/2-x,1/2-y,z
x,1/2-y,-z
1/2-x,y,-z
-x,-y,-z
1/2+x,1/2+y,-z
-x,1/2+y,z
1/2+x,-y,z
loop_
_atom_site_type_symbol
_atom_site_label
_atom_site_fract_x
_atom_site_fract_y
_atom_site_fract_z
Si Si1 0.250000 0.250000 0.000000
Si Si2 0.569937 0.339179 0.248915
Si Si3 0.750000 0.250000 0.000000
Si Si4 0.787933 0.851867 0.253453
Si Si5 0.250000 0.250000 0.500000
Si Si6 0.871204 0.009230 0.378358
Si Si7 0.750000 0.250000 0.500000
O O1 0.161658 0.307178 0.106442
O O2 0.645757 0.300225 0.106242
O O3 0.390587 0.341161 0.250630
O O4 0.608510 0.425036 0.262745
O O5 0.645441 0.299058 0.391953
O O6 0.841629 0.804261 0.394922
O O7 0.833748 0.934548 0.287718
O O8 0.750000 0.029658 0.500000
O O9 0.000000 0.000000 0.500000
#
# Coordination Sequence:
#
# PCOD9395636 Si02
#       7
#     2   8   2   8   2   8   2
#     4  10  26  44  64 100 128 182 220 270 346 398
#     4  11  22  42  64  96 134 175 226 276 342 407
#     4  10  26  44  60  96 136 186 220 278 346 418
#     4  11  22  42  66  96 133 172 226 280 339 410
#     4  10  18  36  64  92 120 162 216 286 330 390
#     4  12  23  42  69 104 132 173 227 289 343 397
#     4  10  22  36  68 100 132 178 226 290 336 406
#
# _framework density 21.821148000000001
#
# number of rings (size 3 to 8) (size 9 to 14) (size 15 to 20)
#    0.000    1.000    5.000    1.500    0.000    3.000 
#    4.500    2.500    0.000    0.000    0.000    0.000 
#    0.000    0.000    0.000    0.000    0.000    0.000 
#
# Total GULP energy -178566.873891 kJ/mol
# GULP energy per Si atom -5580.214809 kJ/mol
# Density = 2.177148 g / cm^3
# Si number density = 21.821148 Si / 1000 Ang^3
#
#
#
# Elastic Constant Matrix: (Units=GPa)
#
#
# Indices 1 2 3 4 5 6 
#
# 1 140.8487 52.1645 38.8404 0.0000 0.0000 0.0000
# 2 52.1645 235.3458 85.6159 0.0000 0.0000 0.0000
# 3 38.8404 85.6159 151.0482 0.0000 0.0000 0.0000
# 4 0.0000 0.0000 0.0000 45.8451 0.0000 0.0000
# 5 0.0000 0.0000 0.0000 0.0000 24.1812 0.0000
# 6 0.0000 0.0000 0.0000 0.0000 0.0000 26.6689
#
#
#
# Elastic Compliance Matrix: (Units=1/GPa)
#
#
# Indices 1 2 3 4 5 6 
#
# 1 0.007937 -0.001281 -0.001315 0.000000 0.000000 0.000000
# 2 -0.001281 0.005560 -0.002822 0.000000 0.000000 0.000000
# 3 -0.001315 -0.002822 0.008558 0.000000 0.000000 0.000000
# 4 0.000000 0.000000 0.000000 0.021813 0.000000 0.000000
# 5 0.000000 0.000000 0.000000 0.000000 0.041354 0.000000
# 6 0.000000 0.000000 0.000000 0.000000 0.000000 0.037497
#
#
# Mechanical properties :
#
#
# Convention : Reuss Voigt Hill
#
# Bulk Modulus (GPa) = 89.13334 97.83160 93.48247
# Shear Modulus (GPa) = 36.41846 42.71383 39.56614
#
# Velocity S-wave (km/s) = 4.08971 4.42911 4.26279
# Velocity P-wave (km/s) = 7.95216 8.43129 8.19523
#
# Compressibility (1/GPa) = 0.01121915
#
# Stress axis : x y z
#
# Youngs Moduli (GPa) = 125.99568 179.87162 116.85038
#
# Poissons Ratio (x) = 0.23039 0.15364
# Poissons Ratio (y) = 0.16138 0.32973
# Poissons Ratio (z) = 0.16567 0.50757
#
# Static dielectric constant tensor:
#      x y z
#    x 1.833450 0.000000 0.000000 
#    y 0.000000 1.780180 0.000000 
#    z 0.000000 0.000000 1.827680 
# 
# From -- ./inp_files/10664.got.cif
#   From: 2010.05.17/outbox.cif.g08.bks.cpg/sg50_6_cif.got.tgz:10664.got - 2010.06.03 11:33:33.
