data_PCOD9395977
_publ_section_title
;
Structure prediction by ZEFSAII (Michael W. Deem and Ramdas Pophale) SiO2 
 PCOD9395977
Probable space group: P B A N
;
_chemical_formula_sum "Si O2"
_cell_formula_units_Z 44
_cell_length_a 16.671232
_cell_length_b 7.943537
_cell_length_c 13.219011
_cell_angle_alpha 90.000000
_cell_angle_beta 90.000000
_cell_angle_gamma 90.000000
_cell_volume 1750.574436
_symmetry_space_group_name_H-M "P B A N"
_symmetry_group_IT_number 50
_space_group.IT_coordinate_system_code '2'
_symmetry_cell_setting 'orthorhombic'
loop_
_space_group_symop_operation_xyz
x,y,z
1/2-x,1/2-y,z
x,1/2-y,-z
1/2-x,y,-z
-x,-y,-z
1/2+x,1/2+y,-z
-x,1/2+y,z
1/2+x,-y,z
loop_
_atom_site_type_symbol
_atom_site_label
_atom_site_fract_x
_atom_site_fract_y
_atom_site_fract_z
Si Si1 0.161628 0.062403 0.025924
Si Si2 0.937139 0.192080 0.327490
Si Si3 0.750000 0.250000 0.166341
Si Si4 0.891059 0.813492 0.391425
Si Si5 0.928237 0.164984 0.099256
Si Si6 0.838606 0.982745 0.743104
O O1 0.132747 0.051783 0.141681
O O2 0.175085 0.250000 0.000000
O O3 0.250000 0.981268 0.000000
O O4 0.095318 0.011636 0.945166
O O5 0.842912 0.695556 0.312076
O O6 0.898434 0.483362 0.629675
O O7 0.885511 0.366701 0.317285
O O8 0.017770 0.242711 0.384303
O O9 0.837474 0.243418 0.114785
O O10 0.754581 0.420584 0.234006
O O11 0.859882 0.750000 0.500000
O O12 0.962736 0.159844 0.210303
O O13 0.964825 0.250000 0.000000
#
# Coordination Sequence:
#
# PCOD9395977 Si02
#       6
#     8   8   4   8   8   8
#     4  11  20  34  62 101 137 182 227 267 344 435
#     4  11  24  40  70  99 133 178 234 285 344 420
#     4  10  19  36  68  95 136 174 217 262 331 414
#     4  12  26  48  70  96 129 183 244 303 350 404
#     4  11  18  36  62  97 136 178 214 266 341 415
#     4  11  23  41  69 104 136 176 235 281 345 424
#
# _framework density 25.134606000000002
#
# number of rings (size 3 to 8) (size 9 to 14) (size 15 to 20)
#    0.000    0.909    7.273    1.909    0.000    0.000 
#    0.000    4.545    0.000   13.091    0.000    0.000 
#    0.000    0.000    0.000    0.000    0.000    0.000 
#
# Total GULP energy -244966.963455 kJ/mol
# GULP energy per Si atom -5567.430988 kJ/mol
# Density = 2.507740 g / cm^3
# Si number density = 25.134606 Si / 1000 Ang^3
#
#
#
# Elastic Constant Matrix: (Units=GPa)
#
#
# Indices 1 2 3 4 5 6 
#
# 1 61.4250 17.2967 15.1168 0.0000 0.0000 0.0000
# 2 17.2967 138.3670 5.5213 0.0000 0.0000 0.0000
# 3 15.1168 5.5213 103.0873 0.0000 0.0000 0.0000
# 4 0.0000 0.0000 0.0000 30.2550 0.0000 0.0000
# 5 0.0000 0.0000 0.0000 0.0000 20.4555 0.0000
# 6 0.0000 0.0000 0.0000 0.0000 0.0000 21.6523
#
#
#
# Elastic Compliance Matrix: (Units=1/GPa)
#
#
# Indices 1 2 3 4 5 6 
#
# 1 0.017470 -0.002086 -0.002450 0.000000 0.000000 0.000000
# 2 -0.002086 0.007492 -0.000095 0.000000 0.000000 0.000000
# 3 -0.002450 -0.000095 0.010065 0.000000 0.000000 0.000000
# 4 0.000000 0.000000 0.000000 0.033052 0.000000 0.000000
# 5 0.000000 0.000000 0.000000 0.000000 0.048887 0.000000
# 6 0.000000 0.000000 0.000000 0.000000 0.000000 0.046184
#
#
# Mechanical properties :
#
#
# Convention : Reuss Voigt Hill
#
# Bulk Modulus (GPa) = 38.81409 42.08319 40.44864
# Shear Modulus (GPa) = 27.62404 32.13553 29.87979
#
# Velocity S-wave (km/s) = 3.31878 3.57954 3.45162
# Velocity P-wave (km/s) = 5.49197 5.81925 5.65798
#
# Compressibility (1/GPa) = 0.02576384
#
# Stress axis : x y z
#
# Youngs Moduli (GPa) = 57.23960 133.48032 99.35501
#
# Poissons Ratio (x) = 0.27846 0.24343
# Poissons Ratio (y) = 0.11941 0.00947
# Poissons Ratio (z) = 0.14025 0.01273
#
# Static dielectric constant tensor:
#      x y z
#    x 2.076100 0.000000 0.000000 
#    y 0.000000 2.119600 0.000000 
#    z 0.000000 0.000000 2.053650 
# 
# From -- ./inp_files/22695.got.cif
#   From: 2010.05.17/outbox.cif.g08.bks.cpg/sg50_12_cif.got.tgz:22695.got - 2010.06.03 11:33:33.
