data_PCOD9395788
_publ_section_title
;
Structure prediction by ZEFSAII (Michael W. Deem and Ramdas Pophale) SiO2 
 PCOD9395788
Probable space group: P B A N
;
_chemical_formula_sum "Si O2"
_cell_formula_units_Z 64
_cell_length_a 22.927227
_cell_length_b 8.839841
_cell_length_c 16.743285
_cell_angle_alpha 90.000000
_cell_angle_beta 90.000000
_cell_angle_gamma 90.000000
_cell_volume 3393.412491
_symmetry_space_group_name_H-M "P B A N"
_symmetry_group_IT_number 50
_space_group.IT_coordinate_system_code '2'
_symmetry_cell_setting 'orthorhombic'
loop_
_space_group_symop_operation_xyz
x,y,z
1/2-x,1/2-y,z
x,1/2-y,-z
1/2-x,y,-z
-x,-y,-z
1/2+x,1/2+y,-z
-x,1/2+y,z
1/2+x,-y,z
loop_
_atom_site_type_symbol
_atom_site_label
_atom_site_fract_x
_atom_site_fract_y
_atom_site_fract_z
Si Si1 0.608515 0.254445 0.263944
Si Si2 0.059809 0.294488 0.912384
Si Si3 0.667174 0.569415 0.262446
Si Si4 0.506469 0.071828 0.190090
Si Si5 0.278534 0.910619 0.767320
Si Si6 0.965641 0.163958 0.418174
Si Si7 0.443082 0.367013 0.645054
Si Si8 0.309367 0.184053 0.875845
O O1 0.634219 0.415251 0.234233
O O2 0.560849 0.185562 0.203966
O O3 0.661008 0.135870 0.272861
O O4 0.579462 0.282163 0.349694
O O5 0.030401 0.429826 0.860473
O O6 0.128809 0.326175 0.919951
O O7 0.045075 0.148883 0.859381
O O8 0.036111 0.250000 0.000000
O O9 0.731032 0.503691 0.284427
O O10 0.623953 0.636538 0.328934
O O11 0.677435 0.698232 0.196749
O O12 0.479358 0.061129 0.279395
O O13 0.250000 0.750000 0.791357
O O14 0.293647 0.020079 0.840623
O O15 0.956106 0.250000 0.500000
O O16 0.028249 0.210645 0.381056
O O17 0.955006 0.986104 0.424900
O O18 0.250000 0.250000 0.913747
#
# Coordination Sequence:
#
# PCOD9395788 Si02
#       8
#     8   8   8   8   8   8   8   8
#     4   9  18  33  55  77 106 145 180 233 270 330
#     4  12  24  37  55  80 115 148 182 238 290 342
#     4   9  17  30  53  81 102 131 188 232 273 316
#     4  11  21  37  55  79 109 143 198 222 282 343
#     4   9  17  32  55  82 103 135 186 241 273 320
#     4  10  20  31  48  80 115 142 177 220 285 338
#     4  10  19  33  54  76 105 149 179 232 269 334
#     4  10  20  35  56  81 108 142 184 234 286 339
#
# _framework density 18.860071000000001
#
# number of rings (size 3 to 8) (size 9 to 14) (size 15 to 20)
#    0.000    2.000    2.500    3.000    0.000    0.250 
#    0.000    0.000    0.000    9.375    0.000    0.875 
#    0.000    0.000    0.000    0.000    0.000    0.000 
#
# Total GULP energy -356344.925097 kJ/mol
# GULP energy per Si atom -5567.889455 kJ/mol
# Density = 1.881714 g / cm^3
# Si number density = 18.860071 Si / 1000 Ang^3
#
#
#
# Elastic Constant Matrix: (Units=GPa)
#
#
# Indices 1 2 3 4 5 6 
#
# 1 98.6735 13.9624 0.8481 0.0000 0.0000 0.0000
# 2 13.9624 46.2366 15.6996 0.0000 0.0000 0.0000
# 3 0.8481 15.6996 54.9001 0.0000 0.0000 0.0000
# 4 0.0000 0.0000 0.0000 13.8056 0.0000 0.0000
# 5 0.0000 0.0000 0.0000 0.0000 10.9627 0.0000
# 6 0.0000 0.0000 0.0000 0.0000 0.0000 31.1929
#
#
#
# Elastic Compliance Matrix: (Units=1/GPa)
#
#
# Indices 1 2 3 4 5 6 
#
# 1 0.010621 -0.003491 0.000834 0.000000 0.000000 0.000000
# 2 -0.003491 0.025101 -0.007124 0.000000 0.000000 0.000000
# 3 0.000834 -0.007124 0.020239 0.000000 0.000000 0.000000
# 4 0.000000 0.000000 0.000000 0.072435 0.000000 0.000000
# 5 0.000000 0.000000 0.000000 0.000000 0.091218 0.000000
# 6 0.000000 0.000000 0.000000 0.000000 0.000000 0.032059
#
#
# Mechanical properties :
#
#
# Convention : Reuss Voigt Hill
#
# Bulk Modulus (GPa) = 27.47235 28.98117 28.22676
# Shear Modulus (GPa) = 17.64495 22.47891 20.06193
#
# Velocity S-wave (km/s) = 3.06203 3.45610 3.26502
# Velocity P-wave (km/s) = 5.20571 5.59696 5.40488
#
# Compressibility (1/GPa) = 0.03640023
#
# Stress axis : x y z
#
# Youngs Moduli (GPa) = 94.15143 39.83915 49.40886
#
# Poissons Ratio (x) = 0.13906 -0.04121
# Poissons Ratio (y) = 0.32864 0.35199
# Poissons Ratio (z) = -0.07853 0.28382
#
# Static dielectric constant tensor:
#      x y z
#    x 1.702970 0.000000 0.000000 
#    y 0.000000 1.704420 0.000000 
#    z 0.000000 0.000000 1.665910 
# 
# From -- ./inp_files/27500.got.cif
#   From: 2010.05.17/outbox.cif.g08.bks.cpg/sg50_14_cif.got.tgz:27500.got - 2010.06.03 11:33:33.
