data_PCOD9395864
_publ_section_title
;
Structure prediction by ZEFSAII (Michael W. Deem and Ramdas Pophale) SiO2 
 PCOD9395864
Probable space group: P B A N
;
_chemical_formula_sum "Si O2"
_cell_formula_units_Z 32
_cell_length_a 5.243368
_cell_length_b 34.550059
_cell_length_c 7.873557
_cell_angle_alpha 90.000000
_cell_angle_beta 90.000000
_cell_angle_gamma 90.000000
_cell_volume 1426.363144
_symmetry_space_group_name_H-M "P B A N"
_symmetry_group_IT_number 50
_space_group.IT_coordinate_system_code '2'
_symmetry_cell_setting 'orthorhombic'
loop_
_space_group_symop_operation_xyz
x,y,z
1/2-x,1/2-y,z
x,1/2-y,-z
1/2-x,y,-z
-x,-y,-z
1/2+x,1/2+y,-z
-x,1/2+y,z
1/2+x,-y,z
loop_
_atom_site_type_symbol
_atom_site_label
_atom_site_fract_x
_atom_site_fract_y
_atom_site_fract_z
Si Si1 0.619081 0.393960 0.183070
Si Si2 0.615991 0.642086 0.319883
Si Si3 0.003416 0.232784 0.694683
Si Si4 0.304492 0.517052 0.799103
O O1 0.347800 0.372267 0.198395
O O2 0.586917 0.439741 0.211374
O O3 0.848759 0.380021 0.303956
O O4 0.750000 0.388033 0.000000
O O5 0.750000 0.636513 0.500000
O O6 0.535706 0.686992 0.304989
O O7 0.750000 0.250000 0.773871
O O8 0.002260 0.250000 0.500000
O O9 0.250000 0.250000 0.781582
O O10 0.521418 0.488874 0.725847
O O11 0.250000 0.508962 0.000000
#
# Coordination Sequence:
#
# PCOD9395864 Si02
#       4
#     8   8   8   8
#     4  11  24  40  62  95 135 163 199 265 327 370
#     4  12  23  39  65  96 123 163 213 261 308 373
#     4  10  19  34  59  90 111 148 205 267 280 339
#     4   9  17  33  59  86 114 162 219 253 285 358
#
# _framework density 22.43468
#
# number of rings (size 3 to 8) (size 9 to 14) (size 15 to 20)
#    0.000    1.500    2.500    4.500    3.500    4.000 
#    0.000    0.000    0.000   26.250    0.000    0.000 
#    0.000    0.000    0.000    0.000    0.000    0.000 
#
# Total GULP energy -178539.162823 kJ/mol
# GULP energy per Si atom -5579.348838 kJ/mol
# Density = 2.238362 g / cm^3
# Si number density = 22.434680 Si / 1000 Ang^3
#
#
#
# Elastic Constant Matrix: (Units=GPa)
#
#
# Indices 1 2 3 4 5 6 
#
# 1 192.5948 50.0493 13.8849 0.0000 0.0000 0.0000
# 2 50.0493 64.1173 22.4931 0.0000 0.0000 0.0000
# 3 13.8849 22.4931 37.1501 0.0000 0.0000 0.0000
# 4 0.0000 0.0000 0.0000 19.7377 0.0000 0.0000
# 5 0.0000 0.0000 0.0000 0.0000 -0.1749 0.0000
# 6 0.0000 0.0000 0.0000 0.0000 0.0000 52.7037
#
#
#
# Elastic Compliance Matrix: (Units=1/GPa)
#
#
# Indices 1 2 3 4 5 6 
#
# 1 0.006533 -0.005387 0.000820 0.000000 0.000000 0.000000
# 2 -0.005387 0.024245 -0.012666 0.000000 0.000000 0.000000
# 3 0.000820 -0.012666 0.034280 0.000000 0.000000 0.000000
# 4 0.000000 0.000000 0.000000 0.050664 0.000000 0.000000
# 5 0.000000 0.000000 0.000000 0.000000 -5.717978 0.000000
# 6 0.000000 0.000000 0.000000 0.000000 0.000000 0.018974
#
#
# Mechanical properties :
#
#
# Convention : Reuss Voigt Hill
#
# Bulk Modulus (GPa) = 32.68851 51.85741 42.27296
# Shear Modulus (GPa) = -0.90275 28.28231 13.68978
#
# Velocity S-wave (km/s) = -0.63503 3.55442 2.47291
# Velocity P-wave (km/s) = 3.75026 6.32536 5.19974
#
# Compressibility (1/GPa) = 0.03059179
#
# Stress axis : x y z
#
# Youngs Moduli (GPa) = 153.06578 41.24532 29.17138
#
# Poissons Ratio (x) = 0.22221 -0.02392
# Poissons Ratio (y) = 0.82463 0.36949
# Poissons Ratio (z) = -0.12553 0.52242
#
# Static dielectric constant tensor:
#      x y z
#    x 1.822480 0.000000 0.000000 
#    y 0.000000 1.837620 0.000000 
#    z 0.000000 0.000000 1.890940 
# 
# From -- ./inp_files/8002.got.cif
#   From: 2010.05.17/outbox.cif.g08.bks.cpg/sg50_5_cif.got.tgz:8002.got - 2010.06.03 11:33:33.
