data_PCOD9395522
_publ_section_title
;
Structure prediction by ZEFSAII (Michael W. Deem and Ramdas Pophale) SiO2 
 PCOD9395522
Probable space group: P B A N
;
_chemical_formula_sum "Si O2"
_cell_formula_units_Z 48
_cell_length_a 13.773572
_cell_length_b 5.375732
_cell_length_c 26.463974
_cell_angle_alpha 90.000000
_cell_angle_beta 90.000000
_cell_angle_gamma 90.000000
_cell_volume 1959.472867
_symmetry_space_group_name_H-M "P B A N"
_symmetry_group_IT_number 50
_space_group.IT_coordinate_system_code '2'
_symmetry_cell_setting 'orthorhombic'
loop_
_space_group_symop_operation_xyz
x,y,z
1/2-x,1/2-y,z
x,1/2-y,-z
1/2-x,y,-z
-x,-y,-z
1/2+x,1/2+y,-z
-x,1/2+y,z
1/2+x,-y,z
loop_
_atom_site_type_symbol
_atom_site_label
_atom_site_fract_x
_atom_site_fract_y
_atom_site_fract_z
Si Si1 0.632388 0.745118 0.768124
Si Si2 0.883470 0.657157 0.556352
Si Si3 0.367246 0.755089 0.292102
Si Si4 0.868076 0.749269 0.882916
Si Si5 0.101901 0.844448 0.404850
Si Si6 0.631991 0.250349 0.942497
O O1 0.750000 0.750000 0.771135
O O2 0.607841 0.486903 0.740882
O O3 0.594873 0.753906 0.825462
O O4 0.607057 0.990113 0.736221
O O5 0.865683 0.750000 0.500000
O O6 0.844821 0.384276 0.568200
O O7 0.998971 0.624179 0.566684
O O8 0.851518 0.882864 0.592409
O O9 0.250000 0.750000 0.299747
O O10 0.413620 0.735208 0.347243
O O11 0.750000 0.750000 0.880435
O O12 0.894685 0.500141 0.912940
O O13 0.894606 0.000133 0.912486
O O14 0.750000 0.250000 0.944955
O O15 0.595359 0.250000 0.000000
#
# Coordination Sequence:
#
# PCOD9395522 Si02
#       6
#     8   8   8   8   8   8
#     4   9  17  28  40  55  77 110 147 177 208 248
#     4  10  19  33  53  71  88 111 141 177 207 245
#     4  10  19  30  44  63  88 114 142 179 216 250
#     4   9  15  23  34  46  65  96 133 172 210 248
#     4  10  18  30  49  70  89 111 140 176 214 249
#     4   9  15  21  30  46  66  89 124 176 227 253
#
# _framework density 24.496382000000001
#
# number of rings (size 3 to 8) (size 9 to 14) (size 15 to 20)
#    0.000    2.500    0.000    5.000    0.000    6.000 
#    0.000    0.000    0.000    5.500    0.000    0.000 
#    0.000    0.000    0.000    0.000    0.000    0.000 
#
# Total GULP energy -268737.635053 kJ/mol
# GULP energy per Si atom -5598.700730 kJ/mol
# Density = 2.444063 g / cm^3
# Si number density = 24.496382 Si / 1000 Ang^3
#
#
#
# Elastic Constant Matrix: (Units=GPa)
#
#
# Indices 1 2 3 4 5 6 
#
# 1 100.1129 -0.5256 -7.5756 0.0000 0.0000 0.0000
# 2 -0.5256 248.3659 88.3613 0.0000 0.0000 0.0000
# 3 -7.5756 88.3613 192.2081 0.0000 0.0000 0.0000
# 4 0.0000 0.0000 0.0000 43.1302 0.0000 0.0000
# 5 0.0000 0.0000 0.0000 0.0000 107.0270 0.0000
# 6 0.0000 0.0000 0.0000 0.0000 0.0000 -36.6018
#
#
#
# Elastic Compliance Matrix: (Units=1/GPa)
#
#
# Indices 1 2 3 4 5 6 
#
# 1 0.010023 -0.000143 0.000461 0.000000 0.000000 0.000000
# 2 -0.000143 0.004816 -0.002219 0.000000 0.000000 0.000000
# 3 0.000461 -0.002219 0.006241 0.000000 0.000000 0.000000
# 4 0.000000 0.000000 0.000000 0.023186 0.000000 0.000000
# 5 0.000000 0.000000 0.000000 0.000000 0.009343 0.000000
# 6 0.000000 0.000000 0.000000 0.000000 0.000000 -0.027321
#
#
# Mechanical properties :
#
#
# Convention : Reuss Voigt Hill
#
# Bulk Modulus (GPa) = 57.88165 77.91192 67.89678
# Shear Modulus (GPa) = 139.47210 53.40620 96.43915
#
# Velocity S-wave (km/s) = 7.55377 4.67429 6.28126
# Velocity P-wave (km/s) = 9.98795 7.81067 8.96565
#
# Compressibility (1/GPa) = 0.01727663
#
# Stress axis : x y z
#
# Youngs Moduli (GPa) = 99.77226 207.65711 160.22642
#
# Poissons Ratio (x) = 0.02962 -0.07380
# Poissons Ratio (y) = 0.01423 0.35561
# Poissons Ratio (z) = -0.04596 0.46088
#
# Static dielectric constant tensor:
#      x y z
#    x 2.613540 0.000000 0.000000 
#    y 0.000000 1.930300 0.000000 
#    z 0.000000 0.000000 1.857120 
# 
# From -- ./inp_files/31858.got.cif
#   From: 2010.05.17/outbox.cif.g08.bks.cpg/sg50_16_cif.got.tgz:31858.got - 2010.06.03 11:33:33.
