data_PCOD9395315
_publ_section_title
;
Structure prediction by ZEFSAII (Michael W. Deem and Ramdas Pophale) SiO2 
 PCOD9395315
Probable space group: P C C M
;
_chemical_formula_sum "Si O2"
_cell_formula_units_Z 58
_cell_length_a 18.000000
_cell_length_b 18.000000
_cell_length_c 9.000000
_cell_angle_alpha 90.000000
_cell_angle_beta 90.000000
_cell_angle_gamma 90.000000
_cell_volume 2916.000000
_symmetry_space_group_name_H-M "P C C M"
_symmetry_group_IT_number 49
_symmetry_cell_setting 'orthorhombic'
loop_
_space_group_symop_operation_xyz
x,y,z
-x,-y,z
x,-y,1/2-z
-x,y,1/2-z
-x,-y,-z
x,y,-z
-x,y,1/2+z
x,-y,1/2+z
loop_
_atom_site_type_symbol
_atom_site_label
_atom_site_fract_x
_atom_site_fract_y
_atom_site_fract_z
Si Si1 0.581210 0.423999 0.177490
Si Si2 0.079599 0.172473 0.320413
Si Si3 0.211960 0.920581 0.675824
Si Si4 0.172486 0.300098 0.179249
Si Si5 0.077252 0.418175 0.680354
Si Si6 0.331136 0.728669 0.824138
Si Si7 0.500000 0.000000 0.750000
Si Si8 0.383167 0.131758 0.831553
O O1 0.612107 0.500000 0.250000
O O2 0.500000 0.413270 0.250000
O O3 0.629993 0.350622 0.204160
O O4 0.574080 0.433820 0.000000
O O5 0.075155 0.176637 0.500000
O O6 0.147782 0.121032 0.267022
O O7 0.107137 0.248559 0.245309
O O8 0.000000 0.150687 0.250000
O O9 0.193236 0.919416 0.500000
O O10 0.297247 0.893199 0.687308
O O11 0.213323 0.000000 0.750000
O O12 0.149957 0.377068 0.256380
O O13 0.252914 0.271353 0.234998
O O14 0.170857 0.301798 0.000000
O O15 0.080497 0.500000 0.750000
O O16 0.074195 0.417552 0.500000
O O17 0.000000 0.386306 0.750000
O O18 0.385483 0.796478 0.775569
O O19 0.315308 0.735839 0.000000
O O20 0.439914 0.061879 0.812280
O O21 0.393414 0.158463 0.000000
#
# Coordination Sequence:
#
# PCOD9395315 Si02
#       8
#     8   8   8   8   8   8   2   8
#     4  10  22  41  66  96 130 172 218 271 330 396
#     4  12  25  43  67  96 129 169 219 274 331 398
#     4  11  23  43  68  97 132 174 219 270 334 393
#     4  12  24  41  64  93 128 171 219 271 330 395
#     4  11  22  39  61  90 128 172 221 276 334 393
#     4  11  25  43  66  97 133 173 221 275 335 401
#     4  12  26  48  72 110 142 180 232 274 334 404
#     4  11  25  44  69 100 138 180 226 276 335 403
#
# _framework density 19.890260999999999
#
# number of rings (size 3 to 8) (size 9 to 14) (size 15 to 20)
#    0.000    0.828    2.069    6.414    0.966    4.690 
#    0.000    2.759    0.000    0.000    0.000    0.000 
#    0.000    0.000    0.000    0.000    0.000    0.000 
#
# Total GULP energy -323625.185293 kJ/mol
# GULP energy per Si atom -5579.744574 kJ/mol
# Density = 1.984499 g / cm^3
# Si number density = 19.890261 Si / 1000 Ang^3
#
#
#
# Elastic Constant Matrix: (Units=GPa)
#
#
# Indices 1 2 3 4 5 6 
#
# 1 91.7740 28.6087 54.2769 0.0000 0.0000 0.0000
# 2 28.6087 102.9748 53.0548 0.0000 0.0000 0.0000
# 3 54.2769 53.0548 180.8499 0.0000 0.0000 0.0000
# 4 0.0000 0.0000 0.0000 28.2616 0.0000 0.0000
# 5 0.0000 0.0000 0.0000 0.0000 1478.2871 0.0000
# 6 0.0000 0.0000 0.0000 0.0000 0.0000 49.2087
#
#
#
# Elastic Compliance Matrix: (Units=1/GPa)
#
#
# Indices 1 2 3 4 5 6 
#
# 1 0.013579 -0.001971 -0.003497 0.000000 0.000000 0.000000
# 2 -0.001971 0.011726 -0.002849 0.000000 0.000000 0.000000
# 3 -0.003497 -0.002849 0.007415 0.000000 0.000000 0.000000
# 4 0.000000 0.000000 0.000000 0.035384 0.000000 0.000000
# 5 0.000000 0.000000 0.000000 0.000000 0.000676 0.000000
# 6 0.000000 0.000000 0.000000 0.000000 0.000000 0.020322
#
#
# Mechanical properties :
#
#
# Convention : Reuss Voigt Hill
#
# Bulk Modulus (GPa) = 62.16232 71.94217 67.05224
# Shear Modulus (GPa) = 45.00569 327.12871 186.06720
#
# Velocity S-wave (km/s) = 4.76195 12.83837 9.68246
# Velocity P-wave (km/s) = 7.84572 16.00041 12.60096
#
# Compressibility (1/GPa) = 0.01608692
#
# Stress axis : x y z
#
# Youngs Moduli (GPa) = 73.64327 85.27851 134.86694
#
# Poissons Ratio (x) = 0.16806 0.47166
# Poissons Ratio (y) = 0.14513 0.38418
# Poissons Ratio (z) = 0.25755 0.24293
#
# Static dielectric constant tensor:
#      x y z
#    x 1.721970 0.000000 0.000000 
#    y 0.000000 1.755220 0.000000 
#    z 0.000000 0.000000 1.670620 
# 
# From -- ./inp_files/5068.got.cif
#   From: 2010.05.17/outbox.ucp.g08.bks.cvg/sg49_3_cif.got.tgz:5068.got - 2010.06.11 16:40:14.
