data_PCOD9395047
_publ_section_title
;
Structure prediction by ZEFSAII (Michael W. Deem and Ramdas Pophale) SiO2 
 PCOD9395047
Probable space group: P C C M
;
_chemical_formula_sum "Si O2"
_cell_formula_units_Z 48
_cell_length_a 11.742067
_cell_length_b 7.595389
_cell_length_c 27.768285
_cell_angle_alpha 90.000000
_cell_angle_beta 90.000000
_cell_angle_gamma 90.000000
_cell_volume 2476.530229
_symmetry_space_group_name_H-M "P C C M"
_symmetry_group_IT_number 49
_symmetry_cell_setting 'orthorhombic'
loop_
_space_group_symop_operation_xyz
x,y,z
-x,-y,z
x,-y,1/2-z
-x,y,1/2-z
-x,-y,-z
x,y,-z
-x,y,1/2+z
x,-y,1/2+z
loop_
_atom_site_type_symbol
_atom_site_label
_atom_site_fract_x
_atom_site_fract_y
_atom_site_fract_z
Si Si1 0.253185 0.682057 0.404278
Si Si2 0.624181 0.010285 0.555195
Si Si3 0.773168 0.721944 0.607314
Si Si4 0.635662 0.712799 0.698959
Si Si5 0.623877 0.286861 0.692661
Si Si6 0.006588 0.212292 0.943353
O O1 0.273033 0.473250 0.404830
O O2 0.291669 0.753003 0.351372
O O3 0.124639 0.724389 0.420002
O O4 0.331208 0.792030 0.440300
O O5 0.615682 0.956675 0.500000
O O6 0.711591 0.876686 0.578776
O O7 0.500000 0.000000 0.577999
O O8 0.736941 0.758054 0.662492
O O9 0.903228 0.721856 0.589944
O O10 0.627603 0.499685 0.697670
O O11 0.507522 0.768554 0.683212
O O12 0.654609 0.776190 0.753600
O O13 0.997375 0.267635 0.000000
O O14 0.000000 0.000000 0.943310
#
# Coordination Sequence:
#
# PCOD9395047 Si02
#       6
#     8   8   8   8   8   8
#     4  11  22  38  62  88 116 154 199 245 292 347
#     4  11  24  39  56  84 121 155 191 242 300 356
#     4  11  22  38  62  88 116 154 199 245 292 347
#     4   8  15  31  57  88 120 153 190 234 287 349
#     4   8  15  31  57  88 120 153 190 234 287 349
#     4  11  23  41  62  82 112 158 205 250 299 348
#
# _framework density 19.381955999999999
#
# number of rings (size 3 to 8) (size 9 to 14) (size 15 to 20)
#    0.000    2.000    1.667    3.500    0.000    5.333 
#    0.000    3.333    0.000    8.000    0.000    0.000 
#    0.000    0.000    0.000    0.000    0.000    0.000 
#
# Total GULP energy -267658.284194 kJ/mol
# GULP energy per Si atom -5576.214254 kJ/mol
# Density = 1.933784 g / cm^3
# Si number density = 19.381956 Si / 1000 Ang^3
#
#
#
# Elastic Constant Matrix: (Units=GPa)
#
#
# Indices 1 2 3 4 5 6 
#
# 1 107.1381 -4.0387 50.8155 0.0000 0.0000 0.0000
# 2 -4.0387 57.0545 -2.6138 0.0000 0.0000 0.0000
# 3 50.8155 -2.6138 122.7818 0.0000 0.0000 0.0000
# 4 0.0000 0.0000 0.0000 36.2854 0.0000 0.0000
# 5 0.0000 0.0000 0.0000 0.0000 41.5885 0.0000
# 6 0.0000 0.0000 0.0000 0.0000 0.0000 -5.0236
#
#
#
# Elastic Compliance Matrix: (Units=1/GPa)
#
#
# Indices 1 2 3 4 5 6 
#
# 1 0.011634 0.000604 -0.004802 0.000000 0.000000 0.000000
# 2 0.000604 0.017576 0.000124 0.000000 0.000000 0.000000
# 3 -0.004802 0.000124 0.010135 0.000000 0.000000 0.000000
# 4 0.000000 0.000000 0.000000 0.027559 0.000000 0.000000
# 5 0.000000 0.000000 0.000000 0.000000 0.024045 0.000000
# 6 0.000000 0.000000 0.000000 0.000000 0.000000 -0.199061
#
#
# Mechanical properties :
#
#
# Convention : Reuss Voigt Hill
#
# Bulk Modulus (GPa) = 32.05556 41.70003 36.87780
# Shear Modulus (GPa) = -55.82550 30.75750 -12.53400
#
# Velocity S-wave (km/s) = -5.37265 3.98793 -2.54576
# Velocity P-wave (km/s) = 4.68106 6.53960 3.22909
#
# Compressibility (1/GPa) = 0.03119583
#
# Stress axis : x y z
#
# Youngs Moduli (GPa) = 85.95377 56.89730 98.67148
#
# Poissons Ratio (x) = -0.03434 0.47384
# Poissons Ratio (y) = -0.05188 -0.01227
# Poissons Ratio (z) = 0.41276 -0.00708
#
# Static dielectric constant tensor:
#      x y z
#    x 1.684620 0.000000 0.000000 
#    y 0.000000 1.697640 0.000000 
#    z 0.000000 0.000000 1.702840 
# 
# From -- ./inp_files/22842.got.cif
#   From: 2010.05.17/outbox.cif.g08.bks.cpg/sg49_12_cif.got.tgz:22842.got - 2010.06.03 21:02:19.
