data_PCOD9395753
_publ_section_title
;
Structure prediction by ZEFSAII (Michael W. Deem and Ramdas Pophale) SiO2 
 PCOD9395753
Probable space group: P B A N
;
_chemical_formula_sum "Si O2"
_cell_formula_units_Z 64
_cell_length_a 8.806005
_cell_length_b 18.211085
_cell_length_c 19.644118
_cell_angle_alpha 90.000000
_cell_angle_beta 90.000000
_cell_angle_gamma 90.000000
_cell_volume 3150.266416
_symmetry_space_group_name_H-M "P B A N"
_symmetry_group_IT_number 50
_space_group.IT_coordinate_system_code '2'
_symmetry_cell_setting 'orthorhombic'
loop_
_space_group_symop_operation_xyz
x,y,z
1/2-x,1/2-y,z
x,1/2-y,-z
1/2-x,y,-z
-x,-y,-z
1/2+x,1/2+y,-z
-x,1/2+y,z
1/2+x,-y,z
loop_
_atom_site_type_symbol
_atom_site_label
_atom_site_fract_x
_atom_site_fract_y
_atom_site_fract_z
Si Si1 0.904066 0.157064 0.206880
Si Si2 0.913198 0.713873 0.848812
Si Si3 0.156122 0.418741 0.069529
Si Si4 0.571251 0.672349 0.650443
Si Si5 0.086558 0.151477 0.623800
Si Si6 0.079603 0.838731 0.511411
Si Si7 0.423894 0.890086 0.751507
Si Si8 0.941261 0.979122 0.854345
O O1 0.731824 0.153132 0.232855
O O2 0.958065 0.224315 0.159342
O O3 0.006391 0.158763 0.274853
O O4 0.940575 0.083640 0.165613
O O5 0.750000 0.750000 0.839985
O O6 0.904997 0.663343 0.915871
O O7 0.945337 0.656781 0.788509
O O8 0.284310 0.441071 0.124782
O O9 0.015060 0.472826 0.084583
O O10 0.250000 0.423708 0.000000
O O11 0.737869 0.638313 0.640655
O O12 0.571427 0.760878 0.639247
O O13 0.470027 0.644128 0.587922
O O14 0.038938 0.136164 0.546245
O O15 0.971140 0.109181 0.673381
O O16 0.082843 0.750000 0.500000
O O17 0.250000 0.865970 0.500000
O O18 0.417287 0.967202 0.790258
#
# Coordination Sequence:
#
# PCOD9395753 Si02
#       8
#     8   8   8   8   8   8   8   8
#     4  12  22  38  60  92 131 157 211 266 320 367
#     4  11  22  38  63  92 124 158 201 259 318 370
#     4  11  24  45  69  92 124 166 209 249 314 386
#     4  10  20  30  54  83 119 165 206 263 322 373
#     4  10  19  32  52  81 121 162 214 261 316 378
#     4   9  17  30  47  76 119 164 211 259 315 378
#     4  11  23  37  61  90 123 167 207 261 316 371
#     4  11  24  42  66  92 123 165 210 255 309 384
#
# _framework density 20.315740000000002
#
# number of rings (size 3 to 8) (size 9 to 14) (size 15 to 20)
#    0.000    1.375    3.750    2.625    1.750    2.750 
#    0.000    0.000    0.000    0.750    3.250    0.000 
#    0.000    0.000    0.000    0.000    0.000    0.000 
#
# Total GULP energy -357289.898985 kJ/mol
# GULP energy per Si atom -5582.654672 kJ/mol
# Density = 2.026950 g / cm^3
# Si number density = 20.315740 Si / 1000 Ang^3
#
#
#
# Elastic Constant Matrix: (Units=GPa)
#
#
# Indices 1 2 3 4 5 6 
#
# 1 99.6893 28.1122 21.2269 0.0000 0.0000 0.0000
# 2 28.1122 61.9678 33.9643 0.0000 0.0000 0.0000
# 3 21.2269 33.9643 66.7015 0.0000 0.0000 0.0000
# 4 0.0000 0.0000 0.0000 8.7651 0.0000 0.0000
# 5 0.0000 0.0000 0.0000 0.0000 26.6658 0.0000
# 6 0.0000 0.0000 0.0000 0.0000 0.0000 17.9052
#
#
#
# Elastic Compliance Matrix: (Units=1/GPa)
#
#
# Indices 1 2 3 4 5 6 
#
# 1 0.011597 -0.004492 -0.001403 0.000000 0.000000 0.000000
# 2 -0.004492 0.024125 -0.010855 0.000000 0.000000 0.000000
# 3 -0.001403 -0.010855 0.020966 0.000000 0.000000 0.000000
# 4 0.000000 0.000000 0.000000 0.114089 0.000000 0.000000
# 5 0.000000 0.000000 0.000000 0.000000 0.037501 0.000000
# 6 0.000000 0.000000 0.000000 0.000000 0.000000 0.055850
#
#
# Mechanical properties :
#
#
# Convention : Reuss Voigt Hill
#
# Bulk Modulus (GPa) = 43.12655 43.88506 43.50580
# Shear Modulus (GPa) = 16.37432 20.33755 18.35594
#
# Velocity S-wave (km/s) = 2.84208 3.16741 3.00914
# Velocity P-wave (km/s) = 5.66075 5.91819 5.79090
#
# Compressibility (1/GPa) = 0.02318757
#
# Stress axis : x y z
#
# Youngs Moduli (GPa) = 86.23182 41.45142 47.69631
#
# Poissons Ratio (x) = 0.18619 0.06693
# Poissons Ratio (y) = 0.38733 0.51773
# Poissons Ratio (z) = 0.12101 0.44995
#
# Static dielectric constant tensor:
#      x y z
#    x 1.719180 0.000000 0.000000 
#    y 0.000000 1.738970 0.000000 
#    z 0.000000 0.000000 1.720800 
# 
# From -- ./inp_files/30747.got.cif
#   From: 2010.05.17/outbox.cif.g08.bks.cpg/sg50_16_cif.got.tgz:30747.got - 2010.06.03 11:33:33.
