data_PCOD9395030
_publ_section_title
;
Structure prediction by ZEFSAII (Michael W. Deem and Ramdas Pophale) SiO2 
 PCOD9395030
Probable space group: P C C M
;
_chemical_formula_sum "Si O2"
_cell_formula_units_Z 64
_cell_length_a 11.478128
_cell_length_b 14.519923
_cell_length_c 17.108379
_cell_angle_alpha 90.000000
_cell_angle_beta 90.000000
_cell_angle_gamma 90.000000
_cell_volume 2851.308701
_symmetry_space_group_name_H-M "P C C M"
_symmetry_group_IT_number 49
_symmetry_cell_setting 'orthorhombic'
loop_
_space_group_symop_operation_xyz
x,y,z
-x,-y,z
x,-y,1/2-z
-x,y,1/2-z
-x,-y,-z
x,y,-z
-x,y,1/2+z
x,-y,1/2+z
loop_
_atom_site_type_symbol
_atom_site_label
_atom_site_fract_x
_atom_site_fract_y
_atom_site_fract_z
Si Si1 0.411337 0.857530 0.313962
Si Si2 0.370547 0.524949 0.342630
Si Si3 0.066535 0.916143 0.165618
Si Si4 0.762046 0.298400 0.695709
Si Si5 0.704336 0.979656 0.409289
Si Si6 0.790948 0.637278 0.630492
Si Si7 0.591785 0.220327 0.915539
Si Si8 0.014067 0.269528 0.089035
O O1 0.500000 0.897925 0.250000
O O2 0.299643 0.799389 0.285487
O O3 0.366201 0.933775 0.374815
O O4 0.492673 0.778323 0.351553
O O5 0.500000 0.500000 0.372723
O O6 0.373695 0.500000 0.250000
O O7 0.325423 0.629033 0.344776
O O8 0.273857 0.459132 0.380968
O O9 0.000000 0.906300 0.250000
O O10 0.051641 0.820829 0.121504
O O11 0.197826 0.952229 0.155170
O O12 0.000000 0.000000 0.124120
O O13 0.801551 0.343081 0.777129
O O14 0.873490 0.283875 0.641845
O O15 0.744128 0.998176 0.500000
O O16 0.630108 0.886395 0.415233
O O17 0.701524 0.714888 0.599534
O O18 0.918054 0.650102 0.594870
O O19 0.542121 0.243695 0.000000
O O20 0.048702 0.254940 0.000000
#
# Coordination Sequence:
#
# PCOD9395030 Si02
#       8
#     8   8   8   8   8   8   8   8
#     4  12  25  42  67  99 138 185 235 293 354 418
#     4   9  20  39  72 105 137 172 226 295 359 429
#     4  11  24  41  67  96 132 180 242 300 346 417
#     4  11  24  43  68 102 137 176 232 291 353 421
#     4  11  25  44  64  95 140 186 234 288 359 428
#     4  11  21  43  72 100 133 178 234 290 354 427
#     4  11  23  41  66  95 134 179 231 284 349 423
#     4  12  26  44  66  96 141 187 233 289 359 430
#
# _framework density 22.445834000000001
#
# number of rings (size 3 to 8) (size 9 to 14) (size 15 to 20)
#    0.000    1.000    2.500    4.125    1.750    8.500 
#    0.000    3.750    0.000    2.625    0.000    0.000 
#    0.000    0.000    0.000    0.000    0.000    0.000 
#
# Total GULP energy -357531.861265 kJ/mol
# GULP energy per Si atom -5586.435332 kJ/mol
# Density = 2.239475 g / cm^3
# Si number density = 22.445834 Si / 1000 Ang^3
#
#
#
# Elastic Constant Matrix: (Units=GPa)
#
#
# Indices 1 2 3 4 5 6 
#
# 1 107.7349 32.6597 30.8706 0.0000 0.0000 0.0000
# 2 32.6597 101.7847 6.8167 0.0000 0.0000 0.0000
# 3 30.8706 6.8167 93.7623 0.0000 0.0000 0.0000
# 4 0.0000 0.0000 0.0000 -39.9084 0.0000 0.0000
# 5 0.0000 0.0000 0.0000 0.0000 6.3140 0.0000
# 6 0.0000 0.0000 0.0000 0.0000 0.0000 31.5203
#
#
#
# Elastic Compliance Matrix: (Units=1/GPa)
#
#
# Indices 1 2 3 4 5 6 
#
# 1 0.011307 -0.003395 -0.003476 0.000000 0.000000 0.000000
# 2 -0.003395 0.010892 0.000326 0.000000 0.000000 0.000000
# 3 -0.003476 0.000326 0.011786 0.000000 0.000000 0.000000
# 4 0.000000 0.000000 0.000000 -0.025057 0.000000 0.000000
# 5 0.000000 0.000000 0.000000 0.000000 0.158377 0.000000
# 6 0.000000 0.000000 0.000000 0.000000 0.000000 0.031726
#
#
# Mechanical properties :
#
#
# Convention : Reuss Voigt Hill
#
# Bulk Modulus (GPa) = 47.85858 49.33065 48.59461
# Shear Modulus (GPa) = 22.82199 15.11418 18.96809
#
# Velocity S-wave (km/s) = 3.19212 2.59774 2.91015
# Velocity P-wave (km/s) = 5.91222 5.56983 5.74358
#
# Compressibility (1/GPa) = 0.02089490
#
# Stress axis : x y z
#
# Youngs Moduli (GPa) = 88.43785 91.80787 84.84626
#
# Poissons Ratio (x) = 0.31172 0.29493
# Poissons Ratio (y) = 0.30028 -0.02766
# Poissons Ratio (z) = 0.30741 -0.02993
#
# Static dielectric constant tensor:
#      x y z
#    x 1.982460 0.000000 0.000000 
#    y 0.000000 1.822790 0.000000 
#    z 0.000000 0.000000 1.871650 
# 
# From -- ./inp_files/17271.got.cif
#   From: 2010.05.17/outbox.cif.g08.bks.cpg/sg49_9_cif.got.tgz:17271.got - 2010.06.03 21:02:19.
