data_PCOD9395713
_publ_section_title
;
Structure prediction by ZEFSAII (Michael W. Deem and Ramdas Pophale) SiO2 
 PCOD9395713
Probable space group: P B A N
;
_chemical_formula_sum "Si O2"
_cell_formula_units_Z 40
_cell_length_a 5.225666
_cell_length_b 24.350777
_cell_length_c 17.022179
_cell_angle_alpha 90.000000
_cell_angle_beta 90.000000
_cell_angle_gamma 90.000000
_cell_volume 2166.055723
_symmetry_space_group_name_H-M "P B A N"
_symmetry_group_IT_number 50
_space_group.IT_coordinate_system_code '2'
_symmetry_cell_setting 'orthorhombic'
loop_
_space_group_symop_operation_xyz
x,y,z
1/2-x,1/2-y,z
x,1/2-y,-z
1/2-x,y,-z
-x,-y,-z
1/2+x,1/2+y,-z
-x,1/2+y,z
1/2+x,-y,z
loop_
_atom_site_type_symbol
_atom_site_label
_atom_site_fract_x
_atom_site_fract_y
_atom_site_fract_z
Si Si1 0.257669 0.316639 0.689769
Si Si2 0.693946 0.635835 0.859773
Si Si3 0.433833 0.020717 0.089574
Si Si4 0.742121 0.316165 0.410892
Si Si5 0.189026 0.691138 0.908490
O O1 0.250000 0.250000 0.707311
O O2 0.241255 0.352962 0.768032
O O3 0.514264 0.330178 0.642123
O O4 0.017403 0.329487 0.634355
O O5 0.796767 0.578952 0.897011
O O6 0.396578 0.648100 0.875656
O O7 0.891339 0.678654 0.898969
O O8 0.718704 0.019753 0.124865
O O9 0.500000 0.000000 0.000000
O O10 0.750000 0.250000 0.416873
O O11 0.750000 0.337921 0.500000
O O12 0.250000 0.750000 0.870628
O O13 0.250000 0.692978 0.000000
#
# Coordination Sequence:
#
# PCOD9395713 Si02
#       5
#     8   8   8   8   8
#     4  10  19  31  50  78 111 145 179 216 267 325
#     4  12  23  37  59  77 110 145 186 239 286 326
#     4  10  23  39  58  79 100 134 189 244 295 340
#     4   9  17  30  49  75 111 150 180 207 248 317
#     4  11  24  37  53  78 108 145 186 223 271 338
#
# _framework density 18.466745
#
# number of rings (size 3 to 8) (size 9 to 14) (size 15 to 20)
#    0.000    1.600    0.000    5.400    8.400    5.600 
#    0.000    0.000    0.000    0.000    0.000    0.000 
#    0.000   16.000    0.000    0.000    0.000    0.000 
#
# Total GULP energy -222897.654228 kJ/mol
# GULP energy per Si atom -5572.441356 kJ/mol
# Density = 1.842471 g / cm^3
# Si number density = 18.466745 Si / 1000 Ang^3
#
#
#
# Elastic Constant Matrix: (Units=GPa)
#
#
# Indices 1 2 3 4 5 6 
#
# 1 104.4520 8.0160 16.2753 0.0000 0.0000 0.0000
# 2 8.0160 72.6392 12.3034 0.0000 0.0000 0.0000
# 3 16.2753 12.3034 105.9381 0.0000 0.0000 0.0000
# 4 0.0000 0.0000 0.0000 9.0186 0.0000 0.0000
# 5 0.0000 0.0000 0.0000 0.0000 9.9036 0.0000
# 6 0.0000 0.0000 0.0000 0.0000 0.0000 17.6413
#
#
#
# Elastic Compliance Matrix: (Units=1/GPa)
#
#
# Indices 1 2 3 4 5 6 
#
# 1 0.009860 -0.000848 -0.001416 0.000000 0.000000 0.000000
# 2 -0.000848 0.014116 -0.001509 0.000000 0.000000 0.000000
# 3 -0.001416 -0.001509 0.009832 0.000000 0.000000 0.000000
# 4 0.000000 0.000000 0.000000 0.110882 0.000000 0.000000
# 5 0.000000 0.000000 0.000000 0.000000 0.100973 0.000000
# 6 0.000000 0.000000 0.000000 0.000000 0.000000 0.056685
#
#
# Mechanical properties :
#
#
# Convention : Reuss Voigt Hill
#
# Bulk Modulus (GPa) = 38.07957 39.57985 38.82971
# Shear Modulus (GPa) = 15.69130 23.74169 19.71650
#
# Velocity S-wave (km/s) = 2.91813 3.58948 3.27108
# Velocity P-wave (km/s) = 5.65857 6.21761 5.94467
#
# Compressibility (1/GPa) = 0.02626080
#
# Stress axis : x y z
#
# Youngs Moduli (GPa) = 101.42469 70.84223 101.70546
#
# Poissons Ratio (x) = 0.06009 0.14404
# Poissons Ratio (y) = 0.08602 0.15348
# Poissons Ratio (z) = 0.14364 0.10691
#
# Static dielectric constant tensor:
#      x y z
#    x 1.707820 0.000000 0.000000 
#    y 0.000000 1.724120 0.000000 
#    z 0.000000 0.000000 1.668860 
# 
# From -- ./inp_files/23930.got.cif
#   From: 2010.05.17/outbox.cif.g08.bks.cpg/sg50_12_cif.got.tgz:23930.got - 2010.06.03 11:33:33.
