data_PCOD9395767
_publ_section_title
;
Structure prediction by ZEFSAII (Michael W. Deem and Ramdas Pophale) SiO2 
 PCOD9395767
Probable space group: P B A N
;
_chemical_formula_sum "Si O2"
_cell_formula_units_Z 36
_cell_length_a 19.895332
_cell_length_b 8.690697
_cell_length_c 11.045841
_cell_angle_alpha 90.000000
_cell_angle_beta 90.000000
_cell_angle_gamma 90.000000
_cell_volume 1909.873430
_symmetry_space_group_name_H-M "P B A N"
_symmetry_group_IT_number 50
_space_group.IT_coordinate_system_code '2'
_symmetry_cell_setting 'orthorhombic'
loop_
_space_group_symop_operation_xyz
x,y,z
1/2-x,1/2-y,z
x,1/2-y,-z
1/2-x,y,-z
-x,-y,-z
1/2+x,1/2+y,-z
-x,1/2+y,z
1/2+x,-y,z
loop_
_atom_site_type_symbol
_atom_site_label
_atom_site_fract_x
_atom_site_fract_y
_atom_site_fract_z
Si Si1 0.674061 0.003041 0.157971
Si Si2 0.250000 0.250000 0.000000
Si Si3 0.442767 0.411478 0.334512
Si Si4 0.732329 0.932693 0.636240
Si Si5 0.419713 0.051342 0.385130
Si Si6 0.750000 0.250000 0.000000
O O1 0.601325 0.972588 0.220979
O O2 0.720541 0.021136 0.274534
O O3 0.697634 0.143841 0.074869
O O4 0.701684 0.854615 0.083773
O O5 0.434490 0.229258 0.353310
O O6 0.420649 0.474602 0.468447
O O7 0.521217 0.452763 0.326096
O O8 0.750000 0.750000 0.649335
O O9 0.750000 0.971434 0.500000
O O10 0.655372 0.971312 0.660846
#
# Coordination Sequence:
#
# PCOD9395767 Si02
#       6
#     8   2   8   8   8   2
#     4  11  20  40  59  85 116 161 204 261 287 361
#     4  10  20  34  66  84 104 170 232 238 280 342
#     4  10  19  34  56  83 128 152 184 238 314 362
#     4  11  17  32  64  94 115 143 202 255 302 361
#     4  10  19  32  56  96 118 153 181 241 312 389
#     4  10  28  38  58  84 124 166 222 248 300 318
#
# _framework density 18.849416999999999
#
# number of rings (size 3 to 8) (size 9 to 14) (size 15 to 20)
#    0.000    1.556    5.556    1.333    0.000    1.778 
#    0.000    0.556    0.000   22.667    0.000    0.000 
#    0.000    0.000    0.000    0.000    0.000    0.000 
#
# Total GULP energy -200571.027294 kJ/mol
# GULP energy per Si atom -5571.417425 kJ/mol
# Density = 1.880651 g / cm^3
# Si number density = 18.849417 Si / 1000 Ang^3
#
#
#
# Elastic Constant Matrix: (Units=GPa)
#
#
# Indices 1 2 3 4 5 6 
#
# 1 135.9684 18.9404 29.0510 0.0000 0.0000 0.0000
# 2 18.9404 45.3287 43.3515 0.0000 0.0000 0.0000
# 3 29.0510 43.3515 99.9916 0.0000 0.0000 0.0000
# 4 0.0000 0.0000 0.0000 1.1115 0.0000 0.0000
# 5 0.0000 0.0000 0.0000 0.0000 36.8558 0.0000
# 6 0.0000 0.0000 0.0000 0.0000 0.0000 24.6432
#
#
#
# Elastic Compliance Matrix: (Units=1/GPa)
#
#
# Indices 1 2 3 4 5 6 
#
# 1 0.007936 -0.001898 -0.001483 0.000000 0.000000 0.000000
# 2 -0.001898 0.038142 -0.015985 0.000000 0.000000 0.000000
# 3 -0.001483 -0.015985 0.017362 0.000000 0.000000 0.000000
# 4 0.000000 0.000000 0.000000 0.899651 0.000000 0.000000
# 5 0.000000 0.000000 0.000000 0.000000 0.027133 0.000000
# 6 0.000000 0.000000 0.000000 0.000000 0.000000 0.040579
#
#
# Mechanical properties :
#
#
# Convention : Reuss Voigt Hill
#
# Bulk Modulus (GPa) = 40.47225 51.55272 46.01248
# Shear Modulus (GPa) = 4.63921 25.18517 14.91219
#
# Velocity S-wave (km/s) = 1.57052 3.65927 2.81574
# Velocity P-wave (km/s) = 4.98063 6.72776 5.91902
#
# Compressibility (1/GPa) = 0.02470829
#
# Stress axis : x y z
#
# Youngs Moduli (GPa) = 126.01062 26.21791 57.59702
#
# Poissons Ratio (x) = 0.04976 0.08541
# Poissons Ratio (y) = 0.23914 0.92069
# Poissons Ratio (z) = 0.18685 0.41910
#
# Static dielectric constant tensor:
#      x y z
#    x 2.163390 0.000000 0.000000 
#    y 0.000000 1.570890 0.000000 
#    z 0.000000 0.000000 1.628040 
# 
# From -- ./inp_files/22195.got.cif
#   From: 2010.05.17/outbox.cif.g08.bks.cpg/sg50_12_cif.got.tgz:22195.got - 2010.06.03 11:33:33.
