data_PCOD9395371
_publ_section_title
;
Structure prediction by ZEFSAII (Michael W. Deem and Ramdas Pophale) SiO2 
 PCOD9395371
Probable space group: P B A N
;
_chemical_formula_sum "Si O2"
_cell_formula_units_Z 48
_cell_length_a 18.715476
_cell_length_b 15.348340
_cell_length_c 7.219486
_cell_angle_alpha 90.000000
_cell_angle_beta 90.000000
_cell_angle_gamma 90.000000
_cell_volume 2073.808103
_symmetry_space_group_name_H-M "P B A N"
_symmetry_group_IT_number 50
_space_group.IT_coordinate_system_code '2'
_symmetry_cell_setting 'orthorhombic'
loop_
_space_group_symop_operation_xyz
x,y,z
1/2-x,1/2-y,z
x,1/2-y,-z
1/2-x,y,-z
-x,-y,-z
1/2+x,1/2+y,-z
-x,1/2+y,z
1/2+x,-y,z
loop_
_atom_site_type_symbol
_atom_site_label
_atom_site_fract_x
_atom_site_fract_y
_atom_site_fract_z
Si Si1 0.932277 0.779751 0.783708
Si Si2 0.330795 0.754665 0.278132
Si Si3 0.912475 0.084203 0.846934
Si Si4 0.437242 0.904684 0.262895
Si Si5 0.831741 0.582106 0.067261
Si Si6 0.067822 0.089412 0.703755
O O1 0.860690 0.836869 0.811406
O O2 0.921338 0.692162 0.664937
O O3 0.994318 0.842721 0.700385
O O4 0.953351 0.750000 0.000000
O O5 0.250000 0.750000 0.214013
O O6 0.332386 0.750000 0.500000
O O7 0.375343 0.676709 0.187636
O O8 0.367311 0.846396 0.245660
O O9 0.982303 0.083255 0.721713
O O10 0.854678 0.007103 0.829668
O O11 0.948324 0.072003 0.048108
O O12 0.419648 0.991988 0.378475
O O13 0.750000 0.585470 0.000000
O O14 0.880989 0.584631 0.884355
#
# Coordination Sequence:
#
# PCOD9395371 Si02
#       6
#     8   8   8   8   8   8
#     4  10  16  29  50  79 120 151 173 229 282 330
#     4  11  26  41  56  82 117 149 186 241 301 342
#     4  11  19  35  60  86 112 150 192 234 281 343
#     4  11  18  35  60  85 112 148 190 235 279 341
#     4  10  20  30  50  88 124 148 183 232 292 337
#     4  10  19  31  54  86 117 151 185 236 283 329
#
# _framework density 23.145826
#
# number of rings (size 3 to 8) (size 9 to 14) (size 15 to 20)
#    0.000    1.500    6.667    1.500    4.667    3.667 
#    0.000    0.833    0.000    0.000    0.000    0.000 
#    0.000    0.000    0.000    0.000    0.000    0.000 
#
# Total GULP energy -267496.904929 kJ/mol
# GULP energy per Si atom -5572.852186 kJ/mol
# Density = 2.309314 g / cm^3
# Si number density = 23.145826 Si / 1000 Ang^3
#
#
#
# Elastic Constant Matrix: (Units=GPa)
#
#
# Indices 1 2 3 4 5 6 
#
# 1 140.0539 61.9104 -13.7108 0.0000 0.0000 0.0000
# 2 61.9104 211.1049 4.3119 0.0000 0.0000 0.0000
# 3 -13.7108 4.3119 43.9160 0.0000 0.0000 0.0000
# 4 0.0000 0.0000 0.0000 78.2690 0.0000 0.0000
# 5 0.0000 0.0000 0.0000 0.0000 24.1118 0.0000
# 6 0.0000 0.0000 0.0000 0.0000 0.0000 27.2925
#
#
#
# Elastic Compliance Matrix: (Units=1/GPa)
#
#
# Indices 1 2 3 4 5 6 
#
# 1 0.008563 -0.002571 0.002926 0.000000 0.000000 0.000000
# 2 -0.002571 0.005518 -0.001345 0.000000 0.000000 0.000000
# 3 0.002926 -0.001345 0.023816 0.000000 0.000000 0.000000
# 4 0.000000 0.000000 0.000000 0.012776 0.000000 0.000000
# 5 0.000000 0.000000 0.000000 0.000000 0.041473 0.000000
# 6 0.000000 0.000000 0.000000 0.000000 0.000000 0.036640
#
#
# Mechanical properties :
#
#
# Convention : Reuss Voigt Hill
#
# Bulk Modulus (GPa) = 27.84093 55.56642 41.70367
# Shear Modulus (GPa) = 35.02874 48.77221 41.90048
#
# Velocity S-wave (km/s) = 3.89446 4.59537 4.25936
# Velocity P-wave (km/s) = 5.68128 7.22605 6.49972
#
# Compressibility (1/GPa) = 0.03591834
#
# Stress axis : x y z
#
# Youngs Moduli (GPa) = 116.78073 181.21045 41.98820
#
# Poissons Ratio (x) = 0.46590 -0.12285
# Poissons Ratio (y) = 0.30025 0.05645
# Poissons Ratio (z) = -0.34168 0.24364
#
# Static dielectric constant tensor:
#      x y z
#    x 1.858090 0.000000 0.000000 
#    y 0.000000 1.822270 0.000000 
#    z 0.000000 0.000000 1.755030 
# 
# From -- ./inp_files/14213.got.cif
#   From: 2010.05.17/outbox.cif.g08.bks.cpg/sg50_8_cif.got.tgz:14213.got - 2010.06.03 11:33:33.
