data_PCOD9395139
_publ_section_title
;
Structure prediction by ZEFSAII (Michael W. Deem and Ramdas Pophale) SiO2 
 PCOD9395139
Probable space group: P C C M
;
_chemical_formula_sum "Si O2"
_cell_formula_units_Z 38
_cell_length_a 12.133044
_cell_length_b 5.382593
_cell_length_c 25.114849
_cell_angle_alpha 90.000000
_cell_angle_beta 90.000000
_cell_angle_gamma 90.000000
_cell_volume 1640.181414
_symmetry_space_group_name_H-M "P C C M"
_symmetry_group_IT_number 49
_symmetry_cell_setting 'orthorhombic'
loop_
_space_group_symop_operation_xyz
x,y,z
-x,-y,z
x,-y,1/2-z
-x,y,1/2-z
-x,-y,-z
x,y,-z
-x,y,1/2+z
x,-y,1/2+z
loop_
_atom_site_type_symbol
_atom_site_label
_atom_site_fract_x
_atom_site_fract_y
_atom_site_fract_z
Si Si1 0.173030 0.657568 0.058129
Si Si2 0.112992 0.145289 0.330776
Si Si3 0.326593 0.783782 0.670872
Si Si4 0.682859 0.160360 0.556902
Si Si5 0.807638 0.500000 0.750000
Si Si6 0.500000 0.000000 0.250000
O O1 0.113138 0.692986 0.114479
O O2 0.226506 0.383131 0.057979
O O3 0.261992 0.886108 0.058086
O O4 0.114669 0.685481 0.000000
O O5 0.119330 0.285042 0.274503
O O6 0.223466 0.975099 0.331652
O O7 0.000000 0.000000 0.333570
O O8 0.377678 0.784059 0.612098
O O9 0.268694 0.549599 0.698384
O O10 0.420183 0.849360 0.712109
O O11 0.623351 0.184277 0.500000
#
# Coordination Sequence:
#
# PCOD9395139 Si02
#       6
#     8   8   8   8   4   2
#     4   9  18  36  63  95 132 175 223 276 339 413
#     4  11  24  41  64  96 136 177 224 281 345 420
#     4  11  24  42  64  96 131 175 232 287 345 410
#     4   9  18  37  65  94 131 174 224 287 346 409
#     4  12  22  44  64  94 130 183 227 278 346 422
#     4  12  24  46  64  96 134 180 240 302 340 418
#
# _framework density 23.16817
#
# number of rings (size 3 to 8) (size 9 to 14) (size 15 to 20)
#    0.000    1.684    4.211    0.000    0.000    4.211 
#    0.000    0.526    0.000    6.316    0.000    8.842 
#    0.000    0.842    0.000    0.000    0.000    0.000 
#
# Total GULP energy -211847.518269 kJ/mol
# GULP energy per Si atom -5574.934691 kJ/mol
# Density = 2.311544 g / cm^3
# Si number density = 23.168170 Si / 1000 Ang^3
#
#
#
# Elastic Constant Matrix: (Units=GPa)
#
#
# Indices 1 2 3 4 5 6 
#
# 1 67.0363 3.5079 21.2812 0.0000 0.0000 0.0000
# 2 3.5079 56.3171 -12.1806 0.0000 0.0000 0.0000
# 3 21.2812 -12.1806 187.5934 0.0000 0.0000 0.0000
# 4 0.0000 0.0000 0.0000 27.7661 0.0000 0.0000
# 5 0.0000 0.0000 0.0000 0.0000 -40.9340 0.0000
# 6 0.0000 0.0000 0.0000 0.0000 0.0000 -2.8764
#
#
#
# Elastic Compliance Matrix: (Units=1/GPa)
#
#
# Indices 1 2 3 4 5 6 
#
# 1 0.015578 -0.001372 -0.001856 0.000000 0.000000 0.000000
# 2 -0.001372 0.018130 0.001333 0.000000 0.000000 0.000000
# 3 -0.001856 0.001333 0.005628 0.000000 0.000000 0.000000
# 4 0.000000 0.000000 0.000000 0.036015 0.000000 0.000000
# 5 0.000000 0.000000 0.000000 0.000000 -0.024430 0.000000
# 6 0.000000 0.000000 0.000000 0.000000 0.000000 -0.347659
#
#
# Mechanical properties :
#
#
# Convention : Reuss Voigt Hill
#
# Bulk Modulus (GPa) = 28.13270 37.35153 32.74212
# Shear Modulus (GPa) = -17.78742 16.68037 -0.55352
#
# Velocity S-wave (km/s) = -2.77384 2.68614 -0.48932
# Velocity P-wave (km/s) = 1.38212 5.07714 3.72073
#
# Compressibility (1/GPa) = 0.03554582
#
# Stress axis : x y z
#
# Youngs Moduli (GPa) = 64.19148 55.15620 177.68905
#
# Poissons Ratio (x) = 0.07567 0.32985
# Poissons Ratio (y) = 0.08806 -0.23683
# Poissons Ratio (z) = 0.11916 -0.07351
#
# Static dielectric constant tensor:
#      x y z
#    x 2.277470 0.000000 0.000000 
#    y 0.000000 1.766720 0.000000 
#    z 0.000000 0.000000 1.953350 
# 
# From -- ./inp_files/24706.got.cif
#   From: 2010.05.17/outbox.cif.g08.bks.cpg/sg49_13_cif.got.tgz:24706.got - 2010.06.03 21:02:19.
