data_PCOD9395823
_publ_section_title
;
Structure prediction by ZEFSAII (Michael W. Deem and Ramdas Pophale) SiO2 
 PCOD9395823
Probable space group: P B A N
;
_chemical_formula_sum "Si O2"
_cell_formula_units_Z 36
_cell_length_a 8.771595
_cell_length_b 22.232210
_cell_length_c 9.967338
_cell_angle_alpha 90.000000
_cell_angle_beta 90.000000
_cell_angle_gamma 90.000000
_cell_volume 1943.749941
_symmetry_space_group_name_H-M "P B A N"
_symmetry_group_IT_number 50
_space_group.IT_coordinate_system_code '2'
_symmetry_cell_setting 'orthorhombic'
loop_
_space_group_symop_operation_xyz
x,y,z
1/2-x,1/2-y,z
x,1/2-y,-z
1/2-x,y,-z
-x,-y,-z
1/2+x,1/2+y,-z
-x,1/2+y,z
1/2+x,-y,z
loop_
_atom_site_type_symbol
_atom_site_label
_atom_site_fract_x
_atom_site_fract_y
_atom_site_fract_z
Si Si1 0.071734 0.936910 0.537820
Si Si2 0.750000 0.250000 0.500000
Si Si3 0.495894 0.329125 0.644776
Si Si4 0.886551 0.451418 0.834616
Si Si5 0.250000 0.250000 0.500000
Si Si6 0.967179 0.079305 0.875035
O O1 0.250000 0.937177 0.500000
O O2 0.992099 0.886504 0.451652
O O3 0.053771 0.926081 0.695174
O O4 0.000000 0.000000 0.500000
O O5 0.645105 0.291368 0.596961
O O6 0.355095 0.288692 0.599940
O O7 0.499770 0.359607 0.792653
O O8 0.705132 0.441103 0.837860
O O9 0.923897 0.522791 0.839923
O O10 0.961830 0.419185 0.963147
#
# Coordination Sequence:
#
# PCOD9395823 Si02
#       6
#     8   2   8   8   2   8
#     4  12  21  33  59  93 125 150 191 251 316 371
#     4  10  20  38  62  76 116 158 226 244 288 338
#     4  11  21  40  58  86 114 165 205 262 296 360
#     4  10  19  34  53  95 120 156 179 238 312 391
#     4  10  28  38  62  84 120 170 232 258 292 342
#     4  10  20  34  58  81 130 154 190 232 315 365
#
# _framework density 18.520900999999999
#
# number of rings (size 3 to 8) (size 9 to 14) (size 15 to 20)
#    0.000    1.333    5.556    0.000    1.556    1.778 
#    0.000    0.000    0.000   21.333    0.000    0.000 
#    0.000    0.000    0.000    0.000    0.000    0.000 
#
# Total GULP energy -200869.635075 kJ/mol
# GULP energy per Si atom -5579.712085 kJ/mol
# Density = 1.847875 g / cm^3
# Si number density = 18.520901 Si / 1000 Ang^3
#
#
#
# Elastic Constant Matrix: (Units=GPa)
#
#
# Indices 1 2 3 4 5 6 
#
# 1 72.9547 51.2537 22.2546 0.0000 0.0000 0.0000
# 2 51.2537 119.5143 47.4882 0.0000 0.0000 0.0000
# 3 22.2546 47.4882 144.2004 0.0000 0.0000 0.0000
# 4 0.0000 0.0000 0.0000 38.3697 0.0000 0.0000
# 5 0.0000 0.0000 0.0000 0.0000 16.0303 0.0000
# 6 0.0000 0.0000 0.0000 0.0000 0.0000 18.6707
#
#
#
# Elastic Compliance Matrix: (Units=1/GPa)
#
#
# Indices 1 2 3 4 5 6 
#
# 1 0.019629 -0.008300 -0.000296 0.000000 0.000000 0.000000
# 2 -0.008300 0.013137 -0.003045 0.000000 0.000000 0.000000
# 3 -0.000296 -0.003045 0.007983 0.000000 0.000000 0.000000
# 4 0.000000 0.000000 0.000000 0.026062 0.000000 0.000000
# 5 0.000000 0.000000 0.000000 0.000000 0.062382 0.000000
# 6 0.000000 0.000000 0.000000 0.000000 0.000000 0.053560
#
#
# Mechanical properties :
#
#
# Convention : Reuss Voigt Hill
#
# Bulk Modulus (GPa) = 57.25379 64.29584 60.77481
# Shear Modulus (GPa) = 23.60080 28.99233 26.29657
#
# Velocity S-wave (km/s) = 3.57358 3.96079 3.77215
# Velocity P-wave (km/s) = 6.92874 7.46376 7.20122
#
# Compressibility (1/GPa) = 0.01746609
#
# Stress axis : x y z
#
# Youngs Moduli (GPa) = 50.94608 76.12245 125.26122
#
# Poissons Ratio (x) = 0.63183 0.03706
# Poissons Ratio (y) = 0.42286 0.38145
# Poissons Ratio (z) = 0.01507 0.23181
#
# Static dielectric constant tensor:
#      x y z
#    x 1.634470 0.000000 0.000000 
#    y 0.000000 1.623810 0.000000 
#    z 0.000000 0.000000 1.709790 
# 
# From -- ./inp_files/18902.got.cif
#   From: 2010.05.17/outbox.cif.g08.bks.cpg/sg50_10_cif.got.tgz:18902.got - 2010.06.03 11:33:33.
