data_PCOD9395904
_publ_section_title
;
Structure prediction by ZEFSAII (Michael W. Deem and Ramdas Pophale) SiO2 
 PCOD9395904
Probable space group: P B A N
;
_chemical_formula_sum "Si O2"
_cell_formula_units_Z 52
_cell_length_a 20.131991
_cell_length_b 15.138502
_cell_length_c 8.984226
_cell_angle_alpha 90.000000
_cell_angle_beta 90.000000
_cell_angle_gamma 90.000000
_cell_volume 2738.106261
_symmetry_space_group_name_H-M "P B A N"
_symmetry_group_IT_number 50
_space_group.IT_coordinate_system_code '2'
_symmetry_cell_setting 'orthorhombic'
loop_
_space_group_symop_operation_xyz
x,y,z
1/2-x,1/2-y,z
x,1/2-y,-z
1/2-x,y,-z
-x,-y,-z
1/2+x,1/2+y,-z
-x,1/2+y,z
1/2+x,-y,z
loop_
_atom_site_type_symbol
_atom_site_label
_atom_site_fract_x
_atom_site_fract_y
_atom_site_fract_z
Si Si1 0.063512 0.468753 0.849354
Si Si2 0.397078 0.750000 0.000000
Si Si3 0.826692 0.068568 0.054801
Si Si4 0.841859 0.605093 0.377942
Si Si5 0.800271 0.939056 0.299569
Si Si6 0.987718 0.860479 0.117341
Si Si7 0.351761 0.275151 0.827262
O O1 0.093751 0.436068 0.696394
O O2 0.009046 0.544023 0.822505
O O3 0.122926 0.513510 0.947585
O O4 0.034476 0.388427 0.948399
O O5 0.352313 0.830728 0.057805
O O6 0.448483 0.702824 0.113444
O O7 0.830118 0.022757 0.216382
O O8 0.750000 0.063244 0.000000
O O9 0.776808 0.548144 0.335252
O O10 0.838206 0.598683 0.555522
O O11 0.836391 0.700096 0.295218
O O12 0.802951 0.857454 0.187222
O O13 0.926023 0.813794 0.193871
O O14 0.348235 0.250000 0.000000
#
# Coordination Sequence:
#
# PCOD9395904 Si02
#       7
#     8   4   8   8   8   8   8
#     4  10  19  35  63  83 116 153 199 245 290 357
#     4  10  21  34  60  90 115 144 190 264 290 346
#     4  11  20  37  61  90 114 146 204 249 302 348
#     4  11  22  39  57  84 122 160 188 239 309 359
#     4  11  24  37  57  88 121 154 191 244 302 373
#     4  10  19  35  59  89 114 151 202 248 296 339
#     4  12  21  36  59  87 117 153 197 242 292 355
#
# _framework density 18.991228
#
# number of rings (size 3 to 8) (size 9 to 14) (size 15 to 20)
#    0.000    1.231    5.385    1.154    0.000    1.846 
#    0.000    0.769    3.385    2.769    0.000    0.000 
#    0.000    0.000    0.000    0.000    0.000    0.000 
#
# Total GULP energy -289969.023117 kJ/mol
# GULP energy per Si atom -5576.327368 kJ/mol
# Density = 1.894800 g / cm^3
# Si number density = 18.991228 Si / 1000 Ang^3
#
#
#
# Elastic Constant Matrix: (Units=GPa)
#
#
# Indices 1 2 3 4 5 6 
#
# 1 70.9498 20.5067 24.5590 0.0000 0.0000 0.0000
# 2 20.5067 91.1888 41.9087 0.0000 0.0000 0.0000
# 3 24.5590 41.9087 63.0804 0.0000 0.0000 0.0000
# 4 0.0000 0.0000 0.0000 23.1373 0.0000 0.0000
# 5 0.0000 0.0000 0.0000 0.0000 30.1933 0.0000
# 6 0.0000 0.0000 0.0000 0.0000 0.0000 40.1939
#
#
#
# Elastic Compliance Matrix: (Units=1/GPa)
#
#
# Indices 1 2 3 4 5 6 
#
# 1 0.016364 -0.001082 -0.005652 0.000000 0.000000 0.000000
# 2 -0.001082 0.015858 -0.010114 0.000000 0.000000 0.000000
# 3 -0.005652 -0.010114 0.024773 0.000000 0.000000 0.000000
# 4 0.000000 0.000000 0.000000 0.043220 0.000000 0.000000
# 5 0.000000 0.000000 0.000000 0.000000 0.033120 0.000000
# 6 0.000000 0.000000 0.000000 0.000000 0.000000 0.024879
#
#
# Mechanical properties :
#
#
# Convention : Reuss Voigt Hill
#
# Bulk Modulus (GPa) = 42.92263 44.35198 43.63730
# Shear Modulus (GPa) = 25.04052 27.92120 26.48086
#
# Velocity S-wave (km/s) = 3.63510 3.83850 3.73818
# Velocity P-wave (km/s) = 6.34578 6.56125 6.45442
#
# Compressibility (1/GPa) = 0.02329773
#
# Stress axis : x y z
#
# Youngs Moduli (GPa) = 61.11107 63.05985 40.36706
#
# Poissons Ratio (x) = 0.06826 0.22814
# Poissons Ratio (y) = 0.06615 0.40828
# Poissons Ratio (z) = 0.34538 0.63779
#
# Static dielectric constant tensor:
#      x y z
#    x 1.693060 0.000000 0.000000 
#    y 0.000000 1.679710 0.000000 
#    z 0.000000 0.000000 1.664680 
# 
# From -- ./inp_files/15299.got.cif
#   From: 2010.05.17/outbox.cif.g08.bks.cpg/sg50_8_cif.got.tgz:15299.got - 2010.06.03 11:33:33.
