data_PCOD9395559
_publ_section_title
;
Structure prediction by ZEFSAII (Michael W. Deem and Ramdas Pophale) SiO2 
 PCOD9395559
Probable space group: P B A N
;
_chemical_formula_sum "Si O2"
_cell_formula_units_Z 48
_cell_length_a 16.395198
_cell_length_b 8.736605
_cell_length_c 16.503940
_cell_angle_alpha 90.000000
_cell_angle_beta 90.000000
_cell_angle_gamma 90.000000
_cell_volume 2363.997445
_symmetry_space_group_name_H-M "P B A N"
_symmetry_group_IT_number 50
_space_group.IT_coordinate_system_code '2'
_symmetry_cell_setting 'orthorhombic'
loop_
_space_group_symop_operation_xyz
x,y,z
1/2-x,1/2-y,z
x,1/2-y,-z
1/2-x,y,-z
-x,-y,-z
1/2+x,1/2+y,-z
-x,1/2+y,z
1/2+x,-y,z
loop_
_atom_site_type_symbol
_atom_site_label
_atom_site_fract_x
_atom_site_fract_y
_atom_site_fract_z
Si Si1 0.152079 0.425049 0.174911
Si Si2 0.907310 0.932492 0.500000
Si Si3 0.590582 0.069338 0.663746
Si Si4 0.909418 0.430662 0.336254
Si Si5 0.844401 0.936911 1.000000
Si Si6 0.347921 0.425049 0.174911
O O1 0.132140 0.526867 0.251872
O O2 0.119502 0.481440 0.087276
O O3 0.250000 0.417706 0.166846
O O4 0.122955 0.250000 0.189221
O O5 0.910438 0.750000 0.500000
O O6 0.869728 0.993128 0.416133
O O7 0.869728 0.993128 0.583867
O O8 0.000000 0.000000 0.500000
O O9 0.586658 0.250000 0.651469
O O10 0.500000 1.000000 0.669982
O O11 0.867860 0.473133 0.251872
O O12 0.843299 0.750000 0.000000
O O13 0.750000 0.989653 0.000000
O O14 0.880498 0.981440 0.912724
#
# Coordination Sequence:
#
# PCOD9395559 Si02
#       6
#     8   8   8   8   8   8
#     4   9  17  32  54  78 103 132 167 206 250 299
#     4  10  18  32  53  74  97 128 167 205 247 299
#     4  11  21  34  52  75 103 133 168 207 249 296
#     4  11  21  34  52  75 103 133 168 207 249 296
#     4   7  12  26  50  75  98 129 167 203 242 295
#     4   9  17  32  54  78 103 132 167 206 250 299
#
# _framework density 20.304590999999999
#
# number of rings (size 3 to 8) (size 9 to 14) (size 15 to 20)
#    0.000    2.500    0.000    8.500    0.000    0.667 
#    0.000    2.500    0.000    8.000    0.000    0.000 
#    0.000    0.000    0.000    0.000    0.000    0.000 
#
# Total GULP energy -267552.337419 kJ/mol
# GULP energy per Si atom -5574.007030 kJ/mol
# Density = 2.025838 g / cm^3
# Si number density = 20.304591 Si / 1000 Ang^3
#
#
#
# Elastic Constant Matrix: (Units=GPa)
#
#
# Indices 1 2 3 4 5 6 
#
# 1 6.3709 4.8218 15.4145 0.0000 0.0000 0.0000
# 2 4.8218 142.4507 73.8015 0.0000 0.0000 0.0000
# 3 15.4145 73.8015 212.7433 0.0000 0.0000 0.0000
# 4 0.0000 0.0000 0.0000 13.1311 0.0000 0.0000
# 5 0.0000 0.0000 0.0000 0.0000 19.2664 0.0000
# 6 0.0000 0.0000 0.0000 0.0000 0.0000 14.5225
#
#
#
# Elastic Compliance Matrix: (Units=1/GPa)
#
#
# Indices 1 2 3 4 5 6 
#
# 1 0.190417 0.000856 -0.014094 0.000000 0.000000 0.000000
# 2 0.000856 0.008562 -0.003032 0.000000 0.000000 0.000000
# 3 -0.014094 -0.003032 0.006774 0.000000 0.000000 0.000000
# 4 0.000000 0.000000 0.000000 0.076155 0.000000 0.000000
# 5 0.000000 0.000000 0.000000 0.000000 0.051904 0.000000
# 6 0.000000 0.000000 0.000000 0.000000 0.000000 0.068859
#
#
# Mechanical properties :
#
#
# Convention : Reuss Voigt Hill
#
# Bulk Modulus (GPa) = 5.77324 61.07118 33.42221
# Shear Modulus (GPa) = 10.14308 27.21914 18.68111
#
# Velocity S-wave (km/s) = 2.23748 3.66531 3.03651
# Velocity P-wave (km/s) = 3.08619 6.93221 5.36563
#
# Compressibility (1/GPa) = 0.17321294
#
# Stress axis : x y z
#
# Youngs Moduli (GPa) = 5.25163 116.79610 147.63261
#
# Poissons Ratio (x) = -0.10002 2.08072
# Poissons Ratio (y) = -0.00450 0.44765
# Poissons Ratio (z) = 0.07402 0.35415
#
# Static dielectric constant tensor:
#      x y z
#    x 1.742240 0.000000 0.000000 
#    y 0.000000 1.685150 0.000000 
#    z 0.000000 0.000000 1.821600 
# 
# From -- ./inp_files/27150.got.cif
#   From: 2010.05.17/outbox.cif.g08.bks.cpg/sg50_14_cif.got.tgz:27150.got - 2010.06.03 11:33:33.
