data_PCOD9395771
_publ_section_title
;
Structure prediction by ZEFSAII (Michael W. Deem and Ramdas Pophale) SiO2 
 PCOD9395771
Probable space group: P B A N
;
_chemical_formula_sum "Si O2"
_cell_formula_units_Z 56
_cell_length_a 16.599398
_cell_length_b 16.735552
_cell_length_c 8.606718
_cell_angle_alpha 90.000000
_cell_angle_beta 90.000000
_cell_angle_gamma 90.000000
_cell_volume 2390.947021
_symmetry_space_group_name_H-M "P B A N"
_symmetry_group_IT_number 50
_space_group.IT_coordinate_system_code '2'
_symmetry_cell_setting 'orthorhombic'
loop_
_space_group_symop_operation_xyz
x,y,z
1/2-x,1/2-y,z
x,1/2-y,-z
1/2-x,y,-z
-x,-y,-z
1/2+x,1/2+y,-z
-x,1/2+y,z
1/2+x,-y,z
loop_
_atom_site_type_symbol
_atom_site_label
_atom_site_fract_x
_atom_site_fract_y
_atom_site_fract_z
Si Si1 0.402362 0.172294 0.410750
Si Si2 0.835700 0.104178 0.812813
Si Si3 0.462364 0.486270 0.672457
Si Si4 0.348751 0.899295 0.180093
Si Si5 0.879502 0.937397 0.710139
Si Si6 0.860461 0.775132 0.831275
Si Si7 0.445563 0.749215 0.183069
O O1 0.440678 0.250000 0.500000
O O2 0.376679 0.111434 0.547836
O O3 0.334303 0.214249 0.305131
O O4 0.453215 0.108708 0.308674
O O5 0.742933 0.129300 0.806520
O O6 0.896165 0.172827 0.755448
O O7 0.838027 0.022732 0.714067
O O8 0.858478 0.085042 0.993918
O O9 0.500000 0.500000 0.500000
O O10 0.377594 0.524375 0.721362
O O11 0.530549 0.535646 0.765825
O O12 0.405211 0.829281 0.245414
O O13 0.845006 0.868843 0.819281
O O14 0.958000 0.760410 0.812231
O O15 0.836406 0.750000 0.000000
O O16 0.425085 0.750000 0.000000
#
# Coordination Sequence:
#
# PCOD9395771 Si02
#       7
#     8   8   8   8   8   8   8
#     4   9  20  36  54  79 115 156 194 250 314 365
#     4  10  21  34  59  90 126 169 199 257 313 389
#     4  10  20  36  58  84 115 159 205 254 310 365
#     4  10  20  36  57  89 128 163 206 253 318 381
#     4  10  20  36  55  87 123 156 208 249 313 373
#     4  10  19  32  57  92 123 153 201 261 316 368
#     4   9  17  33  54  89 128 162 196 239 314 386
#
# _framework density 23.421681
#
# number of rings (size 3 to 8) (size 9 to 14) (size 15 to 20)
#    0.000    2.286    1.429    1.286    2.000    2.286 
#    0.000    2.857    0.000    6.000    0.000    8.000 
#    0.000    0.000    0.000    0.000    0.000    0.000 
#
# Total GULP energy -311737.643382 kJ/mol
# GULP energy per Si atom -5566.743632 kJ/mol
# Density = 2.336837 g / cm^3
# Si number density = 23.421681 Si / 1000 Ang^3
#
#
#
# Elastic Constant Matrix: (Units=GPa)
#
#
# Indices 1 2 3 4 5 6 
#
# 1 96.0374 23.7845 6.7695 0.0000 0.0000 0.0000
# 2 23.7845 156.3363 22.9124 0.0000 0.0000 0.0000
# 3 6.7695 22.9124 31.3325 0.0000 0.0000 0.0000
# 4 0.0000 0.0000 0.0000 27.0825 0.0000 0.0000
# 5 0.0000 0.0000 0.0000 0.0000 6.2244 0.0000
# 6 0.0000 0.0000 0.0000 0.0000 0.0000 15.0883
#
#
#
# Elastic Compliance Matrix: (Units=1/GPa)
#
#
# Indices 1 2 3 4 5 6 
#
# 1 0.010866 -0.001466 -0.001275 0.000000 0.000000 0.000000
# 2 -0.001466 0.007362 -0.005067 0.000000 0.000000 0.000000
# 3 -0.001275 -0.005067 0.035897 0.000000 0.000000 0.000000
# 4 0.000000 0.000000 0.000000 0.036924 0.000000 0.000000
# 5 0.000000 0.000000 0.000000 0.000000 0.160659 0.000000
# 6 0.000000 0.000000 0.000000 0.000000 0.000000 0.066276
#
#
# Mechanical properties :
#
#
# Convention : Reuss Voigt Hill
#
# Bulk Modulus (GPa) = 25.96907 43.40435 34.68671
# Shear Modulus (GPa) = 14.43264 25.02835 19.73050
#
# Velocity S-wave (km/s) = 2.48505 3.27249 2.90557
# Velocity P-wave (km/s) = 4.39837 5.73156 5.10864
#
# Compressibility (1/GPa) = 0.03850735
#
# Stress axis : x y z
#
# Youngs Moduli (GPa) = 92.03343 135.83050 27.85782
#
# Poissons Ratio (x) = 0.19915 0.03553
# Poissons Ratio (y) = 0.13493 0.14115
# Poissons Ratio (z) = 0.11738 0.68824
#
# Static dielectric constant tensor:
#      x y z
#    x 1.979280 0.000000 0.000000 
#    y 0.000000 1.918010 0.000000 
#    z 0.000000 0.000000 2.064220 
# 
# From -- ./inp_files/15358.got.cif
#   From: 2010.05.17/outbox.cif.g08.bks.cpg/sg50_8_cif.got.tgz:15358.got - 2010.06.03 11:33:33.
