data_PCOD9395831
_publ_section_title
;
Structure prediction by ZEFSAII (Michael W. Deem and Ramdas Pophale) SiO2 
 PCOD9395831
Probable space group: P B A N
;
_chemical_formula_sum "Si O2"
_cell_formula_units_Z 64
_cell_length_a 9.563833
_cell_length_b 18.205118
_cell_length_c 17.241316
_cell_angle_alpha 90.000000
_cell_angle_beta 90.000000
_cell_angle_gamma 90.000000
_cell_volume 3001.897741
_symmetry_space_group_name_H-M "P B A N"
_symmetry_group_IT_number 50
_space_group.IT_coordinate_system_code '2'
_symmetry_cell_setting 'orthorhombic'
loop_
_space_group_symop_operation_xyz
x,y,z
1/2-x,1/2-y,z
x,1/2-y,-z
1/2-x,y,-z
-x,-y,-z
1/2+x,1/2+y,-z
-x,1/2+y,z
1/2+x,-y,z
loop_
_atom_site_type_symbol
_atom_site_label
_atom_site_fract_x
_atom_site_fract_y
_atom_site_fract_z
Si Si1 0.517251 0.381014 0.357862
Si Si2 0.414125 0.664295 0.018858
Si Si3 0.470189 0.235741 0.754578
Si Si4 0.029160 0.989518 0.239954
Si Si5 0.583850 0.335487 0.516068
Si Si6 0.081357 0.385055 0.880225
Si Si7 0.836896 0.354042 0.314768
Si Si8 0.384435 0.367744 0.843450
O O1 0.428298 0.316236 0.317237
O O2 0.495550 0.456983 0.312979
O O3 0.504681 0.382202 0.450493
O O4 0.675735 0.354532 0.338825
O O5 0.478517 0.645612 0.103154
O O6 0.446588 0.750000 0.000000
O O7 0.250000 0.654579 0.000000
O O8 0.497365 0.613688 0.958943
O O9 0.485674 0.178779 0.825655
O O10 0.606379 0.283897 0.731738
O O11 0.370804 0.300407 0.783949
O O12 0.072691 0.041210 0.169404
O O13 0.137381 0.927055 0.265487
O O14 0.900684 0.941122 0.207467
O O15 0.549779 0.250000 0.500000
O O16 0.750000 0.343314 0.500000
O O17 0.570317 0.355356 0.606178
O O18 0.244127 0.368191 0.893184
#
# Coordination Sequence:
#
# PCOD9395831 Si02
#       8
#     8   8   8   8   8   8   8   8
#     4  10  19  34  55  84 122 158 204 262 310 360
#     4  11  25  42  65  98 125 153 201 258 309 364
#     4  10  20  32  57  88 113 152 204 248 298 356
#     4  10  24  38  56  90 120 166 210 254 302 368
#     4   9  16  29  54  86 116 156 204 253 315 369
#     4  11  23  42  64  89 125 167 206 249 308 374
#     4  10  19  34  55  84 122 158 204 262 310 360
#     4  11  23  42  64  89 125 167 206 249 308 374
#
# _framework density 21.319846999999999
#
# number of rings (size 3 to 8) (size 9 to 14) (size 15 to 20)
#    0.000    1.750    2.500    1.875    0.000    7.500 
#    0.000    0.000    0.000    0.000    0.000   31.500 
#    0.000    0.000    0.000    0.000    0.000    0.000 
#
# Total GULP energy -357082.023683 kJ/mol
# GULP energy per Si atom -5579.406620 kJ/mol
# Density = 2.127132 g / cm^3
# Si number density = 21.319847 Si / 1000 Ang^3
#
#
#
# Elastic Constant Matrix: (Units=GPa)
#
#
# Indices 1 2 3 4 5 6 
#
# 1 53.2113 19.6344 23.6027 0.0000 0.0000 0.0000
# 2 19.6344 118.1357 40.3533 0.0000 0.0000 0.0000
# 3 23.6027 40.3533 107.6964 0.0000 0.0000 0.0000
# 4 0.0000 0.0000 0.0000 21.8891 0.0000 0.0000
# 5 0.0000 0.0000 0.0000 0.0000 24.0078 0.0000
# 6 0.0000 0.0000 0.0000 0.0000 0.0000 11.8211
#
#
#
# Elastic Compliance Matrix: (Units=1/GPa)
#
#
# Indices 1 2 3 4 5 6 
#
# 1 0.021318 -0.002233 -0.003835 0.000000 0.000000 0.000000
# 2 -0.002233 0.009941 -0.003236 0.000000 0.000000 0.000000
# 3 -0.003835 -0.003236 0.011338 0.000000 0.000000 0.000000
# 4 0.000000 0.000000 0.000000 0.045685 0.000000 0.000000
# 5 0.000000 0.000000 0.000000 0.000000 0.041653 0.000000
# 6 0.000000 0.000000 0.000000 0.000000 0.000000 0.084595
#
#
# Mechanical properties :
#
#
# Convention : Reuss Voigt Hill
#
# Bulk Modulus (GPa) = 41.68441 49.58045 45.63243
# Shear Modulus (GPa) = 20.73530 24.57380 22.65455
#
# Velocity S-wave (km/s) = 3.12201 3.39872 3.26330
# Velocity P-wave (km/s) = 5.70879 6.22155 5.97068
#
# Compressibility (1/GPa) = 0.02398978
#
# Stress axis : x y z
#
# Youngs Moduli (GPa) = 46.90831 100.59169 88.19706
#
# Poissons Ratio (x) = 0.22462 0.33827
# Poissons Ratio (y) = 0.10475 0.28536
# Poissons Ratio (z) = 0.17991 0.32547
#
# Static dielectric constant tensor:
#      x y z
#    x 1.810270 0.000000 0.000000 
#    y 0.000000 1.762180 0.000000 
#    z 0.000000 0.000000 1.798160 
# 
# From -- ./inp_files/26072.got.cif
#   From: 2010.05.17/outbox.cif.g08.bks.cpg/sg50_14_cif.got.tgz:26072.got - 2010.06.03 11:33:33.
