data_PCOD9395344
_publ_section_title
;
Structure prediction by ZEFSAII (Michael W. Deem and Ramdas Pophale) SiO2 
 PCOD9395344
Probable space group: P B A N
;
_chemical_formula_sum "Si O2"
_cell_formula_units_Z 32
_cell_length_a 8.207044
_cell_length_b 24.699265
_cell_length_c 6.794444
_cell_angle_alpha 90.000000
_cell_angle_beta 90.000000
_cell_angle_gamma 90.000000
_cell_volume 1377.287846
_symmetry_space_group_name_H-M "P B A N"
_symmetry_group_IT_number 50
_space_group.IT_coordinate_system_code '2'
_symmetry_cell_setting 'orthorhombic'
loop_
_space_group_symop_operation_xyz
x,y,z
1/2-x,1/2-y,z
x,1/2-y,-z
1/2-x,y,-z
-x,-y,-z
1/2+x,1/2+y,-z
-x,1/2+y,z
1/2+x,-y,z
loop_
_atom_site_type_symbol
_atom_site_label
_atom_site_fract_x
_atom_site_fract_y
_atom_site_fract_z
Si Si1 0.775372 0.920367 0.758602
Si Si2 0.250000 0.611047 0.000000
Si Si3 0.750000 0.250000 0.500000
Si Si4 0.750000 0.750000 0.000000
Si Si5 0.446589 0.972689 0.790314
Si Si6 0.496766 0.177561 0.757389
O O1 0.592645 0.937527 0.706043
O O2 0.875774 0.869397 0.677579
O O3 0.876881 0.973514 0.697232
O O4 0.750000 0.912706 0.000000
O O5 0.195632 0.570400 0.828473
O O6 0.396222 0.647418 0.923727
O O7 0.626617 0.210615 0.623414
O O8 0.629103 0.782610 0.139826
O O9 0.500000 0.000000 0.000000
#
# Coordination Sequence:
#
# PCOD9395344 Si02
#       6
#     8   4   2   2   8   8
#     4  10  16  31  57  97 131 162 212 286 343 407
#     4  12  18  34  68  98 134 172 228 290 338 418
#     4  12  32  48  60  92 148 196 232 288 356 406
#     4  12  24  46  76  96 116 166 276 316 312 390
#     4  10  15  27  56 108 133 151 203 298 347 404
#     4  12  24  43  64  93 131 180 238 290 351 394
#
# _framework density 23.234069999999999
#
# number of rings (size 3 to 8) (size 9 to 14) (size 15 to 20)
#    0.000    1.000   10.000    1.500    0.000    0.500 
#    0.000    0.000    0.000    6.000    0.000    0.000 
#    0.000    0.000    0.000    0.000    0.000    0.000 
#
# Total GULP energy -178473.829758 kJ/mol
# GULP energy per Si atom -5577.307180 kJ/mol
# Density = 2.318119 g / cm^3
# Si number density = 23.234070 Si / 1000 Ang^3
#
#
#
# Elastic Constant Matrix: (Units=GPa)
#
#
# Indices 1 2 3 4 5 6 
#
# 1 193.6158 113.6444 37.8669 0.0000 0.0000 0.0000
# 2 113.6444 194.9443 44.0117 0.0000 0.0000 0.0000
# 3 37.8669 44.0117 87.2235 0.0000 0.0000 0.0000
# 4 0.0000 0.0000 0.0000 7.1301 0.0000 0.0000
# 5 0.0000 0.0000 0.0000 0.0000 15.3249 0.0000
# 6 0.0000 0.0000 0.0000 0.0000 0.0000 68.3721
#
#
#
# Elastic Compliance Matrix: (Units=1/GPa)
#
#
# Indices 1 2 3 4 5 6 
#
# 1 0.007972 -0.004363 -0.001259 0.000000 0.000000 0.000000
# 2 -0.004363 0.008177 -0.002232 0.000000 0.000000 0.000000
# 3 -0.001259 -0.002232 0.013138 0.000000 0.000000 0.000000
# 4 0.000000 0.000000 0.000000 0.140250 0.000000 0.000000
# 5 0.000000 0.000000 0.000000 0.000000 0.065253 0.000000
# 6 0.000000 0.000000 0.000000 0.000000 0.000000 0.014626
#
#
# Mechanical properties :
#
#
# Convention : Reuss Voigt Hill
#
# Bulk Modulus (GPa) = 73.64770 96.31441 84.98106
# Shear Modulus (GPa) = 18.54249 36.84946 27.69598
#
# Velocity S-wave (km/s) = 2.82808 3.98679 3.45634
# Velocity P-wave (km/s) = 6.51391 7.92065 7.25147
#
# Compressibility (1/GPa) = 0.01357816
#
# Stress axis : x y z
#
# Youngs Moduli (GPa) = 125.43694 122.29360 76.11669
#
# Poissons Ratio (x) = 0.53358 0.09586
# Poissons Ratio (y) = 0.54729 0.16988
# Poissons Ratio (z) = 0.15798 0.27294
#
# Static dielectric constant tensor:
#      x y z
#    x 1.861100 0.000000 0.000000 
#    y 0.000000 1.877680 0.000000 
#    z 0.000000 0.000000 2.011760 
# 
# From -- ./inp_files/9436.got.cif
#   From: 2010.05.17/outbox.cif.g08.bks.cpg/sg50_5_cif.got.tgz:9436.got - 2010.06.03 11:33:33.
