data_PCOD9395485
_publ_section_title
;
Structure prediction by ZEFSAII (Michael W. Deem and Ramdas Pophale) SiO2 
 PCOD9395485
Probable space group: P B A N
;
_chemical_formula_sum "Si O2"
_cell_formula_units_Z 52
_cell_length_a 19.844565
_cell_length_b 14.437790
_cell_length_c 9.406044
_cell_angle_alpha 90.000000
_cell_angle_beta 90.000000
_cell_angle_gamma 90.000000
_cell_volume 2694.941300
_symmetry_space_group_name_H-M "P B A N"
_symmetry_group_IT_number 50
_space_group.IT_coordinate_system_code '2'
_symmetry_cell_setting 'orthorhombic'
loop_
_space_group_symop_operation_xyz
x,y,z
1/2-x,1/2-y,z
x,1/2-y,-z
1/2-x,y,-z
-x,-y,-z
1/2+x,1/2+y,-z
-x,1/2+y,z
1/2+x,-y,z
loop_
_atom_site_type_symbol
_atom_site_label
_atom_site_fract_x
_atom_site_fract_y
_atom_site_fract_z
Si Si1 0.533799 0.644407 0.980306
Si Si2 0.148095 0.969981 0.727106
Si Si3 0.325398 0.437978 0.029289
Si Si4 0.330481 0.736876 0.830906
Si Si5 0.750000 0.028756 0.500000
Si Si6 0.636893 0.426068 0.711769
Si Si7 0.004846 0.005848 0.759512
O O1 0.614560 0.635653 0.955924
O O2 0.501965 0.590236 0.847137
O O3 0.513665 0.750000 0.000000
O O4 0.513366 0.584728 0.118709
O O5 0.154353 0.859697 0.752045
O O6 0.205796 0.014356 0.627544
O O7 0.074167 0.998984 0.674870
O O8 0.156177 0.006619 0.886885
O O9 0.331516 0.510389 0.160669
O O10 0.250000 0.402790 0.000000
O O11 0.250000 0.750000 0.813510
O O12 0.370456 0.821573 0.762905
O O13 0.343012 0.750000 0.000000
O O14 0.809875 0.078731 0.584376
O O15 0.564509 0.471167 0.680884
#
# Coordination Sequence:
#
# PCOD9395485 Si02
#       7
#     8   8   8   8   4   8   8
#     4   9  19  33  57  89 115 143 189 243 286 332
#     4  11  22  36  56  85 113 153 194 236 286 352
#     4  10  17  36  57  82 114 141 190 235 287 348
#     4  11  20  32  58  86 118 154 185 231 305 344
#     4  12  24  37  58  80 115 150 194 248 281 340
#     4  11  22  36  56  85 113 153 194 236 286 352
#     4   9  22  37  54  84 120 154 192 228 288 366
#
# _framework density 19.295411999999999
#
# number of rings (size 3 to 8) (size 9 to 14) (size 15 to 20)
#    0.000    1.692    4.615    0.923    2.154    2.154 
#    0.000    0.000    0.000    0.000    0.000   26.923 
#    0.000    0.000    0.000    0.000    0.000    0.000 
#
# Total GULP energy -289745.255029 kJ/mol
# GULP energy per Si atom -5572.024135 kJ/mol
# Density = 1.925149 g / cm^3
# Si number density = 19.295412 Si / 1000 Ang^3
#
#
#
# Elastic Constant Matrix: (Units=GPa)
#
#
# Indices 1 2 3 4 5 6 
#
# 1 141.8930 10.8171 22.0547 0.0000 0.0000 0.0000
# 2 10.8171 79.3143 8.5656 0.0000 0.0000 0.0000
# 3 22.0547 8.5656 61.8121 0.0000 0.0000 0.0000
# 4 0.0000 0.0000 0.0000 -1.0564 0.0000 0.0000
# 5 0.0000 0.0000 0.0000 0.0000 18.6376 0.0000
# 6 0.0000 0.0000 0.0000 0.0000 0.0000 8.8479
#
#
#
# Elastic Compliance Matrix: (Units=1/GPa)
#
#
# Indices 1 2 3 4 5 6 
#
# 1 0.007505 -0.000745 -0.002574 0.000000 0.000000 0.000000
# 2 -0.000745 0.012874 -0.001518 0.000000 0.000000 0.000000
# 3 -0.002574 -0.001518 0.017307 0.000000 0.000000 0.000000
# 4 0.000000 0.000000 0.000000 -0.946652 0.000000 0.000000
# 5 0.000000 0.000000 0.000000 0.000000 0.053655 0.000000
# 6 0.000000 0.000000 0.000000 0.000000 0.000000 0.113021
#
#
# Mechanical properties :
#
#
# Convention : Reuss Voigt Hill
#
# Bulk Modulus (GPa) = 35.70209 40.65492 38.17851
# Shear Modulus (GPa) = -6.91296 21.39130 7.23917
#
# Velocity S-wave (km/s) = -1.89485 3.33321 1.93905
# Velocity P-wave (km/s) = 3.70888 5.99410 4.98422
#
# Compressibility (1/GPa) = 0.02800956
#
# Stress axis : x y z
#
# Youngs Moduli (GPa) = 133.25290 77.67795 57.78033
#
# Poissons Ratio (x) = 0.05791 0.14875
# Poissons Ratio (y) = 0.09934 0.08771
# Poissons Ratio (z) = 0.34304 0.11791
#
# Static dielectric constant tensor:
#      x y z
#    x 1.742540 0.000000 0.000000 
#    y 0.000000 1.643250 0.000000 
#    z 0.000000 0.000000 1.718760 
# 
# From -- ./inp_files/15303.got.cif
#   From: 2010.05.17/outbox.cif.g08.bks.cpg/sg50_8_cif.got.tgz:15303.got - 2010.06.03 11:33:33.
