data_PCOD9395555
_publ_section_title
;
Structure prediction by ZEFSAII (Michael W. Deem and Ramdas Pophale) SiO2 
 PCOD9395555
Probable space group: P B A N
;
_chemical_formula_sum "Si O2"
_cell_formula_units_Z 46
_cell_length_a 16.380231
_cell_length_b 26.765969
_cell_length_c 5.574434
_cell_angle_alpha 90.000000
_cell_angle_beta 90.000000
_cell_angle_gamma 90.000000
_cell_volume 2444.014457
_symmetry_space_group_name_H-M "P B A N"
_symmetry_group_IT_number 50
_space_group.IT_coordinate_system_code '2'
_symmetry_cell_setting 'orthorhombic'
loop_
_space_group_symop_operation_xyz
x,y,z
1/2-x,1/2-y,z
x,1/2-y,-z
1/2-x,y,-z
-x,-y,-z
1/2+x,1/2+y,-z
-x,1/2+y,z
1/2+x,-y,z
loop_
_atom_site_type_symbol
_atom_site_label
_atom_site_fract_x
_atom_site_fract_y
_atom_site_fract_z
Si Si1 0.250000 0.750000 0.500000
Si Si2 0.891606 0.019158 0.220781
Si Si3 0.160789 0.552380 0.717338
Si Si4 0.380045 0.701093 0.847334
Si Si5 0.976591 0.913156 0.264323
Si Si6 0.494351 0.381516 0.238293
Si Si7 0.750000 0.373414 0.000000
O O1 0.311508 0.717567 0.657852
O O2 0.946758 0.970032 0.239078
O O3 0.840944 0.022303 0.469004
O O4 0.946537 0.069463 0.221026
O O5 0.847542 0.019631 0.961705
O O6 0.075489 0.583889 0.713951
O O7 0.234948 0.590317 0.773988
O O8 0.454324 0.669559 0.742038
O O9 0.328917 0.661117 0.000003
O O10 0.402877 0.750000 0.000000
O O11 0.946160 0.890310 0.515416
O O12 0.953033 0.883498 0.023524
#
# Coordination Sequence:
#
# PCOD9395555 Si02
#       7
#     2   8   8   8   8   8   4
#     4  12  26  32  56  54  88 136 178 220 254 278
#     4  10  18  32  50  71  89 110 148 202 258 295
#     4  10  20  29  48  68  92 118 148 200 245 293
#     4  12  25  37  46  65  90 133 177 219 251 287
#     4  10  18  33  51  70  88 110 146 208 256 300
#     4  10  20  32  49  68  87 112 153 202 260 281
#     4  12  21  38  44  66  98 128 176 204 259 278
#
# _framework density 18.821491999999999
#
# number of rings (size 3 to 8) (size 9 to 14) (size 15 to 20)
#    0.000    1.391    5.217    5.217    7.304    0.696 
#    0.000    0.000    0.000    0.000    0.000    0.000 
#    0.000    0.000    0.000    0.000    0.000    0.000 
#
# Total GULP energy -256419.889090 kJ/mol
# GULP energy per Si atom -5574.345415 kJ/mol
# Density = 1.877865 g / cm^3
# Si number density = 18.821492 Si / 1000 Ang^3
#
#
#
# Elastic Constant Matrix: (Units=GPa)
#
#
# Indices 1 2 3 4 5 6 
#
# 1 13.6289 22.0020 6.3959 0.0000 0.0000 0.0000
# 2 22.0020 100.6511 40.6775 0.0000 0.0000 0.0000
# 3 6.3959 40.6775 167.3773 0.0000 0.0000 0.0000
# 4 0.0000 0.0000 0.0000 -9.0069 0.0000 0.0000
# 5 0.0000 0.0000 0.0000 0.0000 14.4174 0.0000
# 6 0.0000 0.0000 0.0000 0.0000 0.0000 -16.2175
#
#
#
# Elastic Compliance Matrix: (Units=1/GPa)
#
#
# Indices 1 2 3 4 5 6 
#
# 1 0.113920 -0.025664 0.001884 0.000000 0.000000 0.000000
# 2 -0.025664 0.016799 -0.003102 0.000000 0.000000 0.000000
# 3 0.001884 -0.003102 0.006656 0.000000 0.000000 0.000000
# 4 0.000000 0.000000 0.000000 -0.111025 0.000000 0.000000
# 5 0.000000 0.000000 0.000000 0.000000 0.069361 0.000000
# 6 0.000000 0.000000 0.000000 0.000000 0.000000 -0.061662
#
#
# Mechanical properties :
#
#
# Convention : Reuss Voigt Hill
#
# Bulk Modulus (GPa) = 11.96005 46.64532 29.30269
# Shear Modulus (GPa) = 43.22133 12.01071 27.61602
#
# Velocity S-wave (km/s) = 4.79726 2.52888 3.83464
# Velocity P-wave (km/s) = 6.08713 5.77614 5.93367
#
# Compressibility (1/GPa) = 0.08361166
#
# Stress axis : x y z
#
# Youngs Moduli (GPa) = 8.77807 59.52739 150.23133
#
# Poissons Ratio (x) = 1.52771 -0.28302
# Poissons Ratio (y) = 0.22528 0.46601
# Poissons Ratio (z) = -0.01654 0.18465
#
# Static dielectric constant tensor:
#      x y z
#    x 1.767000 0.000000 0.000000 
#    y 0.000000 1.941690 0.000000 
#    z 0.000000 0.000000 1.961590 
# 
# From -- ./inp_files/4538.got.cif
#   From: 2010.05.17/outbox.cif.g08.bks.cpg/sg50_3_cif.got.tgz:4538.got - 2010.06.03 11:33:33.
