data_PCOD9395595
_publ_section_title
;
Structure prediction by ZEFSAII (Michael W. Deem and Ramdas Pophale) SiO2 
 PCOD9395595
Probable space group: P B A N
;
_chemical_formula_sum "Si O2"
_cell_formula_units_Z 34
_cell_length_a 24.627186
_cell_length_b 5.579200
_cell_length_c 9.445669
_cell_angle_alpha 90.000000
_cell_angle_beta 90.000000
_cell_angle_gamma 90.000000
_cell_volume 1297.834884
_symmetry_space_group_name_H-M "P B A N"
_symmetry_group_IT_number 50
_space_group.IT_coordinate_system_code '2'
_symmetry_cell_setting 'orthorhombic'
loop_
_space_group_symop_operation_xyz
x,y,z
1/2-x,1/2-y,z
x,1/2-y,-z
1/2-x,y,-z
-x,-y,-z
1/2+x,1/2+y,-z
-x,1/2+y,z
1/2+x,-y,z
loop_
_atom_site_type_symbol
_atom_site_label
_atom_site_fract_x
_atom_site_fract_y
_atom_site_fract_z
Si Si1 0.679032 0.521620 0.259628
Si Si2 0.522162 0.485354 0.841064
Si Si3 0.410461 0.500587 0.517593
Si Si4 0.852138 0.479347 0.218561
Si Si5 0.250000 0.250000 0.500000
O O1 0.619428 0.503408 0.332601
O O2 0.682400 0.260379 0.190203
O O3 0.718985 0.574808 0.390271
O O4 0.676728 0.772379 0.176176
O O5 0.502430 0.739788 0.778003
O O6 0.587305 0.469526 0.844110
O O7 0.500000 0.500000 0.000000
O O8 0.439723 0.750000 0.500000
O O9 0.364884 0.504795 0.389708
O O10 0.439004 0.250000 0.500000
#
# Coordination Sequence:
#
# PCOD9395595 Si02
#       5
#     8   8   8   8   2
#     4  10  20  30  51  77 115 160 185 234 258 346
#     4  10  21  37  59  84 106 134 190 262 293 358
#     4   8  14  27  42  65  94 147 176 204 259 317
#     4  10  18  34  50  75 111 152 183 233 308 319
#     4  12  20  34  52  90 116 160 220 214 264 330
#
# _framework density 26.197478
#
# number of rings (size 3 to 8) (size 9 to 14) (size 15 to 20)
#    0.000    2.353    3.529    1.412    0.000    1.882 
#    0.000    0.000    0.000   38.118    0.000    0.000 
#    0.000   56.471    0.000    0.000    0.000    0.000 
#
# Total GULP energy -189810.671608 kJ/mol
# GULP energy per Si atom -5582.666812 kJ/mol
# Density = 2.613785 g / cm^3
# Si number density = 26.197478 Si / 1000 Ang^3
#
#
#
# Elastic Constant Matrix: (Units=GPa)
#
#
# Indices 1 2 3 4 5 6 
#
# 1 94.9787 51.0492 9.7202 0.0000 0.0000 0.0000
# 2 51.0492 370.0379 1.2156 0.0000 0.0000 0.0000
# 3 9.7202 1.2156 64.5412 0.0000 0.0000 0.0000
# 4 0.0000 0.0000 0.0000 -4.8700 0.0000 0.0000
# 5 0.0000 0.0000 0.0000 0.0000 22.2976 0.0000
# 6 0.0000 0.0000 0.0000 0.0000 0.0000 29.4551
#
#
#
# Elastic Compliance Matrix: (Units=1/GPa)
#
#
# Indices 1 2 3 4 5 6 
#
# 1 0.011558 -0.001589 -0.001711 0.000000 0.000000 0.000000
# 2 -0.001589 0.002921 0.000184 0.000000 0.000000 0.000000
# 3 -0.001711 0.000184 0.015748 0.000000 0.000000 0.000000
# 4 0.000000 0.000000 0.000000 -0.205339 0.000000 0.000000
# 5 0.000000 0.000000 0.000000 0.000000 0.044848 0.000000
# 6 0.000000 0.000000 0.000000 0.000000 0.000000 0.033950
#
#
# Mechanical properties :
#
#
# Convention : Reuss Voigt Hill
#
# Bulk Modulus (GPa) = 41.67311 72.61421 57.14366
# Shear Modulus (GPa) = -60.91241 40.54805 -10.18218
#
# Velocity S-wave (km/s) = -4.82719 3.93846 -1.97361
# Velocity P-wave (km/s) = 3.88936 6.96133 4.08246
#
# Compressibility (1/GPa) = 0.02399629
#
# Stress axis : x y z
#
# Youngs Moduli (GPa) = 86.52216 342.34695 63.49952
#
# Poissons Ratio (x) = 0.54394 0.10863
# Poissons Ratio (y) = 0.13747 -0.01170
# Poissons Ratio (z) = 0.14802 -0.06309
#
# Static dielectric constant tensor:
#      x y z
#    x 2.025170 0.000000 0.000000 
#    y 0.000000 2.235430 0.000000 
#    z 0.000000 0.000000 1.978700 
# 
# From -- ./inp_files/22624.got.cif
#   From: 2010.05.17/outbox.cif.g08.bks.cpg/sg50_12_cif.got.tgz:22624.got - 2010.06.03 11:33:33.
