data_PCOD9395646
_publ_section_title
;
Structure prediction by ZEFSAII (Michael W. Deem and Ramdas Pophale) SiO2 
 PCOD9395646
Probable space group: P B A N
;
_chemical_formula_sum "Si O2"
_cell_formula_units_Z 58
_cell_length_a 14.511801
_cell_length_b 10.129830
_cell_length_c 17.520497
_cell_angle_alpha 90.000000
_cell_angle_beta 90.000000
_cell_angle_gamma 90.000000
_cell_volume 2575.549451
_symmetry_space_group_name_H-M "P B A N"
_symmetry_group_IT_number 50
_space_group.IT_coordinate_system_code '2'
_symmetry_cell_setting 'orthorhombic'
loop_
_space_group_symop_operation_xyz
x,y,z
1/2-x,1/2-y,z
x,1/2-y,-z
1/2-x,y,-z
-x,-y,-z
1/2+x,1/2+y,-z
-x,1/2+y,z
1/2+x,-y,z
loop_
_atom_site_type_symbol
_atom_site_label
_atom_site_fract_x
_atom_site_fract_y
_atom_site_fract_z
Si Si1 0.405033 0.482036 0.148249
Si Si2 0.915844 0.311941 0.423084
Si Si3 0.880530 0.481670 0.818100
Si Si4 0.750000 0.750000 0.500000
Si Si5 0.380044 0.713450 0.254083
Si Si6 0.397636 0.247264 0.758607
Si Si7 0.906359 0.621247 0.401397
Si Si8 0.358829 0.599684 0.990477
O O1 0.508068 0.479615 0.181834
O O2 0.354796 0.594268 0.197785
O O3 0.371051 0.336490 0.167065
O O4 0.401329 0.517517 0.059979
O O5 0.871881 0.250000 0.500000
O O6 0.860758 0.296585 0.343719
O O7 0.934802 0.470465 0.421399
O O8 0.009113 0.222839 0.416532
O O9 0.844175 0.350184 0.778777
O O10 0.852013 0.610272 0.770354
O O11 0.865815 0.469038 0.908439
O O12 0.818118 0.659739 0.450830
O O13 0.492335 0.725062 0.247796
O O14 0.378427 0.154589 0.685868
O O15 0.397029 0.750000 0.000000
O O16 0.250000 0.610243 0.000000
#
# Coordination Sequence:
#
# PCOD9395646 Si02
#       8
#     8   8   8   2   8   8   8   8
#     4  10  18  38  60  85 122 154 202 262 314 363
#     4  11  22  39  73 101 128 170 230 276 323 391
#     4  10  20  37  61  94 118 160 210 263 318 373
#     4  12  28  44  66  92 152 176 218 268 352 388
#     4   9  18  33  61  93 120 153 208 266 308 369
#     4   9  20  35  62  91 122 158 205 266 317 375
#     4  11  24  44  67 101 134 180 218 276 338 396
#     4  11  23  38  58  85 125 167 208 252 311 387
#
# _framework density 22.519466999999999
#
# number of rings (size 3 to 8) (size 9 to 14) (size 15 to 20)
#    0.000    1.793    3.448    0.828    5.793    0.552 
#    2.483    1.034    0.000    0.000    0.000    0.000 
#    0.000    0.000    0.000    0.000    0.000    0.000 
#
# Total GULP energy -323527.145784 kJ/mol
# GULP energy per Si atom -5578.054238 kJ/mol
# Density = 2.246821 g / cm^3
# Si number density = 22.519467 Si / 1000 Ang^3
#
#
#
# Elastic Constant Matrix: (Units=GPa)
#
#
# Indices 1 2 3 4 5 6 
#
# 1 50.6189 5.5253 -16.2488 0.0000 0.0000 0.0000
# 2 5.5253 127.1952 29.4130 0.0000 0.0000 0.0000
# 3 -16.2488 29.4130 118.4497 0.0000 0.0000 0.0000
# 4 0.0000 0.0000 0.0000 62.6469 0.0000 0.0000
# 5 0.0000 0.0000 0.0000 0.0000 -2.7880 0.0000
# 6 0.0000 0.0000 0.0000 0.0000 0.0000 -5.8610
#
#
#
# Elastic Compliance Matrix: (Units=1/GPa)
#
#
# Indices 1 2 3 4 5 6 
#
# 1 0.020996 -0.001674 0.003296 0.000000 0.000000 0.000000
# 2 -0.001674 0.008474 -0.002334 0.000000 0.000000 0.000000
# 3 0.003296 -0.002334 0.009474 0.000000 0.000000 0.000000
# 4 0.000000 0.000000 0.000000 0.015962 0.000000 0.000000
# 5 0.000000 0.000000 0.000000 0.000000 -0.358683 0.000000
# 6 0.000000 0.000000 0.000000 0.000000 0.000000 -0.170619
#
#
# Mechanical properties :
#
#
# Convention : Reuss Voigt Hill
#
# Bulk Modulus (GPa) = 26.65229 37.07142 31.86185
# Shear Modulus (GPa) = -10.85862 29.30453 9.22295
#
# Velocity S-wave (km/s) = -2.19826 3.61126 2.02594
# Velocity P-wave (km/s) = 2.32761 5.82117 4.43304
#
# Compressibility (1/GPa) = 0.03752023
#
# Stress axis : x y z
#
# Youngs Moduli (GPa) = 47.62757 118.00266 105.55075
#
# Poissons Ratio (x) = 0.19757 -0.34789
# Poissons Ratio (y) = 0.07974 0.24636
# Poissons Ratio (z) = -0.15698 0.27542
#
# Static dielectric constant tensor:
#      x y z
#    x 1.845320 0.000000 0.000000 
#    y 0.000000 1.863760 0.000000 
#    z 0.000000 0.000000 1.776100 
# 
# From -- ./inp_files/29729.got.cif
#   From: 2010.05.17/outbox.cif.g08.bks.cpg/sg50_15_cif.got.tgz:29729.got - 2010.06.03 11:33:33.
