data_PCOD9395076
_publ_section_title
;
Structure prediction by ZEFSAII (Michael W. Deem and Ramdas Pophale) SiO2 
 PCOD9395076
Probable space group: P C C M
;
_chemical_formula_sum "Si O2"
_cell_formula_units_Z 64
_cell_length_a 16.175204
_cell_length_b 9.142856
_cell_length_c 22.175023
_cell_angle_alpha 90.000000
_cell_angle_beta 90.000000
_cell_angle_gamma 90.000000
_cell_volume 3279.410065
_symmetry_space_group_name_H-M "P C C M"
_symmetry_group_IT_number 49
_symmetry_cell_setting 'orthorhombic'
loop_
_space_group_symop_operation_xyz
x,y,z
-x,-y,z
x,-y,1/2-z
-x,y,1/2-z
-x,-y,-z
x,y,-z
-x,y,1/2+z
x,-y,1/2+z
loop_
_atom_site_type_symbol
_atom_site_label
_atom_site_fract_x
_atom_site_fract_y
_atom_site_fract_z
Si Si1 0.714912 0.780894 0.340618
Si Si2 0.294980 0.481465 0.568293
Si Si3 0.573578 0.258751 0.569581
Si Si4 0.877780 0.829156 0.269090
Si Si5 0.145180 0.707378 0.569452
Si Si6 0.729903 0.046930 0.571153
Si Si7 0.019965 0.330453 0.168769
Si Si8 0.528053 0.830640 0.684907
O O1 0.706770 0.631245 0.377424
O O2 0.786634 0.788470 0.291068
O O3 0.626247 0.820467 0.314338
O O4 0.734221 0.902737 0.390453
O O5 0.299115 0.417488 0.500000
O O6 0.372135 0.593284 0.573360
O O7 0.210475 0.574611 0.572326
O O8 0.540573 0.248810 0.500000
O O9 0.641782 0.129707 0.577446
O O10 0.508909 0.244576 0.624279
O O11 0.910143 0.729606 0.214294
O O12 0.942127 0.777055 0.321125
O O13 0.884190 0.000000 0.250000
O O14 0.127547 0.735391 0.500000
O O15 0.197869 0.844911 0.593086
O O16 0.061641 0.679192 0.604200
O O17 0.740422 0.020934 0.500000
O O18 0.000000 0.500000 0.181228
O O19 0.500000 0.769720 0.750000
O O20 0.500000 0.000000 0.681774
#
# Coordination Sequence:
#
# PCOD9395076 Si02
#       8
#     8   8   8   8   8   8   8   8
#     4  12  23  38  62  88 118 165 202 252 316 372
#     4   9  20  38  62  94 130 158 202 260 313 373
#     4   9  19  40  64  88 121 167 210 253 308 372
#     4  11  25  40  60  86 120 160 204 253 306 355
#     4   9  19  38  63  90 122 158 192 245 312 369
#     4   9  18  34  59  89 119 155 204 248 294 365
#     4  11  22  41  64  88 119 154 207 254 288 371
#     4  11  25  41  60  91 128 156 208 269 318 375
#
# _framework density 19.515705000000001
#
# number of rings (size 3 to 8) (size 9 to 14) (size 15 to 20)
#    0.000    1.875    1.250    4.875    1.750    4.000 
#    0.000    5.000    0.000    3.000    0.000    0.000 
#    0.000    0.000    0.000    0.000    0.000    0.000 
#
# Total GULP energy -357232.576809 kJ/mol
# GULP energy per Si atom -5581.759013 kJ/mol
# Density = 1.947129 g / cm^3
# Si number density = 19.515705 Si / 1000 Ang^3
#
#
#
# Elastic Constant Matrix: (Units=GPa)
#
#
# Indices 1 2 3 4 5 6 
#
# 1 107.4242 29.2568 52.0326 0.0000 0.0000 0.0000
# 2 29.2568 63.3016 26.0922 0.0000 0.0000 0.0000
# 3 52.0326 26.0922 69.9325 0.0000 0.0000 0.0000
# 4 0.0000 0.0000 0.0000 83.4246 0.0000 0.0000
# 5 0.0000 0.0000 0.0000 0.0000 8.2365 0.0000
# 6 0.0000 0.0000 0.0000 0.0000 0.0000 -2.8659
#
#
#
# Elastic Compliance Matrix: (Units=1/GPa)
#
#
# Indices 1 2 3 4 5 6 
#
# 1 0.014947 -0.002747 -0.010097 0.000000 0.000000 0.000000
# 2 -0.002747 0.019173 -0.005110 0.000000 0.000000 0.000000
# 3 -0.010097 -0.005110 0.023718 0.000000 0.000000 0.000000
# 4 0.000000 0.000000 0.000000 0.011987 0.000000 0.000000
# 5 0.000000 0.000000 0.000000 0.000000 0.121410 0.000000
# 6 0.000000 0.000000 0.000000 0.000000 0.000000 -0.348935
#
#
# Mechanical properties :
#
#
# Convention : Reuss Voigt Hill
#
# Bulk Modulus (GPa) = 45.59488 50.60241 48.09864
# Shear Modulus (GPa) = -43.67506 26.64417 -8.51545
#
# Velocity S-wave (km/s) = -4.73582 3.69896 -2.09114
# Velocity P-wave (km/s) = 2.54758 6.65045 4.34386
#
# Compressibility (1/GPa) = 0.02193229
#
# Stress axis : x y z
#
# Youngs Moduli (GPa) = 66.90111 52.15638 42.16134
#
# Poissons Ratio (x) = 0.14326 0.42569
# Poissons Ratio (y) = 0.18376 0.21544
# Poissons Ratio (z) = 0.67548 0.26652
#
# Static dielectric constant tensor:
#      x y z
#    x 1.655580 0.000000 0.000000 
#    y 0.000000 1.708600 0.000000 
#    z 0.000000 0.000000 1.708750 
# 
# From -- ./inp_files/23218.got.cif
#   From: 2010.05.17/outbox.cif.g08.bks.cpg/sg49_12_cif.got.tgz:23218.got - 2010.06.03 21:02:19.
