data_PCOD9395579
_publ_section_title
;
Structure prediction by ZEFSAII (Michael W. Deem and Ramdas Pophale) SiO2 
 PCOD9395579
Probable space group: P B A N
;
_chemical_formula_sum "Si O2"
_cell_formula_units_Z 64
_cell_length_a 5.392336
_cell_length_b 27.328098
_cell_length_c 22.398946
_cell_angle_alpha 90.000000
_cell_angle_beta 90.000000
_cell_angle_gamma 90.000000
_cell_volume 3300.759901
_symmetry_space_group_name_H-M "P B A N"
_symmetry_group_IT_number 50
_space_group.IT_coordinate_system_code '2'
_symmetry_cell_setting 'orthorhombic'
loop_
_space_group_symop_operation_xyz
x,y,z
1/2-x,1/2-y,z
x,1/2-y,-z
1/2-x,y,-z
-x,-y,-z
1/2+x,1/2+y,-z
-x,1/2+y,z
1/2+x,-y,z
loop_
_atom_site_type_symbol
_atom_site_label
_atom_site_fract_x
_atom_site_fract_y
_atom_site_fract_z
Si Si1 0.839884 0.387510 0.167966
Si Si2 0.065750 0.876409 0.711052
Si Si3 0.502091 0.222750 0.178250
Si Si4 0.497477 0.055705 0.474801
Si Si5 0.740036 0.467749 0.929963
Si Si6 0.500807 0.237308 0.688112
Si Si7 0.437148 0.073165 0.336220
Si Si8 0.080739 0.474518 0.219598
O O1 0.625337 0.387209 0.219020
O O2 0.951586 0.333410 0.160945
O O3 0.757124 0.418715 0.110497
O O4 0.059263 0.419682 0.196842
O O5 0.014580 0.818950 0.706393
O O6 0.324097 0.893011 0.679855
O O7 0.828141 0.902286 0.680629
O O8 0.750000 0.250000 0.157340
O O9 0.499053 0.229644 0.250889
O O10 0.250000 0.250000 0.157905
O O11 0.250000 0.080196 0.500000
O O12 0.471227 0.056649 0.403858
O O13 0.750000 0.078472 0.500000
O O14 0.500000 0.000000 0.500000
O O15 0.480632 0.497357 0.920126
O O16 0.750000 0.454243 0.000000
O O17 0.750000 0.250000 0.654089
O O18 0.250000 0.250000 0.655077
O O19 0.442350 0.027552 0.290963
O O20 0.830423 0.500785 0.199621
#
# Coordination Sequence:
#
# PCOD9395579 Si02
#       8
#     8   8   8   8   8   8   8   8
#     4  11  22  39  61  90 123 173 204 252 332 384
#     4  11  22  36  56  89 126 160 187 255 311 372
#     4  10  21  33  55  83 122 156 206 238 297 387
#     4  10  22  38  61  76 106 160 210 240 288 349
#     4  10  23  43  66  90 122 164 229 282 308 371
#     4  10  18  33  53  79 122 159 192 227 299 379
#     4  11  24  37  57  85 122 155 206 249 296 356
#     4  11  24  35  52  79 122 157 189 244 304 364
#
# _framework density 19.389475999999998
#
# number of rings (size 3 to 8) (size 9 to 14) (size 15 to 20)
#    0.000    1.500    2.500    3.750    8.750    4.000 
#    0.000    0.000    0.000    0.375    0.000    1.750 
#    0.000   35.000    0.000    0.000    0.000    0.000 
#
# Total GULP energy -357066.132060 kJ/mol
# GULP energy per Si atom -5579.158313 kJ/mol
# Density = 1.934535 g / cm^3
# Si number density = 19.389476 Si / 1000 Ang^3
#
#
#
# Elastic Constant Matrix: (Units=GPa)
#
#
# Indices 1 2 3 4 5 6 
#
# 1 200.2546 65.1438 47.3874 0.0000 0.0000 0.0000
# 2 65.1438 122.4897 43.0256 0.0000 0.0000 0.0000
# 3 47.3874 43.0256 121.7176 0.0000 0.0000 0.0000
# 4 0.0000 0.0000 0.0000 11.1901 0.0000 0.0000
# 5 0.0000 0.0000 0.0000 0.0000 21.7343 0.0000
# 6 0.0000 0.0000 0.0000 0.0000 0.0000 26.0573
#
#
#
# Elastic Compliance Matrix: (Units=1/GPa)
#
#
# Indices 1 2 3 4 5 6 
#
# 1 0.006251 -0.002820 -0.001437 0.000000 0.000000 0.000000
# 2 -0.002820 0.010593 -0.002647 0.000000 0.000000 0.000000
# 3 -0.001437 -0.002647 0.009711 0.000000 0.000000 0.000000
# 4 0.000000 0.000000 0.000000 0.089365 0.000000 0.000000
# 5 0.000000 0.000000 0.000000 0.000000 0.046010 0.000000
# 6 0.000000 0.000000 0.000000 0.000000 0.000000 0.038377
#
#
# Mechanical properties :
#
#
# Convention : Reuss Voigt Hill
#
# Bulk Modulus (GPa) = 78.44283 83.95284 81.19784
# Shear Modulus (GPa) = 22.89764 31.05668 26.97716
#
# Velocity S-wave (km/s) = 3.44020 4.00650 3.73410
# Velocity P-wave (km/s) = 7.50494 8.04953 7.78200
#
# Compressibility (1/GPa) = 0.01274814
#
# Stress axis : x y z
#
# Youngs Moduli (GPa) = 159.97617 94.39946 102.97843
#
# Poissons Ratio (x) = 0.26618 0.14797
# Poissons Ratio (y) = 0.45109 0.27256
# Poissons Ratio (z) = 0.22987 0.24986
#
# Static dielectric constant tensor:
#      x y z
#    x 1.782470 0.000000 0.000000 
#    y 0.000000 1.680660 0.000000 
#    z 0.000000 0.000000 1.687920 
# 
# From -- ./inp_files/30491.got.cif
#   From: 2010.05.17/outbox.cif.g08.bks.cpg/sg50_16_cif.got.tgz:30491.got - 2010.06.03 11:33:33.
