data_PCOD9395272
_publ_section_title
;
Structure prediction by ZEFSAII (Michael W. Deem and Ramdas Pophale) SiO2 
 PCOD9395272
Probable space group: P C C M
;
_chemical_formula_sum "Si O2"
_cell_formula_units_Z 48
_cell_length_a 9.000000
_cell_length_b 30.000000
_cell_length_c 9.000000
_cell_angle_alpha 90.000000
_cell_angle_beta 90.000000
_cell_angle_gamma 90.000000
_cell_volume 2430.000000
_symmetry_space_group_name_H-M "P C C M"
_symmetry_group_IT_number 49
_symmetry_cell_setting 'orthorhombic'
loop_
_space_group_symop_operation_xyz
x,y,z
-x,-y,z
x,-y,1/2-z
-x,y,1/2-z
-x,-y,-z
x,y,-z
-x,y,1/2+z
x,-y,1/2+z
loop_
_atom_site_type_symbol
_atom_site_label
_atom_site_fract_x
_atom_site_fract_y
_atom_site_fract_z
Si Si1 0.347733 0.116881 0.824535
Si Si2 0.159651 0.289504 0.325503
Si Si3 0.852948 0.951463 0.677702
Si Si4 0.346190 0.629824 0.824722
Si Si5 0.840297 0.458018 0.825651
Si Si6 0.840754 0.190939 0.824793
O O1 0.500000 0.129981 0.750000
O O2 0.289047 0.074030 0.736663
O O3 0.238952 0.155940 0.778505
O O4 0.355356 0.109376 0.000000
O O5 0.135002 0.298414 0.500000
O O6 0.268034 0.326341 0.261900
O O7 0.227053 0.240183 0.315286
O O8 0.000000 0.291694 0.250000
O O9 0.864346 0.952843 0.500000
O O10 0.000000 0.929276 0.750000
O O11 0.847329 0.000000 0.750000
O O12 0.500000 0.621022 0.750000
O O13 0.241980 0.587831 0.802448
O O14 0.368683 0.636310 0.000000
O O15 0.761006 0.500000 0.750000
O O16 0.000000 0.454280 0.750000
O O17 0.855821 0.466256 0.000000
O O18 0.000000 0.195561 0.750000
O O19 0.846197 0.177587 0.000000
#
# Coordination Sequence:
#
# PCOD9395272 Si02
#       6
#     8   8   8   8   8   8
#     4  12  25  41  59  84 117 154 192 234 284 338
#     4   9  19  36  58  83 110 141 183 228 274 325
#     4  11  22  40  64  91 119 152 193 237 283 333
#     4  10  22  37  53  78 110 145 181 222 271 328
#     4  10  20  35  56  80 106 137 179 224 271 323
#     4  10  20  37  60  86 114 147 187 233 279 331
#
# _framework density 19.753086
#
# number of rings (size 3 to 8) (size 9 to 14) (size 15 to 20)
#    0.000    1.667    0.000    6.000    0.000    4.000 
#    0.000    5.000    0.000    0.000    0.000    0.000 
#    0.000    0.000    0.000    0.000    0.000    0.000 
#
# Total GULP energy -267610.873413 kJ/mol
# GULP energy per Si atom -5575.226529 kJ/mol
# Density = 1.970813 g / cm^3
# Si number density = 19.753086 Si / 1000 Ang^3
#
#
#
# Elastic Constant Matrix: (Units=GPa)
#
#
# Indices 1 2 3 4 5 6 
#
# 1 29.7186 33.8938 26.2514 0.0000 0.0000 0.0000
# 2 33.8938 39.8974 70.1298 0.0000 0.0000 0.0000
# 3 26.2514 70.1298 94.0221 0.0000 0.0000 0.0000
# 4 0.0000 0.0000 0.0000 32.7575 0.0000 0.0000
# 5 0.0000 0.0000 0.0000 0.0000 -7.9991 0.0000
# 6 0.0000 0.0000 0.0000 0.0000 0.0000 400.6819
#
#
#
# Elastic Compliance Matrix: (Units=1/GPa)
#
#
# Indices 1 2 3 4 5 6 
#
# 1 0.025710 0.029649 -0.029293 0.000000 0.000000 0.000000
# 2 0.029649 -0.046378 0.026315 0.000000 0.000000 0.000000
# 3 -0.029293 0.026315 -0.000813 0.000000 0.000000 0.000000
# 4 0.000000 0.000000 0.000000 0.030527 0.000000 0.000000
# 5 0.000000 0.000000 0.000000 0.000000 -0.125014 0.000000
# 6 0.000000 0.000000 0.000000 0.000000 0.000000 0.002496
#
#
# Mechanical properties :
#
#
# Convention : Reuss Voigt Hill
#
# Bulk Modulus (GPa) = 31.38746 47.13201 39.25973
# Shear Modulus (GPa) = -32.01166 87.31226 27.65030
#
# Velocity S-wave (km/s) = -4.03002 6.65566 3.74544
# Velocity P-wave (km/s) = 2.39382 9.10912 6.21473
#
# Compressibility (1/GPa) = 0.03185986
#
# Stress axis : x y z
#
# Youngs Moduli (GPa) = 38.89526 -21.56184 -1229.80651
#
# Poissons Ratio (x) = 0.63929 -36.02515
# Poissons Ratio (y) = -1.15321 32.36199
# Poissons Ratio (z) = 1.13937 0.56739
#
# Static dielectric constant tensor:
#      x y z
#    x 1.603240 0.000000 0.000000 
#    y 0.000000 1.798290 0.000000 
#    z 0.000000 0.000000 1.652380 
# 
# From -- ./inp_files/2070.got.cif
#   From: 2010.05.17/outbox.ucp.g08.bks.cvg/sg49_2_cif.got.tgz:2070.got - 2010.06.11 16:40:14.
