data_PCOD9395056
_publ_section_title
;
Structure prediction by ZEFSAII (Michael W. Deem and Ramdas Pophale) SiO2 
 PCOD9395056
Probable space group: P C C M
;
_chemical_formula_sum "Si O2"
_cell_formula_units_Z 34
_cell_length_a 23.144475
_cell_length_b 7.654027
_cell_length_c 8.705938
_cell_angle_alpha 90.000000
_cell_angle_beta 90.000000
_cell_angle_gamma 90.000000
_cell_volume 1542.243305
_symmetry_space_group_name_H-M "P C C M"
_symmetry_group_IT_number 49
_symmetry_cell_setting 'orthorhombic'
loop_
_space_group_symop_operation_xyz
x,y,z
-x,-y,z
x,-y,1/2-z
-x,y,1/2-z
-x,-y,-z
x,y,-z
-x,y,1/2+z
x,-y,1/2+z
loop_
_atom_site_type_symbol
_atom_site_label
_atom_site_fract_x
_atom_site_fract_y
_atom_site_fract_z
Si Si1 0.500000 0.500000 0.750000
Si Si2 0.818507 0.307097 0.683747
Si Si3 0.058344 0.805145 0.184021
Si Si4 0.415827 0.821540 0.323062
Si Si5 0.702079 0.695987 0.317262
O O1 0.544284 0.354211 0.679618
O O2 0.810774 0.500000 0.750000
O O3 0.821113 0.300439 0.500000
O O4 0.880004 0.256193 0.754137
O O5 0.759630 0.217845 0.743442
O O6 0.000000 0.715938 0.250000
O O7 0.056173 0.000000 0.250000
O O8 0.056798 0.800948 0.000000
O O9 0.402047 0.855535 0.500000
O O10 0.357248 0.786882 0.229458
O O11 0.440593 0.000000 0.250000
O O12 0.695618 0.500000 0.250000
O O13 0.709227 0.687891 0.500000
#
# Coordination Sequence:
#
# PCOD9395056 Si02
#       5
#     2   8   8   8   8
#     4  12  28  48  80 104 146 188 234 280 354 402
#     4  11  22  39  63  94 129 170 217 270 330 395
#     4  11  22  39  60  87 122 166 216 270 332 398
#     4  12  27  47  73 107 143 185 236 286 343 413
#     4  11  22  41  68  98 133 176 221 275 340 405
#
# _framework density 22.045809999999999
#
# number of rings (size 3 to 8) (size 9 to 14) (size 15 to 20)
#    0.000    0.706    1.176    9.882    0.000    5.176 
#    0.000    7.059    0.000    0.000    0.000    0.000 
#    0.000    0.000    0.000    0.000    0.000    0.000 
#
# Total GULP energy -189709.071845 kJ/mol
# GULP energy per Si atom -5579.678584 kJ/mol
# Density = 2.199563 g / cm^3
# Si number density = 22.045810 Si / 1000 Ang^3
#
#
#
# Elastic Constant Matrix: (Units=GPa)
#
#
# Indices 1 2 3 4 5 6 
#
# 1 207.6767 42.6512 80.1672 0.0000 0.0000 0.0000
# 2 42.6512 101.3022 27.3619 0.0000 0.0000 0.0000
# 3 80.1672 27.3619 240.6586 0.0000 0.0000 0.0000
# 4 0.0000 0.0000 0.0000 25.9813 0.0000 0.0000
# 5 0.0000 0.0000 0.0000 0.0000 139.9026 0.0000
# 6 0.0000 0.0000 0.0000 0.0000 0.0000 53.9553
#
#
#
# Elastic Compliance Matrix: (Units=1/GPa)
#
#
# Indices 1 2 3 4 5 6 
#
# 1 0.005899 -0.002015 -0.001736 0.000000 0.000000 0.000000
# 2 -0.002015 0.010872 -0.000565 0.000000 0.000000 0.000000
# 3 -0.001736 -0.000565 0.004798 0.000000 0.000000 0.000000
# 4 0.000000 0.000000 0.000000 0.038489 0.000000 0.000000
# 5 0.000000 0.000000 0.000000 0.000000 0.007148 0.000000
# 6 0.000000 0.000000 0.000000 0.000000 0.000000 0.018534
#
#
# Mechanical properties :
#
#
# Convention : Reuss Voigt Hill
#
# Bulk Modulus (GPa) = 77.29373 94.44424 85.86898
# Shear Modulus (GPa) = 50.66665 70.59833 60.63249
#
# Velocity S-wave (km/s) = 4.79920 5.66507 5.25002
# Velocity P-wave (km/s) = 8.11458 9.25871 8.70546
#
# Compressibility (1/GPa) = 0.01293766
#
# Stress axis : x y z
#
# Youngs Moduli (GPa) = 169.51757 91.97653 208.42922
#
# Poissons Ratio (x) = 0.18531 0.36183
# Poissons Ratio (y) = 0.34154 0.11776
# Poissons Ratio (z) = 0.29428 0.05197
#
# Static dielectric constant tensor:
#      x y z
#    x 2.016820 0.000000 0.000000 
#    y 0.000000 1.815330 0.000000 
#    z 0.000000 0.000000 1.742240 
# 
# From -- ./inp_files/5528.got.cif
#   From: 2010.05.17/outbox.cif.g08.bks.cpg/sg49_3_cif.got.tgz:5528.got - 2010.06.03 21:02:19.
