data_PCOD9395955
_publ_section_title
;
Structure prediction by ZEFSAII (Michael W. Deem and Ramdas Pophale) SiO2 
 PCOD9395955
Probable space group: P B A N
;
_chemical_formula_sum "Si O2"
_cell_formula_units_Z 64
_cell_length_a 14.603013
_cell_length_b 19.216842
_cell_length_c 11.810400
_cell_angle_alpha 90.000000
_cell_angle_beta 90.000000
_cell_angle_gamma 90.000000
_cell_volume 3314.279251
_symmetry_space_group_name_H-M "P B A N"
_symmetry_group_IT_number 50
_space_group.IT_coordinate_system_code '2'
_symmetry_cell_setting 'orthorhombic'
loop_
_space_group_symop_operation_xyz
x,y,z
1/2-x,1/2-y,z
x,1/2-y,-z
1/2-x,y,-z
-x,-y,-z
1/2+x,1/2+y,-z
-x,1/2+y,z
1/2+x,-y,z
loop_
_atom_site_type_symbol
_atom_site_label
_atom_site_fract_x
_atom_site_fract_y
_atom_site_fract_z
Si Si1 0.600910 0.314890 0.362140
Si Si2 0.086074 0.332712 0.204816
Si Si3 0.764976 0.080447 0.625851
Si Si4 0.479695 0.924760 0.948150
Si Si5 0.945417 0.159401 0.601533
Si Si6 0.213528 0.970126 0.126344
Si Si7 0.018046 0.316485 0.856608
Si Si8 0.276196 0.137040 0.872135
O O1 0.697400 0.352843 0.377542
O O2 0.538774 0.339096 0.467717
O O3 0.606371 0.231787 0.369929
O O4 0.549285 0.331594 0.246962
O O5 0.035417 0.267371 0.142304
O O6 0.195407 0.330758 0.204005
O O7 0.061403 0.401203 0.133162
O O8 0.036732 0.340302 0.324885
O O9 0.750000 0.045684 0.500000
O O10 0.871994 0.100097 0.627569
O O11 0.743731 0.048902 0.750598
O O12 0.386751 0.935016 0.878713
O O13 0.477880 0.863365 0.041596
O O14 0.500000 0.000000 0.000000
O O15 0.217680 0.053582 0.126763
O O16 0.250000 0.949169 0.000000
O O17 0.122392 0.340354 0.839620
O O18 0.250000 0.159918 0.000000
#
# Coordination Sequence:
#
# PCOD9395955 Si02
#       8
#     8   8   8   8   8   8   8   8
#     4   9  19  34  58  86 117 153 194 245 310 365
#     4  11  22  37  61  87 118 153 207 250 294 351
#     4  10  19  36  60  86 119 159 203 251 301 372
#     4  12  21  37  59  83 119 158 191 247 309 363
#     4   9  18  36  58  84 116 156 198 240 301 377
#     4  11  22  38  58  86 120 159 203 242 308 373
#     4  11  22  37  60  91 118 152 204 259 297 355
#     4  11  22  39  58  82 116 163 203 245 295 364
#
# _framework density 19.310382000000001
#
# number of rings (size 3 to 8) (size 9 to 14) (size 15 to 20)
#    0.000    1.500    3.750    2.625    0.000    2.000 
#    0.000    1.875    0.000    6.750    0.000    0.000 
#    0.000    0.000    0.000    0.000    0.000    0.000 
#
# Total GULP energy -356295.676069 kJ/mol
# GULP energy per Si atom -5567.119939 kJ/mol
# Density = 1.926643 g / cm^3
# Si number density = 19.310382 Si / 1000 Ang^3
#
#
#
# Elastic Constant Matrix: (Units=GPa)
#
#
# Indices 1 2 3 4 5 6 
#
# 1 73.0870 13.3112 26.0181 0.0000 0.0000 0.0000
# 2 13.3112 49.2768 29.7894 0.0000 0.0000 0.0000
# 3 26.0181 29.7894 116.9953 0.0000 0.0000 0.0000
# 4 0.0000 0.0000 0.0000 10.6653 0.0000 0.0000
# 5 0.0000 0.0000 0.0000 0.0000 27.9936 0.0000
# 6 0.0000 0.0000 0.0000 0.0000 0.0000 21.7942
#
#
#
# Elastic Compliance Matrix: (Units=1/GPa)
#
#
# Indices 1 2 3 4 5 6 
#
# 1 0.015099 -0.002422 -0.002741 0.000000 0.000000 0.000000
# 2 -0.002422 0.024374 -0.005668 0.000000 0.000000 0.000000
# 3 -0.002741 -0.005668 0.010600 0.000000 0.000000 0.000000
# 4 0.000000 0.000000 0.000000 0.093762 0.000000 0.000000
# 5 0.000000 0.000000 0.000000 0.000000 0.035722 0.000000
# 6 0.000000 0.000000 0.000000 0.000000 0.000000 0.045884
#
#
# Mechanical properties :
#
#
# Convention : Reuss Voigt Hill
#
# Bulk Modulus (GPa) = 35.19598 41.95517 38.57557
# Shear Modulus (GPa) = 19.48762 23.43997 21.46379
#
# Velocity S-wave (km/s) = 3.18020 3.48782 3.33756
# Velocity P-wave (km/s) = 5.63480 6.16391 5.90528
#
# Compressibility (1/GPa) = 0.02841234
#
# Stress axis : x y z
#
# Youngs Moduli (GPa) = 66.22855 41.02744 94.33906
#
# Poissons Ratio (x) = 0.09935 0.25861
# Poissons Ratio (y) = 0.16038 0.53467
# Poissons Ratio (z) = 0.18155 0.23253
#
# Static dielectric constant tensor:
#      x y z
#    x 1.679970 0.000000 0.000000 
#    y 0.000000 1.693860 0.000000 
#    z 0.000000 0.000000 1.736740 
# 
# From -- ./inp_files/21364.got.cif
#   From: 2010.05.17/outbox.cif.g08.bks.cpg/sg50_11_cif.got.tgz:21364.got - 2010.06.03 11:33:33.
