data_PCOD9395633
_publ_section_title
;
Structure prediction by ZEFSAII (Michael W. Deem and Ramdas Pophale) SiO2 
 PCOD9395633
Probable space group: P B A N
;
_chemical_formula_sum "Si O2"
_cell_formula_units_Z 64
_cell_length_a 22.638581
_cell_length_b 9.185987
_cell_length_c 15.032470
_cell_angle_alpha 90.000000
_cell_angle_beta 90.000000
_cell_angle_gamma 90.000000
_cell_volume 3126.118048
_symmetry_space_group_name_H-M "P B A N"
_symmetry_group_IT_number 50
_space_group.IT_coordinate_system_code '2'
_symmetry_cell_setting 'orthorhombic'
loop_
_space_group_symop_operation_xyz
x,y,z
1/2-x,1/2-y,z
x,1/2-y,-z
1/2-x,y,-z
-x,-y,-z
1/2+x,1/2+y,-z
-x,1/2+y,z
1/2+x,-y,z
loop_
_atom_site_type_symbol
_atom_site_label
_atom_site_fract_x
_atom_site_fract_y
_atom_site_fract_z
Si Si1 0.279589 0.602919 0.166123
Si Si2 0.553418 0.631009 0.574838
Si Si3 0.578578 0.396115 0.445198
Si Si4 0.074176 0.245860 0.764795
Si Si5 0.118609 0.585543 0.969496
Si Si6 0.631446 0.235185 0.726090
Si Si7 0.535616 0.063305 0.183309
Si Si8 0.342605 0.037304 0.151172
O O1 0.250000 0.750000 0.125987
O O2 0.333826 0.551052 0.106853
O O3 0.310231 0.665171 0.256773
O O4 0.227602 0.485821 0.163568
O O5 0.545061 0.750000 0.500000
O O6 0.592365 0.512690 0.522372
O O7 0.487283 0.567147 0.593745
O O8 0.577939 0.711293 0.661272
O O9 0.573523 0.250000 0.500000
O O10 0.621783 0.353386 0.364881
O O11 0.047373 0.393070 0.804962
O O12 0.134816 0.185092 0.804153
O O13 0.028788 0.117355 0.790304
O O14 0.056084 0.590877 0.918225
O O15 0.130409 0.750000 0.000000
O O16 0.131826 0.479493 0.051539
O O17 0.577481 0.343054 0.749562
O O18 0.633090 0.107554 0.799141
#
# Coordination Sequence:
#
# PCOD9395633 Si02
#       8
#     8   8   8   8   8   8   8   8
#     4   9  18  33  63  95 115 154 212 272 323 381
#     4  10  21  33  56  86 122 166 213 256 312 375
#     4  10  19  32  55  87 119 160 208 260 311 376
#     4  12  25  40  58  85 134 174 218 268 320 404
#     4  11  20  38  63  90 118 159 216 273 324 387
#     4  10  18  36  61  89 124 158 211 264 325 388
#     4  11  24  39  57  85 125 174 212 262 326 387
#     4  11  22  36  62  90 119 166 217 269 325 386
#
# _framework density 20.472676
#
# number of rings (size 3 to 8) (size 9 to 14) (size 15 to 20)
#    0.000    1.500    5.000    2.625    3.500    1.000 
#    0.000    2.500    0.000    6.375    0.000    0.000 
#    0.000    4.000    0.000    0.000    0.000    0.000 
#
# Total GULP energy -356718.173369 kJ/mol
# GULP energy per Si atom -5573.721459 kJ/mol
# Density = 2.042608 g / cm^3
# Si number density = 20.472676 Si / 1000 Ang^3
#
#
#
# Elastic Constant Matrix: (Units=GPa)
#
#
# Indices 1 2 3 4 5 6 
#
# 1 37.8843 22.5019 49.6597 0.0000 0.0000 0.0000
# 2 22.5019 78.8617 31.3232 0.0000 0.0000 0.0000
# 3 49.6597 31.3232 133.3297 0.0000 0.0000 0.0000
# 4 0.0000 0.0000 0.0000 30.1098 0.0000 0.0000
# 5 0.0000 0.0000 0.0000 0.0000 21.1594 0.0000
# 6 0.0000 0.0000 0.0000 0.0000 0.0000 30.2422
#
#
#
# Elastic Compliance Matrix: (Units=1/GPa)
#
#
# Indices 1 2 3 4 5 6 
#
# 1 0.056350 -0.008539 -0.018982 0.000000 0.000000 0.000000
# 2 -0.008539 0.015279 -0.000409 0.000000 0.000000 0.000000
# 3 -0.018982 -0.000409 0.014666 0.000000 0.000000 0.000000
# 4 0.000000 0.000000 0.000000 0.033212 0.000000 0.000000
# 5 0.000000 0.000000 0.000000 0.000000 0.047260 0.000000
# 6 0.000000 0.000000 0.000000 0.000000 0.000000 0.033066
#
#
# Mechanical properties :
#
#
# Convention : Reuss Voigt Hill
#
# Bulk Modulus (GPa) = 32.85645 50.78280 41.81962
# Shear Modulus (GPa) = 18.80832 26.07500 22.44166
#
# Velocity S-wave (km/s) = 3.03430 3.57269 3.31445
# Velocity P-wave (km/s) = 5.32539 6.47131 5.92611
#
# Compressibility (1/GPa) = 0.03043543
#
# Stress axis : x y z
#
# Youngs Moduli (GPa) = 17.74622 65.44747 68.18358
#
# Poissons Ratio (x) = 0.55886 1.29426
# Poissons Ratio (y) = 0.15154 0.02790
# Poissons Ratio (z) = 0.33686 0.02678
#
# Static dielectric constant tensor:
#      x y z
#    x 1.792690 0.000000 0.000000 
#    y 0.000000 1.673160 0.000000 
#    z 0.000000 0.000000 1.703250 
# 
# From -- ./inp_files/27485.got.cif
#   From: 2010.05.17/outbox.cif.g08.bks.cpg/sg50_14_cif.got.tgz:27485.got - 2010.06.03 11:33:33.
