data_PCOD9395166
_publ_section_title
;
Structure prediction by ZEFSAII (Michael W. Deem and Ramdas Pophale) SiO2 
 PCOD9395166
Probable space group: P C C M
;
_chemical_formula_sum "Si O2"
_cell_formula_units_Z 20
_cell_length_a 5.304039
_cell_length_b 5.230541
_cell_length_c 28.925497
_cell_angle_alpha 90.000000
_cell_angle_beta 90.000000
_cell_angle_gamma 90.000000
_cell_volume 802.479874
_symmetry_space_group_name_H-M "P C C M"
_symmetry_group_IT_number 49
_symmetry_cell_setting 'orthorhombic'
loop_
_space_group_symop_operation_xyz
x,y,z
-x,-y,z
x,-y,1/2-z
-x,y,1/2-z
-x,-y,-z
x,y,-z
-x,y,1/2+z
x,-y,1/2+z
loop_
_atom_site_type_symbol
_atom_site_label
_atom_site_fract_x
_atom_site_fract_y
_atom_site_fract_z
Si Si1 0.830993 0.750166 0.673285
Si Si2 0.000000 0.500000 0.000000
Si Si3 0.500000 0.500000 0.750000
Si Si4 0.737549 0.161792 0.929764
O O1 0.658232 0.682903 0.716465
O O2 0.693695 0.783705 0.624259
O O3 0.000000 0.500000 0.667082
O O4 0.000000 0.000000 0.681389
O O5 0.799259 0.408083 0.040323
O O6 0.500000 0.000000 0.946838
O O7 0.000000 0.000000 0.934682
#
# Coordination Sequence:
#
# PCOD9395166 Si02
#       4
#     8   2   2   8
#     4  11  28  53  76 118 165 211 277 346 416 504
#     4  12  24  50  84 114 156 218 276 352 410 506
#     4  12  30  50  88 114 160 226 274 350 414 504
#     4  11  27  49  77 116 162 213 274 343 420 500
#
# _framework density 24.922740000000001
#
# number of rings (size 3 to 8) (size 9 to 14) (size 15 to 20)
#    0.000    0.800    2.000    1.800   11.200    8.000 
#    0.000    0.000    0.000    0.000    0.000    0.000 
#    0.000    0.000    0.000    0.000    0.000    0.000 
#
# Total GULP energy -111673.963167 kJ/mol
# GULP energy per Si atom -5583.698158 kJ/mol
# Density = 2.486601 g / cm^3
# Si number density = 24.922740 Si / 1000 Ang^3
#
#
#
# Elastic Constant Matrix: (Units=GPa)
#
#
# Indices 1 2 3 4 5 6 
#
# 1 134.2121 71.7190 81.2111 0.0000 0.0000 0.0000
# 2 71.7190 150.5340 55.5139 0.0000 0.0000 0.0000
# 3 81.2111 55.5139 227.7777 0.0000 0.0000 0.0000
# 4 0.0000 0.0000 0.0000 170.5070 0.0000 0.0000
# 5 0.0000 0.0000 0.0000 0.0000 -447.7366 0.0000
# 6 0.0000 0.0000 0.0000 0.0000 0.0000 34.5973
#
#
#
# Elastic Compliance Matrix: (Units=1/GPa)
#
#
# Indices 1 2 3 4 5 6 
#
# 1 0.011685 -0.004429 -0.003087 0.000000 0.000000 0.000000
# 2 -0.004429 0.008978 -0.000609 0.000000 0.000000 0.000000
# 3 -0.003087 -0.000609 0.005639 0.000000 0.000000 0.000000
# 4 0.000000 0.000000 0.000000 0.005865 0.000000 0.000000
# 5 0.000000 0.000000 0.000000 0.000000 -0.002233 0.000000
# 6 0.000000 0.000000 0.000000 0.000000 0.000000 0.028904
#
#
# Mechanical properties :
#
#
# Convention : Reuss Voigt Hill
#
# Bulk Modulus (GPa) = 99.47442 103.26798 101.37120
# Shear Modulus (GPa) = 63.74449 -28.25446 17.74502
#
# Velocity S-wave (km/s) = 5.06284 -3.37067 2.67123
# Velocity P-wave (km/s) = 8.61256 5.13582 7.09059
#
# Compressibility (1/GPa) = 0.01005284
#
# Stress axis : x y z
#
# Youngs Moduli (GPa) = 85.57674 111.38763 177.32883
#
# Poissons Ratio (x) = 0.49333 0.54739
# Poissons Ratio (y) = 0.37901 0.10799
# Poissons Ratio (z) = 0.26416 0.06783
#
# Static dielectric constant tensor:
#      x y z
#    x 1.987450 0.000000 0.000000 
#    y 0.000000 1.992060 0.000000 
#    z 0.000000 0.000000 1.970880 
# 
# From -- ./inp_files/23522.got.cif
#   From: 2010.05.17/outbox.cif.g08.bks.cpg/sg49_12_cif.got.tgz:23522.got - 2010.06.03 21:02:19.
