data_PCOD9395419
_publ_section_title
;
Structure prediction by ZEFSAII (Michael W. Deem and Ramdas Pophale) SiO2 
 PCOD9395419
Probable space group: P B A N
;
_chemical_formula_sum "Si O2"
_cell_formula_units_Z 28
_cell_length_a 8.785788
_cell_length_b 20.415804
_cell_length_c 7.810325
_cell_angle_alpha 90.000000
_cell_angle_beta 90.000000
_cell_angle_gamma 90.000000
_cell_volume 1400.929605
_symmetry_space_group_name_H-M "P B A N"
_symmetry_group_IT_number 50
_space_group.IT_coordinate_system_code '2'
_symmetry_cell_setting 'orthorhombic'
loop_
_space_group_symop_operation_xyz
x,y,z
1/2-x,1/2-y,z
x,1/2-y,-z
1/2-x,y,-z
-x,-y,-z
1/2+x,1/2+y,-z
-x,1/2+y,z
1/2+x,-y,z
loop_
_atom_site_type_symbol
_atom_site_label
_atom_site_fract_x
_atom_site_fract_y
_atom_site_fract_z
Si Si1 0.998619 0.157239 0.375096
Si Si2 0.250000 0.750000 0.500000
Si Si3 0.967593 0.948066 0.351392
Si Si4 0.847049 0.952914 0.827390
Si Si5 0.250000 0.250000 0.500000
O O1 0.989547 0.119675 0.558954
O O2 0.031949 0.103567 0.227235
O O3 0.144063 0.204260 0.384941
O O4 0.853162 0.203897 0.378753
O O5 0.790372 0.948726 0.308468
O O6 0.000000 0.000000 0.500000
O O7 0.067384 0.977200 0.194715
O O8 0.750000 0.944544 0.000000
#
# Coordination Sequence:
#
# PCOD9395419 Si02
#       5
#     8   2   8   8   2
#     4  10  20  37  61  86 115 157 213 253 295 358
#     4  10  24  34  66  88 112 162 220 266 276 350
#     4  10  20  36  61  88 119 154 198 248 302 367
#     4  11  22  37  60  95 125 157 189 257 322 367
#     4  10  16  38  60  78 104 158 226 244 280 346
#
# _framework density 19.986727999999999
#
# number of rings (size 3 to 8) (size 9 to 14) (size 15 to 20)
#    0.000    1.714    2.857    3.429    8.000    0.000 
#    0.000    0.714    0.000    1.714    0.000    0.000 
#    0.000    0.000    0.000    0.000    0.000    0.000 
#
# Total GULP energy -156009.244341 kJ/mol
# GULP energy per Si atom -5571.758726 kJ/mol
# Density = 1.994124 g / cm^3
# Si number density = 19.986728 Si / 1000 Ang^3
#
#
#
# Elastic Constant Matrix: (Units=GPa)
#
#
# Indices 1 2 3 4 5 6 
#
# 1 115.8331 54.8472 28.1837 0.0000 0.0000 0.0000
# 2 54.8472 110.8193 24.3386 0.0000 0.0000 0.0000
# 3 28.1837 24.3386 77.4115 0.0000 0.0000 0.0000
# 4 0.0000 0.0000 0.0000 13.3452 0.0000 0.0000
# 5 0.0000 0.0000 0.0000 0.0000 33.2158 0.0000
# 6 0.0000 0.0000 0.0000 0.0000 0.0000 46.3741
#
#
#
# Elastic Compliance Matrix: (Units=1/GPa)
#
#
# Indices 1 2 3 4 5 6 
#
# 1 0.011754 -0.005239 -0.002632 0.000000 0.000000 0.000000
# 2 -0.005239 0.012028 -0.001874 0.000000 0.000000 0.000000
# 3 -0.002632 -0.001874 0.014466 0.000000 0.000000 0.000000
# 4 0.000000 0.000000 0.000000 0.074933 0.000000 0.000000
# 5 0.000000 0.000000 0.000000 0.000000 0.030106 0.000000
# 6 0.000000 0.000000 0.000000 0.000000 0.000000 0.021564
#
#
# Mechanical properties :
#
#
# Convention : Reuss Voigt Hill
#
# Bulk Modulus (GPa) = 53.31440 57.64476 55.47958
# Shear Modulus (GPa) = 26.23356 31.69999 28.96678
#
# Velocity S-wave (km/s) = 3.62684 3.98685 3.81110
# Velocity P-wave (km/s) = 6.65368 7.07795 6.86909
#
# Compressibility (1/GPa) = 0.01875666
#
# Stress axis : x y z
#
# Youngs Moduli (GPa) = 85.07408 83.13605 69.12961
#
# Poissons Ratio (x) = 0.43559 0.18196
# Poissons Ratio (y) = 0.44574 0.12957
# Poissons Ratio (z) = 0.22393 0.15582
#
# Static dielectric constant tensor:
#      x y z
#    x 1.724420 0.000000 0.000000 
#    y 0.000000 1.755800 0.000000 
#    z 0.000000 0.000000 1.817890 
# 
# From -- ./inp_files/8859.got.cif
#   From: 2010.05.17/outbox.cif.g08.bks.cpg/sg50_5_cif.got.tgz:8859.got - 2010.06.03 11:33:33.
