data_PCOD9395350
_publ_section_title
;
Structure prediction by ZEFSAII (Michael W. Deem and Ramdas Pophale) SiO2 
 PCOD9395350
Probable space group: P B A N
;
_chemical_formula_sum "Si O2"
_cell_formula_units_Z 42
_cell_length_a 5.599059
_cell_length_b 13.582937
_cell_length_c 23.559530
_cell_angle_alpha 90.000000
_cell_angle_beta 90.000000
_cell_angle_gamma 90.000000
_cell_volume 1791.741499
_symmetry_space_group_name_H-M "P B A N"
_symmetry_group_IT_number 50
_space_group.IT_coordinate_system_code '2'
_symmetry_cell_setting 'orthorhombic'
loop_
_space_group_symop_operation_xyz
x,y,z
1/2-x,1/2-y,z
x,1/2-y,-z
1/2-x,y,-z
-x,-y,-z
1/2+x,1/2+y,-z
-x,1/2+y,z
1/2+x,-y,z
loop_
_atom_site_type_symbol
_atom_site_label
_atom_site_fract_x
_atom_site_fract_y
_atom_site_fract_z
Si Si1 0.380746 0.378076 0.727010
Si Si2 0.750000 0.750000 0.500000
Si Si3 0.452979 0.062293 0.152257
Si Si4 0.135370 0.859544 0.558118
Si Si5 0.375889 0.898462 0.316586
Si Si6 0.001956 0.387661 0.023341
O O1 0.424426 0.365931 0.793948
O O2 0.374084 0.496886 0.715594
O O3 0.624609 0.346750 0.696598
O O4 0.121750 0.346626 0.703374
O O5 0.626028 0.673524 0.541736
O O6 0.475487 0.112640 0.091108
O O7 0.704616 0.001261 0.155453
O O8 0.250000 0.750000 0.566773
O O9 0.250000 0.901718 0.500000
O O10 0.133048 0.918055 0.615976
O O11 0.250000 0.347351 0.000000
O O12 0.750000 0.348983 0.000000
O O13 0.000000 0.500000 0.000000
#
# Coordination Sequence:
#
# PCOD9395350 Si02
#       6
#     8   2   8   8   8   8
#     4  10  20  32  45  69  91 130 158 185 223 266
#     4   8  18  36  52  74  88 112 150 176 246 276
#     4  12  16  26  39  55  86 116 160 194 214 262
#     4   9  20  35  53  74  90 116 148 189 238 276
#     4  10  19  33  50  66  95 117 155 190 217 279
#     4  10  16  22  32  53  76 111 155 198 220 246
#
# _framework density 23.44088
#
# number of rings (size 3 to 8) (size 9 to 14) (size 15 to 20)
#    0.000    2.095    7.619    0.000    5.333    0.000 
#    0.000    3.810    0.000    0.000    0.000    0.000 
#    0.000    0.000    0.000    0.000    0.000   45.714 
#
# Total GULP energy -234102.072909 kJ/mol
# GULP energy per Si atom -5573.858879 kJ/mol
# Density = 2.338753 g / cm^3
# Si number density = 23.440880 Si / 1000 Ang^3
#
#
#
# Elastic Constant Matrix: (Units=GPa)
#
#
# Indices 1 2 3 4 5 6 
#
# 1 242.2606 19.9299 61.0720 0.0000 0.0000 0.0000
# 2 19.9299 57.7033 -0.1111 0.0000 0.0000 0.0000
# 3 61.0720 -0.1111 226.4153 0.0000 0.0000 0.0000
# 4 0.0000 0.0000 0.0000 -21.7004 0.0000 0.0000
# 5 0.0000 0.0000 0.0000 0.0000 61.4349 0.0000
# 6 0.0000 0.0000 0.0000 0.0000 0.0000 -36.3677
#
#
#
# Elastic Compliance Matrix: (Units=1/GPa)
#
#
# Indices 1 2 3 4 5 6 
#
# 1 0.004569 -0.001580 -0.001233 0.000000 0.000000 0.000000
# 2 -0.001580 0.017877 0.000435 0.000000 0.000000 0.000000
# 3 -0.001233 0.000435 0.004749 0.000000 0.000000 0.000000
# 4 0.000000 0.000000 0.000000 -0.046082 0.000000 0.000000
# 5 0.000000 0.000000 0.000000 0.000000 0.016277 0.000000
# 6 0.000000 0.000000 0.000000 0.000000 0.000000 -0.027497
#
#
# Mechanical properties :
#
#
# Convention : Reuss Voigt Hill
#
# Bulk Modulus (GPa) = 44.56713 76.46233 60.51473
# Shear Modulus (GPa) = -279.78837 30.37258 -124.70789
#
# Velocity S-wave (km/s) = -10.93701 3.60350 -7.30182
# Velocity P-wave (km/s) = 11.85062 7.07133 6.72434
#
# Compressibility (1/GPa) = 0.02243806
#
# Stress axis : x y z
#
# Youngs Moduli (GPa) = 218.88315 55.93878 210.54915
#
# Poissons Ratio (x) = 0.08840 0.25963
# Poissons Ratio (y) = 0.34591 -0.09160
# Poissons Ratio (z) = 0.26990 -0.02434
#
# Static dielectric constant tensor:
#      x y z
#    x 1.942680 0.000000 0.000000 
#    y 0.000000 1.920180 0.000000 
#    z 0.000000 0.000000 1.803200 
# 
# From -- ./inp_files/28252.got.cif
#   From: 2010.05.17/outbox.cif.g08.bks.cpg/sg50_15_cif.got.tgz:28252.got - 2010.06.03 11:33:33.
