data_PCOD9395637
_publ_section_title
;
Structure prediction by ZEFSAII (Michael W. Deem and Ramdas Pophale) SiO2 
 PCOD9395637
Probable space group: P B A N
;
_chemical_formula_sum "Si O2"
_cell_formula_units_Z 58
_cell_length_a 18.732515
_cell_length_b 13.099297
_cell_length_c 14.175457
_cell_angle_alpha 90.000000
_cell_angle_beta 90.000000
_cell_angle_gamma 90.000000
_cell_volume 3478.413012
_symmetry_space_group_name_H-M "P B A N"
_symmetry_group_IT_number 50
_space_group.IT_coordinate_system_code '2'
_symmetry_cell_setting 'orthorhombic'
loop_
_space_group_symop_operation_xyz
x,y,z
1/2-x,1/2-y,z
x,1/2-y,-z
1/2-x,y,-z
-x,-y,-z
1/2+x,1/2+y,-z
-x,1/2+y,z
1/2+x,-y,z
loop_
_atom_site_type_symbol
_atom_site_label
_atom_site_fract_x
_atom_site_fract_y
_atom_site_fract_z
Si Si1 0.774265 0.133036 0.838910
Si Si2 0.122006 0.960788 0.858184
Si Si3 0.250000 0.750000 0.500000
Si Si4 0.523430 0.506069 0.608130
Si Si5 0.039581 0.690481 0.285135
Si Si6 0.969857 0.624507 0.787457
Si Si7 0.581924 0.136654 0.044348
Si Si8 0.649191 0.366137 0.644081
O O1 0.750000 0.250000 0.832434
O O2 0.705364 0.065863 0.863526
O O3 0.838489 0.132847 0.912982
O O4 0.806622 0.105999 0.737275
O O5 0.085713 0.880224 0.785187
O O6 0.102637 0.073860 0.823565
O O7 0.083324 0.940170 0.957196
O O8 0.299177 0.679037 0.434776
O O9 0.500000 0.500000 0.500000
O O10 0.500993 0.618429 0.641777
O O11 0.487081 0.433630 0.688735
O O12 0.604141 0.464395 0.612342
O O13 0.094275 0.773609 0.328917
O O14 0.979219 0.756127 0.231870
O O15 0.029158 0.607876 0.869953
O O16 0.568341 0.250000 0.000000
#
# Coordination Sequence:
#
# PCOD9395637 Si02
#       8
#     8   8   2   8   8   8   8   8
#     4  12  19  33  51  83 120 145 173 229 288 352
#     4  11  21  31  55  83 115 149 182 228 283 343
#     4  12  20  28  56  76 118 146 176 234 296 340
#     4  10  21  35  55  79 109 145 187 232 286 341
#     4  10  18  37  55  77 113 143 182 232 276 336
#     4  10  21  36  52  81 111 146 194 230 276 335
#     4  12  19  33  55  82 116 153 184 228 291 346
#     4  11  20  35  52  85 110 144 183 233 293 340
#
# _framework density 16.67427
#
# number of rings (size 3 to 8) (size 9 to 14) (size 15 to 20)
#    0.000    1.103    7.586    1.655    0.000    2.759 
#    0.000    0.000    0.000    0.828    0.000    0.000 
#    0.000    0.000    0.000    0.000    0.000    0.000 
#
# Total GULP energy -323186.142446 kJ/mol
# GULP energy per Si atom -5572.174870 kJ/mol
# Density = 1.663632 g / cm^3
# Si number density = 16.674270 Si / 1000 Ang^3
#
#
#
# Elastic Constant Matrix: (Units=GPa)
#
#
# Indices 1 2 3 4 5 6 
#
# 1 60.3758 19.1314 30.5350 0.0000 0.0000 0.0000
# 2 19.1314 32.4471 22.0085 0.0000 0.0000 0.0000
# 3 30.5350 22.0085 108.8843 0.0000 0.0000 0.0000
# 4 0.0000 0.0000 0.0000 23.5887 0.0000 0.0000
# 5 0.0000 0.0000 0.0000 0.0000 19.2963 0.0000
# 6 0.0000 0.0000 0.0000 0.0000 0.0000 7.5225
#
#
#
# Elastic Compliance Matrix: (Units=1/GPa)
#
#
# Indices 1 2 3 4 5 6 
#
# 1 0.021827 -0.010103 -0.004079 0.000000 0.000000 0.000000
# 2 -0.010103 0.040392 -0.005331 0.000000 0.000000 0.000000
# 3 -0.004079 -0.005331 0.011406 0.000000 0.000000 0.000000
# 4 0.000000 0.000000 0.000000 0.042393 0.000000 0.000000
# 5 0.000000 0.000000 0.000000 0.000000 0.051823 0.000000
# 6 0.000000 0.000000 0.000000 0.000000 0.000000 0.132934
#
#
# Mechanical properties :
#
#
# Convention : Reuss Voigt Hill
#
# Bulk Modulus (GPa) = 28.90273 38.33968 33.62120
# Shear Modulus (GPa) = 14.23142 18.75032 16.49087
#
# Velocity S-wave (km/s) = 2.92463 3.35700 3.14825
# Velocity P-wave (km/s) = 5.36433 6.17002 5.78123
#
# Compressibility (1/GPa) = 0.03459881
#
# Stress axis : x y z
#
# Youngs Moduli (GPa) = 45.81431 24.75712 87.67660
#
# Poissons Ratio (x) = 0.25012 0.35764
# Poissons Ratio (y) = 0.46286 0.46742
# Poissons Ratio (z) = 0.18688 0.13199
#
# Static dielectric constant tensor:
#      x y z
#    x 1.570610 0.000000 0.000000 
#    y 0.000000 1.567130 0.000000 
#    z 0.000000 0.000000 1.559290 
# 
# From -- ./inp_files/26034.got.cif
#   From: 2010.05.17/outbox.cif.g08.bks.cpg/sg50_14_cif.got.tgz:26034.got - 2010.06.03 11:33:33.
