data_PCOD9395714
_publ_section_title
;
Structure prediction by ZEFSAII (Michael W. Deem and Ramdas Pophale) SiO2 
 PCOD9395714
Probable space group: P B A N
;
_chemical_formula_sum "Si O2"
_cell_formula_units_Z 48
_cell_length_a 14.313350
_cell_length_b 5.264746
_cell_length_c 30.174899
_cell_angle_alpha 90.000000
_cell_angle_beta 90.000000
_cell_angle_gamma 90.000000
_cell_volume 2273.864280
_symmetry_space_group_name_H-M "P B A N"
_symmetry_group_IT_number 50
_space_group.IT_coordinate_system_code '2'
_symmetry_cell_setting 'orthorhombic'
loop_
_space_group_symop_operation_xyz
x,y,z
1/2-x,1/2-y,z
x,1/2-y,-z
1/2-x,y,-z
-x,-y,-z
1/2+x,1/2+y,-z
-x,1/2+y,z
1/2+x,-y,z
loop_
_atom_site_type_symbol
_atom_site_label
_atom_site_fract_x
_atom_site_fract_y
_atom_site_fract_z
Si Si1 0.854742 0.496880 0.480138
Si Si2 0.564177 0.405756 0.610907
Si Si3 0.062719 0.569030 0.709216
Si Si4 0.864289 0.748231 0.050813
Si Si5 0.560860 0.274650 0.798972
Si Si6 0.361930 0.751653 0.896859
O O1 0.897350 0.750000 0.500000
O O2 0.750000 0.497267 0.500000
O O3 0.862170 0.466488 0.427619
O O4 0.901900 0.250000 0.500000
O O5 0.513009 0.132305 0.606651
O O6 0.606547 0.410159 0.660512
O O7 0.019169 0.285761 0.710365
O O8 0.116818 0.645085 0.754246
O O9 0.750000 0.750000 0.049616
O O10 0.894024 0.489967 0.074306
O O11 0.892825 0.989251 0.080389
O O12 0.896474 0.750000 0.000000
O O13 0.479322 0.488921 0.797503
O O14 0.609903 0.292237 0.846122
O O15 0.250000 0.750000 0.898454
#
# Coordination Sequence:
#
# PCOD9395714 Si02
#       6
#     8   8   8   8   8   8
#     4  10  21  35  50  71 104 141 165 202 253 311
#     4  10  19  32  53  79 101 127 173 220 249 285
#     4   8  16  30  49  74  97 125 162 205 248 292
#     4   9  17  30  49  73  98 132 173 212 254 296
#     4  10  19  33  53  75 102 135 167 202 256 317
#     4  10  19  31  51  76 101 128 166 220 252 296
#
# _framework density 21.109439999999999
#
# number of rings (size 3 to 8) (size 9 to 14) (size 15 to 20)
#    0.000    2.500    0.000    2.500    0.000    4.000 
#    0.000    0.000    3.667   10.000    8.667    0.000 
#    0.000    0.000    0.000    0.000    0.000    0.000 
#
# Total GULP energy -267534.775135 kJ/mol
# GULP energy per Si atom -5573.641149 kJ/mol
# Density = 2.106139 g / cm^3
# Si number density = 21.109440 Si / 1000 Ang^3
#
#
#
# Elastic Constant Matrix: (Units=GPa)
#
#
# Indices 1 2 3 4 5 6 
#
# 1 56.1048 6.2717 29.8331 0.0000 0.0000 0.0000
# 2 6.2717 164.2144 53.2950 0.0000 0.0000 0.0000
# 3 29.8331 53.2950 244.0699 0.0000 0.0000 0.0000
# 4 0.0000 0.0000 0.0000 38.3991 0.0000 0.0000
# 5 0.0000 0.0000 0.0000 0.0000 43.0685 0.0000
# 6 0.0000 0.0000 0.0000 0.0000 0.0000 -20.3888
#
#
#
# Elastic Compliance Matrix: (Units=1/GPa)
#
#
# Indices 1 2 3 4 5 6 
#
# 1 0.019063 0.000030 -0.002337 0.000000 0.000000 0.000000
# 2 0.000030 0.006554 -0.001435 0.000000 0.000000 0.000000
# 3 -0.002337 -0.001435 0.004696 0.000000 0.000000 0.000000
# 4 0.000000 0.000000 0.000000 0.026042 0.000000 0.000000
# 5 0.000000 0.000000 0.000000 0.000000 0.023219 0.000000
# 6 0.000000 0.000000 0.000000 0.000000 0.000000 -0.049047
#
#
# Mechanical properties :
#
#
# Convention : Reuss Voigt Hill
#
# Bulk Modulus (GPa) = 43.80074 71.46540 57.63307
# Shear Modulus (GPa) = 109.60011 37.21507 73.40759
#
# Velocity S-wave (km/s) = 7.21337 4.20331 5.90341
# Velocity P-wave (km/s) = 9.49586 7.58191 8.59234
#
# Compressibility (1/GPa) = 0.02283066
#
# Stress axis : x y z
#
# Youngs Moduli (GPa) = 52.45783 152.57579 212.94162
#
# Poissons Ratio (x) = -0.00463 0.49758
# Poissons Ratio (y) = -0.00159 0.30554
# Poissons Ratio (z) = 0.12258 0.21893
#
# Static dielectric constant tensor:
#      x y z
#    x 1.751270 0.000000 0.000000 
#    y 0.000000 1.766630 0.000000 
#    z 0.000000 0.000000 1.794560 
# 
# From -- ./inp_files/31462.got.cif
#   From: 2010.05.17/outbox.cif.g08.bks.cpg/sg50_16_cif.got.tgz:31462.got - 2010.06.03 11:33:33.
