data_PCOD9395531
_publ_section_title
;
Structure prediction by ZEFSAII (Michael W. Deem and Ramdas Pophale) SiO2 
 PCOD9395531
Probable space group: P B A N
;
_chemical_formula_sum "Si O2"
_cell_formula_units_Z 48
_cell_length_a 8.092951
_cell_length_b 17.782976
_cell_length_c 15.774281
_cell_angle_alpha 90.000000
_cell_angle_beta 90.000000
_cell_angle_gamma 90.000000
_cell_volume 2270.183309
_symmetry_space_group_name_H-M "P B A N"
_symmetry_group_IT_number 50
_space_group.IT_coordinate_system_code '2'
_symmetry_cell_setting 'orthorhombic'
loop_
_space_group_symop_operation_xyz
x,y,z
1/2-x,1/2-y,z
x,1/2-y,-z
1/2-x,y,-z
-x,-y,-z
1/2+x,1/2+y,-z
-x,1/2+y,z
1/2+x,-y,z
loop_
_atom_site_type_symbol
_atom_site_label
_atom_site_fract_x
_atom_site_fract_y
_atom_site_fract_z
Si Si1 0.839287 0.641305 0.248993
Si Si2 0.679428 0.107213 0.091737
Si Si3 0.523921 0.288454 0.775891
Si Si4 0.288955 0.452828 0.598181
Si Si5 0.511377 0.014623 0.838361
Si Si6 0.610531 0.419000 0.676087
O O1 0.662424 0.678232 0.229774
O O2 0.987141 0.701521 0.240417
O O3 0.820255 0.602728 0.341720
O O4 0.874815 0.578450 0.178672
O O5 0.610727 0.181424 0.138722
O O6 0.821867 0.061789 0.144921
O O7 0.533010 0.045061 0.089017
O O8 0.750000 0.124161 0.000000
O O9 0.627865 0.333697 0.705230
O O10 0.250000 0.456619 0.500000
O O11 0.475343 0.424562 0.603377
O O12 0.264753 0.533651 0.643973
O O13 0.483367 0.962515 0.754301
#
# Coordination Sequence:
#
# PCOD9395531 Si02
#       6
#     8   8   8   8   8   8
#     4   9  19  35  55  75 107 152 190 223 278 352
#     4  11  21  34  56  83 109 138 184 243 287 331
#     4   9  18  36  54  75 106 146 186 224 279 351
#     4  10  18  30  51  80 106 136 182 236 279 321
#     4  10  19  34  54  77 105 143 186 227 284 351
#     4   9  17  31  51  74 103 141 180 221 278 344
#
# _framework density 21.143668000000002
#
# number of rings (size 3 to 8) (size 9 to 14) (size 15 to 20)
#    0.000    2.333    0.000    6.000    0.000    0.667 
#    0.000    8.333    0.000    2.000    0.000    4.667 
#    0.000    0.000    0.000    0.000    0.000    0.000 
#
# Total GULP energy -267435.575240 kJ/mol
# GULP energy per Si atom -5571.574484 kJ/mol
# Density = 2.109554 g / cm^3
# Si number density = 21.143668 Si / 1000 Ang^3
#
#
#
# Elastic Constant Matrix: (Units=GPa)
#
#
# Indices 1 2 3 4 5 6 
#
# 1 62.2468 17.9319 13.2669 0.0000 0.0000 0.0000
# 2 17.9319 96.6664 15.6953 0.0000 0.0000 0.0000
# 3 13.2669 15.6953 83.9026 0.0000 0.0000 0.0000
# 4 0.0000 0.0000 0.0000 8.2977 0.0000 0.0000
# 5 0.0000 0.0000 0.0000 0.0000 13.7324 0.0000
# 6 0.0000 0.0000 0.0000 0.0000 0.0000 38.7055
#
#
#
# Elastic Compliance Matrix: (Units=1/GPa)
#
#
# Indices 1 2 3 4 5 6 
#
# 1 0.017360 -0.002862 -0.002210 0.000000 0.000000 0.000000
# 2 -0.002862 0.011141 -0.001632 0.000000 0.000000 0.000000
# 3 -0.002210 -0.001632 0.012573 0.000000 0.000000 0.000000
# 4 0.000000 0.000000 0.000000 0.120515 0.000000 0.000000
# 5 0.000000 0.000000 0.000000 0.000000 0.072820 0.000000
# 6 0.000000 0.000000 0.000000 0.000000 0.000000 0.025836
#
#
# Mechanical properties :
#
#
# Convention : Reuss Voigt Hill
#
# Bulk Modulus (GPa) = 36.14231 37.40041 36.77136
# Shear Modulus (GPa) = 17.67567 25.20858 21.44213
#
# Velocity S-wave (km/s) = 2.89447 3.45665 3.18797
# Velocity P-wave (km/s) = 5.31990 5.80158 5.56595
#
# Compressibility (1/GPa) = 0.02766840
#
# Stress axis : x y z
#
# Youngs Moduli (GPa) = 57.60228 89.76175 79.53425
#
# Poissons Ratio (x) = 0.25686 0.17575
# Poissons Ratio (y) = 0.16484 0.12976
# Poissons Ratio (z) = 0.12729 0.14645
#
# Static dielectric constant tensor:
#      x y z
#    x 1.840630 0.000000 0.000000 
#    y 0.000000 1.811730 0.000000 
#    z 0.000000 0.000000 1.775330 
# 
# From -- ./inp_files/24993.got.cif
#   From: 2010.05.17/outbox.cif.g08.bks.cpg/sg50_13_cif.got.tgz:24993.got - 2010.06.03 11:33:33.
