data_PCOD9395239
_publ_section_title
;
Structure prediction by ZEFSAII (Michael W. Deem and Ramdas Pophale) SiO2 
 PCOD9395239
Probable space group: P C C M
;
_chemical_formula_sum "Si O2"
_cell_formula_units_Z 64
_cell_length_a 15.000000
_cell_length_b 24.000000
_cell_length_c 9.000000
_cell_angle_alpha 90.000000
_cell_angle_beta 90.000000
_cell_angle_gamma 90.000000
_cell_volume 3240.000000
_symmetry_space_group_name_H-M "P C C M"
_symmetry_group_IT_number 49
_symmetry_cell_setting 'orthorhombic'
loop_
_space_group_symop_operation_xyz
x,y,z
-x,-y,z
x,-y,1/2-z
-x,y,1/2-z
-x,-y,-z
x,y,-z
-x,y,1/2+z
x,-y,1/2+z
loop_
_atom_site_type_symbol
_atom_site_label
_atom_site_fract_x
_atom_site_fract_y
_atom_site_fract_z
Si Si1 0.281686 0.059072 0.679177
Si Si2 0.399545 0.597103 0.680100
Si Si3 0.321612 0.170368 0.178302
Si Si4 0.902517 0.343452 0.682234
Si Si5 0.220700 0.441587 0.680632
Si Si6 0.913221 0.100031 0.171006
Si Si7 0.408763 0.718986 0.324358
Si Si8 0.147562 0.223382 0.676081
O O1 0.286042 0.057582 0.500000
O O2 0.336421 0.111636 0.741962
O O3 0.180248 0.075216 0.727526
O O4 0.306165 0.000000 0.750000
O O5 0.500000 0.589668 0.750000
O O6 0.403900 0.587673 0.500000
O O7 0.323846 0.562576 0.764637
O O8 0.359534 0.660609 0.701308
O O9 0.384637 0.220147 0.231783
O O10 0.229326 0.198303 0.230508
O O11 0.323476 0.163457 0.000000
O O12 0.901553 0.342868 0.500000
O O13 0.834730 0.389836 0.747998
O O14 0.881588 0.280824 0.745851
O O15 0.000000 0.356865 0.750000
O O16 0.185966 0.500000 0.750000
O O17 0.215549 0.440785 0.500000
O O18 0.913692 0.167844 0.177038
O O19 0.000000 0.077942 0.250000
O O20 0.916942 0.084487 0.000000
O O21 0.500000 0.704854 0.250000
O O22 0.414506 0.724681 0.500000
O O23 0.167907 0.233753 0.500000
#
# Coordination Sequence:
#
# PCOD9395239 Si02
#       8
#     8   8   8   8   8   8   8   8
#     4  10  21  36  51  71  98 135 182 229 274 328
#     4  10  20  38  63  95 130 163 197 238 288 350
#     4  10  19  33  54  81 111 146 183 227 280 336
#     4  12  25  42  63  89 119 156 200 249 301 356
#     4  12  26  45  66  90 119 157 202 250 299 352
#     4   9  19  32  48  72 103 135 172 215 266 323
#     4   9  19  33  54  84 117 147 178 215 266 328
#     4  10  20  35  55  83 114 147 186 230 281 339
#
# _framework density 19.753086
#
# number of rings (size 3 to 8) (size 9 to 14) (size 15 to 20)
#    0.000    1.750    0.000    5.625    0.000    7.250 
#    0.000    3.750    0.000    0.375    0.000    2.625 
#    0.000    0.000    0.000    0.000    0.000    0.000 
#
# Total GULP energy -356390.583205 kJ/mol
# GULP energy per Si atom -5568.602863 kJ/mol
# Density = 1.970813 g / cm^3
# Si number density = 19.753086 Si / 1000 Ang^3
#
#
#
# Elastic Constant Matrix: (Units=GPa)
#
#
# Indices 1 2 3 4 5 6 
#
# 1 35.4886 22.7503 12.6102 0.0000 0.0000 0.0000
# 2 22.7503 112.0142 49.8407 0.0000 0.0000 0.0000
# 3 12.6102 49.8407 93.9471 0.0000 0.0000 0.0000
# 4 0.0000 0.0000 0.0000 32.0602 0.0000 0.0000
# 5 0.0000 0.0000 0.0000 0.0000 22.0035 0.0000
# 6 0.0000 0.0000 0.0000 0.0000 0.0000 4.0428
#
#
#
# Elastic Compliance Matrix: (Units=1/GPa)
#
#
# Indices 1 2 3 4 5 6 
#
# 1 0.032487 -0.006097 -0.001126 0.000000 0.000000 0.000000
# 2 -0.006097 0.012830 -0.005988 0.000000 0.000000 0.000000
# 3 -0.001126 -0.005988 0.013972 0.000000 0.000000 0.000000
# 4 0.000000 0.000000 0.000000 0.031191 0.000000 0.000000
# 5 0.000000 0.000000 0.000000 0.000000 0.045447 0.000000
# 6 0.000000 0.000000 0.000000 0.000000 0.000000 0.247356
#
#
# Mechanical properties :
#
#
# Convention : Reuss Voigt Hill
#
# Bulk Modulus (GPa) = 30.42603 45.76138 38.09370
# Shear Modulus (GPa) = 11.88602 22.03786 16.96194
#
# Velocity S-wave (km/s) = 2.45568 3.34378 2.93353
# Velocity P-wave (km/s) = 4.84532 6.17453 5.54986
#
# Compressibility (1/GPa) = 0.03286660
#
# Stress axis : x y z
#
# Youngs Moduli (GPa) = 30.78178 77.94061 71.57000
#
# Poissons Ratio (x) = 0.47522 0.08058
# Poissons Ratio (y) = 0.18768 0.42858
# Poissons Ratio (z) = 0.03466 0.46673
#
# Static dielectric constant tensor:
#      x y z
#    x 1.793630 0.000000 0.000000 
#    y 0.000000 1.764970 0.000000 
#    z 0.000000 0.000000 1.657680 
# 
# From -- ./inp_files/4420.got.cif
#   From: 2010.05.17/outbox.ucp.g08.bks.cvg/sg49_3_cif.got.tgz:4420.got - 2010.06.11 16:40:14.
