data_PCOD9395544
_publ_section_title
;
Structure prediction by ZEFSAII (Michael W. Deem and Ramdas Pophale) SiO2 
 PCOD9395544
Probable space group: P B A N
;
_chemical_formula_sum "Si O2"
_cell_formula_units_Z 40
_cell_length_a 24.377402
_cell_length_b 10.307446
_cell_length_c 8.437781
_cell_angle_alpha 90.000000
_cell_angle_beta 90.000000
_cell_angle_gamma 90.000000
_cell_volume 2120.150725
_symmetry_space_group_name_H-M "P B A N"
_symmetry_group_IT_number 50
_space_group.IT_coordinate_system_code '2'
_symmetry_cell_setting 'orthorhombic'
loop_
_space_group_symop_operation_xyz
x,y,z
1/2-x,1/2-y,z
x,1/2-y,-z
1/2-x,y,-z
-x,-y,-z
1/2+x,1/2+y,-z
-x,1/2+y,z
1/2+x,-y,z
loop_
_atom_site_type_symbol
_atom_site_label
_atom_site_fract_x
_atom_site_fract_y
_atom_site_fract_z
Si Si1 0.579075 0.220664 0.185821
Si Si2 0.174884 0.618571 0.607606
Si Si3 0.882144 0.019167 0.313728
Si Si4 0.233416 0.594719 0.172875
Si Si5 0.517086 0.877286 0.609805
O O1 0.635677 0.155502 0.245195
O O2 0.579725 0.357142 0.277603
O O3 0.528456 0.140246 0.253703
O O4 0.578331 0.250000 0.000000
O O5 0.184877 0.750000 0.500000
O O6 0.141070 0.528150 0.490935
O O7 0.228752 0.553853 0.679654
O O8 0.923528 0.899922 0.308823
O O9 0.828564 0.048713 0.206075
O O10 0.250000 0.750000 0.172720
O O11 0.250000 0.546484 0.000000
O O12 0.518151 0.750000 0.500000
O O13 0.500000 0.000000 0.500000
#
# Coordination Sequence:
#
# PCOD9395544 Si02
#       5
#     8   8   8   8   8
#     4  11  21  35  60  93 129 163 204 258 319 380
#     4  10  18  31  54  85 122 156 203 255 309 368
#     4  11  22  36  61  89 122 166 209 258 316 376
#     4  11  20  31  54  92 125 153 198 266 320 367
#     4  12  23  44  63  90 127 170 215 258 310 384
#
# _framework density 18.866584
#
# number of rings (size 3 to 8) (size 9 to 14) (size 15 to 20)
#    0.000    1.000    8.000    2.400    0.000    0.800 
#    0.000    0.000    0.000    2.400    0.000    1.400 
#    0.000    0.000    0.000    0.000    0.000    0.000 
#
# Total GULP energy -222884.181874 kJ/mol
# GULP energy per Si atom -5572.104547 kJ/mol
# Density = 1.882364 g / cm^3
# Si number density = 18.866584 Si / 1000 Ang^3
#
#
#
# Elastic Constant Matrix: (Units=GPa)
#
#
# Indices 1 2 3 4 5 6 
#
# 1 155.5327 34.4888 70.2599 0.0000 0.0000 0.0000
# 2 34.4888 42.8669 16.5140 0.0000 0.0000 0.0000
# 3 70.2599 16.5140 118.0831 0.0000 0.0000 0.0000
# 4 0.0000 0.0000 0.0000 12.1243 0.0000 0.0000
# 5 0.0000 0.0000 0.0000 0.0000 22.8844 0.0000
# 6 0.0000 0.0000 0.0000 0.0000 0.0000 21.2969
#
#
#
# Elastic Compliance Matrix: (Units=1/GPa)
#
#
# Indices 1 2 3 4 5 6 
#
# 1 0.010129 -0.006159 -0.005165 0.000000 0.000000 0.000000
# 2 -0.006159 0.028402 -0.000307 0.000000 0.000000 0.000000
# 3 -0.005165 -0.000307 0.011585 0.000000 0.000000 0.000000
# 4 0.000000 0.000000 0.000000 0.082479 0.000000 0.000000
# 5 0.000000 0.000000 0.000000 0.000000 0.043698 0.000000
# 6 0.000000 0.000000 0.000000 0.000000 0.000000 0.046955
#
#
# Mechanical properties :
#
#
# Convention : Reuss Voigt Hill
#
# Bulk Modulus (GPa) = 37.24117 62.11203 49.67660
# Shear Modulus (GPa) = 19.57243 24.27578 21.92411
#
# Velocity S-wave (km/s) = 3.22438 3.59096 3.41260
# Velocity P-wave (km/s) = 5.80037 7.08425 6.47421
#
# Compressibility (1/GPa) = 0.02685200
#
# Stress axis : x y z
#
# Youngs Moduli (GPa) = 98.73029 35.20900 86.31926
#
# Poissons Ratio (x) = 0.21686 0.44586
# Poissons Ratio (y) = 0.60810 0.02652
# Poissons Ratio (z) = 0.50996 0.01082
#
# Static dielectric constant tensor:
#      x y z
#    x 1.726180 0.000000 0.000000 
#    y 0.000000 1.665950 0.000000 
#    z 0.000000 0.000000 1.698910 
# 
# From -- ./inp_files/15781.got.cif
#   From: 2010.05.17/outbox.cif.g08.bks.cpg/sg50_8_cif.got.tgz:15781.got - 2010.06.03 11:33:33.
