data_PCOD9395687
_publ_section_title
;
Structure prediction by ZEFSAII (Michael W. Deem and Ramdas Pophale) SiO2 
 PCOD9395687
Probable space group: P B A N
;
_chemical_formula_sum "Si O2"
_cell_formula_units_Z 64
_cell_length_a 21.725355
_cell_length_b 7.894211
_cell_length_c 17.153729
_cell_angle_alpha 90.000000
_cell_angle_beta 90.000000
_cell_angle_gamma 90.000000
_cell_volume 2941.942340
_symmetry_space_group_name_H-M "P B A N"
_symmetry_group_IT_number 50
_space_group.IT_coordinate_system_code '2'
_symmetry_cell_setting 'orthorhombic'
loop_
_space_group_symop_operation_xyz
x,y,z
1/2-x,1/2-y,z
x,1/2-y,-z
1/2-x,y,-z
-x,-y,-z
1/2+x,1/2+y,-z
-x,1/2+y,z
1/2+x,-y,z
loop_
_atom_site_type_symbol
_atom_site_label
_atom_site_fract_x
_atom_site_fract_y
_atom_site_fract_z
Si Si1 0.422915 0.058299 0.085242
Si Si2 0.111927 0.893365 0.243884
Si Si3 0.062582 0.040502 0.088482
Si Si4 0.954826 0.337763 0.388753
Si Si5 0.854625 0.997487 0.239351
Si Si6 0.233445 0.952576 0.330150
Si Si7 0.336464 0.948529 0.519547
Si Si8 0.914648 0.945167 0.389377
O O1 0.429118 0.259710 0.084013
O O2 0.490778 0.991722 0.107362
O O3 0.370097 0.032322 0.149313
O O4 0.416408 0.982234 0.998016
O O5 0.053272 0.908933 0.300994
O O6 0.129750 0.696278 0.246267
O O7 0.170507 0.981012 0.282998
O O8 0.099847 0.956097 0.157753
O O9 0.903325 0.437796 0.437543
O O10 0.933971 0.143214 0.390974
O O11 0.024523 0.349898 0.416144
O O12 0.787863 0.970774 0.277894
O O13 0.898844 0.899953 0.300145
O O14 0.250000 0.750000 0.335288
O O15 0.215050 0.004960 0.418439
O O16 0.323057 0.750000 0.500000
O O17 0.353946 0.057736 0.443512
#
# Coordination Sequence:
#
# PCOD9395687 Si02
#       8
#     8   8   8   8   8   8   8   8
#     4  10  21  35  55  83 111 139 174 217 265 323
#     4   9  18  33  53  75 104 143 180 222 272 317
#     4  10  20  36  57  81 109 141 175 214 267 326
#     4   9  18  30  46  73 105 135 173 218 270 324
#     4  10  20  33  51  79 108 138 183 227 267 317
#     4   9  18  33  52  75 104 138 182 230 265 308
#     4   9  17  30  49  73 101 135 176 223 266 307
#     4  10  19  30  48  75 106 139 174 219 273 326
#
# _framework density 21.754332999999999
#
# number of rings (size 3 to 8) (size 9 to 14) (size 15 to 20)
#    0.000    2.500    0.000    4.125    0.000    6.250 
#    0.000    1.250    0.000    3.750    0.000    7.000 
#    0.000   20.000    0.000    0.000    0.000    0.000 
#
# Total GULP energy -357034.387056 kJ/mol
# GULP energy per Si atom -5578.662298 kJ/mol
# Density = 2.170482 g / cm^3
# Si number density = 21.754333 Si / 1000 Ang^3
#
#
#
# Elastic Constant Matrix: (Units=GPa)
#
#
# Indices 1 2 3 4 5 6 
#
# 1 120.0074 13.6918 65.2293 0.0000 0.0000 0.0000
# 2 13.6918 15.4239 14.5892 0.0000 0.0000 0.0000
# 3 65.2293 14.5892 153.4251 0.0000 0.0000 0.0000
# 4 0.0000 0.0000 0.0000 16.0155 0.0000 0.0000
# 5 0.0000 0.0000 0.0000 0.0000 39.4646 0.0000
# 6 0.0000 0.0000 0.0000 0.0000 0.0000 19.1074
#
#
#
# Elastic Compliance Matrix: (Units=1/GPa)
#
#
# Indices 1 2 3 4 5 6 
#
# 1 0.011328 -0.006044 -0.004241 0.000000 0.000000 0.000000
# 2 -0.006044 0.074467 -0.004512 0.000000 0.000000 0.000000
# 3 -0.004241 -0.004512 0.008750 0.000000 0.000000 0.000000
# 4 0.000000 0.000000 0.000000 0.062440 0.000000 0.000000
# 5 0.000000 0.000000 0.000000 0.000000 0.025339 0.000000
# 6 0.000000 0.000000 0.000000 0.000000 0.000000 0.052336
#
#
# Mechanical properties :
#
#
# Convention : Reuss Voigt Hill
#
# Bulk Modulus (GPa) = 15.39614 52.87524 34.13569
# Shear Modulus (GPa) = 17.48845 27.94056 22.71451
#
# Velocity S-wave (km/s) = 2.83840 3.58770 3.23482
# Velocity P-wave (km/s) = 4.22311 6.44364 5.44771
#
# Compressibility (1/GPa) = 0.06495133
#
# Stress axis : x y z
#
# Youngs Moduli (GPa) = 88.27903 13.42878 114.28506
#
# Poissons Ratio (x) = 0.08116 0.48472
# Poissons Ratio (y) = 0.53355 0.51560
# Poissons Ratio (z) = 0.37442 0.06058
#
# Static dielectric constant tensor:
#      x y z
#    x 1.798220 0.000000 0.000000 
#    y 0.000000 1.817350 0.000000 
#    z 0.000000 0.000000 1.829840 
# 
# From -- ./inp_files/29871.got.cif
#   From: 2010.05.17/outbox.cif.g08.bks.cpg/sg50_15_cif.got.tgz:29871.got - 2010.06.03 11:33:33.
