data_PCOD9395631
_publ_section_title
;
Structure prediction by ZEFSAII (Michael W. Deem and Ramdas Pophale) SiO2 
 PCOD9395631
Probable space group: P B A N
;
_chemical_formula_sum "Si O2"
_cell_formula_units_Z 40
_cell_length_a 8.589473
_cell_length_b 13.001296
_cell_length_c 16.700749
_cell_angle_alpha 90.000000
_cell_angle_beta 90.000000
_cell_angle_gamma 90.000000
_cell_volume 1865.044136
_symmetry_space_group_name_H-M "P B A N"
_symmetry_group_IT_number 50
_space_group.IT_coordinate_system_code '2'
_symmetry_cell_setting 'orthorhombic'
loop_
_space_group_symop_operation_xyz
x,y,z
1/2-x,1/2-y,z
x,1/2-y,-z
1/2-x,y,-z
-x,-y,-z
1/2+x,1/2+y,-z
-x,1/2+y,z
1/2+x,-y,z
loop_
_atom_site_type_symbol
_atom_site_label
_atom_site_fract_x
_atom_site_fract_y
_atom_site_fract_z
Si Si1 0.499369 0.701325 0.193651
Si Si2 0.868522 0.536353 0.561021
Si Si3 0.133661 0.581744 0.670254
Si Si4 0.168409 0.091331 0.202401
Si Si5 0.885198 0.063304 0.942626
O O1 0.372757 0.667145 0.260074
O O2 0.662875 0.642941 0.212293
O O3 0.539347 0.820860 0.191997
O O4 0.454241 0.657582 0.107172
O O5 0.750000 0.591163 0.500000
O O6 0.774668 0.444574 0.608228
O O7 0.000000 0.500000 0.500000
O O8 0.972078 0.599057 0.623224
O O9 0.125673 0.475873 0.720504
O O10 0.171995 0.016725 0.125723
O O11 0.750000 0.100225 0.000000
O O12 0.000000 0.000000 0.000000
#
# Coordination Sequence:
#
# PCOD9395631 Si02
#       5
#     8   8   8   8   8
#     4  10  21  37  61  89 114 160 206 247 301 370
#     4   9  18  32  58  89 119 157 196 233 302 362
#     4  10  18  36  60  87 119 158 198 253 292 356
#     4  10  21  37  61  88 115 158 208 244 308 364
#     4  11  22  40  60  85 122 157 197 257 311 364
#
# _framework density 21.447213000000001
#
# number of rings (size 3 to 8) (size 9 to 14) (size 15 to 20)
#    0.000    2.000    4.000    0.000    0.000    0.800 
#    0.000    5.000    0.000   18.000    0.000    0.000 
#    0.000    0.000    0.000    0.000    0.000    0.000 
#
# Total GULP energy -223011.096148 kJ/mol
# GULP energy per Si atom -5575.277404 kJ/mol
# Density = 2.139840 g / cm^3
# Si number density = 21.447213 Si / 1000 Ang^3
#
#
#
# Elastic Constant Matrix: (Units=GPa)
#
#
# Indices 1 2 3 4 5 6 
#
# 1 84.8097 27.4315 48.7057 0.0000 0.0000 0.0000
# 2 27.4315 83.2364 34.1963 0.0000 0.0000 0.0000
# 3 48.7057 34.1963 137.5546 0.0000 0.0000 0.0000
# 4 0.0000 0.0000 0.0000 2.5970 0.0000 0.0000
# 5 0.0000 0.0000 0.0000 0.0000 56.3434 0.0000
# 6 0.0000 0.0000 0.0000 0.0000 0.0000 25.9881
#
#
#
# Elastic Compliance Matrix: (Units=1/GPa)
#
#
# Indices 1 2 3 4 5 6 
#
# 1 0.015523 -0.003183 -0.004705 0.000000 0.000000 0.000000
# 2 -0.003183 0.014033 -0.002362 0.000000 0.000000 0.000000
# 3 -0.004705 -0.002362 0.009523 0.000000 0.000000 0.000000
# 4 0.000000 0.000000 0.000000 0.385065 0.000000 0.000000
# 5 0.000000 0.000000 0.000000 0.000000 0.017748 0.000000
# 6 0.000000 0.000000 0.000000 0.000000 0.000000 0.038479
#
#
# Mechanical properties :
#
#
# Convention : Reuss Voigt Hill
#
# Bulk Modulus (GPa) = 53.82197 58.47420 56.14808
# Shear Modulus (GPa) = 9.86069 30.00350 19.93210
#
# Velocity S-wave (km/s) = 2.14654 3.74431 3.05184
# Velocity P-wave (km/s) = 5.59402 6.78355 6.21730
#
# Compressibility (1/GPa) = 0.01857977
#
# Stress axis : x y z
#
# Youngs Moduli (GPa) = 64.42204 71.25993 105.00934
#
# Poissons Ratio (x) = 0.22680 0.49408
# Poissons Ratio (y) = 0.20503 0.24800
# Poissons Ratio (z) = 0.30311 0.16830
#
# Static dielectric constant tensor:
#      x y z
#    x 1.865370 0.000000 0.000000 
#    y 0.000000 1.755810 0.000000 
#    z 0.000000 0.000000 1.818250 
# 
# From -- ./inp_files/24682.got.cif
#   From: 2010.05.17/outbox.cif.g08.bks.cpg/sg50_13_cif.got.tgz:24682.got - 2010.06.03 11:33:33.
