data_PCOD9395021
_publ_section_title
;
Structure prediction by ZEFSAII (Michael W. Deem and Ramdas Pophale) SiO2 
 PCOD9395021
Probable space group: P C C M
;
_chemical_formula_sum "Si O2"
_cell_formula_units_Z 40
_cell_length_a 9.096259
_cell_length_b 11.792489
_cell_length_c 16.295092
_cell_angle_alpha 90.000000
_cell_angle_beta 90.000000
_cell_angle_gamma 90.000000
_cell_volume 1747.934338
_symmetry_space_group_name_H-M "P C C M"
_symmetry_group_IT_number 49
_symmetry_cell_setting 'orthorhombic'
loop_
_space_group_symop_operation_xyz
x,y,z
-x,-y,z
x,-y,1/2-z
-x,y,1/2-z
-x,-y,-z
x,y,-z
-x,y,1/2+z
x,-y,1/2+z
loop_
_atom_site_type_symbol
_atom_site_label
_atom_site_fract_x
_atom_site_fract_y
_atom_site_fract_z
Si Si1 0.344097 0.252324 0.700425
Si Si2 0.675674 0.025892 0.904883
Si Si3 0.886587 0.162719 0.319245
Si Si4 0.064599 0.614857 0.593867
Si Si5 0.330014 0.511540 0.151148
O O1 0.500000 0.264661 0.750000
O O2 0.324780 0.136925 0.650791
O O3 0.226999 0.242357 0.771694
O O4 0.302982 0.354969 0.640174
O O5 0.500000 0.000000 0.904450
O O6 0.787626 0.932251 0.865446
O O7 0.718650 0.041890 0.000000
O O8 0.964576 0.258314 0.374842
O O9 0.000000 0.120019 0.250000
O O10 0.016254 0.614079 0.500000
O O11 0.235675 0.578989 0.601767
O O12 0.000000 0.500000 0.636732
O O13 0.500000 0.500000 0.131652
O O14 0.310747 0.500000 0.250000
#
# Coordination Sequence:
#
# PCOD9395021 Si02
#       5
#     8   8   8   8   8
#     4  12  22  41  70 102 141 188 249 298 357 448
#     4  11  26  46  71 103 147 195 245 310 377 436
#     4  12  25  44  74 106 137 190 251 302 362 445
#     4  11  25  44  69 105 149 190 233 296 376 444
#     4  11  21  39  66 104 141 181 241 301 351 426
#
# _framework density 22.884155
#
# number of rings (size 3 to 8) (size 9 to 14) (size 15 to 20)
#    0.000    0.600    6.000    2.400    0.000    2.800 
#    0.000    3.000    0.000    0.000    0.000    0.000 
#    0.000    0.000    0.000    0.000    0.000    0.000 
#
# Total GULP energy -223110.895669 kJ/mol
# GULP energy per Si atom -5577.772392 kJ/mol
# Density = 2.283207 g / cm^3
# Si number density = 22.884155 Si / 1000 Ang^3
#
#
#
# Elastic Constant Matrix: (Units=GPa)
#
#
# Indices 1 2 3 4 5 6 
#
# 1 70.9464 7.7391 16.0411 0.0000 0.0000 0.0000
# 2 7.7391 161.9211 43.5570 0.0000 0.0000 0.0000
# 3 16.0411 43.5570 70.7988 0.0000 0.0000 0.0000
# 4 0.0000 0.0000 0.0000 2.3078 0.0000 0.0000
# 5 0.0000 0.0000 0.0000 0.0000 25.7023 0.0000
# 6 0.0000 0.0000 0.0000 0.0000 0.0000 25.3952
#
#
#
# Elastic Compliance Matrix: (Units=1/GPa)
#
#
# Indices 1 2 3 4 5 6 
#
# 1 0.014864 0.000234 -0.003512 0.000000 0.000000 0.000000
# 2 0.000234 0.007404 -0.004608 0.000000 0.000000 0.000000
# 3 -0.003512 -0.004608 0.017755 0.000000 0.000000 0.000000
# 4 0.000000 0.000000 0.000000 0.433319 0.000000 0.000000
# 5 0.000000 0.000000 0.000000 0.000000 0.038907 0.000000
# 6 0.000000 0.000000 0.000000 0.000000 0.000000 0.039378
#
#
# Mechanical properties :
#
#
# Convention : Reuss Voigt Hill
#
# Bulk Modulus (GPa) = 41.23463 48.70454 44.96958
# Shear Modulus (GPa) = 8.68837 26.43633 17.56235
#
# Velocity S-wave (km/s) = 1.95062 3.40255 2.77329
# Velocity P-wave (km/s) = 4.80949 6.06347 5.47252
#
# Compressibility (1/GPa) = 0.02425146
#
# Stress axis : x y z
#
# Youngs Moduli (GPa) = 67.27836 135.05642 56.32086
#
# Poissons Ratio (x) = -0.03164 0.19779
# Poissons Ratio (y) = -0.01576 0.25955
# Poissons Ratio (z) = 0.23627 0.62239
#
# Static dielectric constant tensor:
#      x y z
#    x 2.075950 0.000000 0.000000 
#    y 0.000000 1.977140 0.000000 
#    z 0.000000 0.000000 1.868350 
# 
# From -- ./inp_files/15952.got.cif
#   From: 2010.05.17/outbox.cif.g08.bks.cpg/sg49_8_cif.got.tgz:15952.got - 2010.06.03 21:02:19.
