data_PCOD9395468
_publ_section_title
;
Structure prediction by ZEFSAII (Michael W. Deem and Ramdas Pophale) SiO2 
 PCOD9395468
Probable space group: P B A N
;
_chemical_formula_sum "Si O2"
_cell_formula_units_Z 56
_cell_length_a 13.344538
_cell_length_b 14.484505
_cell_length_c 15.391082
_cell_angle_alpha 90.000000
_cell_angle_beta 90.000000
_cell_angle_gamma 90.000000
_cell_volume 2974.927270
_symmetry_space_group_name_H-M "P B A N"
_symmetry_group_IT_number 50
_space_group.IT_coordinate_system_code '2'
_symmetry_cell_setting 'orthorhombic'
loop_
_space_group_symop_operation_xyz
x,y,z
1/2-x,1/2-y,z
x,1/2-y,-z
1/2-x,y,-z
-x,-y,-z
1/2+x,1/2+y,-z
-x,1/2+y,z
1/2+x,-y,z
loop_
_atom_site_type_symbol
_atom_site_label
_atom_site_fract_x
_atom_site_fract_y
_atom_site_fract_z
Si Si1 0.176760 0.912327 0.162801
Si Si2 0.250431 0.857101 0.649808
Si Si3 0.528616 0.350841 0.397247
Si Si4 0.490347 0.013539 0.735600
Si Si5 0.512271 0.351635 0.965429
Si Si6 0.621121 0.486295 0.100744
Si Si7 0.536258 0.369965 0.592164
O O1 0.226230 0.864840 0.247366
O O2 0.100402 0.848076 0.108103
O O3 0.103253 0.988035 0.204129
O O4 0.261921 0.960097 0.104444
O O5 0.250000 0.750000 0.625173
O O6 0.140882 0.888830 0.622150
O O7 0.346021 0.897563 0.599671
O O8 0.465506 0.397867 0.322053
O O9 0.499410 0.381493 0.493985
O O10 0.528476 0.240004 0.390493
O O11 0.581434 0.025534 0.801280
O O12 0.511922 0.930445 0.667945
O O13 0.418356 0.412849 0.930594
O O14 0.487101 0.250000 0.000000
O O15 0.562924 0.412680 0.041165
#
# Coordination Sequence:
#
# PCOD9395468 Si02
#       7
#     8   8   8   8   8   8   8
#     4  10  20  34  54  83 113 142 189 232 279 347
#     4   9  17  28  49  80 110 140 176 228 287 332
#     4  10  17  32  52  74 114 145 180 234 284 323
#     4  10  20  33  54  79 108 148 187 223 281 340
#     4  10  23  38  61  87 112 147 192 236 291 351
#     4  10  21  38  56  82 118 145 181 242 289 340
#     4   9  19  30  49  81 107 144 190 230 274 341
#
# _framework density 18.823989000000001
#
# number of rings (size 3 to 8) (size 9 to 14) (size 15 to 20)
#    0.000    2.286    1.429    1.286    2.000    4.571 
#    0.000    0.000    0.000   23.143    0.000    2.000 
#    0.000    0.000    0.000    0.000    0.000    0.000 
#
# Total GULP energy -311986.032128 kJ/mol
# GULP energy per Si atom -5571.179145 kJ/mol
# Density = 1.878115 g / cm^3
# Si number density = 18.823989 Si / 1000 Ang^3
#
#
#
# Elastic Constant Matrix: (Units=GPa)
#
#
# Indices 1 2 3 4 5 6 
#
# 1 19.1024 1.2711 -10.0223 0.0000 0.0000 0.0000
# 2 1.2711 59.5761 13.7017 0.0000 0.0000 0.0000
# 3 -10.0223 13.7017 79.0587 0.0000 0.0000 0.0000
# 4 0.0000 0.0000 0.0000 32.4238 0.0000 0.0000
# 5 0.0000 0.0000 0.0000 0.0000 12.8564 0.0000
# 6 0.0000 0.0000 0.0000 0.0000 0.0000 14.3342
#
#
#
# Elastic Compliance Matrix: (Units=1/GPa)
#
#
# Indices 1 2 3 4 5 6 
#
# 1 0.056581 -0.002975 0.007689 0.000000 0.000000 0.000000
# 2 -0.002975 0.017639 -0.003434 0.000000 0.000000 0.000000
# 3 0.007689 -0.003434 0.014219 0.000000 0.000000 0.000000
# 4 0.000000 0.000000 0.000000 0.030842 0.000000 0.000000
# 5 0.000000 0.000000 0.000000 0.000000 0.077782 0.000000
# 6 0.000000 0.000000 0.000000 0.000000 0.000000 0.069763
#
#
# Mechanical properties :
#
#
# Convention : Reuss Voigt Hill
#
# Bulk Modulus (GPa) = 10.98946 18.62646 14.80796
# Shear Modulus (GPa) = 16.97218 22.10866 19.54042
#
# Velocity S-wave (km/s) = 3.00596 3.43081 3.22539
# Velocity P-wave (km/s) = 4.23066 5.06068 4.66417
#
# Compressibility (1/GPa) = 0.09099630
#
# Stress axis : x y z
#
# Youngs Moduli (GPa) = 17.67371 56.69403 70.32999
#
# Poissons Ratio (x) = 0.16869 -0.54073
# Poissons Ratio (y) = 0.05259 0.24152
# Poissons Ratio (z) = -0.13588 0.19470
#
# Static dielectric constant tensor:
#      x y z
#    x 1.696380 0.000000 0.000000 
#    y 0.000000 1.660540 0.000000 
#    z 0.000000 0.000000 1.695410 
# 
# From -- ./inp_files/25947.got.cif
#   From: 2010.05.17/outbox.cif.g08.bks.cpg/sg50_13_cif.got.tgz:25947.got - 2010.06.03 11:33:33.
