data_PCOD9395091
_publ_section_title
;
Structure prediction by ZEFSAII (Michael W. Deem and Ramdas Pophale) SiO2 
 PCOD9395091
Probable space group: P C C M
;
_chemical_formula_sum "Si O2"
_cell_formula_units_Z 30
_cell_length_a 7.631342
_cell_length_b 9.053106
_cell_length_c 22.030953
_cell_angle_alpha 90.000000
_cell_angle_beta 90.000000
_cell_angle_gamma 90.000000
_cell_volume 1522.060118
_symmetry_space_group_name_H-M "P C C M"
_symmetry_group_IT_number 49
_symmetry_cell_setting 'orthorhombic'
loop_
_space_group_symop_operation_xyz
x,y,z
-x,-y,z
x,-y,1/2-z
-x,y,1/2-z
-x,-y,-z
x,y,-z
-x,y,1/2+z
x,-y,1/2+z
loop_
_atom_site_type_symbol
_atom_site_label
_atom_site_fract_x
_atom_site_fract_y
_atom_site_fract_z
Si Si1 0.779687 0.246840 0.281264
Si Si2 0.000000 0.000000 0.848050
Si Si3 0.329653 0.106835 0.428477
Si Si4 0.000000 0.500000 0.750000
Si Si5 0.432253 0.670400 0.162398
O O1 0.906180 0.119517 0.304549
O O2 0.883626 0.397521 0.292531
O O3 0.713003 0.277211 0.212070
O O4 0.602631 0.236796 0.318516
O O5 0.841434 0.055979 0.890854
O O6 0.293665 0.107537 0.500000
O O7 0.374750 0.269965 0.402563
O O8 0.500000 0.000000 0.418800
O O9 0.500000 0.500000 0.167403
#
# Coordination Sequence:
#
# PCOD9395091 Si02
#       5
#     8   4   8   2   8
#     4  11  23  39  65  99 135 173 211 272 349 404
#     4  12  25  45  68 104 133 177 224 284 334 419
#     4  11  25  46  69  95 134 184 234 283 329 388
#     4  12  20  36  56  96 138 168 208 260 338 412
#     4  11  22  45  67  96 136 176 222 276 336 411
#
# _framework density 19.710128999999998
#
# number of rings (size 3 to 8) (size 9 to 14) (size 15 to 20)
#    0.000    0.800    5.333    2.800    0.000    5.333 
#    0.000    0.000    0.000    1.600    0.000    0.000 
#    0.000    0.000    0.000    0.000    0.000    0.000 
#
# Total GULP energy -167191.164046 kJ/mol
# GULP energy per Si atom -5573.038802 kJ/mol
# Density = 1.966527 g / cm^3
# Si number density = 19.710129 Si / 1000 Ang^3
#
#
#
# Elastic Constant Matrix: (Units=GPa)
#
#
# Indices 1 2 3 4 5 6 
#
# 1 152.1403 66.0208 64.9149 0.0000 0.0000 0.0000
# 2 66.0208 122.4109 83.1907 0.0000 0.0000 0.0000
# 3 64.9149 83.1907 134.9751 0.0000 0.0000 0.0000
# 4 0.0000 0.0000 0.0000 22.1026 0.0000 0.0000
# 5 0.0000 0.0000 0.0000 0.0000 6.4677 0.0000
# 6 0.0000 0.0000 0.0000 0.0000 0.0000 36.6886
#
#
#
# Elastic Compliance Matrix: (Units=1/GPa)
#
#
# Indices 1 2 3 4 5 6 
#
# 1 0.008976 -0.003282 -0.002294 0.000000 0.000000 0.000000
# 2 -0.003282 0.015257 -0.007825 0.000000 0.000000 0.000000
# 3 -0.002294 -0.007825 0.013335 0.000000 0.000000 0.000000
# 4 0.000000 0.000000 0.000000 0.045244 0.000000 0.000000
# 5 0.000000 0.000000 0.000000 0.000000 0.154615 0.000000
# 6 0.000000 0.000000 0.000000 0.000000 0.000000 0.027256
#
#
# Mechanical properties :
#
#
# Convention : Reuss Voigt Hill
#
# Bulk Modulus (GPa) = 92.88736 93.08655 92.98696
# Shear Modulus (GPa) = 16.94485 26.07844 21.51165
#
# Velocity S-wave (km/s) = 2.93525 3.64139 3.30722
# Velocity P-wave (km/s) = 7.66268 8.06287 7.86532
#
# Compressibility (1/GPa) = 0.01076573
#
# Stress axis : x y z
#
# Youngs Moduli (GPa) = 111.40927 65.54184 74.98984
#
# Poissons Ratio (x) = 0.21511 0.17203
# Poissons Ratio (y) = 0.36565 0.58682
# Poissons Ratio (z) = 0.25558 0.51289
#
# Static dielectric constant tensor:
#      x y z
#    x 1.760690 0.000000 0.000000 
#    y 0.000000 1.776470 0.000000 
#    z 0.000000 0.000000 1.675610 
# 
# From -- ./inp_files/19353.got.cif
#   From: 2010.05.17/outbox.cif.g08.bks.cpg/sg49_10_cif.got.tgz:19353.got - 2010.06.03 21:02:19.
