data_PCOD9395679
_publ_section_title
;
Structure prediction by ZEFSAII (Michael W. Deem and Ramdas Pophale) SiO2 
 PCOD9395679
Probable space group: P B A N
;
_chemical_formula_sum "Si O2"
_cell_formula_units_Z 48
_cell_length_a 7.016308
_cell_length_b 21.563334
_cell_length_c 11.924518
_cell_angle_alpha 90.000000
_cell_angle_beta 90.000000
_cell_angle_gamma 90.000000
_cell_volume 1804.119866
_symmetry_space_group_name_H-M "P B A N"
_symmetry_group_IT_number 50
_space_group.IT_coordinate_system_code '2'
_symmetry_cell_setting 'orthorhombic'
loop_
_space_group_symop_operation_xyz
x,y,z
1/2-x,1/2-y,z
x,1/2-y,-z
1/2-x,y,-z
-x,-y,-z
1/2+x,1/2+y,-z
-x,1/2+y,z
1/2+x,-y,z
loop_
_atom_site_type_symbol
_atom_site_label
_atom_site_fract_x
_atom_site_fract_y
_atom_site_fract_z
Si Si1 0.491487 0.362513 0.880677
Si Si2 0.450175 0.883525 0.130805
Si Si3 0.478162 0.740183 0.739345
Si Si4 0.064281 0.414927 0.339483
Si Si5 0.877949 0.448615 0.662026
Si Si6 0.522006 0.331363 0.476039
O O1 0.721390 0.372209 0.878169
O O2 0.457175 0.294893 0.823707
O O3 0.387082 0.405914 0.790738
O O4 0.455106 0.379127 0.009506
O O5 0.519848 0.823684 0.198025
O O6 0.462283 0.943020 0.212222
O O7 0.250000 0.750000 0.732056
O O8 0.533832 0.723184 0.610397
O O9 0.835727 0.423199 0.339721
O O10 0.088827 0.352181 0.411128
O O11 0.134604 0.481402 0.379689
O O12 0.989809 0.398131 0.588965
O O13 0.750000 0.322367 0.500000
#
# Coordination Sequence:
#
# PCOD9395679 Si02
#       6
#     8   8   8   8   8   8
#     4   9  16  25  41  65  93 118 146 187 234 277
#     4   8  15  27  41  62  90 122 152 181 226 283
#     4   9  15  24  41  64  92 121 144 180 236 287
#     4  10  19  30  45  66  93 123 154 190 230 271
#     4   9  18  31  46  64  90 124 157 191 226 267
#     4   9  17  28  42  63  91 120 151 185 227 279
#
# _framework density 26.60577
#
# number of rings (size 3 to 8) (size 9 to 14) (size 15 to 20)
#    0.000    3.000    0.000    4.000    0.000    5.000 
#    0.000    0.000    0.000    0.000    0.000    4.667 
#    0.000   42.667    0.000    0.667    0.000    0.000 
#
# Total GULP energy -268096.396887 kJ/mol
# GULP energy per Si atom -5585.341602 kJ/mol
# Density = 2.654521 g / cm^3
# Si number density = 26.605770 Si / 1000 Ang^3
#
#
#
# Elastic Constant Matrix: (Units=GPa)
#
#
# Indices 1 2 3 4 5 6 
#
# 1 109.8529 12.4038 11.0006 0.0000 0.0000 0.0000
# 2 12.4038 159.9602 49.1899 0.0000 0.0000 0.0000
# 3 11.0006 49.1899 198.5601 0.0000 0.0000 0.0000
# 4 0.0000 0.0000 0.0000 29.1859 0.0000 0.0000
# 5 0.0000 0.0000 0.0000 0.0000 -3.1346 0.0000
# 6 0.0000 0.0000 0.0000 0.0000 0.0000 20.4245
#
#
#
# Elastic Compliance Matrix: (Units=1/GPa)
#
#
# Indices 1 2 3 4 5 6 
#
# 1 0.009207 -0.000603 -0.000361 0.000000 0.000000 0.000000
# 2 -0.000603 0.006807 -0.001653 0.000000 0.000000 0.000000
# 3 -0.000361 -0.001653 0.005466 0.000000 0.000000 0.000000
# 4 0.000000 0.000000 0.000000 0.034263 0.000000 0.000000
# 5 0.000000 0.000000 0.000000 0.000000 -0.319021 0.000000
# 6 0.000000 0.000000 0.000000 0.000000 0.000000 0.048961
#
#
# Mechanical properties :
#
#
# Convention : Reuss Voigt Hill
#
# Bulk Modulus (GPa) = 61.55186 68.17354 64.86270
# Shear Modulus (GPa) = -24.54971 35.68041 5.56535
#
# Velocity S-wave (km/s) = -3.04093 3.66605 1.44787
# Velocity P-wave (km/s) = 3.29474 6.60296 5.21797
#
# Compressibility (1/GPa) = 0.01624646
#
# Stress axis : x y z
#
# Youngs Moduli (GPa) = 108.60954 146.91674 182.95928
#
# Poissons Ratio (x) = 0.08860 0.06599
# Poissons Ratio (y) = 0.06550 0.30240
# Poissons Ratio (z) = 0.03918 0.24282
#
# Static dielectric constant tensor:
#      x y z
#    x 2.191100 0.000000 0.000000 
#    y 0.000000 2.032810 0.000000 
#    z 0.000000 0.000000 2.171680 
# 
# From -- ./inp_files/20307.got.cif
#   From: 2010.05.17/outbox.cif.g08.bks.cpg/sg50_11_cif.got.tgz:20307.got - 2010.06.03 11:33:33.
