data_PCOD9395680
_publ_section_title
;
Structure prediction by ZEFSAII (Michael W. Deem and Ramdas Pophale) SiO2 
 PCOD9395680
Probable space group: P B A N
;
_chemical_formula_sum "Si O2"
_cell_formula_units_Z 64
_cell_length_a 24.803591
_cell_length_b 9.333776
_cell_length_c 16.876770
_cell_angle_alpha 90.000000
_cell_angle_beta 90.000000
_cell_angle_gamma 90.000000
_cell_volume 3907.160640
_symmetry_space_group_name_H-M "P B A N"
_symmetry_group_IT_number 50
_space_group.IT_coordinate_system_code '2'
_symmetry_cell_setting 'orthorhombic'
loop_
_space_group_symop_operation_xyz
x,y,z
1/2-x,1/2-y,z
x,1/2-y,-z
1/2-x,y,-z
-x,-y,-z
1/2+x,1/2+y,-z
-x,1/2+y,z
1/2+x,-y,z
loop_
_atom_site_type_symbol
_atom_site_label
_atom_site_fract_x
_atom_site_fract_y
_atom_site_fract_z
Si Si1 0.037966 0.779493 0.244135
Si Si2 0.456679 0.841885 0.575084
Si Si3 0.314135 0.752758 0.094658
Si Si4 0.891157 0.009786 0.855432
Si Si5 0.592334 0.749815 0.745252
Si Si6 0.070561 0.178702 0.426944
Si Si7 0.054714 0.415914 0.013011
Si Si8 0.392804 0.975037 0.172389
O O1 0.059581 0.807074 0.333927
O O2 0.059655 0.905481 0.187366
O O3 0.065098 0.636655 0.210160
O O4 0.973063 0.765978 0.243182
O O5 0.433446 0.750000 0.500000
O O6 0.518575 0.785569 0.577807
O O7 0.448168 0.012702 0.562516
O O8 0.250000 0.750000 0.102339
O O9 0.341108 0.616771 0.137909
O O10 0.342493 0.888343 0.136582
O O11 0.327231 0.750000 0.000000
O O12 0.884484 0.866354 0.805551
O O13 0.905753 0.969155 0.944590
O O14 0.599740 0.693807 0.656483
O O15 0.618304 0.903067 0.763232
O O16 0.102082 0.250000 0.500000
O O17 0.078902 0.447160 0.098493
O O18 0.044059 0.250000 0.000000
O O19 0.000000 0.500000 0.000000
#
# Coordination Sequence:
#
# PCOD9395680 Si02
#       8
#     8   8   8   8   8   8   8   8
#     4  10  21  32  48  74 110 151 180 209 260 307
#     4  10  19  30  45  67 102 148 195 221 247 296
#     4  10  22  42  61  75  98 133 179 230 283 322
#     4  11  21  36  50  75 105 138 178 220 259 317
#     4  11  20  33  50  75 113 143 176 219 258 307
#     4  10  20  30  46  69 104 150 189 218 254 299
#     4  12  24  33  48  75 113 148 178 210 246 304
#     4  11  23  34  52  77 103 142 181 217 266 312
#
# _framework density 16.380182000000001
#
# number of rings (size 3 to 8) (size 9 to 14) (size 15 to 20)
#    0.000    1.375    3.750    3.750   10.500    0.000 
#    0.000    0.625    0.000    2.250    0.000    0.000 
#    0.000   19.000    0.000    0.000    0.000    0.000 
#
# Total GULP energy -356813.413120 kJ/mol
# GULP energy per Si atom -5575.209580 kJ/mol
# Density = 1.634290 g / cm^3
# Si number density = 16.380182 Si / 1000 Ang^3
#
#
#
# Elastic Constant Matrix: (Units=GPa)
#
#
# Indices 1 2 3 4 5 6 
#
# 1 49.5659 27.7601 14.5193 0.0000 0.0000 0.0000
# 2 27.7601 130.3353 37.9792 0.0000 0.0000 0.0000
# 3 14.5193 37.9792 100.4604 0.0000 0.0000 0.0000
# 4 0.0000 0.0000 0.0000 31.1956 0.0000 0.0000
# 5 0.0000 0.0000 0.0000 0.0000 8.1508 0.0000
# 6 0.0000 0.0000 0.0000 0.0000 0.0000 6.8331
#
#
#
# Elastic Compliance Matrix: (Units=1/GPa)
#
#
# Indices 1 2 3 4 5 6 
#
# 1 0.023153 -0.004446 -0.001665 0.000000 0.000000 0.000000
# 2 -0.004446 0.009476 -0.002940 0.000000 0.000000 0.000000
# 3 -0.001665 -0.002940 0.011306 0.000000 0.000000 0.000000
# 4 0.000000 0.000000 0.000000 0.032056 0.000000 0.000000
# 5 0.000000 0.000000 0.000000 0.000000 0.122687 0.000000
# 6 0.000000 0.000000 0.000000 0.000000 0.000000 0.146347
#
#
# Mechanical properties :
#
#
# Convention : Reuss Voigt Hill
#
# Bulk Modulus (GPa) = 38.71050 48.98654 43.84852
# Shear Modulus (GPa) = 13.45031 22.57610 18.01320
#
# Velocity S-wave (km/s) = 2.86865 3.71652 3.31976
# Velocity P-wave (km/s) = 5.88694 6.95612 6.44374
#
# Compressibility (1/GPa) = 0.02583278
#
# Stress axis : x y z
#
# Youngs Moduli (GPa) = 43.19072 105.52788 88.44623
#
# Poissons Ratio (x) = 0.46919 0.14730
# Poissons Ratio (y) = 0.19203 0.26002
# Poissons Ratio (z) = 0.07193 0.31024
#
# Static dielectric constant tensor:
#      x y z
#    x 1.543600 0.000000 0.000000 
#    y 0.000000 1.565810 0.000000 
#    z 0.000000 0.000000 1.617430 
# 
# From -- ./inp_files/29974.got.cif
#   From: 2010.05.17/outbox.cif.g08.bks.cpg/sg50_15_cif.got.tgz:29974.got - 2010.06.03 11:33:33.
