data_PCOD9395530
_publ_section_title
;
Structure prediction by ZEFSAII (Michael W. Deem and Ramdas Pophale) SiO2 
 PCOD9395530
Probable space group: P B A N
;
_chemical_formula_sum "Si O2"
_cell_formula_units_Z 48
_cell_length_a 18.431144
_cell_length_b 8.727233
_cell_length_c 15.990571
_cell_angle_alpha 90.000000
_cell_angle_beta 90.000000
_cell_angle_gamma 90.000000
_cell_volume 2572.129528
_symmetry_space_group_name_H-M "P B A N"
_symmetry_group_IT_number 50
_space_group.IT_coordinate_system_code '2'
_symmetry_cell_setting 'orthorhombic'
loop_
_space_group_symop_operation_xyz
x,y,z
1/2-x,1/2-y,z
x,1/2-y,-z
1/2-x,y,-z
-x,-y,-z
1/2+x,1/2+y,-z
-x,1/2+y,z
1/2+x,-y,z
loop_
_atom_site_type_symbol
_atom_site_label
_atom_site_fract_x
_atom_site_fract_y
_atom_site_fract_z
Si Si1 0.334431 0.934448 0.157819
Si Si2 0.417890 0.433165 0.500000
Si Si3 0.418695 0.933857 0.672458
Si Si4 0.418695 0.566143 0.672458
Si Si5 0.834431 0.065552 0.842181
Si Si6 0.919385 0.567912 1.000000
O O1 0.371549 0.972253 0.246295
O O2 0.250000 0.978267 0.156930
O O3 0.338695 0.750000 0.147802
O O4 0.377028 0.010816 0.081891
O O5 0.419661 0.250000 0.500000
O O6 0.500000 0.500000 0.500000
O O7 0.386462 0.496174 0.413105
O O8 0.386462 0.496174 0.586895
O O9 0.423208 0.750000 0.663988
O O10 0.371549 0.972253 0.753705
O O11 0.500000 0.000000 0.683545
O O12 0.877028 0.989184 0.918109
O O13 0.923586 0.750000 0.000000
O O14 0.000000 0.500000 0.000000
#
# Coordination Sequence:
#
# PCOD9395530 Si02
#       6
#     8   8   8   8   8   8
#     4  10  22  40  60  83 114 150 185 226 278 333
#     4  10  18  30  51  78 109 143 181 229 279 324
#     4  10  19  33  55  81 109 143 185 230 275 326
#     4  10  19  33  55  81 109 143 185 230 275 326
#     4  10  22  40  60  83 114 150 185 226 278 333
#     4  12  25  40  61  87 113 145 185 230 277 328
#
# _framework density 18.661581000000002
#
# number of rings (size 3 to 8) (size 9 to 14) (size 15 to 20)
#    0.000    1.667    0.000    7.500    0.000    8.000 
#    0.000    0.833    0.000    5.000    0.000    0.000 
#    0.000    0.000    0.000    0.000    0.000    0.000 
#
# Total GULP energy -268183.179465 kJ/mol
# GULP energy per Si atom -5587.149572 kJ/mol
# Density = 1.861911 g / cm^3
# Si number density = 18.661581 Si / 1000 Ang^3
#
#
#
# Elastic Constant Matrix: (Units=GPa)
#
#
# Indices 1 2 3 4 5 6 
#
# 1 129.1508 57.5056 105.1682 0.0000 0.0000 0.0000
# 2 57.5056 90.3248 96.9181 0.0000 0.0000 0.0000
# 3 105.1682 96.9181 228.5063 0.0000 0.0000 0.0000
# 4 0.0000 0.0000 0.0000 28.6489 0.0000 0.0000
# 5 0.0000 0.0000 0.0000 0.0000 -20.9005 0.0000
# 6 0.0000 0.0000 0.0000 0.0000 0.0000 22.0517
#
#
#
# Elastic Compliance Matrix: (Units=1/GPa)
#
#
# Indices 1 2 3 4 5 6 
#
# 1 0.012925 -0.003388 -0.004512 0.000000 0.000000 0.000000
# 2 -0.003388 0.021206 -0.007435 0.000000 0.000000 0.000000
# 3 -0.004512 -0.007435 0.009606 0.000000 0.000000 0.000000
# 4 0.000000 0.000000 0.000000 0.034905 0.000000 0.000000
# 5 0.000000 0.000000 0.000000 0.000000 -0.047846 0.000000
# 6 0.000000 0.000000 0.000000 0.000000 0.000000 0.045348
#
#
# Mechanical properties :
#
#
# Convention : Reuss Voigt Hill
#
# Bulk Modulus (GPa) = 76.52217 107.46283 91.99250
# Shear Modulus (GPa) = 44.97612 18.51935 31.74774
#
# Velocity S-wave (km/s) = 4.91459 3.15362 4.12908
# Velocity P-wave (km/s) = 8.56146 8.42440 8.49320
#
# Compressibility (1/GPa) = 0.01306811
#
# Stress axis : x y z
#
# Youngs Moduli (GPa) = 77.36700 47.15734 104.09852
#
# Poissons Ratio (x) = 0.15975 0.46969
# Poissons Ratio (y) = 0.26209 0.77397
# Poissons Ratio (z) = 0.34908 0.35061
#
# Static dielectric constant tensor:
#      x y z
#    x 1.617250 0.000000 0.000000 
#    y 0.000000 1.628250 0.000000 
#    z 0.000000 0.000000 1.659150 
# 
# From -- ./inp_files/26842.got.cif
#   From: 2010.05.17/outbox.cif.g08.bks.cpg/sg50_14_cif.got.tgz:26842.got - 2010.06.03 11:33:33.
