data_PCOD9395686
_publ_section_title
;
Structure prediction by ZEFSAII (Michael W. Deem and Ramdas Pophale) SiO2 
 PCOD9395686
Probable space group: P B A N
;
_chemical_formula_sum "Si O2"
_cell_formula_units_Z 40
_cell_length_a 5.188929
_cell_length_b 19.210031
_cell_length_c 21.127467
_cell_angle_alpha 90.000000
_cell_angle_beta 90.000000
_cell_angle_gamma 90.000000
_cell_volume 2105.975071
_symmetry_space_group_name_H-M "P B A N"
_symmetry_group_IT_number 50
_space_group.IT_coordinate_system_code '2'
_symmetry_cell_setting 'orthorhombic'
loop_
_space_group_symop_operation_xyz
x,y,z
1/2-x,1/2-y,z
x,1/2-y,-z
1/2-x,y,-z
-x,-y,-z
1/2+x,1/2+y,-z
-x,1/2+y,z
1/2+x,-y,z
loop_
_atom_site_type_symbol
_atom_site_label
_atom_site_fract_x
_atom_site_fract_y
_atom_site_fract_z
Si Si1 0.736682 0.950789 0.291663
Si Si2 0.928907 0.472144 0.929764
Si Si3 0.753078 0.549320 0.432257
Si Si4 0.693368 0.675663 0.196646
Si Si5 0.809555 0.323918 0.889267
O O1 0.746528 0.917556 0.362658
O O2 0.758749 0.889489 0.241366
O O3 0.474887 0.995412 0.285069
O O4 0.709161 0.519666 0.898017
O O5 0.818005 0.394680 0.928818
O O6 0.000000 0.500000 0.000000
O O7 0.750000 0.588850 0.500000
O O8 0.504473 0.499476 0.432771
O O9 0.750000 0.750000 0.230208
O O10 0.410569 0.671237 0.164971
O O11 0.908407 0.677929 0.141623
O O12 0.750000 0.250000 0.922012
#
# Coordination Sequence:
#
# PCOD9395686 Si02
#       5
#     8   8   8   8   8
#     4  10  19  30  48  75 101 130 173 218 258 303
#     4  10  21  37  57  82 107 132 164 208 254 292
#     4   8  14  25  41  63  93 127 164 209 257 302
#     4  10  21  35  51  75 106 139 170 207 256 305
#     4  10  21  37  56  76 104 141 173 200 247 314
#
# _framework density 18.993576999999998
#
# number of rings (size 3 to 8) (size 9 to 14) (size 15 to 20)
#    0.000    2.400    0.000    2.400    0.000    4.800 
#    0.000    2.000    0.000    5.400    0.000    0.000 
#    0.000   20.800    0.000    0.000    0.000    3.200 
#
# Total GULP energy -222703.357488 kJ/mol
# GULP energy per Si atom -5567.583937 kJ/mol
# Density = 1.895035 g / cm^3
# Si number density = 18.993577 Si / 1000 Ang^3
#
#
#
# Elastic Constant Matrix: (Units=GPa)
#
#
# Indices 1 2 3 4 5 6 
#
# 1 127.5958 12.9854 -4.1635 0.0000 0.0000 0.0000
# 2 12.9854 128.4184 44.6062 0.0000 0.0000 0.0000
# 3 -4.1635 44.6062 47.7464 0.0000 0.0000 0.0000
# 4 0.0000 0.0000 0.0000 -2.9842 0.0000 0.0000
# 5 0.0000 0.0000 0.0000 0.0000 12.8528 0.0000
# 6 0.0000 0.0000 0.0000 0.0000 0.0000 23.0149
#
#
#
# Elastic Compliance Matrix: (Units=1/GPa)
#
#
# Indices 1 2 3 4 5 6 
#
# 1 0.008068 -0.001569 0.002170 0.000000 0.000000 0.000000
# 2 -0.001569 0.011833 -0.011192 0.000000 0.000000 0.000000
# 3 0.002170 -0.011192 0.031589 0.000000 0.000000 0.000000
# 4 0.000000 0.000000 0.000000 -0.335101 0.000000 0.000000
# 5 0.000000 0.000000 0.000000 0.000000 0.077804 0.000000
# 6 0.000000 0.000000 0.000000 0.000000 0.000000 0.043450
#
#
# Mechanical properties :
#
#
# Convention : Reuss Voigt Hill
#
# Bulk Modulus (GPa) = 32.99582 45.62410 39.30996
# Shear Modulus (GPa) = -38.14714 23.26553 -7.44081
#
# Velocity S-wave (km/s) = -4.48641 3.50368 -1.98142
# Velocity P-wave (km/s) = 3.07039 6.35929 3.93785
#
# Compressibility (1/GPa) = 0.03030687
#
# Stress axis : x y z
#
# Youngs Moduli (GPa) = 123.94997 84.50767 31.65662
#
# Poissons Ratio (x) = 0.13263 -0.06869
# Poissons Ratio (y) = 0.19454 0.35430
# Poissons Ratio (z) = -0.26894 0.94580
#
# Static dielectric constant tensor:
#      x y z
#    x 1.758830 0.000000 0.000000 
#    y 0.000000 1.693900 0.000000 
#    z 0.000000 0.000000 1.776750 
# 
# From -- ./inp_files/30311.got.cif
#   From: 2010.05.17/outbox.cif.g08.bks.cpg/sg50_16_cif.got.tgz:30311.got - 2010.06.03 11:33:33.
