data_PCOD9395061
_publ_section_title
;
Structure prediction by ZEFSAII (Michael W. Deem and Ramdas Pophale) SiO2 
 PCOD9395061
Probable space group: P C C M
;
_chemical_formula_sum "Si O2"
_cell_formula_units_Z 32
_cell_length_a 9.506723
_cell_length_b 21.451612
_cell_length_c 8.599221
_cell_angle_alpha 90.000000
_cell_angle_beta 90.000000
_cell_angle_gamma 90.000000
_cell_volume 1753.678120
_symmetry_space_group_name_H-M "P C C M"
_symmetry_group_IT_number 49
_symmetry_cell_setting 'orthorhombic'
loop_
_space_group_symop_operation_xyz
x,y,z
-x,-y,z
x,-y,1/2-z
-x,y,1/2-z
-x,-y,-z
x,y,-z
-x,y,1/2+z
x,-y,1/2+z
loop_
_atom_site_type_symbol
_atom_site_label
_atom_site_fract_x
_atom_site_fract_y
_atom_site_fract_z
Si Si1 0.342349 0.819233 0.687385
Si Si2 0.840063 0.563565 0.813991
Si Si3 0.158633 0.299344 0.187438
Si Si4 0.843668 0.068520 0.186189
O O1 0.500000 0.816807 0.750000
O O2 0.342672 0.821789 0.500000
O O3 0.256363 0.757547 0.737616
O O4 0.262582 0.879468 0.753234
O O5 0.772384 0.500000 0.750000
O O6 0.783741 0.631865 0.767805
O O7 0.000000 0.564380 0.750000
O O8 0.843763 0.559507 0.000000
O O9 0.000000 0.292154 0.250000
O O10 0.150667 0.298334 0.000000
O O11 0.000000 0.082866 0.250000
O O12 0.805946 0.000000 0.250000
O O13 0.847219 0.067222 0.000000
#
# Coordination Sequence:
#
# PCOD9395061 Si02
#       4
#     8   8   8   8
#     4  11  23  39  56  79 109 144 182 224 269 319
#     4   9  15  25  42  69 100 131 165 210 261 312
#     4   9  19  33  52  76 105 137 175 218 265 317
#     4  11  22  39  62  88 114 143 177 218 263 314
#
# _framework density 18.247361999999999
#
# number of rings (size 3 to 8) (size 9 to 14) (size 15 to 20)
#    0.000    2.000    0.000    6.000    0.000    5.500 
#    0.000    2.500    0.000    0.750    0.000    5.250 
#    0.000    0.000    0.000    0.000    0.000    0.000 
#
# Total GULP energy -178555.699077 kJ/mol
# GULP energy per Si atom -5579.865596 kJ/mol
# Density = 1.820583 g / cm^3
# Si number density = 18.247362 Si / 1000 Ang^3
#
#
#
# Elastic Constant Matrix: (Units=GPa)
#
#
# Indices 1 2 3 4 5 6 
#
# 1 90.3856 112.9137 35.8659 0.0000 0.0000 0.0000
# 2 112.9137 189.6225 59.2972 0.0000 0.0000 0.0000
# 3 35.8659 59.2972 89.3907 0.0000 0.0000 0.0000
# 4 0.0000 0.0000 0.0000 33.1803 0.0000 0.0000
# 5 0.0000 0.0000 0.0000 0.0000 22.6159 0.0000
# 6 0.0000 0.0000 0.0000 0.0000 0.0000 -6.5848
#
#
#
# Elastic Compliance Matrix: (Units=1/GPa)
#
#
# Indices 1 2 3 4 5 6 
#
# 1 0.043206 -0.025622 -0.000339 0.000000 0.000000 0.000000
# 2 -0.025622 0.021848 -0.004213 0.000000 0.000000 0.000000
# 3 -0.000339 -0.004213 0.014117 0.000000 0.000000 0.000000
# 4 0.000000 0.000000 0.000000 0.030138 0.000000 0.000000
# 5 0.000000 0.000000 0.000000 0.000000 0.044217 0.000000
# 6 0.000000 0.000000 0.000000 0.000000 0.000000 -0.151864
#
#
# Mechanical properties :
#
#
# Convention : Reuss Voigt Hill
#
# Bulk Modulus (GPa) = 53.12344 87.28361 70.20352
# Shear Modulus (GPa) = 73.22357 20.59708 46.91033
#
# Velocity S-wave (km/s) = 6.34156 3.36336 5.07581
# Velocity P-wave (km/s) = 9.09927 7.93853 8.53865
#
# Compressibility (1/GPa) = 0.01882408
#
# Stress axis : x y z
#
# Youngs Moduli (GPa) = 23.14494 45.77135 70.83444
#
# Poissons Ratio (x) = 1.17273 0.02404
# Poissons Ratio (y) = 0.59301 0.29840
# Poissons Ratio (z) = 0.00785 0.19282
#
# Static dielectric constant tensor:
#      x y z
#    x 1.577870 0.000000 0.000000 
#    y 0.000000 1.675260 0.000000 
#    z 0.000000 0.000000 1.616670 
# 
# From -- ./inp_files/1396.got.cif
#   From: 2010.05.17/outbox.cif.g08.bks.cpg/sg49_1_cif.got.tgz:1396.got - 2010.06.03 21:02:19.
