data_PCOD9395710
_publ_section_title
;
Structure prediction by ZEFSAII (Michael W. Deem and Ramdas Pophale) SiO2 
 PCOD9395710
Probable space group: P B A N
;
_chemical_formula_sum "Si O2"
_cell_formula_units_Z 48
_cell_length_a 17.013188
_cell_length_b 5.252739
_cell_length_c 27.874359
_cell_angle_alpha 90.000000
_cell_angle_beta 90.000000
_cell_angle_gamma 90.000000
_cell_volume 2491.015398
_symmetry_space_group_name_H-M "P B A N"
_symmetry_group_IT_number 50
_space_group.IT_coordinate_system_code '2'
_symmetry_cell_setting 'orthorhombic'
loop_
_space_group_symop_operation_xyz
x,y,z
1/2-x,1/2-y,z
x,1/2-y,-z
1/2-x,y,-z
-x,-y,-z
1/2+x,1/2+y,-z
-x,1/2+y,z
1/2+x,-y,z
loop_
_atom_site_type_symbol
_atom_site_label
_atom_site_fract_x
_atom_site_fract_y
_atom_site_fract_z
Si Si1 0.549584 0.929312 0.308699
Si Si2 0.450302 0.117303 0.581998
Si Si3 0.445120 0.211393 0.791028
Si Si4 0.154996 0.250145 0.113877
Si Si5 0.345700 0.747524 0.054980
Si Si6 0.784003 0.998095 0.553775
O O1 0.522795 0.224168 0.306094
O O2 0.579547 0.895046 0.362673
O O3 0.595176 0.841268 0.261050
O O4 0.516908 0.901306 0.574700
O O5 0.376809 0.032237 0.550669
O O6 0.506555 0.975774 0.793667
O O7 0.615001 0.717247 0.834724
O O8 0.250000 0.250000 0.118343
O O9 0.130872 0.508552 0.086482
O O10 0.131101 0.011114 0.081225
O O11 0.250000 0.750000 0.053374
O O12 0.373400 0.750000 0.000000
O O13 0.750000 0.750000 0.578953
O O14 0.750000 0.000184 0.500000
O O15 0.750000 0.250000 0.577706
#
# Coordination Sequence:
#
# PCOD9395710 Si02
#       6
#     8   8   8   8   8   8
#     4   8  16  30  51  76  99 127 170 215 248 294
#     4  10  19  35  59  82 102 137 190 231 255 302
#     4  10  19  33  52  73 101 135 164 197 255 317
#     4  10  19  31  50  74  98 123 162 212 249 293
#     4   9  17  30  49  71  94 126 167 208 249 292
#     4  10  21  38  54  77 115 148 172 215 278 328
#
# _framework density 19.26925
#
# number of rings (size 3 to 8) (size 9 to 14) (size 15 to 20)
#    0.000    2.500    0.000    2.500    0.000    2.000 
#    0.000   10.833    0.000   13.000    0.000    0.000 
#    0.000    0.000    0.000    0.000    0.000    0.000 
#
# Total GULP energy -267355.487363 kJ/mol
# GULP energy per Si atom -5569.905987 kJ/mol
# Density = 1.922539 g / cm^3
# Si number density = 19.269250 Si / 1000 Ang^3
#
#
#
# Elastic Constant Matrix: (Units=GPa)
#
#
# Indices 1 2 3 4 5 6 
#
# 1 32.7639 14.3020 36.2260 0.0000 0.0000 0.0000
# 2 14.3020 146.8256 16.3981 0.0000 0.0000 0.0000
# 3 36.2260 16.3981 100.3315 0.0000 0.0000 0.0000
# 4 0.0000 0.0000 0.0000 -60.7433 0.0000 0.0000
# 5 0.0000 0.0000 0.0000 0.0000 65.4510 0.0000
# 6 0.0000 0.0000 0.0000 0.0000 0.0000 13.4549
#
#
#
# Elastic Compliance Matrix: (Units=1/GPa)
#
#
# Indices 1 2 3 4 5 6 
#
# 1 0.052092 -0.003029 -0.018314 0.000000 0.000000 0.000000
# 2 -0.003029 0.007114 -0.000069 0.000000 0.000000 0.000000
# 3 -0.018314 -0.000069 0.016591 0.000000 0.000000 0.000000
# 4 0.000000 0.000000 0.000000 -0.016463 0.000000 0.000000
# 5 0.000000 0.000000 0.000000 0.000000 0.015279 0.000000
# 6 0.000000 0.000000 0.000000 0.000000 0.000000 0.074322
#
#
# Mechanical properties :
#
#
# Convention : Reuss Voigt Hill
#
# Bulk Modulus (GPa) = 30.32742 45.97481 38.15111
# Shear Modulus (GPa) = 24.66109 17.83217 21.24663
#
# Velocity S-wave (km/s) = 3.58133 3.04537 3.32417
# Velocity P-wave (km/s) = 5.73360 6.02301 5.88009
#
# Compressibility (1/GPa) = 0.03297347
#
# Stress axis : x y z
#
# Youngs Moduli (GPa) = 19.19673 140.57687 60.27511
#
# Poissons Ratio (x) = 0.42579 1.10385
# Poissons Ratio (y) = 0.05814 0.00416
# Poissons Ratio (z) = 0.35156 0.00970
#
# Static dielectric constant tensor:
#      x y z
#    x 1.677740 0.000000 0.000000 
#    y 0.000000 1.695120 0.000000 
#    z 0.000000 0.000000 1.715260 
# 
# From -- ./inp_files/32240.got.cif
#   From: 2010.05.17/outbox.cif.g08.bks.cpg/sg50_17_cif.got.tgz:32240.got - 2010.06.03 11:33:33.
