data_PCOD9395421
_publ_section_title
;
Structure prediction by ZEFSAII (Michael W. Deem and Ramdas Pophale) SiO2 
 PCOD9395421
Probable space group: P B A N
;
_chemical_formula_sum "Si O2"
_cell_formula_units_Z 44
_cell_length_a 29.345038
_cell_length_b 9.285304
_cell_length_c 8.140441
_cell_angle_alpha 90.000000
_cell_angle_beta 90.000000
_cell_angle_gamma 90.000000
_cell_volume 2218.087816
_symmetry_space_group_name_H-M "P B A N"
_symmetry_group_IT_number 50
_space_group.IT_coordinate_system_code '2'
_symmetry_cell_setting 'orthorhombic'
loop_
_space_group_symop_operation_xyz
x,y,z
1/2-x,1/2-y,z
x,1/2-y,-z
1/2-x,y,-z
-x,-y,-z
1/2+x,1/2+y,-z
-x,1/2+y,z
1/2+x,-y,z
loop_
_atom_site_type_symbol
_atom_site_label
_atom_site_fract_x
_atom_site_fract_y
_atom_site_fract_z
Si Si1 0.638009 0.617508 0.586719
Si Si2 0.604485 0.358163 0.355265
Si Si3 0.750000 0.250000 0.500000
Si Si4 0.512421 0.993285 0.695190
Si Si5 0.250000 0.750000 0.000000
Si Si6 0.319437 0.634736 0.245743
Si Si7 0.943895 0.792168 0.814183
O O1 0.663792 0.750000 0.500000
O O2 0.625592 0.497437 0.448596
O O3 0.659639 0.521169 0.729995
O O4 0.595652 0.692207 0.679119
O O5 0.589459 0.250000 0.500000
O O6 0.559011 0.417050 0.270631
O O7 0.642175 0.262475 0.257077
O O8 0.715457 0.343784 0.604418
O O9 0.522754 0.831423 0.747031
O O10 0.500000 0.000000 0.500000
O O11 0.471706 0.059558 0.801328
O O12 0.285336 0.651540 0.096851
O O13 0.929986 0.750000 0.000000
#
# Coordination Sequence:
#
# PCOD9395421 Si02
#       7
#     8   8   2   8   2   8   8
#     4  11  20  41  65  95 125 170 219 261 318 388
#     4  10  19  36  64  95 114 167 227 263 307 369
#     4  10  16  38  66  94 112 154 210 258 300 382
#     4  12  22  40  63  87 129 179 234 266 305 383
#     4  10  24  46  68 104 132 158 208 276 364 390
#     4  10  22  39  71  94 129 159 210 269 323 401
#     4  12  26  39  56  92 134 175 213 279 327 373
#
# _framework density 19.836907
#
# number of rings (size 3 to 8) (size 9 to 14) (size 15 to 20)
#    0.000    1.091    6.364    2.182    2.545    1.455 
#    1.636    0.455    0.000    1.091    0.000    0.000 
#    0.000    0.000    0.000    0.000    0.000    0.000 
#
# Total GULP energy -245261.244190 kJ/mol
# GULP energy per Si atom -5574.119186 kJ/mol
# Density = 1.979176 g / cm^3
# Si number density = 19.836907 Si / 1000 Ang^3
#
#
#
# Elastic Constant Matrix: (Units=GPa)
#
#
# Indices 1 2 3 4 5 6 
#
# 1 64.3304 14.1209 17.1304 0.0000 0.0000 0.0000
# 2 14.1209 115.5332 20.6769 0.0000 0.0000 0.0000
# 3 17.1304 20.6769 62.7616 0.0000 0.0000 0.0000
# 4 0.0000 0.0000 0.0000 24.6696 0.0000 0.0000
# 5 0.0000 0.0000 0.0000 0.0000 31.6459 0.0000
# 6 0.0000 0.0000 0.0000 0.0000 0.0000 -9.1099
#
#
#
# Elastic Compliance Matrix: (Units=1/GPa)
#
#
# Indices 1 2 3 4 5 6 
#
# 1 0.016951 -0.001322 -0.004191 0.000000 0.000000 0.000000
# 2 -0.001322 0.009301 -0.002703 0.000000 0.000000 0.000000
# 3 -0.004191 -0.002703 0.017968 0.000000 0.000000 0.000000
# 4 0.000000 0.000000 0.000000 0.040536 0.000000 0.000000
# 5 0.000000 0.000000 0.000000 0.000000 0.031600 0.000000
# 6 0.000000 0.000000 0.000000 0.000000 0.000000 -0.109770
#
#
# Mechanical properties :
#
#
# Convention : Reuss Voigt Hill
#
# Bulk Modulus (GPa) = 35.98800 38.49795 37.24298
# Shear Modulus (GPa) = 154.89397 22.15424 88.52410
#
# Velocity S-wave (km/s) = 8.84609 3.34551 6.68751
# Velocity P-wave (km/s) = 11.06883 5.86282 8.85696
#
# Compressibility (1/GPa) = 0.02778704
#
# Stress axis : x y z
#
# Youngs Moduli (GPa) = 58.99377 107.51646 55.65472
#
# Poissons Ratio (x) = 0.14211 0.23326
# Poissons Ratio (y) = 0.07797 0.15046
# Poissons Ratio (z) = 0.24726 0.29066
#
# Static dielectric constant tensor:
#      x y z
#    x 1.696540 0.000000 0.000000 
#    y 0.000000 1.720350 0.000000 
#    z 0.000000 0.000000 1.862070 
# 
# From -- ./inp_files/16882.got.cif
#   From: 2010.05.17/outbox.cif.g08.bks.cpg/sg50_9_cif.got.tgz:16882.got - 2010.06.03 11:33:33.
