data_PCOD9395760
_publ_section_title
;
Structure prediction by ZEFSAII (Michael W. Deem and Ramdas Pophale) SiO2 
 PCOD9395760
Probable space group: P B A N
;
_chemical_formula_sum "Si O2"
_cell_formula_units_Z 54
_cell_length_a 15.883151
_cell_length_b 5.326948
_cell_length_c 33.064006
_cell_angle_alpha 90.000000
_cell_angle_beta 90.000000
_cell_angle_gamma 90.000000
_cell_volume 2797.503208
_symmetry_space_group_name_H-M "P B A N"
_symmetry_group_IT_number 50
_space_group.IT_coordinate_system_code '2'
_symmetry_cell_setting 'orthorhombic'
loop_
_space_group_symop_operation_xyz
x,y,z
1/2-x,1/2-y,z
x,1/2-y,-z
1/2-x,y,-z
-x,-y,-z
1/2+x,1/2+y,-z
-x,1/2+y,z
1/2+x,-y,z
loop_
_atom_site_type_symbol
_atom_site_label
_atom_site_fract_x
_atom_site_fract_y
_atom_site_fract_z
Si Si1 0.558464 0.492819 0.097593
Si Si2 0.448252 0.750000 0.500000
Si Si3 0.666177 0.091820 0.565898
Si Si4 0.443102 0.974442 0.275015
Si Si5 0.692618 0.501604 0.345687
Si Si6 0.653353 0.500041 0.017699
Si Si7 0.553469 0.557307 0.187233
Si Si8 0.250000 0.250000 0.500000
O O1 0.503234 0.236582 0.092837
O O2 0.634132 0.499416 0.065188
O O3 0.593670 0.508349 0.143494
O O4 0.500000 0.500000 0.500000
O O5 0.399011 0.737441 0.457531
O O6 0.750000 0.250000 0.572050
O O7 0.646624 0.990961 0.610248
O O8 0.690326 0.897530 0.530722
O O9 0.508931 0.207097 0.277932
O O10 0.402644 0.002761 0.230039
O O11 0.375000 0.996966 0.310068
O O12 0.750000 0.250000 0.342620
O O13 0.750000 0.750000 0.343376
O O14 0.613327 0.750000 0.000000
O O15 0.750000 0.500085 0.000000
O O16 0.613391 0.250000 0.000000
O O17 0.478923 0.345425 0.187693
#
# Coordination Sequence:
#
# PCOD9395760 Si02
#       8
#     8   4   8   8   8   8   8   2
#     4  10  19  32  54  82 106 135 190 241 267 316
#     4  12  26  38  57  89 122 144 186 258 300 326
#     4  11  23  39  63  82 110 163 202 228 282 356
#     4  10  20  38  63  87 119 157 187 231 301 361
#     4  11  24  39  61  90 121 153 199 248 282 345
#     4  10  21  35  50  69 107 150 179 219 282 338
#     4   8  16  31  54  82 107 140 181 225 279 337
#     4  12  16  40  68  76 104 150 222 222 270 338
#
# _framework density 19.302925999999999
#
# number of rings (size 3 to 8) (size 9 to 14) (size 15 to 20)
#    0.000    1.778    2.222    2.222    0.000    2.963 
#    0.000    0.000    6.519    0.000    0.000    0.000 
#    0.000    0.000    0.000    0.000    0.000    0.000 
#
# Total GULP energy -300700.992861 kJ/mol
# GULP energy per Si atom -5568.536905 kJ/mol
# Density = 1.925899 g / cm^3
# Si number density = 19.302926 Si / 1000 Ang^3
#
#
#
# Elastic Constant Matrix: (Units=GPa)
#
#
# Indices 1 2 3 4 5 6 
#
# 1 49.8134 16.8419 56.7812 0.0000 0.0000 0.0000
# 2 16.8419 130.5243 24.6955 0.0000 0.0000 0.0000
# 3 56.7812 24.6955 221.5376 0.0000 0.0000 0.0000
# 4 0.0000 0.0000 0.0000 29.2741 0.0000 0.0000
# 5 0.0000 0.0000 0.0000 0.0000 30.8449 0.0000
# 6 0.0000 0.0000 0.0000 0.0000 0.0000 15.0838
#
#
#
# Elastic Compliance Matrix: (Units=1/GPa)
#
#
# Indices 1 2 3 4 5 6 
#
# 1 0.029074 -0.002392 -0.007185 0.000000 0.000000 0.000000
# 2 -0.002392 0.008023 -0.000281 0.000000 0.000000 0.000000
# 3 -0.007185 -0.000281 0.006387 0.000000 0.000000 0.000000
# 4 0.000000 0.000000 0.000000 0.034160 0.000000 0.000000
# 5 0.000000 0.000000 0.000000 0.000000 0.032420 0.000000
# 6 0.000000 0.000000 0.000000 0.000000 0.000000 0.066296
#
#
# Mechanical properties :
#
#
# Convention : Reuss Voigt Hill
#
# Bulk Modulus (GPa) = 42.07504 66.50139 54.28821
# Shear Modulus (GPa) = 24.50985 35.27767 29.89376
#
# Velocity S-wave (km/s) = 3.56722 4.27966 3.93958
# Velocity P-wave (km/s) = 6.22987 7.67769 6.99136
#
# Compressibility (1/GPa) = 0.02376706
#
# Stress axis : x y z
#
# Youngs Moduli (GPa) = 34.39520 124.63728 156.57179
#
# Poissons Ratio (x) = 0.29814 1.12499
# Poissons Ratio (y) = 0.08227 0.04404
# Poissons Ratio (z) = 0.24713 0.03506
#
# Static dielectric constant tensor:
#      x y z
#    x 1.566780 0.000000 0.000000 
#    y 0.000000 1.764090 0.000000 
#    z 0.000000 0.000000 1.772150 
# 
# From -- ./inp_files/32526.got.cif
#   From: 2010.05.17/outbox.cif.g08.bks.cpg/sg50_17_cif.got.tgz:32526.got - 2010.06.03 11:33:33.
