data_PCOD9395298
_publ_section_title
;
Structure prediction by ZEFSAII (Michael W. Deem and Ramdas Pophale) SiO2 
 PCOD9395298
Probable space group: P C C M
;
_chemical_formula_sum "Si O2"
_cell_formula_units_Z 48
_cell_length_a 9.000000
_cell_length_b 30.000000
_cell_length_c 9.000000
_cell_angle_alpha 90.000000
_cell_angle_beta 90.000000
_cell_angle_gamma 90.000000
_cell_volume 2430.000000
_symmetry_space_group_name_H-M "P C C M"
_symmetry_group_IT_number 49
_symmetry_cell_setting 'orthorhombic'
loop_
_space_group_symop_operation_xyz
x,y,z
-x,-y,z
x,-y,1/2-z
-x,y,1/2-z
-x,-y,-z
x,y,-z
-x,y,1/2+z
x,-y,1/2+z
loop_
_atom_site_type_symbol
_atom_site_label
_atom_site_fract_x
_atom_site_fract_y
_atom_site_fract_z
Si Si1 0.839643 0.633000 0.824200
Si Si2 0.145502 0.883342 0.668905
Si Si3 0.349366 0.951439 0.177428
Si Si4 0.660300 0.457016 0.325242
Si Si5 0.162819 0.279334 0.676831
Si Si6 0.346515 0.796956 0.330966
O O1 0.749362 0.588078 0.803658
O O2 0.768420 0.675063 0.740930
O O3 0.000000 0.626995 0.750000
O O4 0.854373 0.642410 0.000000
O O5 0.116401 0.898456 0.500000
O O6 0.212508 0.922307 0.768819
O O7 0.260749 0.843315 0.663339
O O8 0.000000 0.866026 0.750000
O O9 0.500000 0.931947 0.250000
O O10 0.334362 0.000000 0.250000
O O11 0.362707 0.953820 0.000000
O O12 0.734608 0.500000 0.250000
O O13 0.500000 0.452232 0.250000
O O14 0.643605 0.465070 0.500000
O O15 0.152028 0.280360 0.500000
O O16 0.254675 0.238002 0.735308
O O17 0.000000 0.276403 0.750000
O O18 0.500000 0.804110 0.250000
O O19 0.365196 0.780501 0.500000
#
# Coordination Sequence:
#
# PCOD9395298 Si02
#       6
#     8   8   8   8   8   8
#     4  10  21  37  57  83 113 147 188 232 281 337
#     4  11  24  41  62  89 120 156 197 241 291 345
#     4  11  22  39  63  90 122 158 198 243 292 346
#     4  10  21  36  56  80 109 145 185 230 279 335
#     4  11  22  38  61  86 116 152 190 235 286 341
#     4  11  24  41  62  88 119 153 193 239 287 343
#
# _framework density 19.753086
#
# number of rings (size 3 to 8) (size 9 to 14) (size 15 to 20)
#    0.000    1.333    0.000    8.000    0.000    9.333 
#    0.000    5.000    0.000    0.000    0.000    0.000 
#    0.000    0.000    0.000    0.000    0.000    0.000 
#
# Total GULP energy -268112.059458 kJ/mol
# GULP energy per Si atom -5585.667905 kJ/mol
# Density = 1.970813 g / cm^3
# Si number density = 19.753086 Si / 1000 Ang^3
#
#
#
# Elastic Constant Matrix: (Units=GPa)
#
#
# Indices 1 2 3 4 5 6 
#
# 1 60.3875 35.6327 48.7925 0.0000 0.0000 0.0000
# 2 35.6327 79.3335 62.7269 0.0000 0.0000 0.0000
# 3 48.7925 62.7269 190.7156 0.0000 0.0000 0.0000
# 4 0.0000 0.0000 0.0000 11.8450 0.0000 0.0000
# 5 0.0000 0.0000 0.0000 0.0000 10.3914 0.0000
# 6 0.0000 0.0000 0.0000 0.0000 0.0000 31.0514
#
#
#
# Elastic Compliance Matrix: (Units=1/GPa)
#
#
# Indices 1 2 3 4 5 6 
#
# 1 0.024172 -0.008064 -0.003532 0.000000 0.000000 0.000000
# 2 -0.008064 0.019726 -0.004425 0.000000 0.000000 0.000000
# 3 -0.003532 -0.004425 0.007602 0.000000 0.000000 0.000000
# 4 0.000000 0.000000 0.000000 0.084424 0.000000 0.000000
# 5 0.000000 0.000000 0.000000 0.000000 0.096234 0.000000
# 6 0.000000 0.000000 0.000000 0.000000 0.000000 0.032205
#
#
# Mechanical properties :
#
#
# Convention : Reuss Voigt Hill
#
# Bulk Modulus (GPa) = 51.39210 69.41564 60.40387
# Shear Modulus (GPa) = 16.50770 22.87654 19.69212
#
# Velocity S-wave (km/s) = 2.89399 3.40681 3.16082
# Velocity P-wave (km/s) = 6.10251 7.11991 6.63075
#
# Compressibility (1/GPa) = 0.01945824
#
# Stress axis : x y z
#
# Youngs Moduli (GPa) = 41.37049 50.69568 131.54049
#
# Poissons Ratio (x) = 0.40883 0.46456
# Poissons Ratio (y) = 0.33363 0.58202
# Poissons Ratio (z) = 0.14611 0.22431
#
# Static dielectric constant tensor:
#      x y z
#    x 1.579450 0.000000 0.000000 
#    y 0.000000 1.712090 0.000000 
#    z 0.000000 0.000000 1.591610 
# 
# From -- ./inp_files/2121.got.cif
#   From: 2010.05.17/outbox.ucp.g08.bks.cvg/sg49_2_cif.got.tgz:2121.got - 2010.06.11 16:40:14.
