data_PCOD9395123
_publ_section_title
;
Structure prediction by ZEFSAII (Michael W. Deem and Ramdas Pophale) SiO2 
 PCOD9395123
Probable space group: P C C M
;
_chemical_formula_sum "Si O2"
_cell_formula_units_Z 40
_cell_length_a 23.057125
_cell_length_b 8.978504
_cell_length_c 10.025234
_cell_angle_alpha 90.000000
_cell_angle_beta 90.000000
_cell_angle_gamma 90.000000
_cell_volume 2075.408795
_symmetry_space_group_name_H-M "P C C M"
_symmetry_group_IT_number 49
_symmetry_cell_setting 'orthorhombic'
loop_
_space_group_symop_operation_xyz
x,y,z
-x,-y,z
x,-y,1/2-z
-x,y,1/2-z
-x,-y,-z
x,y,-z
-x,y,1/2+z
x,-y,1/2+z
loop_
_atom_site_type_symbol
_atom_site_label
_atom_site_fract_x
_atom_site_fract_y
_atom_site_fract_z
Si Si1 0.224455 0.829845 0.000000
Si Si2 0.431730 0.321762 0.748904
Si Si3 0.943685 0.151858 0.664806
Si Si4 0.376488 0.161969 0.000000
Si Si5 0.635102 0.187359 0.000000
Si Si6 0.760649 0.180869 0.500000
Si Si7 0.828289 0.677615 0.238466
O O1 0.193197 0.756583 0.126673
O O2 0.294460 0.802271 0.000000
O O3 0.217469 0.009329 0.000000
O O4 0.427461 0.500000 0.750000
O O5 0.500000 0.283924 0.750000
O O6 0.394538 0.263920 0.625676
O O7 0.404121 0.241946 0.874651
O O8 0.951701 0.132233 0.500000
O O9 0.890643 0.262413 0.690108
O O10 0.000000 0.206135 0.750000
O O11 0.929830 0.000000 0.750000
O O12 0.307898 0.181788 0.000000
O O13 0.384020 0.984879 0.000000
O O14 0.783771 0.266615 0.372424
O O15 0.828571 0.500000 0.250000
#
# Coordination Sequence:
#
# PCOD9395123 Si02
#       7
#     4   8   8   4   4   4   8
#     4  11  25  42  69  90 130 174 213 269 318 395
#     4  11  24  41  62  91 128 169 211 260 325 395
#     4  11  24  44  71 102 135 177 225 267 319 388
#     4  11  24  40  67  91 125 164 213 276 316 381
#     4  11  24  42  63  97 123 164 221 266 328 375
#     4  11  23  46  63  94 126 170 221 259 326 389
#     4  12  26  42  65 100 134 168 214 270 327 381
#
# _framework density 19.273312000000001
#
# number of rings (size 3 to 8) (size 9 to 14) (size 15 to 20)
#    0.000    0.800    1.000    6.600    2.800   12.400 
#    0.000    1.000    0.000    0.000    0.000    0.000 
#    0.000    0.000    0.000    0.000    0.000    0.000 
#
# Total GULP energy -223428.508569 kJ/mol
# GULP energy per Si atom -5585.712714 kJ/mol
# Density = 1.922944 g / cm^3
# Si number density = 19.273312 Si / 1000 Ang^3
#
#
#
# Elastic Constant Matrix: (Units=GPa)
#
#
# Indices 1 2 3 4 5 6 
#
# 1 90.7449 84.8743 59.3853 0.0000 0.0000 0.0000
# 2 84.8743 116.4711 65.7541 0.0000 0.0000 0.0000
# 3 59.3853 65.7541 205.2629 0.0000 0.0000 0.0000
# 4 0.0000 0.0000 0.0000 37.9505 0.0000 0.0000
# 5 0.0000 0.0000 0.0000 0.0000 312.4572 0.0000
# 6 0.0000 0.0000 0.0000 0.0000 0.0000 -507.3117
#
#
#
# Elastic Compliance Matrix: (Units=1/GPa)
#
#
# Indices 1 2 3 4 5 6 
#
# 1 0.035570 -0.024551 -0.002426 0.000000 0.000000 0.000000
# 2 -0.024551 0.027427 -0.001683 0.000000 0.000000 0.000000
# 3 -0.002426 -0.001683 0.006113 0.000000 0.000000 0.000000
# 4 0.000000 0.000000 0.000000 0.026350 0.000000 0.000000
# 5 0.000000 0.000000 0.000000 0.000000 0.003200 0.000000
# 6 0.000000 0.000000 0.000000 0.000000 0.000000 -0.001971
#
#
# Mechanical properties :
#
#
# Convention : Reuss Voigt Hill
#
# Bulk Modulus (GPa) = 84.82143 92.50070 88.66106
# Shear Modulus (GPa) = 31.65777 -17.88312 6.88732
#
# Velocity S-wave (km/s) = 4.05726 -3.04940 1.89242
# Velocity P-wave (km/s) = 8.12735 5.97494 7.13280
#
# Compressibility (1/GPa) = 0.01178947
#
# Stress axis : x y z
#
# Youngs Moduli (GPa) = 28.11336 36.46107 163.58888
#
# Poissons Ratio (x) = 0.89515 0.39692
# Poissons Ratio (y) = 0.69021 0.27531
# Poissons Ratio (z) = 0.06821 0.06136
#
# Static dielectric constant tensor:
#      x y z
#    x 1.671590 0.000000 0.000000 
#    y 0.000000 1.646950 0.000000 
#    z 0.000000 0.000000 1.558580 
# 
# From -- ./inp_files/6259.got.cif
#   From: 2010.05.17/outbox.cif.g08.bks.cpg/sg49_4_cif.got.tgz:6259.got - 2010.06.03 21:02:19.
