data_PCOD9395054
_publ_section_title
;
Structure prediction by ZEFSAII (Michael W. Deem and Ramdas Pophale) SiO2 
 PCOD9395054
Probable space group: P C C M
;
_chemical_formula_sum "Si O2"
_cell_formula_units_Z 40
_cell_length_a 9.711189
_cell_length_b 25.812077
_cell_length_c 8.558519
_cell_angle_alpha 90.000000
_cell_angle_beta 90.000000
_cell_angle_gamma 90.000000
_cell_volume 2145.329366
_symmetry_space_group_name_H-M "P C C M"
_symmetry_group_IT_number 49
_symmetry_cell_setting 'orthorhombic'
loop_
_space_group_symop_operation_xyz
x,y,z
-x,-y,z
x,-y,1/2-z
-x,y,1/2-z
-x,-y,-z
x,y,-z
-x,y,1/2+z
x,-y,1/2+z
loop_
_atom_site_type_symbol
_atom_site_label
_atom_site_fract_x
_atom_site_fract_y
_atom_site_fract_z
Si Si1 0.655434 0.555676 0.312806
Si Si2 0.153830 0.352963 0.812750
Si Si3 0.845434 0.760724 0.687269
Si Si4 0.150527 0.941883 0.812754
Si Si5 0.344834 0.147473 0.186994
O O1 0.706360 0.500000 0.250000
O O2 0.500000 0.561656 0.250000
O O3 0.654779 0.555275 0.500000
O O4 0.746915 0.602309 0.248663
O O5 0.194244 0.296525 0.746899
O O6 0.000000 0.362966 0.750000
O O7 0.152963 0.351361 0.000000
O O8 0.847772 0.761671 0.500000
O O9 0.741002 0.803304 0.751689
O O10 0.000000 0.771091 0.750000
O O11 0.265545 0.903041 0.750333
O O12 0.000000 0.925232 0.750000
O O13 0.173726 0.000000 0.750000
O O14 0.148157 0.942124 0.000000
O O15 0.500000 0.148980 0.250000
O O16 0.345193 0.147061 0.000000
#
# Coordination Sequence:
#
# PCOD9395054 Si02
#       5
#     8   8   8   8   8
#     4  11  22  39  60  86 117 155 196 240 290 349
#     4  11  22  39  61  89 119 153 194 243 294 347
#     4  11  22  40  63  89 118 155 196 241 291 348
#     4  11  22  40  64  92 121 157 199 244 291 346
#     4  12  25  42  61  88 121 157 197 244 295 350
#
# _framework density 18.645154999999999
#
# number of rings (size 3 to 8) (size 9 to 14) (size 15 to 20)
#    0.000    0.800    0.000   12.000    0.000    1.600 
#    0.000    8.000    0.000    0.000    0.000    0.000 
#    0.000    0.000    0.000    0.000    0.000    0.000 
#
# Total GULP energy -223864.814884 kJ/mol
# GULP energy per Si atom -5596.620372 kJ/mol
# Density = 1.860272 g / cm^3
# Si number density = 18.645155 Si / 1000 Ang^3
#
#
#
# Elastic Constant Matrix: (Units=GPa)
#
#
# Indices 1 2 3 4 5 6 
#
# 1 129.0410 117.3519 77.0910 0.0000 0.0000 0.0000
# 2 117.3519 147.4673 81.4527 0.0000 0.0000 0.0000
# 3 77.0910 81.4527 253.3791 0.0000 0.0000 0.0000
# 4 0.0000 0.0000 0.0000 38.0208 0.0000 0.0000
# 5 0.0000 0.0000 0.0000 0.0000 37.5329 0.0000
# 6 0.0000 0.0000 0.0000 0.0000 0.0000 87.5827
#
#
#
# Elastic Compliance Matrix: (Units=1/GPa)
#
#
# Indices 1 2 3 4 5 6 
#
# 1 0.028627 -0.021850 -0.001686 0.000000 0.000000 0.000000
# 2 -0.021850 0.024922 -0.001364 0.000000 0.000000 0.000000
# 3 -0.001686 -0.001364 0.004898 0.000000 0.000000 0.000000
# 4 0.000000 0.000000 0.000000 0.026301 0.000000 0.000000
# 5 0.000000 0.000000 0.000000 0.000000 0.026643 0.000000
# 6 0.000000 0.000000 0.000000 0.000000 0.000000 0.011418
#
#
# Mechanical properties :
#
#
# Convention : Reuss Voigt Hill
#
# Bulk Modulus (GPa) = 115.62902 120.18654 117.90778
# Shear Modulus (GPa) = 28.49132 49.56006 39.02569
#
# Velocity S-wave (km/s) = 3.91331 5.16124 4.57998
# Velocity P-wave (km/s) = 9.08674 10.00588 9.55737
#
# Compressibility (1/GPa) = 0.00864835
#
# Stress axis : x y z
#
# Youngs Moduli (GPa) = 34.93164 40.12479 204.16497
#
# Poissons Ratio (x) = 0.87672 0.34420
# Poissons Ratio (y) = 0.76325 0.27843
# Poissons Ratio (z) = 0.05889 0.05472
#
# Static dielectric constant tensor:
#      x y z
#    x 1.616970 0.000000 0.000000 
#    y 0.000000 1.629900 0.000000 
#    z 0.000000 0.000000 1.617400 
# 
# From -- ./inp_files/1681.got.cif
#   From: 2010.05.17/outbox.cif.g08.bks.cpg/sg49_1_cif.got.tgz:1681.got - 2010.06.03 21:02:19.
