data_PCOD9395958
_publ_section_title
;
Structure prediction by ZEFSAII (Michael W. Deem and Ramdas Pophale) SiO2 
 PCOD9395958
Probable space group: P B A N
;
_chemical_formula_sum "Si O2"
_cell_formula_units_Z 42
_cell_length_a 9.325529
_cell_length_b 13.882308
_cell_length_c 16.961455
_cell_angle_alpha 90.000000
_cell_angle_beta 90.000000
_cell_angle_gamma 90.000000
_cell_volume 2195.827689
_symmetry_space_group_name_H-M "P B A N"
_symmetry_group_IT_number 50
_space_group.IT_coordinate_system_code '2'
_symmetry_cell_setting 'orthorhombic'
loop_
_space_group_symop_operation_xyz
x,y,z
1/2-x,1/2-y,z
x,1/2-y,-z
1/2-x,y,-z
-x,-y,-z
1/2+x,1/2+y,-z
-x,1/2+y,z
1/2+x,-y,z
loop_
_atom_site_type_symbol
_atom_site_label
_atom_site_fract_x
_atom_site_fract_y
_atom_site_fract_z
Si Si1 0.627224 0.822291 0.692546
Si Si2 0.109921 0.373529 0.132630
Si Si3 0.102375 0.546441 0.305311
Si Si4 0.585631 0.278206 0.414686
Si Si5 0.250000 0.250000 0.000000
Si Si6 0.153885 0.980667 0.194377
O O1 0.750000 0.750000 0.664261
O O2 0.613728 0.812092 0.786634
O O3 0.485600 0.787916 0.650650
O O4 0.644867 0.935661 0.675255
O O5 0.237961 0.450597 0.146975
O O6 0.953759 0.423021 0.137361
O O7 0.149457 0.313683 0.056399
O O8 0.076031 0.613297 0.380672
O O9 0.236757 0.579552 0.250532
O O10 0.958187 0.537607 0.251881
O O11 0.750000 0.250000 0.418950
O O12 0.521188 0.250000 0.500000
#
# Coordination Sequence:
#
# PCOD9395958 Si02
#       6
#     8   8   8   8   2   8
#     4  10  20  38  62  82 115 157 203 245 296 361
#     4  10  20  37  59  86 114 154 196 244 296 359
#     4  10  19  36  61  88 112 157 205 243 291 363
#     4  11  23  36  54  87 122 154 195 247 303 347
#     4  12  24  32  60  94 122 146 188 258 300 352
#     4   8  18  37  63  82 111 158 201 234 291 362
#
# _framework density 19.127184
#
# number of rings (size 3 to 8) (size 9 to 14) (size 15 to 20)
#    0.000    2.476    0.952    4.571    0.000    1.905 
#    0.000    1.905    0.000    4.571    0.000    0.000 
#    0.000    0.000    0.000    0.000    0.000    0.000 
#
# Total GULP energy -233966.108375 kJ/mol
# GULP energy per Si atom -5570.621628 kJ/mol
# Density = 1.908365 g / cm^3
# Si number density = 19.127184 Si / 1000 Ang^3
#
#
#
# Elastic Constant Matrix: (Units=GPa)
#
#
# Indices 1 2 3 4 5 6 
#
# 1 107.8277 20.2717 35.3179 0.0000 0.0000 0.0000
# 2 20.2717 86.7468 58.7955 0.0000 0.0000 0.0000
# 3 35.3179 58.7955 120.2086 0.0000 0.0000 0.0000
# 4 0.0000 0.0000 0.0000 38.0050 0.0000 0.0000
# 5 0.0000 0.0000 0.0000 0.0000 55.0268 0.0000
# 6 0.0000 0.0000 0.0000 0.0000 0.0000 14.1716
#
#
#
# Elastic Compliance Matrix: (Units=1/GPa)
#
#
# Indices 1 2 3 4 5 6 
#
# 1 0.010278 -0.000531 -0.002760 0.000000 0.000000 0.000000
# 2 -0.000531 0.017272 -0.008292 0.000000 0.000000 0.000000
# 3 -0.002760 -0.008292 0.013185 0.000000 0.000000 0.000000
# 4 0.000000 0.000000 0.000000 0.026312 0.000000 0.000000
# 5 0.000000 0.000000 0.000000 0.000000 0.018173 0.000000
# 6 0.000000 0.000000 0.000000 0.000000 0.000000 0.070564
#
#
# Mechanical properties :
#
#
# Convention : Reuss Voigt Hill
#
# Bulk Modulus (GPa) = 56.91724 60.39479 58.65602
# Shear Modulus (GPa) = 27.05528 34.80055 30.92791
#
# Velocity S-wave (km/s) = 3.76506 4.27010 4.02551
# Velocity P-wave (km/s) = 6.98017 7.48035 7.23458
#
# Compressibility (1/GPa) = 0.01756937
#
# Stress axis : x y z
#
# Youngs Moduli (GPa) = 97.29618 57.89705 75.84150
#
# Poissons Ratio (x) = 0.03076 0.20931
# Poissons Ratio (y) = 0.05169 0.62887
# Poissons Ratio (z) = 0.26852 0.48008
#
# Static dielectric constant tensor:
#      x y z
#    x 1.673260 0.000000 0.000000 
#    y 0.000000 1.722680 0.000000 
#    z 0.000000 0.000000 1.680310 
# 
# From -- ./inp_files/24749.got.cif
#   From: 2010.05.17/outbox.cif.g08.bks.cpg/sg50_13_cif.got.tgz:24749.got - 2010.06.03 11:33:33.
