data_PCOD9395136
_publ_section_title
;
Structure prediction by ZEFSAII (Michael W. Deem and Ramdas Pophale) SiO2 
 PCOD9395136
Probable space group: P C C M
;
_chemical_formula_sum "Si O2"
_cell_formula_units_Z 64
_cell_length_a 9.379682
_cell_length_b 20.847649
_cell_length_c 15.771275
_cell_angle_alpha 90.000000
_cell_angle_beta 90.000000
_cell_angle_gamma 90.000000
_cell_volume 3083.983215
_symmetry_space_group_name_H-M "P C C M"
_symmetry_group_IT_number 49
_symmetry_cell_setting 'orthorhombic'
loop_
_space_group_symop_operation_xyz
x,y,z
-x,-y,z
x,-y,1/2-z
-x,y,1/2-z
-x,-y,-z
x,y,-z
-x,y,1/2+z
x,-y,1/2+z
loop_
_atom_site_type_symbol
_atom_site_label
_atom_site_fract_x
_atom_site_fract_y
_atom_site_fract_z
Si Si1 0.660272 0.988453 0.401341
Si Si2 0.325582 0.364707 0.103374
Si Si3 0.628810 0.777515 0.897687
Si Si4 0.648872 0.393367 0.103457
Si Si5 0.308692 0.748835 0.897818
Si Si6 0.160808 0.512701 0.603984
Si Si7 0.851693 0.127997 0.143124
Si Si8 0.167747 0.107152 0.842514
O O1 0.654822 0.006522 0.500000
O O2 0.728528 0.917907 0.394505
O O3 0.500000 0.000000 0.367320
O O4 0.767354 0.037604 0.358135
O O5 0.306891 0.291145 0.131006
O O6 0.482915 0.389745 0.127739
O O7 0.213905 0.417584 0.132086
O O8 0.323336 0.363299 0.000000
O O9 0.463654 0.775188 0.868403
O O10 0.720898 0.838238 0.870909
O O11 0.625739 0.777700 0.000000
O O12 0.711973 0.324512 0.130674
O O13 0.734180 0.455672 0.132484
O O14 0.651846 0.395003 0.000000
O O15 0.188644 0.798636 0.872714
O O16 0.314998 0.746987 0.000000
O O17 0.163979 0.512526 0.500000
O O18 0.000000 0.500000 0.630521
O O19 0.849351 0.115627 0.242764
O O20 0.012801 0.113530 0.113797
#
# Coordination Sequence:
#
# PCOD9395136 Si02
#       8
#     8   8   8   8   8   8   8   8
#     4  11  24  41  62  86 108 133 170 213 254 300
#     4   8  14  25  41  62  92 129 166 207 255 304
#     4   9  18  33  53  77 103 134 176 220 260 307
#     4   8  14  25  41  62  92 129 166 207 255 304
#     4   9  18  33  53  77 103 134 176 220 260 307
#     4   9  15  21  33  59  94 129 166 207 252 304
#     4  11  24  39  55  79 110 141 173 209 252 305
#     4  11  24  39  55  79 110 141 173 209 252 305
#
# _framework density 20.752382000000001
#
# number of rings (size 3 to 8) (size 9 to 14) (size 15 to 20)
#    0.000    2.500    0.000    4.125    0.000   10.500 
#    0.000    2.500    0.000    0.000    0.000    0.875 
#    0.000    7.000    0.000    0.000    0.000    0.000 
#
# Total GULP energy -357227.877847 kJ/mol
# GULP energy per Si atom -5581.685591 kJ/mol
# Density = 2.070515 g / cm^3
# Si number density = 20.752382 Si / 1000 Ang^3
#
#
#
# Elastic Constant Matrix: (Units=GPa)
#
#
# Indices 1 2 3 4 5 6 
#
# 1 37.9890 -0.3825 -10.4583 0.0000 0.0000 0.0000
# 2 -0.3825 59.6833 -12.2560 0.0000 0.0000 0.0000
# 3 -10.4583 -12.2560 17.0204 0.0000 0.0000 0.0000
# 4 0.0000 0.0000 0.0000 -36.5855 0.0000 0.0000
# 5 0.0000 0.0000 0.0000 0.0000 -3.0714 0.0000
# 6 0.0000 0.0000 0.0000 0.0000 0.0000 20.7518
#
#
#
# Elastic Compliance Matrix: (Units=1/GPa)
#
#
# Indices 1 2 3 4 5 6 
#
# 1 0.032969 0.005130 0.023952 0.000000 0.000000 0.000000
# 2 0.005130 0.020461 0.017885 0.000000 0.000000 0.000000
# 3 0.023952 0.017885 0.086349 0.000000 0.000000 0.000000
# 4 0.000000 0.000000 0.000000 -0.027333 0.000000 0.000000
# 5 0.000000 0.000000 0.000000 0.000000 -0.325588 0.000000
# 6 0.000000 0.000000 0.000000 0.000000 0.000000 0.048189
#
#
# Mechanical properties :
#
#
# Convention : Reuss Voigt Hill
#
# Bulk Modulus (GPa) = 4.27876 7.61102 5.94489
# Shear Modulus (GPa) = -27.62681 5.40493 -11.11094
#
# Velocity S-wave (km/s) = -3.65260 1.61559 -2.31639
# Velocity P-wave (km/s) = 3.96514 2.67501 2.06962
#
# Compressibility (1/GPa) = 0.23371271
#
# Stress axis : x y z
#
# Youngs Moduli (GPa) = 30.33155 48.87410 11.58089
#
# Poissons Ratio (x) = -0.25071 -0.27738
# Poissons Ratio (y) = -0.15559 -0.20713
# Poissons Ratio (z) = -0.72650 -0.87413
#
# Static dielectric constant tensor:
#      x y z
#    x 1.743060 0.000000 0.000000 
#    y 0.000000 1.719030 0.000000 
#    z 0.000000 0.000000 1.766130 
# 
# From -- ./inp_files/16572.got.cif
#   From: 2010.05.17/outbox.cif.g08.bks.cpg/sg49_9_cif.got.tgz:16572.got - 2010.06.03 21:02:19.
