data_PCOD9395210
_publ_section_title
;
Structure prediction by ZEFSAII (Michael W. Deem and Ramdas Pophale) SiO2 
 PCOD9395210
Probable space group: P C C M
;
_chemical_formula_sum "Si O2"
_cell_formula_units_Z 64
_cell_length_a 9.000000
_cell_length_b 24.000000
_cell_length_c 15.000000
_cell_angle_alpha 90.000000
_cell_angle_beta 90.000000
_cell_angle_gamma 90.000000
_cell_volume 3240.000000
_symmetry_space_group_name_H-M "P C C M"
_symmetry_group_IT_number 49
_symmetry_cell_setting 'orthorhombic'
loop_
_space_group_symop_operation_xyz
x,y,z
-x,-y,z
x,-y,1/2-z
-x,y,1/2-z
-x,-y,-z
x,y,-z
-x,y,1/2+z
x,-y,1/2+z
loop_
_atom_site_type_symbol
_atom_site_label
_atom_site_fract_x
_atom_site_fract_y
_atom_site_fract_z
Si Si1 0.675212 0.623821 0.106374
Si Si2 0.674704 0.805841 0.264185
Si Si3 0.162989 0.112266 0.149389
Si Si4 0.823217 0.310789 0.240152
Si Si5 0.835373 0.897398 0.356408
Si Si6 0.674172 0.395585 0.893445
Si Si7 0.168634 0.491049 0.108094
Si Si8 0.330651 0.004885 0.859792
O O1 0.744318 0.671344 0.167563
O O2 0.499965 0.615235 0.123100
O O3 0.761763 0.567648 0.134099
O O4 0.694947 0.632660 0.000000
O O5 0.500000 0.800094 0.250000
O O6 0.746161 0.832012 0.173129
O O7 0.758930 0.749234 0.283736
O O8 0.715791 0.847900 0.345568
O O9 0.142479 0.090735 0.251058
O O10 0.998652 0.119394 0.109756
O O11 0.260445 0.063108 0.109356
O O12 0.771795 0.353653 0.164217
O O13 0.000000 0.310322 0.250000
O O14 0.767092 0.953403 0.394206
O O15 0.725174 0.457755 0.867609
O O16 0.699567 0.389193 0.000000
O O17 0.000000 0.500000 0.139943
O O18 0.163556 0.490376 0.000000
O O19 0.500000 0.000000 0.888537
O O20 0.335371 0.000000 0.750000
#
# Coordination Sequence:
#
# PCOD9395210 Si02
#       8
#     8   8   8   8   8   8   8   8
#     4  10  21  38  59  82 108 138 173 214 259 307
#     4  10  18  29  42  59  86 122 164 206 250 300
#     4   8  14  22  33  50  76 111 151 196 247 297
#     4  12  24  37  54  77 106 140 178 216 258 310
#     4   8  14  22  33  50  76 111 151 196 247 297
#     4  10  21  38  59  82 108 138 173 214 259 307
#     4   9  17  32  55  82 110 137 167 208 259 310
#     4   9  13  17  29  49  72 106 150 192 242 298
#
# _framework density 19.753086
#
# number of rings (size 3 to 8) (size 9 to 14) (size 15 to 20)
#    0.750    1.750    0.000    4.125    0.000    5.000 
#    0.000    2.500    0.000    0.000    0.000    0.000 
#    0.000    0.000    0.000    4.500    0.000   83.000 
#
# Total GULP energy -356375.394683 kJ/mol
# GULP energy per Si atom -5568.365542 kJ/mol
# Density = 1.970813 g / cm^3
# Si number density = 19.753086 Si / 1000 Ang^3
#
#
#
# Elastic Constant Matrix: (Units=GPa)
#
#
# Indices 1 2 3 4 5 6 
#
# 1 99.8185 -21.5886 -2.3985 0.0000 0.0000 0.0000
# 2 -21.5886 35.2626 -10.9516 0.0000 0.0000 0.0000
# 3 -2.3985 -10.9516 33.9009 0.0000 0.0000 0.0000
# 4 0.0000 0.0000 0.0000-1113.8453 0.0000 0.0000
# 5 0.0000 0.0000 0.0000 0.0000 6.5181 0.0000
# 6 0.0000 0.0000 0.0000 0.0000 0.0000 34.1129
#
#
#
# Elastic Compliance Matrix: (Units=1/GPa)
#
#
# Indices 1 2 3 4 5 6 
#
# 1 0.011921 0.008404 0.003558 0.000000 0.000000 0.000000
# 2 0.008404 0.037445 0.012691 0.000000 0.000000 0.000000
# 3 0.003558 0.012691 0.033849 0.000000 0.000000 0.000000
# 4 0.000000 0.000000 0.000000 -0.000898 0.000000 0.000000
# 5 0.000000 0.000000 0.000000 0.000000 0.153420 0.000000
# 6 0.000000 0.000000 0.000000 0.000000 0.000000 0.029314
#
#
# Mechanical properties :
#
#
# Convention : Reuss Voigt Hill
#
# Bulk Modulus (GPa) = 7.54597 11.01161 9.27879
# Shear Modulus (GPa) = 19.23667 -201.04814 -90.90573
#
# Velocity S-wave (km/s) = 3.12405 -10.09958 -6.79124
# Velocity P-wave (km/s) = 4.10383 11.41995 7.53571
#
# Compressibility (1/GPa) = 0.13252109
#
# Stress axis : x y z
#
# Youngs Moduli (GPa) = 83.88433 26.70583 29.54268
#
# Poissons Ratio (x) = -0.22442 -0.10512
# Poissons Ratio (y) = -0.70492 -0.37493
# Poissons Ratio (z) = -0.29847 -0.33893
#
# Static dielectric constant tensor:
#      x y z
#    x 1.693310 0.000000 0.000000 
#    y 0.000000 1.705730 0.000000 
#    z 0.000000 0.000000 1.740760 
# 
# From -- ./inp_files/12112.got.cif
#   From: 2010.05.17/outbox.ucp.g08.bks.cvg/sg49_7_cif.got.tgz:12112.got - 2010.06.11 16:40:14.
