data_PCOD9395964
_publ_section_title
;
Structure prediction by ZEFSAII (Michael W. Deem and Ramdas Pophale) SiO2 
 PCOD9395964
Probable space group: P B A N
;
_chemical_formula_sum "Si O2"
_cell_formula_units_Z 64
_cell_length_a 34.124675
_cell_length_b 5.157027
_cell_length_c 16.337685
_cell_angle_alpha 90.000000
_cell_angle_beta 90.000000
_cell_angle_gamma 90.000000
_cell_volume 2875.136363
_symmetry_space_group_name_H-M "P B A N"
_symmetry_group_IT_number 50
_space_group.IT_coordinate_system_code '2'
_symmetry_cell_setting 'orthorhombic'
loop_
_space_group_symop_operation_xyz
x,y,z
1/2-x,1/2-y,z
x,1/2-y,-z
1/2-x,y,-z
-x,-y,-z
1/2+x,1/2+y,-z
-x,1/2+y,z
1/2+x,-y,z
loop_
_atom_site_type_symbol
_atom_site_label
_atom_site_fract_x
_atom_site_fract_y
_atom_site_fract_z
Si Si1 0.224586 0.997223 0.619392
Si Si2 0.899021 0.367623 0.090195
Si Si3 0.517218 0.791188 0.303147
Si Si4 0.635141 0.385926 0.415003
Si Si5 0.892041 0.875506 0.674223
Si Si6 0.225047 0.500143 0.182593
Si Si7 0.486331 0.671198 0.118843
Si Si8 0.137962 0.367316 0.159056
O O1 0.250000 0.250000 0.597578
O O2 0.220479 0.994519 0.718441
O O3 0.250000 0.750000 0.595787
O O4 0.181003 0.966217 0.584888
O O5 0.943245 0.443225 0.112972
O O6 0.873490 0.626289 0.101186
O O7 0.888031 0.124910 0.148323
O O8 0.896201 0.250000 0.000000
O O9 0.510223 0.510561 0.342159
O O10 0.561868 0.884334 0.304719
O O11 0.501657 0.737999 0.210354
O O12 0.624665 0.250000 0.500000
O O13 0.613267 0.653586 0.394579
O O14 0.625288 0.155926 0.349957
O O15 0.868717 0.757649 0.751525
O O16 0.250000 0.250000 0.160958
O O17 0.181898 0.468007 0.147071
O O18 0.250000 0.750000 0.158140
O O19 0.514860 0.457491 0.080956
#
# Coordination Sequence:
#
# PCOD9395964 Si02
#       8
#     8   8   8   8   8   8   8   8
#     4  10  21  39  65  93 135 171 212 266 328 402
#     4  12  26  42  65 102 143 177 214 275 349 412
#     4  10  19  36  61  93 123 160 222 283 320 379
#     4  12  26  44  65  99 143 181 223 277 345 400
#     4  12  24  41  70  99 130 180 234 282 331 394
#     4  10  21  37  64  98 129 161 217 285 329 371
#     4  10  20  37  59  90 131 171 212 260 319 397
#     4  12  23  42  70  96 132 178 230 275 330 405
#
# _framework density 22.259813000000001
#
# number of rings (size 3 to 8) (size 9 to 14) (size 15 to 20)
#    0.000    1.000    1.250    7.500    3.500    0.750 
#    0.000    0.625    0.000   13.125    0.000    0.000 
#    0.000    0.000    0.000    0.000    0.000    0.000 
#
# Total GULP energy -357749.866727 kJ/mol
# GULP energy per Si atom -5589.841668 kJ/mol
# Density = 2.220915 g / cm^3
# Si number density = 22.259813 Si / 1000 Ang^3
#
#
#
# Elastic Constant Matrix: (Units=GPa)
#
#
# Indices 1 2 3 4 5 6 
#
# 1 110.3873 27.7604 18.3981 0.0000 0.0000 0.0000
# 2 27.7604 157.6892 14.8948 0.0000 0.0000 0.0000
# 3 18.3981 14.8948 46.3114 0.0000 0.0000 0.0000
# 4 0.0000 0.0000 0.0000 29.4487 0.0000 0.0000
# 5 0.0000 0.0000 0.0000 0.0000 15.2274 0.0000
# 6 0.0000 0.0000 0.0000 0.0000 0.0000 43.3965
#
#
#
# Elastic Compliance Matrix: (Units=1/GPa)
#
#
# Indices 1 2 3 4 5 6 
#
# 1 0.010004 -0.001429 -0.003515 0.000000 0.000000 0.000000
# 2 -0.001429 0.006744 -0.001601 0.000000 0.000000 0.000000
# 3 -0.003515 -0.001601 0.023504 0.000000 0.000000 0.000000
# 4 0.000000 0.000000 0.000000 0.033957 0.000000 0.000000
# 5 0.000000 0.000000 0.000000 0.000000 0.065671 0.000000
# 6 0.000000 0.000000 0.000000 0.000000 0.000000 0.023043
#
#
# Mechanical properties :
#
#
# Convention : Reuss Voigt Hill
#
# Bulk Modulus (GPa) = 36.81567 48.49938 42.65753
# Shear Modulus (GPa) = 27.01689 34.50350 30.76019
#
# Velocity S-wave (km/s) = 3.48761 3.94132 3.72139
# Velocity P-wave (km/s) = 5.72651 6.52282 6.13759
#
# Compressibility (1/GPa) = 0.02716235
#
# Stress axis : x y z
#
# Youngs Moduli (GPa) = 99.95780 148.26993 42.54549
#
# Poissons Ratio (x) = 0.21191 0.14953
# Poissons Ratio (y) = 0.14286 0.06813
# Poissons Ratio (z) = 0.35132 0.23744
#
# Static dielectric constant tensor:
#      x y z
#    x 1.432210 0.000000 0.000000 
#    y 0.000000 2.054740 0.000000 
#    z 0.000000 0.000000 1.989300 
# 
# From -- ./inp_files/30108.got.cif
#   From: 2010.05.17/outbox.cif.g08.bks.cpg/sg50_16_cif.got.tgz:30108.got - 2010.06.03 11:33:33.
