data_PCOD9395464
_publ_section_title
;
Structure prediction by ZEFSAII (Michael W. Deem and Ramdas Pophale) SiO2 
 PCOD9395464
Probable space group: P B A N
;
_chemical_formula_sum "Si O2"
_cell_formula_units_Z 48
_cell_length_a 14.395542
_cell_length_b 15.301022
_cell_length_c 9.653409
_cell_angle_alpha 90.000000
_cell_angle_beta 90.000000
_cell_angle_gamma 90.000000
_cell_volume 2126.322660
_symmetry_space_group_name_H-M "P B A N"
_symmetry_group_IT_number 50
_space_group.IT_coordinate_system_code '2'
_symmetry_cell_setting 'orthorhombic'
loop_
_space_group_symop_operation_xyz
x,y,z
1/2-x,1/2-y,z
x,1/2-y,-z
1/2-x,y,-z
-x,-y,-z
1/2+x,1/2+y,-z
-x,1/2+y,z
1/2+x,-y,z
loop_
_atom_site_type_symbol
_atom_site_label
_atom_site_fract_x
_atom_site_fract_y
_atom_site_fract_z
Si Si1 0.811553 0.031529 0.772034
Si Si2 0.982981 0.838926 0.750608
Si Si3 0.645503 0.874539 0.019658
Si Si4 0.144523 0.723995 0.838521
Si Si5 0.854912 0.592816 0.474201
Si Si6 0.099231 0.013860 0.763374
O O1 0.859234 0.121096 0.812867
O O2 0.699544 0.034455 0.774755
O O3 0.837305 0.960154 0.885802
O O4 0.840166 0.992537 0.623675
O O5 0.918924 0.816184 0.882712
O O6 0.918661 0.843009 0.615461
O O7 0.068992 0.774071 0.748004
O O8 0.024466 0.936922 0.773331
O O9 0.750000 0.840740 0.000000
O O10 0.598526 0.911910 0.881429
O O11 0.250000 0.750000 0.802447
O O12 0.130729 0.750000 0.000000
O O13 0.750000 0.626907 0.500000
O O14 0.901211 0.562355 0.616134
#
# Coordination Sequence:
#
# PCOD9395464 Si02
#       6
#     8   8   8   8   8   8
#     4   9  18  35  54  86 130 171 205 260 331 381
#     4  11  20  34  57  92 123 166 220 261 322 386
#     4   9  19  33  59  90 123 157 217 273 314 367
#     4  11  22  35  58  91 136 176 208 263 334 403
#     4   9  20  36  58  86 128 168 218 275 318 368
#     4  10  17  31  55  88 123 165 205 268 320 375
#
# _framework density 22.574183999999999
#
# number of rings (size 3 to 8) (size 9 to 14) (size 15 to 20)
#    0.000    2.167    1.667    3.000    4.667    1.333 
#    0.000    0.833    0.000    2.500    0.000    2.333 
#    0.000   16.000    0.000    0.000    0.000    2.000 
#
# Total GULP energy -268569.537209 kJ/mol
# GULP energy per Si atom -5595.198692 kJ/mol
# Density = 2.252280 g / cm^3
# Si number density = 22.574184 Si / 1000 Ang^3
#
#
#
# Elastic Constant Matrix: (Units=GPa)
#
#
# Indices 1 2 3 4 5 6 
#
# 1 145.7343 37.3155 39.5460 0.0000 0.0000 0.0000
# 2 37.3155 79.7852 27.7246 0.0000 0.0000 0.0000
# 3 39.5460 27.7246 136.6386 0.0000 0.0000 0.0000
# 4 0.0000 0.0000 0.0000 -4.9099 0.0000 0.0000
# 5 0.0000 0.0000 0.0000 0.0000 12.1258 0.0000
# 6 0.0000 0.0000 0.0000 0.0000 0.0000 18.0779
#
#
#
# Elastic Compliance Matrix: (Units=1/GPa)
#
#
# Indices 1 2 3 4 5 6 
#
# 1 0.008149 -0.003219 -0.001705 0.000000 0.000000 0.000000
# 2 -0.003219 0.014756 -0.002062 0.000000 0.000000 0.000000
# 3 -0.001705 -0.002062 0.008231 0.000000 0.000000 0.000000
# 4 0.000000 0.000000 0.000000 -0.203671 0.000000 0.000000
# 5 0.000000 0.000000 0.000000 0.000000 0.082468 0.000000
# 6 0.000000 0.000000 0.000000 0.000000 0.000000 0.055316
#
#
# Mechanical properties :
#
#
# Convention : Reuss Voigt Hill
#
# Bulk Modulus (GPa) = 58.26746 63.48114 60.87430
# Shear Modulus (GPa) = -332.05251 22.23024 -154.91114
#
# Velocity S-wave (km/s) = -12.14139 3.14150 -8.29290
# Velocity P-wave (km/s) = 13.06459 6.42969 8.04185
#
# Compressibility (1/GPa) = 0.01716224
#
# Stress axis : x y z
#
# Youngs Moduli (GPa) = 122.71936 67.77062 121.49749
#
# Poissons Ratio (x) = 0.21812 0.20719
# Poissons Ratio (y) = 0.39498 0.25059
# Poissons Ratio (z) = 0.20928 0.13978
#
# Static dielectric constant tensor:
#      x y z
#    x 2.380030 0.000000 0.000000 
#    y 0.000000 1.832520 0.000000 
#    z 0.000000 0.000000 1.826470 
# 
# From -- ./inp_files/12973.got.cif
#   From: 2010.05.17/outbox.cif.g08.bks.cpg/sg50_7_cif.got.tgz:12973.got - 2010.06.03 11:33:33.
