data_PCOD9395068
_publ_section_title
;
Structure prediction by ZEFSAII (Michael W. Deem and Ramdas Pophale) SiO2 
 PCOD9395068
Probable space group: P C C M
;
_chemical_formula_sum "Si O2"
_cell_formula_units_Z 48
_cell_length_a 17.213643
_cell_length_b 9.326921
_cell_length_c 15.102771
_cell_angle_alpha 90.000000
_cell_angle_beta 90.000000
_cell_angle_gamma 90.000000
_cell_volume 2424.754239
_symmetry_space_group_name_H-M "P C C M"
_symmetry_group_IT_number 49
_symmetry_cell_setting 'orthorhombic'
loop_
_space_group_symop_operation_xyz
x,y,z
-x,-y,z
x,-y,1/2-z
-x,y,1/2-z
-x,-y,-z
x,y,-z
-x,y,1/2+z
x,-y,1/2+z
loop_
_atom_site_type_symbol
_atom_site_label
_atom_site_fract_x
_atom_site_fract_y
_atom_site_fract_z
Si Si1 0.591924 0.268152 0.750000
Si Si2 0.592836 0.500000 0.599567
Si Si3 0.000000 0.167474 0.143164
Si Si4 0.752753 0.839866 0.750000
Si Si5 0.158610 0.668372 0.898144
Si Si6 0.158610 0.331628 0.101856
O O1 0.500000 0.229052 0.750000
O O2 0.608322 0.364498 0.662656
O O3 0.608323 0.364498 0.837344
O O4 0.659752 0.153573 0.750000
O O5 0.500000 0.500000 0.589702
O O6 0.626939 0.500000 0.500000
O O7 0.075818 0.252655 0.111297
O O8 0.000000 0.169808 0.250000
O O9 0.924182 0.252655 0.111297
O O10 0.000000 0.000000 0.115300
O O11 0.783643 0.752065 0.666015
O O12 0.783643 0.752065 0.833985
O O13 0.786569 0.000000 0.750000
O O14 0.152409 0.500000 0.873662
O O15 0.183724 0.676333 0.000000
O O16 0.183724 0.323667 0.000000
#
# Coordination Sequence:
#
# PCOD9395068 Si02
#       6
#     8   8   8   8   8   8
#     4   9  20  37  59  88 120 158 205 255 309 370
#     4   8  15  31  58  89 117 146 189 248 306 362
#     4  11  22  39  66  97 130 167 202 247 309 371
#     4  12  26  42  61  89 128 167 206 258 316 373
#     4  11  25  43  66  94 124 164 212 259 307 362
#     4  11  25  43  66  94 124 164 212 259 307 362
#
# _framework density 19.795821
#
# number of rings (size 3 to 8) (size 9 to 14) (size 15 to 20)
#    0.000    1.667    1.667    3.500    4.667    7.000 
#    0.000    0.000    0.000    0.000    0.000    7.000 
#    0.000    0.000    0.000    0.000    0.000    0.000 
#
# Total GULP energy -267979.188059 kJ/mol
# GULP energy per Si atom -5582.899751 kJ/mol
# Density = 1.975076 g / cm^3
# Si number density = 19.795821 Si / 1000 Ang^3
#
#
#
# Elastic Constant Matrix: (Units=GPa)
#
#
# Indices 1 2 3 4 5 6 
#
# 1 121.4513 59.2117 34.2485 0.0000 0.0000 0.0000
# 2 59.2117 171.9401 65.2818 0.0000 0.0000 0.0000
# 3 34.2485 65.2818 143.3115 0.0000 0.0000 0.0000
# 4 0.0000 0.0000 0.0000 25.4325 0.0000 0.0000
# 5 0.0000 0.0000 0.0000 0.0000 -46.1347 0.0000
# 6 0.0000 0.0000 0.0000 0.0000 0.0000 24.4522
#
#
#
# Elastic Compliance Matrix: (Units=1/GPa)
#
#
# Indices 1 2 3 4 5 6 
#
# 1 0.010011 -0.003070 -0.000994 0.000000 0.000000 0.000000
# 2 -0.003070 0.007974 -0.002899 0.000000 0.000000 0.000000
# 3 -0.000994 -0.002899 0.008536 0.000000 0.000000 0.000000
# 4 0.000000 0.000000 0.000000 0.039320 0.000000 0.000000
# 5 0.000000 0.000000 0.000000 0.000000 -0.021676 0.000000
# 6 0.000000 0.000000 0.000000 0.000000 0.000000 0.040896
#
#
# Mechanical properties :
#
#
# Convention : Reuss Voigt Hill
#
# Bulk Modulus (GPa) = 79.39538 83.79855 81.59696
# Shear Modulus (GPa) = 48.45714 19.28071 33.86892
#
# Velocity S-wave (km/s) = 4.95294 3.12425 4.14081
# Velocity P-wave (km/s) = 8.53833 7.44566 8.01065
#
# Compressibility (1/GPa) = 0.01259519
#
# Stress axis : x y z
#
# Youngs Moduli (GPa) = 99.89210 125.41136 117.15530
#
# Poissons Ratio (x) = 0.38503 0.11644
# Poissons Ratio (y) = 0.30668 0.33958
# Poissons Ratio (z) = 0.09928 0.36351
#
# Static dielectric constant tensor:
#      x y z
#    x 1.698680 0.000000 0.000000 
#    y 0.000000 1.667840 0.000000 
#    z 0.000000 0.000000 1.706810 
# 
# From -- ./inp_files/14000.got.cif
#   From: 2010.05.17/outbox.cif.g08.bks.cpg/sg49_7_cif.got.tgz:14000.got - 2010.06.03 21:02:19.
