data_PCOD9395836
_publ_section_title
;
Structure prediction by ZEFSAII (Michael W. Deem and Ramdas Pophale) SiO2 
 PCOD9395836
Probable space group: P B A N
;
_chemical_formula_sum "Si O2"
_cell_formula_units_Z 40
_cell_length_a 14.498995
_cell_length_b 22.639304
_cell_length_c 5.252430
_cell_angle_alpha 90.000000
_cell_angle_beta 90.000000
_cell_angle_gamma 90.000000
_cell_volume 1724.095207
_symmetry_space_group_name_H-M "P B A N"
_symmetry_group_IT_number 50
_space_group.IT_coordinate_system_code '2'
_symmetry_cell_setting 'orthorhombic'
loop_
_space_group_symop_operation_xyz
x,y,z
1/2-x,1/2-y,z
x,1/2-y,-z
1/2-x,y,-z
-x,-y,-z
1/2+x,1/2+y,-z
-x,1/2+y,z
1/2+x,-y,z
loop_
_atom_site_type_symbol
_atom_site_label
_atom_site_fract_x
_atom_site_fract_y
_atom_site_fract_z
Si Si1 0.646969 0.084108 0.070364
Si Si2 0.901272 0.714227 0.749892
Si Si3 0.623258 0.214257 0.250061
Si Si4 0.812542 0.913098 0.250185
Si Si5 0.360144 0.536602 0.569610
O O1 0.656417 0.147733 0.203064
O O2 0.598899 0.044883 0.287588
O O3 0.750000 0.062408 0.000000
O O4 0.604491 0.082387 0.785836
O O5 0.869451 0.750000 0.500000
O O6 0.867751 0.647398 0.770480
O O7 0.012182 0.711751 0.741267
O O8 0.872338 0.750000 0.000000
O O9 0.652351 0.250000 0.500000
O O10 0.649314 0.250000 0.000000
O O11 0.750000 0.906830 0.500000
O O12 0.870154 0.972337 0.306676
O O13 0.750000 0.921248 0.000000
O O14 0.250000 0.544398 0.500000
#
# Coordination Sequence:
#
# PCOD9395836 Si02
#       5
#     8   8   8   8   8
#     4  10  19  34  56  79 105 138 177 218 262 318
#     4  10  22  38  55  78 111 147 179 221 276 321
#     4  10  21  38  56  77 111 147 179 222 275 323
#     4  11  21  35  57  82 109 141 182 225 266 322
#     4   9  18  33  52  78 108 137 170 218 274 312
#
# _framework density 23.200572999999999
#
# number of rings (size 3 to 8) (size 9 to 14) (size 15 to 20)
#    0.000    2.000    0.000    5.400    0.000    2.800 
#    0.000    3.000    0.000    0.000    0.000    4.200 
#    0.000    0.000    0.000    0.000    0.000    0.000 
#
# Total GULP energy -223433.276025 kJ/mol
# GULP energy per Si atom -5585.831901 kJ/mol
# Density = 2.314777 g / cm^3
# Si number density = 23.200573 Si / 1000 Ang^3
#
#
#
# Elastic Constant Matrix: (Units=GPa)
#
#
# Indices 1 2 3 4 5 6 
#
# 1 49.3422 24.0503 28.4096 0.0000 0.0000 0.0000
# 2 24.0503 165.7517 85.7698 0.0000 0.0000 0.0000
# 3 28.4096 85.7698 251.1123 0.0000 0.0000 0.0000
# 4 0.0000 0.0000 0.0000 36.1714 0.0000 0.0000
# 5 0.0000 0.0000 0.0000 0.0000 -13.8147 0.0000
# 6 0.0000 0.0000 0.0000 0.0000 0.0000 94.4985
#
#
#
# Elastic Compliance Matrix: (Units=1/GPa)
#
#
# Indices 1 2 3 4 5 6 
#
# 1 0.022412 -0.002356 -0.001731 0.000000 0.000000 0.000000
# 2 -0.002356 0.007576 -0.002321 0.000000 0.000000 0.000000
# 3 -0.001731 -0.002321 0.004971 0.000000 0.000000 0.000000
# 4 0.000000 0.000000 0.000000 0.027646 0.000000 0.000000
# 5 0.000000 0.000000 0.000000 0.000000 -0.072386 0.000000
# 6 0.000000 0.000000 0.000000 0.000000 0.000000 0.010582
#
#
# Mechanical properties :
#
#
# Convention : Reuss Voigt Hill
#
# Bulk Modulus (GPa) = 45.16237 82.51842 63.84039
# Shear Modulus (GPa) = 238.12280 45.23613 141.67947
#
# Velocity S-wave (km/s) = 10.14196 4.42043 7.82303
# Velocity P-wave (km/s) = 12.51616 7.85482 10.44874
#
# Compressibility (1/GPa) = 0.02214233
#
# Stress axis : x y z
#
# Youngs Moduli (GPa) = 44.61968 131.99406 201.17146
#
# Poissons Ratio (x) = 0.31102 0.34817
# Poissons Ratio (y) = 0.10514 0.46694
# Poissons Ratio (z) = 0.07722 0.30637
#
# Static dielectric constant tensor:
#      x y z
#    x 1.883810 0.000000 0.000000 
#    y 0.000000 1.873090 0.000000 
#    z 0.000000 0.000000 1.936300 
# 
# From -- ./inp_files/4204.got.cif
#   From: 2010.05.17/outbox.cif.g08.bks.cpg/sg50_3_cif.got.tgz:4204.got - 2010.06.03 11:33:33.
