data_PCOD9395509
_publ_section_title
;
Structure prediction by ZEFSAII (Michael W. Deem and Ramdas Pophale) SiO2 
 PCOD9395509
Probable space group: P B A N
;
_chemical_formula_sum "Si O2"
_cell_formula_units_Z 64
_cell_length_a 9.830924
_cell_length_b 25.650514
_cell_length_c 16.785346
_cell_angle_alpha 90.000000
_cell_angle_beta 90.000000
_cell_angle_gamma 90.000000
_cell_volume 4232.731388
_symmetry_space_group_name_H-M "P B A N"
_symmetry_group_IT_number 50
_space_group.IT_coordinate_system_code '2'
_symmetry_cell_setting 'orthorhombic'
loop_
_space_group_symop_operation_xyz
x,y,z
1/2-x,1/2-y,z
x,1/2-y,-z
1/2-x,y,-z
-x,-y,-z
1/2+x,1/2+y,-z
-x,1/2+y,z
1/2+x,-y,z
loop_
_atom_site_type_symbol
_atom_site_label
_atom_site_fract_x
_atom_site_fract_y
_atom_site_fract_z
Si Si1 0.963323 0.610719 0.835439
Si Si2 0.912935 0.946168 0.323300
Si Si3 0.587064 0.553832 0.676700
Si Si4 0.591318 0.551071 0.500000
Si Si5 0.963317 0.889281 0.835438
Si Si6 0.249998 0.312051 0.094810
Si Si7 0.749997 0.089193 0.904061
Si Si8 0.249996 0.468765 0.094726
O O1 0.957253 0.595578 0.742716
O O2 0.878329 0.661013 0.862364
O O3 0.881930 0.562208 0.875382
O O4 0.113972 0.613627 0.868994
O O5 0.750000 0.956632 0.312674
O O6 0.933427 0.924334 0.413237
O O7 0.000000 1.000000 0.314656
O O8 0.566573 0.575665 0.586763
O O9 0.542745 0.595578 0.742715
O O10 0.750000 0.536091 0.500000
O O11 0.500000 0.500000 0.500000
O O12 0.878321 0.838988 0.862361
O O13 0.881921 0.937792 0.875379
O O14 0.113963 0.886373 0.868997
O O15 0.250000 0.250000 0.101770
O O16 0.250000 0.325597 0.000000
O O17 0.749995 0.028342 0.878868
O O18 0.750000 0.091818 0.000000
O O19 0.250000 0.468076 0.000000
#
# Coordination Sequence:
#
# PCOD9395509 Si02
#       8
#     8   8   8   8   8   8   8   8
#     4  11  20  31  48  70  94 124 165 199 240 285
#     4  10  18  29  46  70 102 135 164 193 230 280
#     4  10  18  29  46  70 102 135 164 193 230 280
#     4   8  16  28  42  64  96 136 167 190 222 271
#     4  11  20  31  48  70  94 124 165 199 240 285
#     4  10  21  39  57  68  85 120 164 211 260 307
#     4  11  21  30  44  70 101 128 153 193 238 286
#     4  10  18  29  43  63  97 133 156 180 221 284
#
# _framework density 15.12026
#
# number of rings (size 3 to 8) (size 9 to 14) (size 15 to 20)
#    0.000    1.875    2.500    5.250    1.750    2.000 
#    0.000    0.625    0.000    2.250    0.000    1.750 
#    0.000    0.000    0.000    2.250    0.000    0.000 
#
# Total GULP energy -356656.923179 kJ/mol
# GULP energy per Si atom -5572.764425 kJ/mol
# Density = 1.508585 g / cm^3
# Si number density = 15.120260 Si / 1000 Ang^3
#
#
#
# Elastic Constant Matrix: (Units=GPa)
#
#
# Indices 1 2 3 4 5 6 
#
# 1 116.0781 31.6385 45.6523 0.0000 0.0000 0.0000
# 2 31.6385 63.9983 39.8971 0.0000 0.0000 0.0000
# 3 45.6523 39.8971 131.5374 0.0000 0.0000 0.0000
# 4 0.0000 0.0000 0.0000 8.4719 0.0000 0.0000
# 5 0.0000 0.0000 0.0000 0.0000 22.7916 0.0000
# 6 0.0000 0.0000 0.0000 0.0000 0.0000 3.6846
#
#
#
# Elastic Compliance Matrix: (Units=1/GPa)
#
#
# Indices 1 2 3 4 5 6 
#
# 1 0.010623 -0.003642 -0.002582 0.000000 0.000000 0.000000
# 2 -0.003642 0.020517 -0.004959 0.000000 0.000000 0.000000
# 3 -0.002582 -0.004959 0.010003 0.000000 0.000000 0.000000
# 4 0.000000 0.000000 0.000000 0.118037 0.000000 0.000000
# 5 0.000000 0.000000 0.000000 0.000000 0.043876 0.000000
# 6 0.000000 0.000000 0.000000 0.000000 0.000000 0.271398
#
#
# Mechanical properties :
#
#
# Convention : Reuss Voigt Hill
#
# Bulk Modulus (GPa) = 53.25785 60.66552 56.96168
# Shear Modulus (GPa) = 9.93877 19.95135 14.94506
#
# Velocity S-wave (km/s) = 2.56660 3.63645 3.14731
# Velocity P-wave (km/s) = 6.63947 7.60531 7.13874
#
# Compressibility (1/GPa) = 0.01877657
#
# Stress axis : x y z
#
# Youngs Moduli (GPa) = 94.13433 48.73897 99.97156
#
# Poissons Ratio (x) = 0.17750 0.25816
# Poissons Ratio (y) = 0.34282 0.49578
# Poissons Ratio (z) = 0.24308 0.24171
#
# Static dielectric constant tensor:
#      x y z
#    x 1.516840 0.000000 0.000000 
#    y 0.000000 1.461520 0.000000 
#    z 0.000000 0.000000 1.556290 
# 
# From -- ./inp_files/28997.got.cif
#   From: 2010.05.17/outbox.cif.g08.bks.cpg/sg50_15_cif.got.tgz:28997.got - 2010.06.03 11:33:33.
