data_PCOD9395318
_publ_section_title
;
Structure prediction by ZEFSAII (Michael W. Deem and Ramdas Pophale) SiO2 
 PCOD9395318
Probable space group: P C C M
;
_chemical_formula_sum "Si O2"
_cell_formula_units_Z 64
_cell_length_a 15.000000
_cell_length_b 24.000000
_cell_length_c 9.000000
_cell_angle_alpha 90.000000
_cell_angle_beta 90.000000
_cell_angle_gamma 90.000000
_cell_volume 3240.000000
_symmetry_space_group_name_H-M "P C C M"
_symmetry_group_IT_number 49
_symmetry_cell_setting 'orthorhombic'
loop_
_space_group_symop_operation_xyz
x,y,z
-x,-y,z
x,-y,1/2-z
-x,y,1/2-z
-x,-y,-z
x,y,-z
-x,y,1/2+z
x,-y,1/2+z
loop_
_atom_site_type_symbol
_atom_site_label
_atom_site_fract_x
_atom_site_fract_y
_atom_site_fract_z
Si Si1 0.743437 0.942740 0.825824
Si Si2 0.595865 0.373129 0.175966
Si Si3 0.142632 0.767247 0.322258
Si Si4 0.090478 0.116775 0.322763
Si Si5 0.332171 0.752319 0.175424
Si Si6 0.910695 0.643009 0.822409
Si Si7 0.583830 0.144842 0.673329
Si Si8 0.752109 0.440456 0.678557
O O1 0.828415 0.919513 0.738476
O O2 0.668603 0.895214 0.816117
O O3 0.713697 0.000000 0.750000
O O4 0.764072 0.951404 0.000000
O O5 0.500000 0.376544 0.250000
O O6 0.632401 0.310160 0.196507
O O7 0.661077 0.416432 0.255242
O O8 0.592031 0.383980 0.000000
O O9 0.133709 0.775314 0.500000
O O10 0.103736 0.820034 0.236536
O O11 0.245248 0.761863 0.275243
O O12 0.101880 0.707561 0.278345
O O13 0.086806 0.116528 0.500000
O O14 0.000000 0.095156 0.250000
O O15 0.399366 0.799137 0.233178
O O16 0.312647 0.760227 0.000000
O O17 0.827029 0.605153 0.780654
O O18 0.000000 0.620553 0.750000
O O19 0.917858 0.642129 0.000000
O O20 0.500000 0.115784 0.750000
O O21 0.568378 0.157483 0.500000
O O22 0.772703 0.500000 0.750000
O O23 0.747885 0.444645 0.500000
#
# Coordination Sequence:
#
# PCOD9395318 Si02
#       8
#     8   8   8   8   8   8   8   8
#     4  11  25  45  67  93 125 167 214 266 317 371
#     4  11  24  41  64  95 127 165 207 256 310 373
#     4  11  21  38  63  94 130 168 207 254 314 375
#     4  12  25  42  66  96 130 168 210 260 314 377
#     4  11  22  37  63  96 129 167 208 252 314 376
#     4  10  23  40  63  92 126 165 205 254 309 368
#     4  11  24  41  65  94 130 168 210 259 313 373
#     4  11  24  44  65  90 122 163 210 262 314 368
#
# _framework density 19.753086
#
# number of rings (size 3 to 8) (size 9 to 14) (size 15 to 20)
#    0.000    1.000    2.500    4.125    0.000    8.000 
#    0.000    5.000    0.000    0.000    0.000    0.000 
#    0.000    0.000    0.000    0.000    0.000    0.000 
#
# Total GULP energy -357882.007969 kJ/mol
# GULP energy per Si atom -5591.906375 kJ/mol
# Density = 1.970813 g / cm^3
# Si number density = 19.753086 Si / 1000 Ang^3
#
#
#
# Elastic Constant Matrix: (Units=GPa)
#
#
# Indices 1 2 3 4 5 6 
#
# 1 73.6046 -19.2937 13.8603 0.0000 0.0000 0.0000
# 2 -19.2937 46.8020 14.3831 0.0000 0.0000 0.0000
# 3 13.8603 14.3831 81.1150 0.0000 0.0000 0.0000
# 4 0.0000 0.0000 0.0000 14.5398 0.0000 0.0000
# 5 0.0000 0.0000 0.0000 0.0000 33.4363 0.0000
# 6 0.0000 0.0000 0.0000 0.0000 0.0000 -17.1754
#
#
#
# Elastic Compliance Matrix: (Units=1/GPa)
#
#
# Indices 1 2 3 4 5 6 
#
# 1 0.016517 0.008119 -0.004262 0.000000 0.000000 0.000000
# 2 0.008119 0.026589 -0.006102 0.000000 0.000000 0.000000
# 3 -0.004262 -0.006102 0.014138 0.000000 0.000000 0.000000
# 4 0.000000 0.000000 0.000000 0.068777 0.000000 0.000000
# 5 0.000000 0.000000 0.000000 0.000000 0.029908 0.000000
# 6 0.000000 0.000000 0.000000 0.000000 0.000000 -0.058223
#
#
# Mechanical properties :
#
#
# Convention : Reuss Voigt Hill
#
# Bulk Modulus (GPa) = 18.95606 24.38011 21.66808
# Shear Modulus (GPa) = 41.74308 18.99825 30.37067
#
# Velocity S-wave (km/s) = 4.60199 3.10463 3.92537
# Velocity P-wave (km/s) = 6.15265 5.02204 5.61587
#
# Compressibility (1/GPa) = 0.05275359
#
# Stress axis : x y z
#
# Youngs Moduli (GPa) = 60.54467 37.61001 70.72947
#
# Poissons Ratio (x) = -0.30534 0.30144
# Poissons Ratio (y) = -0.49154 0.43158
# Poissons Ratio (z) = 0.25803 0.22949
#
# Static dielectric constant tensor:
#      x y z
#    x -0.038030 0.000000 0.000000 
#    y 0.000000 1.672850 0.000000 
#    z 0.000000 0.000000 1.651930 
# 
# From -- ./inp_files/4405.got.cif
#   From: 2010.05.17/outbox.ucp.g08.bks.cvg/sg49_3_cif.got.tgz:4405.got - 2010.06.11 16:40:14.
