data_PCOD9395456
_publ_section_title
;
Structure prediction by ZEFSAII (Michael W. Deem and Ramdas Pophale) SiO2 
 PCOD9395456
Probable space group: P B A N
;
_chemical_formula_sum "Si O2"
_cell_formula_units_Z 56
_cell_length_a 20.286393
_cell_length_b 9.020425
_cell_length_c 13.864255
_cell_angle_alpha 90.000000
_cell_angle_beta 90.000000
_cell_angle_gamma 90.000000
_cell_volume 2537.046178
_symmetry_space_group_name_H-M "P B A N"
_symmetry_group_IT_number 50
_space_group.IT_coordinate_system_code '2'
_symmetry_cell_setting 'orthorhombic'
loop_
_space_group_symop_operation_xyz
x,y,z
1/2-x,1/2-y,z
x,1/2-y,-z
1/2-x,y,-z
-x,-y,-z
1/2+x,1/2+y,-z
-x,1/2+y,z
1/2+x,-y,z
loop_
_atom_site_type_symbol
_atom_site_label
_atom_site_fract_x
_atom_site_fract_y
_atom_site_fract_z
Si Si1 0.933523 0.955436 0.392854
Si Si2 0.708565 0.517467 0.151874
Si Si3 0.066192 0.953831 0.825539
Si Si4 0.527172 0.172652 0.102176
Si Si5 0.678973 0.767114 0.667172
Si Si6 0.141724 0.460986 0.827433
Si Si7 0.961729 0.250000 0.500000
Si Si8 0.161799 0.250000 0.000000
O O1 0.870214 0.851216 0.402889
O O2 0.993211 0.857564 0.434005
O O3 0.941004 0.975223 0.278612
O O4 0.925716 0.120935 0.437759
O O5 0.642822 0.416019 0.152891
O O6 0.697117 0.621471 0.244688
O O7 0.784610 0.468789 0.156594
O O8 0.699334 0.624753 0.061358
O O9 0.019478 0.812600 0.828585
O O10 0.037295 0.070651 0.902370
O O11 0.585059 0.078773 0.152191
O O12 0.543543 0.250000 0.000000
O O13 0.750000 0.750000 0.619584
O O14 0.647121 0.625432 0.724139
O O15 0.129455 0.341032 0.912432
#
# Coordination Sequence:
#
# PCOD9395456 Si02
#       8
#     8   8   8   8   8   8   4   4
#     4  10  21  41  65  97 128 160 210 259 322 394
#     4   9  18  33  58  84 115 158 215 257 305 363
#     4  11  25  41  61  86 127 172 205 259 322 378
#     4  12  27  40  55  90 130 173 215 265 314 365
#     4   8  17  35  62  93 119 160 211 255 306 384
#     4  10  20  35  57  86 115 163 220 262 311 362
#     4  10  22  38  67 104 129 156 202 266 322 392
#     4  10  17  30  56  84 112 152 199 266 305 344
#
# _framework density 22.072914000000001
#
# number of rings (size 3 to 8) (size 9 to 14) (size 15 to 20)
#    0.000    2.000    0.000    4.286    9.000    0.571 
#    0.000    1.071    0.000    0.000   11.143    0.000 
#    0.000    0.000    0.000    0.000    0.000    0.000 
#
# Total GULP energy -312213.456705 kJ/mol
# GULP energy per Si atom -5575.240298 kJ/mol
# Density = 2.202267 g / cm^3
# Si number density = 22.072914 Si / 1000 Ang^3
#
#
#
# Elastic Constant Matrix: (Units=GPa)
#
#
# Indices 1 2 3 4 5 6 
#
# 1 116.3166 48.3935 23.2684 0.0000 0.0000 0.0000
# 2 48.3935 101.7741 26.0533 0.0000 0.0000 0.0000
# 3 23.2684 26.0533 54.4378 0.0000 0.0000 0.0000
# 4 0.0000 0.0000 0.0000 32.4053 0.0000 0.0000
# 5 0.0000 0.0000 0.0000 0.0000 106.7155 0.0000
# 6 0.0000 0.0000 0.0000 0.0000 0.0000 31.8910
#
#
#
# Elastic Compliance Matrix: (Units=1/GPa)
#
#
# Indices 1 2 3 4 5 6 
#
# 1 0.011010 -0.004593 -0.002508 0.000000 0.000000 0.000000
# 2 -0.004593 0.013114 -0.004313 0.000000 0.000000 0.000000
# 3 -0.002508 -0.004313 0.021506 0.000000 0.000000 0.000000
# 4 0.000000 0.000000 0.000000 0.030859 0.000000 0.000000
# 5 0.000000 0.000000 0.000000 0.000000 0.009371 0.000000
# 6 0.000000 0.000000 0.000000 0.000000 0.000000 0.031357
#
#
# Mechanical properties :
#
#
# Convention : Reuss Voigt Hill
#
# Bulk Modulus (GPa) = 43.85637 51.99544 47.92591
# Shear Modulus (GPa) = 33.86524 45.85659 39.86091
#
# Velocity S-wave (km/s) = 3.92119 4.56291 4.25417
# Velocity P-wave (km/s) = 6.35712 7.16712 6.77424
#
# Compressibility (1/GPa) = 0.02280170
#
# Stress axis : x y z
#
# Youngs Moduli (GPa) = 90.82742 76.25552 46.49961
#
# Poissons Ratio (x) = 0.35026 0.11661
# Poissons Ratio (y) = 0.41719 0.20055
# Poissons Ratio (z) = 0.22777 0.32888
#
# Static dielectric constant tensor:
#      x y z
#    x 1.981870 0.000000 0.000000 
#    y 0.000000 1.847190 0.000000 
#    z 0.000000 0.000000 1.815330 
# 
# From -- ./inp_files/27273.got.cif
#   From: 2010.05.17/outbox.cif.g08.bks.cpg/sg50_14_cif.got.tgz:27273.got - 2010.06.03 11:33:33.
