data_PCOD9395925
_publ_section_title
;
Structure prediction by ZEFSAII (Michael W. Deem and Ramdas Pophale) SiO2 
 PCOD9395925
Probable space group: P B A N
;
_chemical_formula_sum "Si O2"
_cell_formula_units_Z 56
_cell_length_a 9.016043
_cell_length_b 22.210628
_cell_length_c 13.730052
_cell_angle_alpha 90.000000
_cell_angle_beta 90.000000
_cell_angle_gamma 90.000000
_cell_volume 2749.470059
_symmetry_space_group_name_H-M "P B A N"
_symmetry_group_IT_number 50
_space_group.IT_coordinate_system_code '2'
_symmetry_cell_setting 'orthorhombic'
loop_
_space_group_symop_operation_xyz
x,y,z
1/2-x,1/2-y,z
x,1/2-y,-z
1/2-x,y,-z
-x,-y,-z
1/2+x,1/2+y,-z
-x,1/2+y,z
1/2+x,-y,z
loop_
_atom_site_type_symbol
_atom_site_label
_atom_site_fract_x
_atom_site_fract_y
_atom_site_fract_z
Si Si1 0.644044 0.150537 0.594130
Si Si2 0.250000 0.391405 0.000000
Si Si3 0.750000 0.136867 0.000000
Si Si4 0.920121 0.243307 0.735237
Si Si5 0.074108 0.435088 0.486372
Si Si6 0.508852 0.048863 0.090042
Si Si7 0.018812 0.200217 0.082421
Si Si8 0.581948 0.397837 0.709582
O O1 0.750000 0.161135 0.500000
O O2 0.589353 0.213979 0.639663
O O3 0.505326 0.111043 0.560420
O O4 0.748421 0.111743 0.669109
O O5 0.341245 0.427718 0.919410
O O6 0.132101 0.352022 0.942002
O O7 0.632308 0.095726 0.054079
O O8 0.851847 0.176109 0.069725
O O9 0.750000 0.250000 0.770390
O O10 0.954462 0.172289 0.734216
O O11 0.031497 0.273005 0.811294
O O12 0.250000 0.437509 0.500000
O O13 0.000000 0.500000 0.500000
O O14 0.024030 0.414596 0.379418
O O15 0.553726 0.052334 0.205114
O O16 0.500000 0.000000 0.000000
O O17 0.041962 0.250000 0.000000
#
# Coordination Sequence:
#
# PCOD9395925 Si02
#       8
#     8   4   4   8   8   8   8   8
#     4   9  20  40  68 102 135 169 217 276 337 403
#     4  10  24  40  56  88 130 174 216 278 336 382
#     4  10  20  36  60  86 122 168 222 262 316 392
#     4  10  19  35  65 103 130 171 220 267 331 404
#     4  11  24  47  68  95 129 174 223 280 331 395
#     4  11  23  44  61  90 131 175 225 277 330 393
#     4  11  20  35  60  87 128 173 214 268 332 397
#     4  10  22  41  67  95 135 173 221 273 335 399
#
# _framework density 20.367560999999998
#
# number of rings (size 3 to 8) (size 9 to 14) (size 15 to 20)
#    0.000    1.714    0.000    6.429    0.000    7.714 
#   15.429    2.857    0.000    0.000    0.000    0.000 
#    0.000    0.000    0.000    0.000    0.000    0.000 
#
# Total GULP energy -311827.095859 kJ/mol
# GULP energy per Si atom -5568.340997 kJ/mol
# Density = 2.032120 g / cm^3
# Si number density = 20.367561 Si / 1000 Ang^3
#
#
#
# Elastic Constant Matrix: (Units=GPa)
#
#
# Indices 1 2 3 4 5 6 
#
# 1 98.2571 32.1987 33.7238 0.0000 0.0000 0.0000
# 2 32.1987 77.1888 41.5733 0.0000 0.0000 0.0000
# 3 33.7238 41.5733 107.7156 0.0000 0.0000 0.0000
# 4 0.0000 0.0000 0.0000 38.6595 0.0000 0.0000
# 5 0.0000 0.0000 0.0000 0.0000 9.7502 0.0000
# 6 0.0000 0.0000 0.0000 0.0000 0.0000 10.8901
#
#
#
# Elastic Compliance Matrix: (Units=1/GPa)
#
#
# Indices 1 2 3 4 5 6 
#
# 1 0.012243 -0.003841 -0.002351 0.000000 0.000000 0.000000
# 2 -0.003841 0.017560 -0.005575 0.000000 0.000000 0.000000
# 3 -0.002351 -0.005575 0.012171 0.000000 0.000000 0.000000
# 4 0.000000 0.000000 0.000000 0.025867 0.000000 0.000000
# 5 0.000000 0.000000 0.000000 0.000000 0.102562 0.000000
# 6 0.000000 0.000000 0.000000 0.000000 0.000000 0.091826
#
#
# Mechanical properties :
#
#
# Convention : Reuss Voigt Hill
#
# Bulk Modulus (GPa) = 54.22596 55.35035 54.78815
# Shear Modulus (GPa) = 17.12865 23.57102 20.34983
#
# Velocity S-wave (km/s) = 2.90311 3.40558 3.16433
# Velocity P-wave (km/s) = 6.15783 6.53442 6.34892
#
# Compressibility (1/GPa) = 0.01844135
#
# Stress axis : x y z
#
# Youngs Moduli (GPa) = 81.68044 56.94741 82.16082
#
# Poissons Ratio (x) = 0.21874 0.19312
# Poissons Ratio (y) = 0.31373 0.45803
# Poissons Ratio (z) = 0.19199 0.31747
#
# Static dielectric constant tensor:
#      x y z
#    x 4.314120 0.000000 0.000000 
#    y 0.000000 1.781030 0.000000 
#    z 0.000000 0.000000 1.705460 
# 
# From -- ./inp_files/25283.got.cif
#   From: 2010.05.17/outbox.cif.g08.bks.cpg/sg50_13_cif.got.tgz:25283.got - 2010.06.03 11:33:33.
