data_PCOD9395935
_publ_section_title
;
Structure prediction by ZEFSAII (Michael W. Deem and Ramdas Pophale) SiO2 
 PCOD9395935
Probable space group: P B A N
;
_chemical_formula_sum "Si O2"
_cell_formula_units_Z 64
_cell_length_a 15.005653
_cell_length_b 17.682281
_cell_length_c 11.672745
_cell_angle_alpha 90.000000
_cell_angle_beta 90.000000
_cell_angle_gamma 90.000000
_cell_volume 3097.178140
_symmetry_space_group_name_H-M "P B A N"
_symmetry_group_IT_number 50
_space_group.IT_coordinate_system_code '2'
_symmetry_cell_setting 'orthorhombic'
loop_
_space_group_symop_operation_xyz
x,y,z
1/2-x,1/2-y,z
x,1/2-y,-z
1/2-x,y,-z
-x,-y,-z
1/2+x,1/2+y,-z
-x,1/2+y,z
1/2+x,-y,z
loop_
_atom_site_type_symbol
_atom_site_label
_atom_site_fract_x
_atom_site_fract_y
_atom_site_fract_z
Si Si1 0.159829 0.617473 0.865746
Si Si2 0.156267 0.105277 0.473969
Si Si3 0.597996 0.465410 0.646573
Si Si4 0.528825 0.240978 0.868514
Si Si5 0.652210 0.141161 0.541120
Si Si6 0.362336 0.910427 0.123806
Si Si7 0.896763 0.995384 0.327167
Si Si8 0.481056 0.215691 0.624460
O O1 0.122081 0.561933 0.770919
O O2 0.109380 0.697894 0.864915
O O3 0.265380 0.624361 0.845999
O O4 0.142546 0.579499 0.988202
O O5 0.250000 0.144323 0.500000
O O6 0.088694 0.147258 0.389171
O O7 0.166551 0.024677 0.408495
O O8 0.124528 0.080117 0.601553
O O9 0.599284 0.389739 0.569532
O O10 0.501231 0.502954 0.645200
O O11 0.564586 0.154959 0.855806
O O12 0.472980 0.253250 0.750283
O O13 0.491494 0.250000 0.000000
O O14 0.750000 0.165132 0.500000
O O15 0.656122 0.066270 0.618944
O O16 0.586739 0.196853 0.608441
O O17 0.381098 0.987387 0.193702
O O18 0.458914 0.250000 0.500000
#
# Coordination Sequence:
#
# PCOD9395935 Si02
#       8
#     8   8   8   8   8   8   8   8
#     4  10  21  33  55  83 115 157 198 245 285 357
#     4  11  22  39  62  83 115 160 197 249 307 351
#     4  11  19  34  56  83 117 153 195 242 300 349
#     4  10  21  38  59  84 122 165 194 236 304 366
#     4  11  20  35  56  84 116 153 186 237 300 362
#     4  10  19  36  54  81 119 156 200 236 290 365
#     4  11  19  35  57  81 118 157 193 243 300 362
#     4  12  24  40  60  91 121 152 200 259 297 367
#
# _framework density 20.663972000000001
#
# number of rings (size 3 to 8) (size 9 to 14) (size 15 to 20)
#    0.000    1.250    3.750    4.875    0.000    2.500 
#    2.250    0.000    0.000    0.000    0.000    0.875 
#    0.000    0.000    0.000    0.000    0.000    0.000 
#
# Total GULP energy -356398.490791 kJ/mol
# GULP energy per Si atom -5568.726419 kJ/mol
# Density = 2.061694 g / cm^3
# Si number density = 20.663972 Si / 1000 Ang^3
#
#
#
# Elastic Constant Matrix: (Units=GPa)
#
#
# Indices 1 2 3 4 5 6 
#
# 1 55.9165 8.3276 28.3857 0.0000 0.0000 0.0000
# 2 8.3276 20.4761 34.8007 0.0000 0.0000 0.0000
# 3 28.3857 34.8007 149.0015 0.0000 0.0000 0.0000
# 4 0.0000 0.0000 0.0000 28.5846 0.0000 0.0000
# 5 0.0000 0.0000 0.0000 0.0000 19.0603 0.0000
# 6 0.0000 0.0000 0.0000 0.0000 0.0000 9.4990
#
#
#
# Elastic Compliance Matrix: (Units=1/GPa)
#
#
# Indices 1 2 3 4 5 6 
#
# 1 0.019890 -0.002735 -0.003150 0.000000 0.000000 0.000000
# 2 -0.002735 0.081360 -0.018481 0.000000 0.000000 0.000000
# 3 -0.003150 -0.018481 0.011628 0.000000 0.000000 0.000000
# 4 0.000000 0.000000 0.000000 0.034984 0.000000 0.000000
# 5 0.000000 0.000000 0.000000 0.000000 0.052465 0.000000
# 6 0.000000 0.000000 0.000000 0.000000 0.000000 0.105274
#
#
# Mechanical properties :
#
#
# Convention : Reuss Voigt Hill
#
# Bulk Modulus (GPa) = 15.58965 40.93579 28.26272
# Shear Modulus (GPa) = 13.30787 21.68745 17.49766
#
# Velocity S-wave (km/s) = 2.54049 3.24316 2.91309
# Velocity P-wave (km/s) = 4.02072 5.82042 5.00218
#
# Compressibility (1/GPa) = 0.06414511
#
# Stress axis : x y z
#
# Youngs Moduli (GPa) = 50.27538 12.29100 85.99900
#
# Poissons Ratio (x) = 0.03362 0.27094
# Poissons Ratio (y) = 0.13750 1.58939
# Poissons Ratio (z) = 0.15839 0.22716
#
# Static dielectric constant tensor:
#      x y z
#    x 1.777120 0.000000 0.000000 
#    y 0.000000 2.304380 0.000000 
#    z 0.000000 0.000000 1.817160 
# 
# From -- ./inp_files/21360.got.cif
#   From: 2010.05.17/outbox.cif.g08.bks.cpg/sg50_11_cif.got.tgz:21360.got - 2010.06.03 11:33:33.
