data_PCOD9395175
_publ_section_title
;
Structure prediction by ZEFSAII (Michael W. Deem and Ramdas Pophale) SiO2 
 PCOD9395175
Probable space group: P C C M
;
_chemical_formula_sum "Si O2"
_cell_formula_units_Z 32
_cell_length_a 13.105347
_cell_length_b 5.071389
_cell_length_c 21.606028
_cell_angle_alpha 90.000000
_cell_angle_beta 90.000000
_cell_angle_gamma 90.000000
_cell_volume 1435.986587
_symmetry_space_group_name_H-M "P C C M"
_symmetry_group_IT_number 49
_symmetry_cell_setting 'orthorhombic'
loop_
_space_group_symop_operation_xyz
x,y,z
-x,-y,z
x,-y,1/2-z
-x,y,1/2-z
-x,-y,-z
x,y,-z
-x,y,1/2+z
x,-y,1/2+z
loop_
_atom_site_type_symbol
_atom_site_label
_atom_site_fract_x
_atom_site_fract_y
_atom_site_fract_z
Si Si1 0.890573 0.139230 0.628610
Si Si2 0.437812 0.738988 0.137543
Si Si3 0.622886 0.309653 0.000000
Si Si4 0.770356 0.818709 0.000000
Si Si5 0.791553 0.355168 0.184775
O O1 0.837032 0.152104 0.561711
O O2 0.870256 0.438038 0.652109
O O3 0.837890 0.937086 0.677229
O O4 0.000000 0.000000 0.620787
O O5 0.500000 0.500000 0.165808
O O6 0.439944 0.717995 0.062926
O O7 0.319877 0.691082 0.154642
O O8 0.500000 0.000000 0.155547
O O9 0.698024 0.561799 0.000000
O O10 0.695599 0.061403 0.000000
O O11 0.775545 0.500000 0.250000
#
# Coordination Sequence:
#
# PCOD9395175 Si02
#       5
#     8   8   4   4   8
#     4  12  25  45  73 103 139 184 231 289 356 420
#     4  12  24  43  70 102 135 180 228 283 352 411
#     4  12  22  41  71  99 144 177 221 289 354 414
#     4  12  21  43  70 103 142 179 222 289 361 416
#     4  12  27  48  69  99 141 186 237 292 342 414
#
# _framework density 22.284329
#
# number of rings (size 3 to 8) (size 9 to 14) (size 15 to 20)
#    0.000    0.000    5.000    5.625    0.000    3.500 
#    0.000    5.000    0.000    0.000    0.000    0.000 
#    0.000    0.000    0.000    0.000    0.000    0.000 
#
# Total GULP energy -178631.519248 kJ/mol
# GULP energy per Si atom -5582.234976 kJ/mol
# Density = 2.223361 g / cm^3
# Si number density = 22.284329 Si / 1000 Ang^3
#
#
#
# Elastic Constant Matrix: (Units=GPa)
#
#
# Indices 1 2 3 4 5 6 
#
# 1 81.3711 56.1074 -21.2272 0.0000 0.0000 0.0000
# 2 56.1074 188.3548 15.9004 0.0000 0.0000 0.0000
# 3 -21.2272 15.9004 82.4815 0.0000 0.0000 0.0000
# 4 0.0000 0.0000 0.0000 -263.1773 0.0000 0.0000
# 5 0.0000 0.0000 0.0000 0.0000 -14.0232 0.0000
# 6 0.0000 0.0000 0.0000 0.0000 0.0000 43.8360
#
#
#
# Elastic Compliance Matrix: (Units=1/GPa)
#
#
# Indices 1 2 3 4 5 6 
#
# 1 0.017746 -0.005766 0.005679 0.000000 0.000000 0.000000
# 2 -0.005766 0.007270 -0.002885 0.000000 0.000000 0.000000
# 3 0.005679 -0.002885 0.014142 0.000000 0.000000 0.000000
# 4 0.000000 0.000000 0.000000 -0.003800 0.000000 0.000000
# 5 0.000000 0.000000 0.000000 0.000000 -0.071310 0.000000
# 6 0.000000 0.000000 0.000000 0.000000 0.000000 0.022812
#
#
# Mechanical properties :
#
#
# Convention : Reuss Voigt Hill
#
# Bulk Modulus (GPa) = 30.10842 50.41873 40.26358
# Shear Modulus (GPa) = 1289.93286 -26.57779 631.67754
#
# Velocity S-wave (km/s) = 24.08544 -3.45725 16.85461
# Velocity P-wave (km/s) = 28.05385 2.59568 19.92180
#
# Compressibility (1/GPa) = 0.03321330
#
# Stress axis : x y z
#
# Youngs Moduli (GPa) = 56.34969 137.54794 70.71337
#
# Poissons Ratio (x) = 0.79306 -0.40155
# Poissons Ratio (y) = 0.32489 0.20403
# Poissons Ratio (z) = -0.31999 0.39687
#
# Static dielectric constant tensor:
#      x y z
#    x 1.576820 0.000000 0.000000 
#    y 0.000000 1.742700 0.000000 
#    z 0.000000 0.000000 1.935210 
# 
# From -- ./inp_files/20198.got.cif
#   From: 2010.05.17/outbox.cif.g08.bks.cpg/sg49_11_cif.got.tgz:20198.got - 2010.06.03 21:02:19.
