data_PCOD9395640
_publ_section_title
;
Structure prediction by ZEFSAII (Michael W. Deem and Ramdas Pophale) SiO2 
 PCOD9395640
Probable space group: P B A N
;
_chemical_formula_sum "Si O2"
_cell_formula_units_Z 54
_cell_length_a 25.302378
_cell_length_b 15.992890
_cell_length_c 5.756470
_cell_angle_alpha 90.000000
_cell_angle_beta 90.000000
_cell_angle_gamma 90.000000
_cell_volume 2329.402490
_symmetry_space_group_name_H-M "P B A N"
_symmetry_group_IT_number 50
_space_group.IT_coordinate_system_code '2'
_symmetry_cell_setting 'orthorhombic'
loop_
_space_group_symop_operation_xyz
x,y,z
1/2-x,1/2-y,z
x,1/2-y,-z
1/2-x,y,-z
-x,-y,-z
1/2+x,1/2+y,-z
-x,1/2+y,z
1/2+x,-y,z
loop_
_atom_site_type_symbol
_atom_site_label
_atom_site_fract_x
_atom_site_fract_y
_atom_site_fract_z
Si Si1 0.762458 0.055804 0.758492
Si Si2 0.082563 0.750000 0.000000
Si Si3 0.999747 0.171946 0.636252
Si Si4 0.250000 0.250000 0.000000
Si Si5 0.813183 0.607501 0.753143
Si Si6 0.080054 0.594316 0.273622
Si Si7 0.865754 0.529032 0.372112
Si Si8 0.425858 0.432612 0.974597
O O1 0.750000 0.092516 0.500000
O O2 0.823183 0.025304 0.769422
O O3 0.726216 0.971836 0.766350
O O4 0.750000 0.102966 0.000000
O O5 0.107440 0.827075 0.855327
O O6 0.045773 0.708014 0.804969
O O7 0.025880 0.250000 0.500000
O O8 0.037837 0.123582 0.812114
O O9 0.968116 0.121691 0.438133
O O10 0.215091 0.189508 0.840429
O O11 0.833784 0.604620 0.489154
O O12 0.865912 0.592171 0.902931
O O13 0.117336 0.537215 0.431424
O O14 0.060653 0.528648 0.082431
O O15 0.918025 0.565506 0.251154
#
# Coordination Sequence:
#
# PCOD9395640 Si02
#       8
#     8   4   8   2   8   8   8   8
#     4  10  18  37  60  86 129 170 212 279 330 393
#     4  10  22  41  60  86 132 168 206 279 356 416
#     4  10  23  41  61  91 129 176 225 280 341 402
#     4  12  20  42  66  88 134 194 226 278 330 380
#     4  10  22  37  59  90 130 175 229 273 326 392
#     4  10  22  39  64  93 125 171 220 282 340 413
#     4  10  21  36  61  94 126 169 226 283 333 408
#     4  11  21  40  64  91 129 175 231 279 330 403
#
# _framework density 23.181909000000001
#
# number of rings (size 3 to 8) (size 9 to 14) (size 15 to 20)
#    0.000    1.778    2.222    1.333    0.000    7.704 
#    0.000   15.185    0.000    0.000    0.000    0.000 
#    0.000  716.444    0.000    0.000    0.000    0.074 
#
# Total GULP energy -301283.415819 kJ/mol
# GULP energy per Si atom -5579.322515 kJ/mol
# Density = 2.312915 g / cm^3
# Si number density = 23.181909 Si / 1000 Ang^3
#
#
#
# Elastic Constant Matrix: (Units=GPa)
#
#
# Indices 1 2 3 4 5 6 
#
# 1 63.8770 35.1542 26.9173 0.0000 0.0000 0.0000
# 2 35.1542 102.9152 42.4671 0.0000 0.0000 0.0000
# 3 26.9173 42.4671 136.6179 0.0000 0.0000 0.0000
# 4 0.0000 0.0000 0.0000 38.9033 0.0000 0.0000
# 5 0.0000 0.0000 0.0000 0.0000 33.9166 0.0000
# 6 0.0000 0.0000 0.0000 0.0000 0.0000 12.1361
#
#
#
# Elastic Compliance Matrix: (Units=1/GPa)
#
#
# Indices 1 2 3 4 5 6 
#
# 1 0.019772 -0.005904 -0.002061 0.000000 0.000000 0.000000
# 2 -0.005904 0.012909 -0.002850 0.000000 0.000000 0.000000
# 3 -0.002061 -0.002850 0.008611 0.000000 0.000000 0.000000
# 4 0.000000 0.000000 0.000000 0.025705 0.000000 0.000000
# 5 0.000000 0.000000 0.000000 0.000000 0.029484 0.000000
# 6 0.000000 0.000000 0.000000 0.000000 0.000000 0.082399
#
#
# Mechanical properties :
#
#
# Convention : Reuss Voigt Hill
#
# Bulk Modulus (GPa) = 50.85067 56.94305 53.89686
# Shear Modulus (GPa) = 24.14717 30.24929 27.19823
#
# Velocity S-wave (km/s) = 3.23094 3.61621 3.42899
# Velocity P-wave (km/s) = 5.99181 6.48482 6.24318
#
# Compressibility (1/GPa) = 0.01966542
#
# Stress axis : x y z
#
# Youngs Moduli (GPa) = 50.57548 77.46406 116.12446
#
# Poissons Ratio (x) = 0.45732 0.23928
# Poissons Ratio (y) = 0.29858 0.33091
# Poissons Ratio (z) = 0.10421 0.22074
#
# Static dielectric constant tensor:
#      x y z
#    x 1.906260 0.000000 0.000000 
#    y 0.000000 1.853470 0.000000 
#    z 0.000000 0.000000 2.196510 
# 
# From -- ./inp_files/7234.got.cif
#   From: 2010.05.17/outbox.cif.g08.bks.cpg/sg50_4_cif.got.tgz:7234.got - 2010.06.03 11:33:33.
