data_PCOD9395135
_publ_section_title
;
Structure prediction by ZEFSAII (Michael W. Deem and Ramdas Pophale) SiO2 
 PCOD9395135
Probable space group: P C C M
;
_chemical_formula_sum "Si O2"
_cell_formula_units_Z 64
_cell_length_a 23.907413
_cell_length_b 8.825655
_cell_length_c 14.349725
_cell_angle_alpha 90.000000
_cell_angle_beta 90.000000
_cell_angle_gamma 90.000000
_cell_volume 3027.771585
_symmetry_space_group_name_H-M "P C C M"
_symmetry_group_IT_number 49
_symmetry_cell_setting 'orthorhombic'
loop_
_space_group_symop_operation_xyz
x,y,z
-x,-y,z
x,-y,1/2-z
-x,y,1/2-z
-x,-y,-z
x,y,-z
-x,y,1/2+z
x,-y,1/2+z
loop_
_atom_site_type_symbol
_atom_site_label
_atom_site_fract_x
_atom_site_fract_y
_atom_site_fract_z
Si Si1 0.436093 0.180587 0.251629
Si Si2 0.928688 0.121830 0.605726
Si Si3 0.222498 0.604176 0.606306
Si Si4 0.644013 0.307725 0.889360
Si Si5 0.349212 0.338001 0.888537
Si Si6 0.856096 0.255260 0.757625
Si Si7 0.952466 0.238732 0.106496
Si Si8 0.237623 0.761012 0.106222
O O1 0.500000 0.236461 0.250000
O O2 0.409949 0.231660 0.348771
O O3 0.393578 0.245036 0.172775
O O4 0.436491 0.000000 0.250000
O O5 0.912273 0.159679 0.500000
O O6 0.883784 0.144324 0.684210
O O7 0.981462 0.232383 0.629457
O O8 0.942003 0.943200 0.605948
O O9 0.205927 0.646873 0.500000
O O10 0.282357 0.684573 0.627028
O O11 0.178485 0.637017 0.687406
O O12 0.231690 0.422773 0.603864
O O13 0.643453 0.484438 0.863660
O O14 0.699684 0.219785 0.856257
O O15 0.647435 0.302847 0.000000
O O16 0.358737 0.318365 0.000000
O O17 0.907540 0.311465 0.823487
O O18 0.811167 0.183525 0.827726
O O19 0.944724 0.294264 0.000000
O O20 0.231804 0.816986 0.000000
#
# Coordination Sequence:
#
# PCOD9395135 Si02
#       8
#     8   8   8   8   8   8   8   8
#     4  11  24  38  54  83 123 160 188 223 282 349
#     4   9  19  35  51  68  95 132 173 216 260 309
#     4   9  19  35  54  78 106 134 169 218 273 323
#     4   9  19  39  65  86 107 145 198 246 280 319
#     4   9  19  39  65  86 107 145 198 246 280 319
#     4  12  18  26  51  81 101 125 162 205 258 317
#     4   9  19  35  51  68  95 132 173 216 260 309
#     4   9  19  35  54  78 106 134 169 218 273 323
#
# _framework density 21.137657000000001
#
# number of rings (size 3 to 8) (size 9 to 14) (size 15 to 20)
#    0.000    2.375    0.000    5.250    0.000    5.000 
#    0.000    7.500    0.000    9.000    0.000   14.000 
#    0.000    0.000    0.000    0.000    0.000    0.000 
#
# Total GULP energy -356958.264136 kJ/mol
# GULP energy per Si atom -5577.472877 kJ/mol
# Density = 2.108955 g / cm^3
# Si number density = 21.137657 Si / 1000 Ang^3
#
#
#
# Elastic Constant Matrix: (Units=GPa)
#
#
# Indices 1 2 3 4 5 6 
#
# 1 137.4169 31.6066 70.5607 0.0000 0.0000 0.0000
# 2 31.6066 11.5138 17.1049 0.0000 0.0000 0.0000
# 3 70.5607 17.1049 106.1113 0.0000 0.0000 0.0000
# 4 0.0000 0.0000 0.0000 21.3291 0.0000 0.0000
# 5 0.0000 0.0000 0.0000 0.0000 15.0675 0.0000
# 6 0.0000 0.0000 0.0000 0.0000 0.0000 25.3182
#
#
#
# Elastic Compliance Matrix: (Units=1/GPa)
#
#
# Indices 1 2 3 4 5 6 
#
# 1 0.022858 -0.052814 -0.006686 0.000000 0.000000 0.000000
# 2 -0.052814 0.236229 -0.002960 0.000000 0.000000 0.000000
# 3 -0.006686 -0.002960 0.014347 0.000000 0.000000 0.000000
# 4 0.000000 0.000000 0.000000 0.046884 0.000000 0.000000
# 5 0.000000 0.000000 0.000000 0.000000 0.066368 0.000000
# 6 0.000000 0.000000 0.000000 0.000000 0.000000 0.039497
#
#
# Mechanical properties :
#
#
# Convention : Reuss Voigt Hill
#
# Bulk Modulus (GPa) = 6.73339 54.84294 30.78817
# Shear Modulus (GPa) = 8.32489 21.39428 14.85958
#
# Velocity S-wave (km/s) = 1.98670 3.18487 2.65427
# Velocity P-wave (km/s) = 2.90775 6.28701 4.89803
#
# Compressibility (1/GPa) = 0.14851352
#
# Stress axis : x y z
#
# Youngs Moduli (GPa) = 43.74866 4.23319 69.69926
#
# Poissons Ratio (x) = 0.22357 0.46603
# Poissons Ratio (y) = 2.31054 0.20631
# Poissons Ratio (z) = 0.29251 0.01253
#
# Static dielectric constant tensor:
#      x y z
#    x 1.799780 0.000000 0.000000 
#    y 0.000000 1.763690 0.000000 
#    z 0.000000 0.000000 1.770500 
# 
# From -- ./inp_files/14535.got.cif
#   From: 2010.05.17/outbox.cif.g08.bks.cpg/sg49_8_cif.got.tgz:14535.got - 2010.06.03 21:02:19.
