data_PCOD9395941
_publ_section_title
;
Structure prediction by ZEFSAII (Michael W. Deem and Ramdas Pophale) SiO2 
 PCOD9395941
Probable space group: P B A N
;
_chemical_formula_sum "Si O2"
_cell_formula_units_Z 48
_cell_length_a 12.462716
_cell_length_b 17.710316
_cell_length_c 8.937295
_cell_angle_alpha 90.000000
_cell_angle_beta 90.000000
_cell_angle_gamma 90.000000
_cell_volume 1972.627585
_symmetry_space_group_name_H-M "P B A N"
_symmetry_group_IT_number 50
_space_group.IT_coordinate_system_code '2'
_symmetry_cell_setting 'orthorhombic'
loop_
_space_group_symop_operation_xyz
x,y,z
1/2-x,1/2-y,z
x,1/2-y,-z
1/2-x,y,-z
-x,-y,-z
1/2+x,1/2+y,-z
-x,1/2+y,z
1/2+x,-y,z
loop_
_atom_site_type_symbol
_atom_site_label
_atom_site_fract_x
_atom_site_fract_y
_atom_site_fract_z
Si Si1 0.824479 0.160981 0.864164
Si Si2 0.930436 0.871003 0.651116
Si Si3 0.428597 0.992764 0.850948
Si Si4 0.932642 0.778404 0.165500
Si Si5 0.614875 0.573809 0.323860
Si Si6 0.181004 0.910359 0.645393
O O1 0.938781 0.201722 0.843570
O O2 0.744442 0.156807 0.725835
O O3 0.848092 0.072516 0.891455
O O4 0.750000 0.182224 0.000000
O O5 0.914187 0.786264 0.710275
O O6 0.058220 0.884540 0.629844
O O7 0.895826 0.926645 0.786295
O O8 0.877831 0.896981 0.494617
O O9 0.493794 0.954632 0.712268
O O10 0.500000 0.000000 0.000000
O O11 0.871606 0.854434 0.215883
O O12 0.902731 0.750000 0.000000
O O13 0.676375 0.496100 0.288989
O O14 0.250000 0.923170 0.500000
#
# Coordination Sequence:
#
# PCOD9395941 Si02
#       6
#     8   8   8   8   8   8
#     4  11  22  36  57  88 122 152 188 238 296 348
#     4  11  21  37  60  84 118 159 197 240 287 348
#     4  10  19  36  58  83 114 156 202 236 278 346
#     4  11  23  39  59  87 121 159 198 239 291 356
#     4  10  21  38  57  83 113 155 205 236 280 348
#     4  11  21  36  59  87 118 149 190 245 294 342
#
# _framework density 24.333027000000001
#
# number of rings (size 3 to 8) (size 9 to 14) (size 15 to 20)
#    0.000    1.333    0.000   10.500    0.000    2.333 
#    0.000    0.833    0.000    7.000    0.000   10.500 
#    0.000    0.000    0.000    0.000    0.000    0.000 
#
# Total GULP energy -268141.471550 kJ/mol
# GULP energy per Si atom -5586.280657 kJ/mol
# Density = 2.427764 g / cm^3
# Si number density = 24.333027 Si / 1000 Ang^3
#
#
#
# Elastic Constant Matrix: (Units=GPa)
#
#
# Indices 1 2 3 4 5 6 
#
# 1 50.4231 5.9605 7.3583 0.0000 0.0000 0.0000
# 2 5.9605 134.9089 39.2762 0.0000 0.0000 0.0000
# 3 7.3583 39.2762 101.2309 0.0000 0.0000 0.0000
# 4 0.0000 0.0000 0.0000 41.5249 0.0000 0.0000
# 5 0.0000 0.0000 0.0000 0.0000 18.5127 0.0000
# 6 0.0000 0.0000 0.0000 0.0000 0.0000 30.2323
#
#
#
# Elastic Compliance Matrix: (Units=1/GPa)
#
#
# Indices 1 2 3 4 5 6 
#
# 1 0.020077 -0.000521 -0.001257 0.000000 0.000000 0.000000
# 2 -0.000521 0.008370 -0.003209 0.000000 0.000000 0.000000
# 3 -0.001257 -0.003209 0.011215 0.000000 0.000000 0.000000
# 4 0.000000 0.000000 0.000000 0.024082 0.000000 0.000000
# 5 0.000000 0.000000 0.000000 0.000000 0.054017 0.000000
# 6 0.000000 0.000000 0.000000 0.000000 0.000000 0.033077
#
#
# Mechanical properties :
#
#
# Convention : Reuss Voigt Hill
#
# Bulk Modulus (GPa) = 33.68528 43.52811 38.60669
# Shear Modulus (GPa) = 29.28959 33.65186 31.47072
#
# Velocity S-wave (km/s) = 3.47320 3.72287 3.60020
# Velocity P-wave (km/s) = 5.47336 6.03382 5.76041
#
# Compressibility (1/GPa) = 0.02968656
#
# Stress axis : x y z
#
# Youngs Moduli (GPa) = 49.80768 119.47702 89.16604
#
# Poissons Ratio (x) = 0.06225 0.11210
# Poissons Ratio (y) = 0.02595 0.28618
# Poissons Ratio (z) = 0.06262 0.38346
#
# Static dielectric constant tensor:
#      x y z
#    x 2.065000 0.000000 0.000000 
#    y 0.000000 2.372620 0.000000 
#    z 0.000000 0.000000 2.081660 
# 
# From -- ./inp_files/12974.got.cif
#   From: 2010.05.17/outbox.cif.g08.bks.cpg/sg50_7_cif.got.tgz:12974.got - 2010.06.03 11:33:33.
