data_PCOD9395982
_publ_section_title
;
Structure prediction by ZEFSAII (Michael W. Deem and Ramdas Pophale) SiO2 
 PCOD9395982
Probable space group: P B A N
;
_chemical_formula_sum "Si O2"
_cell_formula_units_Z 58
_cell_length_a 12.256130
_cell_length_b 27.765295
_cell_length_c 9.423957
_cell_angle_alpha 90.000000
_cell_angle_beta 90.000000
_cell_angle_gamma 90.000000
_cell_volume 3206.926060
_symmetry_space_group_name_H-M "P B A N"
_symmetry_group_IT_number 50
_space_group.IT_coordinate_system_code '2'
_symmetry_cell_setting 'orthorhombic'
loop_
_space_group_symop_operation_xyz
x,y,z
1/2-x,1/2-y,z
x,1/2-y,-z
1/2-x,y,-z
-x,-y,-z
1/2+x,1/2+y,-z
-x,1/2+y,z
1/2+x,-y,z
loop_
_atom_site_type_symbol
_atom_site_label
_atom_site_fract_x
_atom_site_fract_y
_atom_site_fract_z
Si Si1 0.525553 0.141349 0.877029
Si Si2 0.750000 0.750000 0.000000
Si Si3 0.883046 0.901451 0.357764
Si Si4 0.367632 0.547001 0.948021
Si Si5 0.012497 0.515057 0.769496
Si Si6 0.932157 0.687669 0.836306
Si Si7 0.860703 0.578977 0.313347
Si Si8 0.125978 0.758362 0.829136
O O1 0.619582 0.102506 0.907090
O O2 0.431589 0.113218 0.790053
O O3 0.578989 0.188110 0.804872
O O4 0.475367 0.158569 0.026189
O O5 0.830309 0.718590 0.898632
O O6 0.903456 0.850071 0.285862
O O7 0.768760 0.919242 0.289076
O O8 0.874472 0.901434 0.527135
O O9 0.977052 0.940142 0.324079
O O10 0.407432 0.515970 0.815480
O O11 0.250000 0.533203 0.000000
O O12 0.443666 0.536717 0.083174
O O13 0.094576 0.475561 0.704435
O O14 0.031170 0.721545 0.783406
O O15 0.250000 0.750000 0.776070
O O16 0.130746 0.750000 0.000000
#
# Coordination Sequence:
#
# PCOD9395982 Si02
#       8
#     8   2   8   8   8   8   8   8
#     4  10  19  37  56  84 114 143 185 242 282 334
#     4  12  20  36  58  90 120 144 192 248 300 336
#     4  11  22  38  59  81 114 157 193 232 292 350
#     4  10  20  31  55  87 112 141 183 234 287 329
#     4  10  20  37  54  81 114 149 187 233 281 345
#     4  11  21  35  60  86 113 150 191 239 289 349
#     4  10  23  38  56  82 116 152 191 237 287 343
#     4   9  19  34  57  85 113 146 188 234 291 341
#
# _framework density 18.085856
#
# number of rings (size 3 to 8) (size 9 to 14) (size 15 to 20)
#    0.000    1.793    3.448    2.069    3.862    0.000 
#    1.241    0.690    0.000    6.621    0.000    0.000 
#    0.000    0.000    0.000    0.000    0.000    0.000 
#
# Total GULP energy -323314.224281 kJ/mol
# GULP energy per Si atom -5574.383177 kJ/mol
# Density = 1.804469 g / cm^3
# Si number density = 18.085856 Si / 1000 Ang^3
#
#
#
# Elastic Constant Matrix: (Units=GPa)
#
#
# Indices 1 2 3 4 5 6 
#
# 1 65.8921 32.7152 -7.5987 0.0000 0.0000 0.0000
# 2 32.7152 119.5674 20.8279 0.0000 0.0000 0.0000
# 3 -7.5987 20.8279 28.0094 0.0000 0.0000 0.0000
# 4 0.0000 0.0000 0.0000 -203.7463 0.0000 0.0000
# 5 0.0000 0.0000 0.0000 0.0000 17.4927 0.0000
# 6 0.0000 0.0000 0.0000 0.0000 0.0000 18.1389
#
#
#
# Elastic Compliance Matrix: (Units=1/GPa)
#
#
# Indices 1 2 3 4 5 6 
#
# 1 0.020125 -0.007419 0.010976 0.000000 0.000000 0.000000
# 2 -0.007419 0.012343 -0.011191 0.000000 0.000000 0.000000
# 3 0.010976 -0.011191 0.047001 0.000000 0.000000 0.000000
# 4 0.000000 0.000000 0.000000 -0.004908 0.000000 0.000000
# 5 0.000000 0.000000 0.000000 0.000000 0.057167 0.000000
# 6 0.000000 0.000000 0.000000 0.000000 0.000000 0.055130
#
#
# Mechanical properties :
#
#
# Convention : Reuss Voigt Hill
#
# Bulk Modulus (GPa) = 15.57540 33.92863 24.75201
# Shear Modulus (GPa) = 22.36883 -22.45462 -0.04290
#
# Velocity S-wave (km/s) = 3.52065 -3.52740 -0.15417
# Velocity P-wave (km/s) = 5.01570 1.48676 3.69917
#
# Compressibility (1/GPa) = 0.06420382
#
# Stress axis : x y z
#
# Youngs Moduli (GPa) = 49.68842 81.01993 21.27592
#
# Poissons Ratio (x) = 0.60105 -0.23353
# Poissons Ratio (y) = 0.36862 0.23809
# Poissons Ratio (z) = -0.54540 0.90666
#
# Static dielectric constant tensor:
#      x y z
#    x 1.652930 0.000000 0.000000 
#    y 0.000000 1.632380 0.000000 
#    z 0.000000 0.000000 1.609270 
# 
# From -- ./inp_files/11768.got.cif
#   From: 2010.05.17/outbox.cif.g08.bks.cpg/sg50_6_cif.got.tgz:11768.got - 2010.06.03 11:33:33.
