data_PCOD9395670
_publ_section_title
;
Structure prediction by ZEFSAII (Michael W. Deem and Ramdas Pophale) SiO2 
 PCOD9395670
Probable space group: P B A N
;
_chemical_formula_sum "Si O2"
_cell_formula_units_Z 56
_cell_length_a 15.274089
_cell_length_b 22.007649
_cell_length_c 10.114625
_cell_angle_alpha 90.000000
_cell_angle_beta 90.000000
_cell_angle_gamma 90.000000
_cell_volume 3399.998721
_symmetry_space_group_name_H-M "P B A N"
_symmetry_group_IT_number 50
_space_group.IT_coordinate_system_code '2'
_symmetry_cell_setting 'orthorhombic'
loop_
_space_group_symop_operation_xyz
x,y,z
1/2-x,1/2-y,z
x,1/2-y,-z
1/2-x,y,-z
-x,-y,-z
1/2+x,1/2+y,-z
-x,1/2+y,z
1/2+x,-y,z
loop_
_atom_site_type_symbol
_atom_site_label
_atom_site_fract_x
_atom_site_fract_y
_atom_site_fract_z
Si Si1 0.589754 0.596563 0.710532
Si Si2 0.689904 0.472436 0.126090
Si Si3 0.518841 0.070632 0.469457
Si Si4 0.902203 0.901885 0.217293
Si Si5 0.486315 0.928108 0.026059
Si Si6 0.750360 0.677584 0.342407
Si Si7 0.692881 0.473756 0.628177
O O1 0.514835 0.604574 0.599502
O O2 0.544813 0.589239 0.850116
O O3 0.659306 0.650045 0.709550
O O4 0.643319 0.534476 0.678403
O O5 0.646339 0.535097 0.178392
O O6 0.614883 0.426707 0.072636
O O7 0.747930 0.450580 0.250476
O O8 0.750000 0.486775 0.000000
O O9 0.457679 0.088347 0.348902
O O10 0.619044 0.072829 0.423280
O O11 0.500000 0.000000 0.500000
O O12 0.828512 0.852862 0.258349
O O13 0.973373 0.892743 0.099700
O O14 0.500000 0.000000 0.000000
O O15 0.750000 0.750000 0.332043
O O16 0.750000 0.661300 0.500000
O O17 0.750000 0.490318 0.500000
#
# Coordination Sequence:
#
# PCOD9395670 Si02
#       7
#     8   8   8   8   8   8   8
#     4  11  19  34  49  70 106 144 173 219 264 306
#     4  11  19  30  48  73 109 143 172 201 256 321
#     4  10  19  29  47  71  98 138 181 210 258 323
#     4  11  20  34  49  70 104 143 175 217 263 307
#     4  10  21  32  47  73 105 144 173 206 260 328
#     4  11  23  38  57  79 101 142 192 232 266 305
#     4  11  18  27  47  73 102 134 179 209 250 320
#
# _framework density 16.470593999999998
#
# number of rings (size 3 to 8) (size 9 to 14) (size 15 to 20)
#    0.000    1.286    2.857    9.000    0.000    0.000 
#    0.000    1.429    0.000    0.000    0.000    0.000 
#    0.000   17.143    0.000    0.000    0.000    0.000 
#
# Total GULP energy -312212.246549 kJ/mol
# GULP energy per Si atom -5575.218688 kJ/mol
# Density = 1.643311 g / cm^3
# Si number density = 16.470594 Si / 1000 Ang^3
#
#
#
# Elastic Constant Matrix: (Units=GPa)
#
#
# Indices 1 2 3 4 5 6 
#
# 1 66.3126 29.0903 22.1900 0.0000 0.0000 0.0000
# 2 29.0903 41.1742 23.8577 0.0000 0.0000 0.0000
# 3 22.1900 23.8577 113.3059 0.0000 0.0000 0.0000
# 4 0.0000 0.0000 0.0000 21.3367 0.0000 0.0000
# 5 0.0000 0.0000 0.0000 0.0000 40.7518 0.0000
# 6 0.0000 0.0000 0.0000 0.0000 0.0000 12.3212
#
#
#
# Elastic Compliance Matrix: (Units=1/GPa)
#
#
# Indices 1 2 3 4 5 6 
#
# 1 0.021991 -0.014854 -0.001179 0.000000 0.000000 0.000000
# 2 -0.014854 0.037695 -0.005028 0.000000 0.000000 0.000000
# 3 -0.001179 -0.005028 0.010115 0.000000 0.000000 0.000000
# 4 0.000000 0.000000 0.000000 0.046868 0.000000 0.000000
# 5 0.000000 0.000000 0.000000 0.000000 0.024539 0.000000
# 6 0.000000 0.000000 0.000000 0.000000 0.000000 0.081161
#
#
# Mechanical properties :
#
#
# Convention : Reuss Voigt Hill
#
# Bulk Modulus (GPa) = 36.12815 41.22984 38.67900
# Shear Modulus (GPa) = 18.26713 24.59227 21.42970
#
# Velocity S-wave (km/s) = 3.33389 3.86826 3.61097
# Velocity P-wave (km/s) = 6.06649 6.71103 6.39689
#
# Compressibility (1/GPa) = 0.02767925
#
# Stress axis : x y z
#
# Youngs Moduli (GPa) = 45.47380 26.52887 98.86011
#
# Poissons Ratio (x) = 0.39405 0.11657
# Poissons Ratio (y) = 0.67545 0.49708
# Poissons Ratio (z) = 0.05362 0.13339
#
# Static dielectric constant tensor:
#      x y z
#    x 1.613880 0.000000 0.000000 
#    y 0.000000 1.462830 0.000000 
#    z 0.000000 0.000000 1.589670 
# 
# From -- ./inp_files/14578.got.cif
#   From: 2010.05.17/outbox.cif.g08.bks.cpg/sg50_8_cif.got.tgz:14578.got - 2010.06.03 11:33:33.
