data_PCOD9395070
_publ_section_title
;
Structure prediction by ZEFSAII (Michael W. Deem and Ramdas Pophale) SiO2 
 PCOD9395070
Probable space group: P C C M
;
_chemical_formula_sum "Si O2"
_cell_formula_units_Z 48
_cell_length_a 31.941550
_cell_length_b 9.257565
_cell_length_c 8.575707
_cell_angle_alpha 90.000000
_cell_angle_beta 90.000000
_cell_angle_gamma 90.000000
_cell_volume 2535.844924
_symmetry_space_group_name_H-M "P C C M"
_symmetry_group_IT_number 49
_symmetry_cell_setting 'orthorhombic'
loop_
_space_group_symop_operation_xyz
x,y,z
-x,-y,z
x,-y,1/2-z
-x,y,1/2-z
-x,-y,-z
x,y,-z
-x,y,1/2+z
x,-y,1/2+z
loop_
_atom_site_type_symbol
_atom_site_label
_atom_site_fract_x
_atom_site_fract_y
_atom_site_fract_z
Si Si1 0.042786 0.335448 0.686540
Si Si2 0.624059 0.838086 0.686716
Si Si3 0.454034 0.338398 0.186953
Si Si4 0.703515 0.662577 0.186702
Si Si5 0.134690 0.663298 0.812011
Si Si6 0.216874 0.162430 0.311952
O O1 0.043293 0.500000 0.750000
O O2 0.040242 0.338852 0.500000
O O3 0.088588 0.277453 0.733788
O O4 0.000000 0.266185 0.750000
O O5 0.623747 0.838412 0.500000
O O6 0.581403 0.767974 0.750556
O O7 0.662726 0.743196 0.747745
O O8 0.628569 0.000000 0.750000
O O9 0.445214 0.500000 0.250000
O O10 0.500000 0.297974 0.250000
O O11 0.454371 0.340834 0.000000
O O12 0.704589 0.500000 0.250000
O O13 0.744470 0.746911 0.245130
O O14 0.702183 0.661791 0.000000
O O15 0.139414 0.500000 0.750000
O O16 0.173388 0.761780 0.762315
O O17 0.135194 0.655698 0.000000
O O18 0.219028 0.162678 0.500000
O O19 0.218829 0.000000 0.250000
#
# Coordination Sequence:
#
# PCOD9395070 Si02
#       6
#     8   8   8   8   8   8
#     4   9  15  25  42  69 101 135 172 219 271 325
#     4  12  25  43  64  91 124 161 200 244 294 349
#     4  11  22  40  64  93 125 163 206 252 299 349
#     4  12  25  43  65  91 119 152 191 237 286 341
#     4   9  19  33  52  77 108 141 181 227 277 332
#     4  11  23  40  59  83 113 149 188 233 284 341
#
# _framework density 18.928602000000001
#
# number of rings (size 3 to 8) (size 9 to 14) (size 15 to 20)
#    0.000    1.333    0.000    8.000    0.000    3.667 
#    0.000    1.667    0.000    0.500    0.000    3.500 
#    0.000    0.000    0.000    0.000    0.000    0.000 
#
# Total GULP energy -268274.934468 kJ/mol
# GULP energy per Si atom -5589.061135 kJ/mol
# Density = 1.888552 g / cm^3
# Si number density = 18.928602 Si / 1000 Ang^3
#
#
#
# Elastic Constant Matrix: (Units=GPa)
#
#
# Indices 1 2 3 4 5 6 
#
# 1 177.7254 110.7069 71.1472 0.0000 0.0000 0.0000
# 2 110.7069 136.2853 55.7172 0.0000 0.0000 0.0000
# 3 71.1472 55.7172 149.2253 0.0000 0.0000 0.0000
# 4 0.0000 0.0000 0.0000 29.1758 0.0000 0.0000
# 5 0.0000 0.0000 0.0000 0.0000 30.0609 0.0000
# 6 0.0000 0.0000 0.0000 0.0000 0.0000 -32.9343
#
#
#
# Elastic Compliance Matrix: (Units=1/GPa)
#
#
# Indices 1 2 3 4 5 6 
#
# 1 0.012122 -0.008832 -0.002482 0.000000 0.000000 0.000000
# 2 -0.008832 0.015095 -0.001425 0.000000 0.000000 0.000000
# 3 -0.002482 -0.001425 0.008417 0.000000 0.000000 0.000000
# 4 0.000000 0.000000 0.000000 0.034275 0.000000 0.000000
# 5 0.000000 0.000000 0.000000 0.000000 0.033266 0.000000
# 6 0.000000 0.000000 0.000000 0.000000 0.000000 -0.030364
#
#
# Mechanical properties :
#
#
# Convention : Reuss Voigt Hill
#
# Bulk Modulus (GPa) = 98.47081 104.26429 101.36755
# Shear Modulus (GPa) = 49.17729 20.30478 34.74103
#
# Velocity S-wave (km/s) = 5.10263 3.27877 4.28877
# Velocity P-wave (km/s) = 9.31938 8.33884 8.84271
#
# Compressibility (1/GPa) = 0.01015529
#
# Stress axis : x y z
#
# Youngs Moduli (GPa) = 82.49644 66.24876 118.81356
#
# Poissons Ratio (x) = 0.58512 0.29486
# Poissons Ratio (y) = 0.72862 0.16931
# Poissons Ratio (z) = 0.20473 0.09441
#
# Static dielectric constant tensor:
#      x y z
#    x 1.677890 0.000000 0.000000 
#    y 0.000000 1.607160 0.000000 
#    z 0.000000 0.000000 1.637470 
# 
# From -- ./inp_files/2017.got.cif
#   From: 2010.05.17/outbox.cif.g08.bks.cpg/sg49_2_cif.got.tgz:2017.got - 2010.06.03 21:02:19.
