data_PCOD9395862
_publ_section_title
;
Structure prediction by ZEFSAII (Michael W. Deem and Ramdas Pophale) SiO2 
 PCOD9395862
Probable space group: P B A N
;
_chemical_formula_sum "Si O2"
_cell_formula_units_Z 48
_cell_length_a 13.528708
_cell_length_b 20.365922
_cell_length_c 9.914467
_cell_angle_alpha 90.000000
_cell_angle_beta 90.000000
_cell_angle_gamma 90.000000
_cell_volume 2731.679672
_symmetry_space_group_name_H-M "P B A N"
_symmetry_group_IT_number 50
_space_group.IT_coordinate_system_code '2'
_symmetry_cell_setting 'orthorhombic'
loop_
_space_group_symop_operation_xyz
x,y,z
1/2-x,1/2-y,z
x,1/2-y,-z
1/2-x,y,-z
-x,-y,-z
1/2+x,1/2+y,-z
-x,1/2+y,z
1/2+x,-y,z
loop_
_atom_site_type_symbol
_atom_site_label
_atom_site_fract_x
_atom_site_fract_y
_atom_site_fract_z
Si Si1 0.630054 0.461921 0.154089
Si Si2 0.867472 0.826903 0.474706
Si Si3 0.560755 0.600525 0.727982
Si Si4 0.639618 0.826602 0.030355
Si Si5 0.551006 0.604614 0.215737
Si Si6 0.858113 0.037679 0.829593
O O1 0.550458 0.413567 0.221489
O O2 0.605012 0.534112 0.211150
O O3 0.743455 0.445245 0.184778
O O4 0.619199 0.465564 0.990951
O O5 0.889710 0.750000 0.500000
O O6 0.750000 0.835811 0.500000
O O7 0.925664 0.875148 0.576455
O O8 0.899125 0.848880 0.325675
O O9 0.618683 0.533303 0.764553
O O10 0.609858 0.657016 0.818730
O O11 0.566526 0.863358 0.929947
O O12 0.637870 0.750000 0.000000
O O13 0.750000 0.851977 0.000000
O O14 0.435579 0.588451 0.234773
#
# Coordination Sequence:
#
# PCOD9395862 Si02
#       6
#     8   8   8   8   8   8
#     4  10  19  34  59  87 113 140 177 232 283 323
#     4  11  24  39  55  79 115 151 181 224 276 325
#     4  11  20  36  55  82 112 145 181 224 276 325
#     4  11  20  31  53  79 103 139 187 228 266 321
#     4  11  20  36  55  82 112 145 181 224 276 325
#     4  10  19  34  59  87 113 140 177 232 283 323
#
# _framework density 17.571605999999999
#
# number of rings (size 3 to 8) (size 9 to 14) (size 15 to 20)
#    0.000    1.333    3.333    5.000    0.000    5.333 
#    0.000    2.500    0.000    6.000    0.000    0.000 
#    0.000    0.000    0.000    0.000    0.000    0.000 
#
# Total GULP energy -268000.968418 kJ/mol
# GULP energy per Si atom -5583.353509 kJ/mol
# Density = 1.753161 g / cm^3
# Si number density = 17.571606 Si / 1000 Ang^3
#
#
#
# Elastic Constant Matrix: (Units=GPa)
#
#
# Indices 1 2 3 4 5 6 
#
# 1 107.3978 21.9028 -0.0218 0.0000 0.0000 0.0000
# 2 21.9028 47.4599 -4.8872 0.0000 0.0000 0.0000
# 3 -0.0218 -4.8872 30.8939 0.0000 0.0000 0.0000
# 4 0.0000 0.0000 0.0000 19.9649 0.0000 0.0000
# 5 0.0000 0.0000 0.0000 0.0000 22.6119 0.0000
# 6 0.0000 0.0000 0.0000 0.0000 0.0000 18.2526
#
#
#
# Elastic Compliance Matrix: (Units=1/GPa)
#
#
# Indices 1 2 3 4 5 6 
#
# 1 0.010296 -0.004830 -0.000757 0.000000 0.000000 0.000000
# 2 -0.004830 0.023685 0.003743 0.000000 0.000000 0.000000
# 3 -0.000757 0.003743 0.032960 0.000000 0.000000 0.000000
# 4 0.000000 0.000000 0.000000 0.050088 0.000000 0.000000
# 5 0.000000 0.000000 0.000000 0.000000 0.044225 0.000000
# 6 0.000000 0.000000 0.000000 0.000000 0.000000 0.054787
#
#
# Mechanical properties :
#
#
# Convention : Reuss Voigt Hill
#
# Bulk Modulus (GPa) = 15.80894 24.41547 20.11221
# Shear Modulus (GPa) = 20.76315 23.41639 22.08977
#
# Velocity S-wave (km/s) = 3.44121 3.65448 3.54945
# Velocity P-wave (km/s) = 4.98053 5.63311 5.31684
#
# Compressibility (1/GPa) = 0.06325534
#
# Stress axis : x y z
#
# Youngs Moduli (GPa) = 97.12548 42.22134 30.33937
#
# Poissons Ratio (x) = 0.20391 0.02296
# Poissons Ratio (y) = 0.46907 -0.11357
# Poissons Ratio (z) = 0.07350 -0.15805
#
# Static dielectric constant tensor:
#      x y z
#    x 1.617130 0.000000 0.000000 
#    y 0.000000 1.584020 0.000000 
#    z 0.000000 0.000000 1.579880 
# 
# From -- ./inp_files/13159.got.cif
#   From: 2010.05.17/outbox.cif.g08.bks.cpg/sg50_7_cif.got.tgz:13159.got - 2010.06.03 11:33:33.
