data_PCOD9395623
_publ_section_title
;
Structure prediction by ZEFSAII (Michael W. Deem and Ramdas Pophale) SiO2 
 PCOD9395623
Probable space group: P B A N
;
_chemical_formula_sum "Si O2"
_cell_formula_units_Z 64
_cell_length_a 15.303091
_cell_length_b 25.351573
_cell_length_c 7.899839
_cell_angle_alpha 90.000000
_cell_angle_beta 90.000000
_cell_angle_gamma 90.000000
_cell_volume 3064.801225
_symmetry_space_group_name_H-M "P B A N"
_symmetry_group_IT_number 50
_space_group.IT_coordinate_system_code '2'
_symmetry_cell_setting 'orthorhombic'
loop_
_space_group_symop_operation_xyz
x,y,z
1/2-x,1/2-y,z
x,1/2-y,-z
1/2-x,y,-z
-x,-y,-z
1/2+x,1/2+y,-z
-x,1/2+y,z
1/2+x,-y,z
loop_
_atom_site_type_symbol
_atom_site_label
_atom_site_fract_x
_atom_site_fract_y
_atom_site_fract_z
Si Si1 0.351164 0.125263 0.548087
Si Si2 0.347359 0.122967 0.951327
Si Si3 0.012054 0.689204 0.949076
Si Si4 0.648086 0.396471 0.544065
Si Si5 0.985144 0.190164 0.550233
Si Si6 0.101359 0.493012 0.950898
Si Si7 0.146514 0.010790 0.452388
Si Si8 0.345358 0.892973 0.953257
O O1 0.250000 0.133955 0.500000
O O2 0.354033 0.121467 0.749668
O O3 0.418127 0.169833 0.492837
O O4 0.383276 0.067780 0.479684
O O5 0.366387 0.063584 0.019488
O O6 0.250000 0.138124 0.000000
O O7 0.417619 0.164936 0.013166
O O8 0.024785 0.687895 0.749864
O O9 0.082046 0.647313 0.022165
O O10 0.021399 0.750000 0.000000
O O11 0.750000 0.389440 0.500000
O O12 0.586095 0.350433 0.476393
O O13 0.615143 0.454050 0.481145
O O14 0.645021 0.396717 0.749404
O O15 0.971080 0.250000 0.500000
O O16 0.123395 0.490548 0.748731
O O17 0.145222 0.546801 0.018394
O O18 0.000000 0.500000 0.000000
O O19 0.250000 0.010672 0.500000
O O20 0.250000 0.872961 0.000000
#
# Coordination Sequence:
#
# PCOD9395623 Si02
#       8
#     8   8   8   8   8   8   8   8
#     4  10  21  39  61  89 122 155 199 241 300 366
#     4  11  22  38  64  92 124 161 198 249 308 367
#     4  11  24  42  61  87 122 156 208 262 302 362
#     4   9  20  39  60  86 120 156 199 244 297 359
#     4  11  24  41  61  84 116 159 204 252 301 355
#     4  10  18  35  60  94 128 161 202 250 313 376
#     4   8  17  35  59  87 124 159 198 247 301 370
#     4  10  21  38  62  90 123 160 199 249 306 365
#
# _framework density 20.882269000000001
#
# number of rings (size 3 to 8) (size 9 to 14) (size 15 to 20)
#    0.000    2.000    1.250    1.875    0.000    3.500 
#    0.000    6.250    0.000    0.000    0.000    0.000 
#    0.000    0.000    0.000    0.000    0.000    0.000 
#
# Total GULP energy -357141.564875 kJ/mol
# GULP energy per Si atom -5580.336951 kJ/mol
# Density = 2.083474 g / cm^3
# Si number density = 20.882269 Si / 1000 Ang^3
#
#
#
# Elastic Constant Matrix: (Units=GPa)
#
#
# Indices 1 2 3 4 5 6 
#
# 1 64.3925 -1.8717 -9.4600 0.0000 0.0000 0.0000
# 2 -1.8717 75.0642 5.4956 0.0000 0.0000 0.0000
# 3 -9.4600 5.4956 38.5118 0.0000 0.0000 0.0000
# 4 0.0000 0.0000 0.0000 4.8519 0.0000 0.0000
# 5 0.0000 0.0000 0.0000 0.0000 28.1579 0.0000
# 6 0.0000 0.0000 0.0000 0.0000 0.0000 14.6632
#
#
#
# Elastic Compliance Matrix: (Units=1/GPa)
#
#
# Indices 1 2 3 4 5 6 
#
# 1 0.016112 0.000113 0.003942 0.000000 0.000000 0.000000
# 2 0.000113 0.013463 -0.001893 0.000000 0.000000 0.000000
# 3 0.003942 -0.001893 0.027204 0.000000 0.000000 0.000000
# 4 0.000000 0.000000 0.000000 0.206106 0.000000 0.000000
# 5 0.000000 0.000000 0.000000 0.000000 0.035514 0.000000
# 6 0.000000 0.000000 0.000000 0.000000 0.000000 0.068198
#
#
# Mechanical properties :
#
#
# Convention : Reuss Voigt Hill
#
# Bulk Modulus (GPa) = 16.36589 18.47737 17.42163
# Shear Modulus (GPa) = 13.06702 21.78825 17.42764
#
# Velocity S-wave (km/s) = 2.50421 3.23365 2.89202
# Velocity P-wave (km/s) = 4.02687 4.77594 4.41731
#
# Compressibility (1/GPa) = 0.06110268
#
# Stress axis : x y z
#
# Youngs Moduli (GPa) = 62.06510 74.27557 36.75871
#
# Poissons Ratio (x) = -0.00841 -0.14489
# Poissons Ratio (y) = -0.00702 0.06960
# Poissons Ratio (z) = -0.24464 0.14063
#
# Static dielectric constant tensor:
#      x y z
#    x 1.699750 0.000000 0.000000 
#    y 0.000000 1.838800 0.000000 
#    z 0.000000 0.000000 1.692410 
# 
# From -- ./inp_files/13455.got.cif
#   From: 2010.05.17/outbox.cif.g08.bks.cpg/sg50_7_cif.got.tgz:13455.got - 2010.06.03 11:33:33.
