data_PCOD9395707
_publ_section_title
;
Structure prediction by ZEFSAII (Michael W. Deem and Ramdas Pophale) SiO2 
 PCOD9395707
Probable space group: P B A N
;
_chemical_formula_sum "Si O2"
_cell_formula_units_Z 56
_cell_length_a 17.002182
_cell_length_b 11.498269
_cell_length_c 14.983238
_cell_angle_alpha 90.000000
_cell_angle_beta 90.000000
_cell_angle_gamma 90.000000
_cell_volume 2929.158035
_symmetry_space_group_name_H-M "P B A N"
_symmetry_group_IT_number 50
_space_group.IT_coordinate_system_code '2'
_symmetry_cell_setting 'orthorhombic'
loop_
_space_group_symop_operation_xyz
x,y,z
1/2-x,1/2-y,z
x,1/2-y,-z
1/2-x,y,-z
-x,-y,-z
1/2+x,1/2+y,-z
-x,1/2+y,z
1/2+x,-y,z
loop_
_atom_site_type_symbol
_atom_site_label
_atom_site_fract_x
_atom_site_fract_y
_atom_site_fract_z
Si Si1 0.535416 0.358420 0.206473
Si Si2 0.040795 0.659923 0.659769
Si Si3 0.104980 0.013101 0.648040
Si Si4 0.165233 0.711284 0.897050
Si Si5 0.116052 0.016402 0.195519
Si Si6 0.162135 0.582497 0.525802
Si Si7 0.777104 0.882692 0.652302
O O1 0.515174 0.275704 0.290043
O O2 0.580764 0.461571 0.256486
O O3 0.594685 0.284598 0.146712
O O4 0.455913 0.404205 0.160814
O O5 0.074695 0.570498 0.733713
O O6 0.113516 0.664097 0.592112
O O7 0.961525 0.605424 0.621215
O O8 0.193165 0.056008 0.658935
O O9 0.111388 0.929510 0.563267
O O10 0.250000 0.750000 0.858011
O O11 0.153143 0.573897 0.875733
O O12 0.165602 0.750000 0.000000
O O13 0.175678 0.094201 0.255046
O O14 0.250000 0.620005 0.500000
O O15 0.175294 0.455648 0.575637
O O16 0.750000 0.750000 0.633922
#
# Coordination Sequence:
#
# PCOD9395707 Si02
#       7
#     8   8   8   8   8   8   8
#     4  10  20  35  55  78 106 141 177 226 283 336
#     4   9  18  33  49  71 105 143 184 230 280 330
#     4  10  19  31  49  73 101 139 186 230 276 329
#     4  10  21  38  61  87 113 145 182 226 288 352
#     4   9  19  35  55  82 111 140 186 232 275 349
#     4   9  19  32  45  70 104 141 190 237 274 324
#     4  10  19  33  52  74 105 145 184 229 281 330
#
# _framework density 19.118122
#
# number of rings (size 3 to 8) (size 9 to 14) (size 15 to 20)
#    0.000    2.429    0.000    2.143    0.000    4.857 
#    0.000    3.571    0.000    0.000    0.000    1.000 
#    0.000    0.000    0.000    0.000    0.000    0.000 
#
# Total GULP energy -311796.016030 kJ/mol
# GULP energy per Si atom -5567.786001 kJ/mol
# Density = 1.907461 g / cm^3
# Si number density = 19.118122 Si / 1000 Ang^3
#
#
#
# Elastic Constant Matrix: (Units=GPa)
#
#
# Indices 1 2 3 4 5 6 
#
# 1 91.4495 30.5470 25.7354 0.0000 0.0000 0.0000
# 2 30.5470 78.7240 14.0721 0.0000 0.0000 0.0000
# 3 25.7354 14.0721 48.5023 0.0000 0.0000 0.0000
# 4 0.0000 0.0000 0.0000 16.9496 0.0000 0.0000
# 5 0.0000 0.0000 0.0000 0.0000 23.6073 0.0000
# 6 0.0000 0.0000 0.0000 0.0000 0.0000 18.5784
#
#
#
# Elastic Compliance Matrix: (Units=1/GPa)
#
#
# Indices 1 2 3 4 5 6 
#
# 1 0.014153 -0.004376 -0.006240 0.000000 0.000000 0.000000
# 2 -0.004376 0.014751 -0.001958 0.000000 0.000000 0.000000
# 3 -0.006240 -0.001958 0.024496 0.000000 0.000000 0.000000
# 4 0.000000 0.000000 0.000000 0.058998 0.000000 0.000000
# 5 0.000000 0.000000 0.000000 0.000000 0.042360 0.000000
# 6 0.000000 0.000000 0.000000 0.000000 0.000000 0.053826
#
#
# Mechanical properties :
#
#
# Convention : Reuss Voigt Hill
#
# Bulk Modulus (GPa) = 35.39507 39.93164 37.66336
# Shear Modulus (GPa) = 20.56354 21.71515 21.13934
#
# Velocity S-wave (km/s) = 3.28320 3.37388 3.32885
# Velocity P-wave (km/s) = 5.73817 6.00912 5.87521
#
# Compressibility (1/GPa) = 0.02825252
#
# Stress axis : x y z
#
# Youngs Moduli (GPa) = 70.65740 67.79362 40.82233
#
# Poissons Ratio (x) = 0.29668 0.25472
# Poissons Ratio (y) = 0.30922 0.07991
# Poissons Ratio (z) = 0.44089 0.13271
#
# Static dielectric constant tensor:
#      x y z
#    x 1.684770 0.000000 0.000000 
#    y 0.000000 1.751300 0.000000 
#    z 0.000000 0.000000 1.691880 
# 
# From -- ./inp_files/26489.got.cif
#   From: 2010.05.17/outbox.cif.g08.bks.cpg/sg50_14_cif.got.tgz:26489.got - 2010.06.03 11:33:33.
