data_PCOD9395250
_publ_section_title
;
Structure prediction by ZEFSAII (Michael W. Deem and Ramdas Pophale) SiO2 
 PCOD9395250
Probable space group: P C C M
;
_chemical_formula_sum "Si O2"
_cell_formula_units_Z 64
_cell_length_a 30.000000
_cell_length_b 15.000000
_cell_length_c 9.000000
_cell_angle_alpha 90.000000
_cell_angle_beta 90.000000
_cell_angle_gamma 90.000000
_cell_volume 4050.000000
_symmetry_space_group_name_H-M "P C C M"
_symmetry_group_IT_number 49
_symmetry_cell_setting 'orthorhombic'
loop_
_space_group_symop_operation_xyz
x,y,z
-x,-y,z
x,-y,1/2-z
-x,y,1/2-z
-x,-y,-z
x,y,-z
-x,y,1/2+z
x,-y,1/2+z
loop_
_atom_site_type_symbol
_atom_site_label
_atom_site_fract_x
_atom_site_fract_y
_atom_site_fract_z
Si Si1 0.648041 0.100570 0.320240
Si Si2 0.454920 0.901521 0.321779
Si Si3 0.193925 0.905217 0.177140
Si Si4 0.871534 0.596432 0.821838
Si Si5 0.047542 0.269375 0.179781
Si Si6 0.232175 0.400827 0.180409
Si Si7 0.090424 0.903030 0.179489
Si Si8 0.274834 0.226593 0.319468
O O1 0.654331 0.094764 0.500000
O O2 0.596144 0.131256 0.294068
O O3 0.683305 0.170711 0.248996
O O4 0.653547 0.000000 0.250000
O O5 0.500000 0.858558 0.250000
O O6 0.460859 0.905816 0.500000
O O7 0.453771 0.000000 0.250000
O O8 0.142652 0.882289 0.215876
O O9 0.230666 0.832079 0.216748
O O10 0.204924 0.000000 0.250000
O O11 0.195249 0.916333 0.000000
O O12 0.879829 0.500000 0.750000
O O13 0.910905 0.665176 0.780472
O O14 0.820132 0.622382 0.783519
O O15 0.872682 0.587813 0.000000
O O16 0.060324 0.173134 0.247434
O O17 0.000000 0.297696 0.250000
O O18 0.044219 0.265588 0.000000
O O19 0.240072 0.500000 0.250000
O O20 0.264192 0.324263 0.249690
O O21 0.236659 0.403676 0.000000
O O22 0.080954 0.000000 0.250000
O O23 0.085475 0.904978 0.000000
O O24 0.279289 0.232378 0.500000
#
# Coordination Sequence:
#
# PCOD9395250 Si02
#       8
#     8   8   8   8   8   8   8   8
#     4  10  20  32  45  67 100 138 176 215 255 298
#     4   9  16  26  42  62  88 125 171 216 257 296
#     4   9  19  32  48  71  98 127 161 196 234 280
#     4   9  20  37  58  80 102 127 156 191 234 284
#     4  11  23  38  54  76 101 126 156 191 233 282
#     4  10  20  36  56  77  99 126 160 200 242 289
#     4  10  20  36  55  74  96 125 159 198 237 277
#     4  11  21  32  48  72 101 134 167 202 245 294
#
# _framework density 15.802469
#
# number of rings (size 3 to 8) (size 9 to 14) (size 15 to 20)
#    0.000    2.125    0.000    3.750    0.000    6.000 
#    0.000    2.500    0.000    0.000    0.000    0.000 
#    0.000    0.500    0.000    5.250    0.000    2.875 
#
# Total GULP energy -356885.318629 kJ/mol
# GULP energy per Si atom -5576.333104 kJ/mol
# Density = 1.576650 g / cm^3
# Si number density = 15.802469 Si / 1000 Ang^3
#
#
#
# Elastic Constant Matrix: (Units=GPa)
#
#
# Indices 1 2 3 4 5 6 
#
# 1 106.3756 60.3087 45.8232 0.0000 0.0000 0.0000
# 2 60.3087 89.7270 38.0423 0.0000 0.0000 0.0000
# 3 45.8232 38.0423 77.7478 0.0000 0.0000 0.0000
# 4 0.0000 0.0000 0.0000 29.0084 0.0000 0.0000
# 5 0.0000 0.0000 0.0000 0.0000 31.0034 0.0000
# 6 0.0000 0.0000 0.0000 0.0000 0.0000 24.2669
#
#
#
# Elastic Compliance Matrix: (Units=1/GPa)
#
#
# Indices 1 2 3 4 5 6 
#
# 1 0.016897 -0.009002 -0.005554 0.000000 0.000000 0.000000
# 2 -0.009002 0.018858 -0.003922 0.000000 0.000000 0.000000
# 3 -0.005554 -0.003922 0.018054 0.000000 0.000000 0.000000
# 4 0.000000 0.000000 0.000000 0.034473 0.000000 0.000000
# 5 0.000000 0.000000 0.000000 0.000000 0.032255 0.000000
# 6 0.000000 0.000000 0.000000 0.000000 0.000000 0.041208
#
#
# Mechanical properties :
#
#
# Convention : Reuss Voigt Hill
#
# Bulk Modulus (GPa) = 59.33338 62.46654 60.89996
# Shear Modulus (GPa) = 24.47157 25.50082 24.98620
#
# Velocity S-wave (km/s) = 3.93948 4.02148 3.98069
# Velocity P-wave (km/s) = 7.63683 7.82167 7.72980
#
# Compressibility (1/GPa) = 0.01685392
#
# Stress axis : x y z
#
# Youngs Moduli (GPa) = 59.18284 53.02693 55.38832
#
# Poissons Ratio (x) = 0.47736 0.30762
# Poissons Ratio (y) = 0.53278 0.21722
# Poissons Ratio (z) = 0.32869 0.20796
#
# Static dielectric constant tensor:
#      x y z
#    x 1.558540 0.000000 0.000000 
#    y 0.000000 1.507970 0.000000 
#    z 0.000000 0.000000 1.530830 
# 
# From -- ./inp_files/7066.got.cif
#   From: 2010.05.17/outbox.ucp.g08.bks.cvg/sg49_4_cif.got.tgz:7066.got - 2010.06.11 16:40:14.
