data_PCOD9395342
_publ_section_title
;
Structure prediction by ZEFSAII (Michael W. Deem and Ramdas Pophale) SiO2 
 PCOD9395342
Probable space group: P B A N
;
_chemical_formula_sum "Si O2"
_cell_formula_units_Z 38
_cell_length_a 5.537046
_cell_length_b 13.354547
_cell_length_c 22.271737
_cell_angle_alpha 90.000000
_cell_angle_beta 90.000000
_cell_angle_gamma 90.000000
_cell_volume 1646.877825
_symmetry_space_group_name_H-M "P B A N"
_symmetry_group_IT_number 50
_space_group.IT_coordinate_system_code '2'
_symmetry_cell_setting 'orthorhombic'
loop_
_space_group_symop_operation_xyz
x,y,z
1/2-x,1/2-y,z
x,1/2-y,-z
1/2-x,y,-z
-x,-y,-z
1/2+x,1/2+y,-z
-x,1/2+y,z
1/2+x,-y,z
loop_
_atom_site_type_symbol
_atom_site_label
_atom_site_fract_x
_atom_site_fract_y
_atom_site_fract_z
Si Si1 0.208349 0.434427 0.869166
Si Si2 0.146445 0.122763 0.259666
Si Si3 0.861120 0.137783 0.561181
Si Si4 0.750000 0.935290 0.000000
Si Si5 0.145139 0.602588 0.693734
Si Si6 0.250000 0.250000 0.500000
O O1 0.455302 0.501751 0.865752
O O2 0.192597 0.364898 0.810913
O O3 0.231126 0.383625 0.934887
O O4 0.387702 0.154093 0.294629
O O5 0.885557 0.155824 0.282725
O O6 0.133775 0.002614 0.271598
O O7 0.750000 0.250000 0.568462
O O8 0.750000 0.093084 0.500000
O O9 0.826883 0.081753 0.622861
O O10 0.127923 0.170773 0.544830
O O11 0.500000 0.000000 0.000000
#
# Coordination Sequence:
#
# PCOD9395342 Si02
#       6
#     8   8   8   4   8   2
#     4  10  14  26  37  59  87 122 155 177 210 251
#     4  10  18  30  45  67  95 125 146 174 222 268
#     4   9  20  35  51  68  84 112 149 190 230 264
#     4   8  16  20  36  54  82 120 154 184 202 238
#     4  10  19  31  48  66  89 119 149 178 219 277
#     4   8  18  36  52  66  80 112 142 194 236 268
#
# _framework density 23.073965999999999
#
# number of rings (size 3 to 8) (size 9 to 14) (size 15 to 20)
#    0.000    2.737    4.211    0.000    5.895    0.000 
#    0.000    4.211    0.000    0.000    0.000    0.000 
#    0.000    0.000    0.000   10.421    0.000    0.000 
#
# Total GULP energy -211585.795825 kJ/mol
# GULP energy per Si atom -5568.047259 kJ/mol
# Density = 2.302145 g / cm^3
# Si number density = 23.073966 Si / 1000 Ang^3
#
#
#
# Elastic Constant Matrix: (Units=GPa)
#
#
# Indices 1 2 3 4 5 6 
#
# 1 185.4762 24.1781 36.7898 0.0000 0.0000 0.0000
# 2 24.1781 55.9045 3.8868 0.0000 0.0000 0.0000
# 3 36.7898 3.8868 238.9496 0.0000 0.0000 0.0000
# 4 0.0000 0.0000 0.0000 -16.7550 0.0000 0.0000
# 5 0.0000 0.0000 0.0000 0.0000 52.0001 0.0000
# 6 0.0000 0.0000 0.0000 0.0000 0.0000 -0.4148
#
#
#
# Elastic Compliance Matrix: (Units=1/GPa)
#
#
# Indices 1 2 3 4 5 6 
#
# 1 0.005887 -0.002486 -0.000866 0.000000 0.000000 0.000000
# 2 -0.002486 0.018958 0.000074 0.000000 0.000000 0.000000
# 3 -0.000866 0.000074 0.004317 0.000000 0.000000 0.000000
# 4 0.000000 0.000000 0.000000 -0.059684 0.000000 0.000000
# 5 0.000000 0.000000 0.000000 0.000000 0.019231 0.000000
# 6 0.000000 0.000000 0.000000 0.000000 0.000000 -2.411078
#
#
# Mechanical properties :
#
#
# Convention : Reuss Voigt Hill
#
# Bulk Modulus (GPa) = 44.23434 67.78218 56.00826
# Shear Modulus (GPa) = -2.07617 34.66444 16.29413
#
# Velocity S-wave (km/s) = -0.94960 3.88018 2.66027
# Velocity P-wave (km/s) = 4.24381 7.03663 5.81052
#
# Compressibility (1/GPa) = 0.02260687
#
# Stress axis : x y z
#
# Youngs Moduli (GPa) = 169.85512 52.74912 231.63654
#
# Poissons Ratio (x) = 0.13113 0.20060
# Poissons Ratio (y) = 0.42226 -0.01723
# Poissons Ratio (z) = 0.14710 -0.00392
#
# Static dielectric constant tensor:
#      x y z
#    x 1.700330 0.000000 0.000000 
#    y 0.000000 1.850010 0.000000 
#    z 0.000000 0.000000 1.850510 
# 
# From -- ./inp_files/30358.got.cif
#   From: 2010.05.17/outbox.cif.g08.bks.cpg/sg50_16_cif.got.tgz:30358.got - 2010.06.03 11:33:33.
