data_PCOD9395014
_publ_section_title
;
Structure prediction by ZEFSAII (Michael W. Deem and Ramdas Pophale) SiO2 
 PCOD9395014
Probable space group: P C C M
;
_chemical_formula_sum "Si O2"
_cell_formula_units_Z 48
_cell_length_a 7.555754
_cell_length_b 12.100232
_cell_length_c 22.944926
_cell_angle_alpha 90.000000
_cell_angle_beta 90.000000
_cell_angle_gamma 90.000000
_cell_volume 2097.771439
_symmetry_space_group_name_H-M "P C C M"
_symmetry_group_IT_number 49
_symmetry_cell_setting 'orthorhombic'
loop_
_space_group_symop_operation_xyz
x,y,z
-x,-y,z
x,-y,1/2-z
-x,y,1/2-z
-x,-y,-z
x,y,-z
-x,y,1/2+z
x,-y,1/2+z
loop_
_atom_site_type_symbol
_atom_site_label
_atom_site_fract_x
_atom_site_fract_y
_atom_site_fract_z
Si Si1 0.262239 0.390014 0.066317
Si Si2 0.234625 0.046492 0.564139
Si Si3 0.763025 0.877864 0.778065
Si Si4 0.832646 0.368538 0.932816
Si Si5 0.871419 0.811038 0.663587
Si Si6 0.597642 0.840281 0.895899
O O1 0.272977 0.519174 0.082672
O O2 0.356576 0.288940 0.099122
O O3 0.047727 0.378007 0.065892
O O4 0.325134 0.379767 0.000000
O O5 0.166198 0.075132 0.500000
O O6 0.133682 0.084384 0.621079
O O7 0.418766 0.113567 0.574807
O O8 0.261182 0.915291 0.569077
O O9 0.740669 0.810020 0.718622
O O10 0.617397 0.878618 0.828597
O O11 0.932424 0.820434 0.809356
O O12 0.795035 0.000000 0.750000
O O13 0.813345 0.284662 0.880076
O O14 0.783104 0.339150 0.000000
#
# Coordination Sequence:
#
# PCOD9395014 Si02
#       6
#     8   8   8   8   8   8
#     4   9  17  33  58  86 118 156 200 251 312 372
#     4  11  24  38  58  91 126 158 203 256 315 382
#     4  11  23  39  60  85 118 163 208 252 310 373
#     4   9  18  33  58  89 118 152 198 255 314 370
#     4  11  21  38  58  86 124 152 200 259 303 365
#     4  11  21  40  59  83 123 165 205 250 305 373
#
# _framework density 22.881425
#
# number of rings (size 3 to 8) (size 9 to 14) (size 15 to 20)
#    0.000    1.667    3.333    4.500    0.000    0.667 
#    0.000    2.500    0.000    3.000    0.000    2.333 
#    0.000    0.000    0.000    0.000    0.000    0.000 
#
# Total GULP energy -267659.204848 kJ/mol
# GULP energy per Si atom -5576.233434 kJ/mol
# Density = 2.282935 g / cm^3
# Si number density = 22.881425 Si / 1000 Ang^3
#
#
#
# Elastic Constant Matrix: (Units=GPa)
#
#
# Indices 1 2 3 4 5 6 
#
# 1 58.7765 19.1887 21.4216 0.0000 0.0000 0.0000
# 2 19.1887 160.6807 60.3876 0.0000 0.0000 0.0000
# 3 21.4216 60.3876 177.6629 0.0000 0.0000 0.0000
# 4 0.0000 0.0000 0.0000 77.5243 0.0000 0.0000
# 5 0.0000 0.0000 0.0000 0.0000 -21.1226 0.0000
# 6 0.0000 0.0000 0.0000 0.0000 0.0000 25.0702
#
#
#
# Elastic Compliance Matrix: (Units=1/GPa)
#
#
# Indices 1 2 3 4 5 6 
#
# 1 0.018122 -0.001540 -0.001662 0.000000 0.000000 0.000000
# 2 -0.001540 0.007266 -0.002284 0.000000 0.000000 0.000000
# 3 -0.001662 -0.002284 0.006605 0.000000 0.000000 0.000000
# 4 0.000000 0.000000 0.000000 0.012899 0.000000 0.000000
# 5 0.000000 0.000000 0.000000 0.000000 -0.047343 0.000000
# 6 0.000000 0.000000 0.000000 0.000000 0.000000 0.039888
#
#
# Mechanical properties :
#
#
# Convention : Reuss Voigt Hill
#
# Bulk Modulus (GPa) = 47.56854 66.56844 57.06849
# Shear Modulus (GPa) = 90.22747 36.03587 63.13167
#
# Velocity S-wave (km/s) = 6.28635 3.97280 5.25839
# Velocity P-wave (km/s) = 8.57469 7.08521 7.86528
#
# Compressibility (1/GPa) = 0.02102230
#
# Stress axis : x y z
#
# Youngs Moduli (GPa) = 55.18190 137.63177 151.39296
#
# Poissons Ratio (x) = 0.21190 0.25157
# Poissons Ratio (y) = 0.08496 0.34578
# Poissons Ratio (z) = 0.09170 0.31435
#
# Static dielectric constant tensor:
#      x y z
#    x 2.053600 0.000000 0.000000 
#    y 0.000000 1.955410 0.000000 
#    z 0.000000 0.000000 1.816710 
# 
# From -- ./inp_files/22363.got.cif
#   From: 2010.05.17/outbox.cif.g08.bks.cpg/sg49_12_cif.got.tgz:22363.got - 2010.06.03 21:02:19.
