data_PCOD9395100
_publ_section_title
;
Structure prediction by ZEFSAII (Michael W. Deem and Ramdas Pophale) SiO2 
 PCOD9395100
Probable space group: P C C M
;
_chemical_formula_sum "Si O2"
_cell_formula_units_Z 64
_cell_length_a 19.745121
_cell_length_b 8.271024
_cell_length_c 18.797937
_cell_angle_alpha 90.000000
_cell_angle_beta 90.000000
_cell_angle_gamma 90.000000
_cell_volume 3069.935636
_symmetry_space_group_name_H-M "P C C M"
_symmetry_group_IT_number 49
_symmetry_cell_setting 'orthorhombic'
loop_
_space_group_symop_operation_xyz
x,y,z
-x,-y,z
x,-y,1/2-z
-x,y,1/2-z
-x,-y,-z
x,y,-z
-x,y,1/2+z
x,-y,1/2+z
loop_
_atom_site_type_symbol
_atom_site_label
_atom_site_fract_x
_atom_site_fract_y
_atom_site_fract_z
Si Si1 0.915437 0.185571 0.915543
Si Si2 0.481978 0.820737 0.833100
Si Si3 0.212487 0.392529 0.414348
Si Si4 0.406105 0.345082 0.919732
Si Si5 0.643489 0.283060 0.917325
Si Si6 0.027506 0.684402 0.323764
Si Si7 0.258362 0.757376 0.585164
Si Si8 0.147284 0.907076 0.675100
O O1 0.858858 0.318225 0.890760
O O2 0.989074 0.240266 0.890673
O O3 0.896196 0.022606 0.875814
O O4 0.911473 0.168851 0.000000
O O5 0.500000 0.812088 0.750000
O O6 0.531346 0.692517 0.870172
O O7 0.405628 0.794762 0.859532
O O8 0.500000 0.000000 0.858579
O O9 0.211135 0.389367 0.500000
O O10 0.277841 0.284808 0.394736
O O11 0.229972 0.577542 0.396775
O O12 0.380544 0.529464 0.919187
O O13 0.338794 0.242786 0.902098
O O14 0.427487 0.306323 0.000000
O O15 0.637355 0.223257 0.000000
O O16 0.000000 0.500000 0.323810
O O17 0.000000 0.758981 0.250000
O O18 0.105677 0.737271 0.321709
O O19 0.247455 0.784499 0.500000
O O20 0.217753 0.877554 0.635159
O O21 0.153705 0.000000 0.750000
#
# Coordination Sequence:
#
# PCOD9395100 Si02
#       8
#     8   8   8   8   8   8   8   8
#     4  11  23  39  64  94 122 156 197 247 301 360
#     4  11  24  38  50  80 124 163 199 247 299 357
#     4   8  17  37  63  93 121 148 195 255 303 352
#     4   9  19  38  63  87 112 150 203 254 299 352
#     4   9  18  36  64  89 112 150 199 251 300 354
#     4  11  24  43  64  85 118 163 205 245 296 356
#     4   9  19  39  64  89 120 157 203 253 298 359
#     4  12  24  40  60  90 127 163 194 247 301 363
#
# _framework density 20.847345000000001
#
# number of rings (size 3 to 8) (size 9 to 14) (size 15 to 20)
#    0.000    2.000    1.250    3.750    0.000    5.750 
#    4.500    2.500    0.000    0.000    0.000    0.000 
#    0.000    0.000    0.000    0.000    0.000    0.000 
#
# Total GULP energy -357091.261616 kJ/mol
# GULP energy per Si atom -5579.550963 kJ/mol
# Density = 2.079990 g / cm^3
# Si number density = 20.847345 Si / 1000 Ang^3
#
#
#
# Elastic Constant Matrix: (Units=GPa)
#
#
# Indices 1 2 3 4 5 6 
#
# 1 67.7133 8.5472 23.6057 0.0000 0.0000 0.0000
# 2 8.5472 43.5171 16.7433 0.0000 0.0000 0.0000
# 3 23.6057 16.7433 62.9366 0.0000 0.0000 0.0000
# 4 0.0000 0.0000 0.0000 4.9516 0.0000 0.0000
# 5 0.0000 0.0000 0.0000 0.0000 -40.0149 0.0000
# 6 0.0000 0.0000 0.0000 0.0000 0.0000 22.2199
#
#
#
# Elastic Compliance Matrix: (Units=1/GPa)
#
#
# Indices 1 2 3 4 5 6 
#
# 1 0.017028 -0.000988 -0.006124 0.000000 0.000000 0.000000
# 2 -0.000988 0.025657 -0.006455 0.000000 0.000000 0.000000
# 3 -0.006124 -0.006455 0.019903 0.000000 0.000000 0.000000
# 4 0.000000 0.000000 0.000000 0.201957 0.000000 0.000000
# 5 0.000000 0.000000 0.000000 0.000000 -0.024991 0.000000
# 6 0.000000 0.000000 0.000000 0.000000 0.000000 0.045005
#
#
# Mechanical properties :
#
#
# Convention : Reuss Voigt Hill
#
# Bulk Modulus (GPa) = 28.20557 30.21770 29.21164
# Shear Modulus (GPa) = 15.45544 5.78269 10.61906
#
# Velocity S-wave (km/s) = 2.72575 1.66729 2.25938
# Velocity P-wave (km/s) = 4.84409 4.26997 4.56607
#
# Compressibility (1/GPa) = 0.03545399
#
# Stress axis : x y z
#
# Youngs Moduli (GPa) = 58.72786 38.97545 50.24353
#
# Poissons Ratio (x) = 0.03852 0.30768
# Poissons Ratio (y) = 0.05804 0.32432
# Poissons Ratio (z) = 0.35963 0.25159
#
# Static dielectric constant tensor:
#      x y z
#    x 1.760380 0.000000 0.000000 
#    y 0.000000 1.810830 0.000000 
#    z 0.000000 0.000000 1.713970 
# 
# From -- ./inp_files/21076.got.cif
#   From: 2010.05.17/outbox.cif.g08.bks.cpg/sg49_11_cif.got.tgz:21076.got - 2010.06.03 21:02:19.
