data_PCOD9395291
_publ_section_title
;
Structure prediction by ZEFSAII (Michael W. Deem and Ramdas Pophale) SiO2 
 PCOD9395291
Probable space group: P C C M
;
_chemical_formula_sum "Si O2"
_cell_formula_units_Z 48
_cell_length_a 9.000000
_cell_length_b 18.000000
_cell_length_c 15.000000
_cell_angle_alpha 90.000000
_cell_angle_beta 90.000000
_cell_angle_gamma 90.000000
_cell_volume 2430.000000
_symmetry_space_group_name_H-M "P C C M"
_symmetry_group_IT_number 49
_symmetry_cell_setting 'orthorhombic'
loop_
_space_group_symop_operation_xyz
x,y,z
-x,-y,z
x,-y,1/2-z
-x,y,1/2-z
-x,-y,-z
x,y,-z
-x,y,1/2+z
x,-y,1/2+z
loop_
_atom_site_type_symbol
_atom_site_label
_atom_site_fract_x
_atom_site_fract_y
_atom_site_fract_z
Si Si1 0.584843 0.578778 0.500000
Si Si2 0.401634 0.929341 0.600144
Si Si3 0.166364 0.423817 0.208061
Si Si4 0.837572 0.912049 0.244471
Si Si5 0.378934 0.675376 0.175945
Si Si6 0.161768 0.467959 0.000000
Si Si7 0.680483 0.168691 0.902249
O O1 0.500000 0.500000 0.500000
O O2 0.562668 0.623850 0.407061
O O3 0.748211 0.545154 0.500000
O O4 0.355621 0.951615 0.500000
O O5 0.263625 0.903172 0.658049
O O6 0.511789 0.859889 0.595408
O O7 0.500000 0.000000 0.635190
O O8 0.230253 0.500000 0.250000
O O9 0.257587 0.362100 0.260372
O O10 0.180014 0.427345 0.098607
O O11 0.000000 0.419461 0.250000
O O12 0.755167 0.882322 0.329966
O O13 0.000000 0.877279 0.250000
O O14 0.851389 0.000000 0.250000
O O15 0.500000 0.697675 0.250000
O O16 0.314042 0.746966 0.127420
O O17 0.000000 0.500000 0.000000
O O18 0.746127 0.158196 0.000000
#
# Coordination Sequence:
#
# PCOD9395291 Si02
#       7
#     4   8   8   8   8   4   8
#     4  12  24  38  62  92 127 165 209 267 332 387
#     4  10  20  38  67  95 124 168 217 260 313 387
#     4  11  22  39  64  93 124 170 219 266 322 385
#     4  11  23  38  64  99 133 168 209 264 323 384
#     4  12  25  41  63  92 128 166 211 268 333 393
#     4  12  20  38  64  94 124 162 226 271 306 387
#     4  11  24  44  66  94 127 172 219 268 328 397
#
# _framework density 19.753086
#
# number of rings (size 3 to 8) (size 9 to 14) (size 15 to 20)
#    0.000    0.833    5.833    2.500    0.000    1.333 
#    0.000    1.667    1.833    0.000    0.000    0.000 
#    0.000    0.000    0.000    0.000    0.000    0.000 
#
# Total GULP energy -267227.636007 kJ/mol
# GULP energy per Si atom -5567.242417 kJ/mol
# Density = 1.970813 g / cm^3
# Si number density = 19.753086 Si / 1000 Ang^3
#
#
#
# Elastic Constant Matrix: (Units=GPa)
#
#
# Indices 1 2 3 4 5 6 
#
# 1 65.2007 2.5999 41.3494 0.0000 0.0000 0.0000
# 2 2.5999 66.2693 29.5662 0.0000 0.0000 0.0000
# 3 41.3494 29.5662 181.8476 0.0000 0.0000 0.0000
# 4 0.0000 0.0000 0.0000 24.9318 0.0000 0.0000
# 5 0.0000 0.0000 0.0000 0.0000 -246.6214 0.0000
# 6 0.0000 0.0000 0.0000 0.0000 0.0000 -113.1437
#
#
#
# Elastic Compliance Matrix: (Units=1/GPa)
#
#
# Indices 1 2 3 4 5 6 
#
# 1 0.018011 0.001208 -0.004292 0.000000 0.000000 0.000000
# 2 0.001208 0.016351 -0.002933 0.000000 0.000000 0.000000
# 3 -0.004292 -0.002933 0.006952 0.000000 0.000000 0.000000
# 4 0.000000 0.000000 0.000000 0.040109 0.000000 0.000000
# 5 0.000000 0.000000 0.000000 0.000000 -0.004055 0.000000
# 6 0.000000 0.000000 0.000000 0.000000 0.000000 -0.008838
#
#
# Mechanical properties :
#
#
# Convention : Reuss Voigt Hill
#
# Bulk Modulus (GPa) = 34.15268 51.14985 42.65127
# Shear Modulus (GPa) = 55.35617 -50.97985 2.18816
#
# Velocity S-wave (km/s) = 5.29952 -5.08572 1.05364
# Velocity P-wave (km/s) = 7.40094 2.92152 4.80825
#
# Compressibility (1/GPa) = 0.02928028
#
# Stress axis : x y z
#
# Youngs Moduli (GPa) = 55.52190 61.15756 143.84521
#
# Poissons Ratio (x) = -0.07389 0.61736
# Poissons Ratio (y) = -0.06708 0.42193
# Poissons Ratio (z) = 0.23829 0.17939
#
# Static dielectric constant tensor:
#      x y z
#    x 1.805060 0.000000 0.000000 
#    y 0.000000 1.703470 0.000000 
#    z 0.000000 0.000000 1.596270 
# 
# From -- ./inp_files/11883.got.cif
#   From: 2010.05.17/outbox.ucp.g08.bks.cvg/sg49_6_cif.got.tgz:11883.got - 2010.06.11 16:40:14.
