data_PCOD9395759
_publ_section_title
;
Structure prediction by ZEFSAII (Michael W. Deem and Ramdas Pophale) SiO2 
 PCOD9395759
Probable space group: P B A N
;
_chemical_formula_sum "Si O2"
_cell_formula_units_Z 56
_cell_length_a 4.986809
_cell_length_b 33.859139
_cell_length_c 16.393037
_cell_angle_alpha 90.000000
_cell_angle_beta 90.000000
_cell_angle_gamma 90.000000
_cell_volume 2767.948873
_symmetry_space_group_name_H-M "P B A N"
_symmetry_group_IT_number 50
_space_group.IT_coordinate_system_code '2'
_symmetry_cell_setting 'orthorhombic'
loop_
_space_group_symop_operation_xyz
x,y,z
1/2-x,1/2-y,z
x,1/2-y,-z
1/2-x,y,-z
-x,-y,-z
1/2+x,1/2+y,-z
-x,1/2+y,z
1/2+x,-y,z
loop_
_atom_site_type_symbol
_atom_site_label
_atom_site_fract_x
_atom_site_fract_y
_atom_site_fract_z
Si Si1 0.800597 0.294242 0.328941
Si Si2 0.010479 0.666536 0.056528
Si Si3 0.207668 0.178954 0.230478
Si Si4 0.367720 0.100691 0.681657
Si Si5 0.877829 0.372589 0.412648
Si Si6 0.167260 0.473688 0.788784
Si Si7 0.988561 0.076310 0.055432
O O1 0.750000 0.250000 0.357629
O O2 0.514857 0.307480 0.294453
O O3 0.896769 0.325530 0.396395
O O4 0.017782 0.299178 0.255374
O O5 0.912975 0.685908 0.140883
O O6 0.094559 0.621242 0.078603
O O7 0.750000 0.665316 0.000000
O O8 0.250000 0.683330 0.000000
O O9 0.234683 0.131872 0.248915
O O10 0.666786 0.111542 0.654292
O O11 0.364625 0.056593 0.714547
O O12 0.163752 0.108344 0.607131
O O13 0.750000 0.380530 0.500000
O O14 0.471336 0.488713 0.787730
O O15 0.071889 0.449428 0.867846
O O16 0.750000 0.059008 0.000000
O O17 0.250000 0.079373 0.000000
#
# Coordination Sequence:
#
# PCOD9395759 Si02
#       7
#     8   8   8   8   8   8   8
#     4  10  21  35  58  90 120 147 178 222 284 350
#     4  10  19  32  54  80 107 145 197 248 281 317
#     4  10  19  36  58  79 113 155 192 232 277 333
#     4  10  21  39  58  84 114 146 198 231 274 347
#     4  10  21  38  65  89 113 148 180 228 284 342
#     4  12  24  37  57  81 115 157 194 241 293 337
#     4  10  21  35  52  78 114 150 190 240 294 340
#
# _framework density 20.231586
#
# number of rings (size 3 to 8) (size 9 to 14) (size 15 to 20)
#    0.000    1.714    1.429    3.429    0.000    2.000 
#    0.000    0.000    0.000   20.143    0.000    0.000 
#    0.000    0.000    0.000    0.000    0.000    0.000 
#
# Total GULP energy -312563.542187 kJ/mol
# GULP energy per Si atom -5581.491825 kJ/mol
# Density = 2.018554 g / cm^3
# Si number density = 20.231586 Si / 1000 Ang^3
#
#
#
# Elastic Constant Matrix: (Units=GPa)
#
#
# Indices 1 2 3 4 5 6 
#
# 1 80.9176 -0.7251 -5.2360 0.0000 0.0000 0.0000
# 2 -0.7251 22.0207 -4.0105 0.0000 0.0000 0.0000
# 3 -5.2360 -4.0105 40.8791 0.0000 0.0000 0.0000
# 4 0.0000 0.0000 0.0000 4.2422 0.0000 0.0000
# 5 0.0000 0.0000 0.0000 0.0000 32.9082 0.0000
# 6 0.0000 0.0000 0.0000 0.0000 0.0000 19.0804
#
#
#
# Elastic Compliance Matrix: (Units=1/GPa)
#
#
# Indices 1 2 3 4 5 6 
#
# 1 0.012473 0.000714 0.001668 0.000000 0.000000 0.000000
# 2 0.000714 0.046279 0.004632 0.000000 0.000000 0.000000
# 3 0.001668 0.004632 0.025130 0.000000 0.000000 0.000000
# 4 0.000000 0.000000 0.000000 0.235725 0.000000 0.000000
# 5 0.000000 0.000000 0.000000 0.000000 0.030388 0.000000
# 6 0.000000 0.000000 0.000000 0.000000 0.000000 0.052410
#
#
# Mechanical properties :
#
#
# Convention : Reuss Voigt Hill
#
# Bulk Modulus (GPa) = 10.21350 13.76379 11.98865
# Shear Modulus (GPa) = 11.87612 21.49875 16.68743
#
# Velocity S-wave (km/s) = 2.42545 3.26334 2.87509
# Velocity P-wave (km/s) = 3.59208 4.58444 4.11826
#
# Compressibility (1/GPa) = 0.09790959
#
# Stress axis : x y z
#
# Youngs Moduli (GPa) = 80.17595 21.60808 39.79243
#
# Poissons Ratio (x) = -0.01544 -0.06636
# Poissons Ratio (y) = -0.05728 -0.18431
# Poissons Ratio (z) = -0.13370 -0.10008
#
# Static dielectric constant tensor:
#      x y z
#    x 1.695830 0.000000 0.000000 
#    y 0.000000 1.760180 0.000000 
#    z 0.000000 0.000000 1.725170 
# 
# From -- ./inp_files/24200.got.cif
#   From: 2010.05.17/outbox.cif.g08.bks.cpg/sg50_13_cif.got.tgz:24200.got - 2010.06.03 11:33:33.
