data_PCOD9395168
_publ_section_title
;
Structure prediction by ZEFSAII (Michael W. Deem and Ramdas Pophale) SiO2 
 PCOD9395168
Probable space group: P C C M
;
_chemical_formula_sum "Si O2"
_cell_formula_units_Z 22
_cell_length_a 5.390436
_cell_length_b 5.061731
_cell_length_c 31.628118
_cell_angle_alpha 90.000000
_cell_angle_beta 90.000000
_cell_angle_gamma 90.000000
_cell_volume 862.971207
_symmetry_space_group_name_H-M "P C C M"
_symmetry_group_IT_number 49
_symmetry_cell_setting 'orthorhombic'
loop_
_space_group_symop_operation_xyz
x,y,z
-x,-y,z
x,-y,1/2-z
-x,y,1/2-z
-x,-y,-z
x,y,-z
-x,y,1/2+z
x,-y,1/2+z
loop_
_atom_site_type_symbol
_atom_site_label
_atom_site_fract_x
_atom_site_fract_y
_atom_site_fract_z
Si Si1 0.500000 0.000000 0.750000
Si Si2 0.167317 0.238831 0.183855
Si Si3 0.750021 0.679633 0.000000
Si Si4 0.251060 0.675616 0.409644
O O1 0.386150 0.209831 0.783508
O O2 0.245686 0.181708 0.135306
O O3 0.000000 0.500000 0.185062
O O4 0.000000 0.000000 0.198592
O O5 0.500000 0.500000 0.000000
O O6 0.748852 0.826934 0.954754
O O7 0.000000 0.500000 0.000000
O O8 0.500000 0.500000 0.408912
O O9 0.000000 0.500000 0.410008
#
# Coordination Sequence:
#
# PCOD9395168 Si02
#       4
#     2   8   4   8
#     4  12  30  50  80 102 152 198 262 318 394 444
#     4  11  28  50  72 107 144 190 248 309 375 449
#     4   8  14  30  61  99 137 183 230 286 356 437
#     4   9  19  38  67 102 143 186 237 295 364 440
#
# _framework density 25.493319
#
# number of rings (size 3 to 8) (size 9 to 14) (size 15 to 20)
#    0.000    2.182    0.000    0.545   10.182    4.364 
#    0.000    0.909    0.000    1.091    0.000    0.000 
#    0.000    0.000    0.000    0.000    0.000    0.000 
#
# Total GULP energy -122822.667038 kJ/mol
# GULP energy per Si atom -5582.848502 kJ/mol
# Density = 2.543530 g / cm^3
# Si number density = 25.493319 Si / 1000 Ang^3
#
#
#
# Elastic Constant Matrix: (Units=GPa)
#
#
# Indices 1 2 3 4 5 6 
#
# 1 128.9230 18.8817 15.6857 0.0000 0.0000 0.0000
# 2 18.8817 77.4565 9.2013 0.0000 0.0000 0.0000
# 3 15.6857 9.2013 290.5459 0.0000 0.0000 0.0000
# 4 0.0000 0.0000 0.0000 77.0016 0.0000 0.0000
# 5 0.0000 0.0000 0.0000 0.0000 50.8621 0.0000
# 6 0.0000 0.0000 0.0000 0.0000 0.0000 32.5389
#
#
#
# Elastic Compliance Matrix: (Units=1/GPa)
#
#
# Indices 1 2 3 4 5 6 
#
# 1 0.008084 -0.001926 -0.000375 0.000000 0.000000 0.000000
# 2 -0.001926 0.013418 -0.000321 0.000000 0.000000 0.000000
# 3 -0.000375 -0.000321 0.003472 0.000000 0.000000 0.000000
# 4 0.000000 0.000000 0.000000 0.012987 0.000000 0.000000
# 5 0.000000 0.000000 0.000000 0.000000 0.019661 0.000000
# 6 0.000000 0.000000 0.000000 0.000000 0.000000 0.030732
#
#
# Mechanical properties :
#
#
# Convention : Reuss Voigt Hill
#
# Bulk Modulus (GPa) = 50.68517 64.94030 57.81274
# Shear Modulus (GPa) = 49.91190 62.29097 56.10144
#
# Velocity S-wave (km/s) = 4.42955 4.94846 4.69618
# Velocity P-wave (km/s) = 6.78868 7.62748 7.22027
#
# Compressibility (1/GPa) = 0.01972964
#
# Stress axis : x y z
#
# Youngs Moduli (GPa) = 123.69588 74.52602 287.99929
#
# Poissons Ratio (x) = 0.14355 0.10813
# Poissons Ratio (y) = 0.23825 0.09243
# Poissons Ratio (z) = 0.04644 0.02392
#
# Static dielectric constant tensor:
#      x y z
#    x 1.997560 0.000000 0.000000 
#    y 0.000000 1.712080 0.000000 
#    z 0.000000 0.000000 2.044630 
# 
# From -- ./inp_files/25357.got.cif
#   From: 2010.05.17/outbox.cif.g08.bks.cpg/sg49_13_cif.got.tgz:25357.got - 2010.06.03 21:02:19.
