data_PCOD9395740
_publ_section_title
;
Structure prediction by ZEFSAII (Michael W. Deem and Ramdas Pophale) SiO2 
 PCOD9395740
Probable space group: P B A N
;
_chemical_formula_sum "Si O2"
_cell_formula_units_Z 64
_cell_length_a 24.718423
_cell_length_b 14.463272
_cell_length_c 9.367955
_cell_angle_alpha 90.000000
_cell_angle_beta 90.000000
_cell_angle_gamma 90.000000
_cell_volume 3349.130803
_symmetry_space_group_name_H-M "P B A N"
_symmetry_group_IT_number 50
_space_group.IT_coordinate_system_code '2'
_symmetry_cell_setting 'orthorhombic'
loop_
_space_group_symop_operation_xyz
x,y,z
1/2-x,1/2-y,z
x,1/2-y,-z
1/2-x,y,-z
-x,-y,-z
1/2+x,1/2+y,-z
-x,1/2+y,z
1/2+x,-y,z
loop_
_atom_site_type_symbol
_atom_site_label
_atom_site_fract_x
_atom_site_fract_y
_atom_site_fract_z
Si Si1 0.643129 0.660153 0.588553
Si Si2 0.541846 0.311754 0.288160
Si Si3 0.753726 0.358688 0.170866
Si Si4 0.645410 0.415672 0.305029
Si Si5 0.544164 0.395226 0.608398
Si Si6 0.428886 0.227997 0.834944
Si Si7 0.571189 0.589107 0.345334
Si Si8 0.661887 0.044404 0.377774
O O1 0.666084 0.750000 0.500000
O O2 0.620642 0.682811 0.746134
O O3 0.590406 0.635136 0.492982
O O4 0.676629 0.563989 0.596702
O O5 0.600447 0.347592 0.237274
O O6 0.540388 0.361171 0.443769
O O7 0.546448 0.201973 0.309517
O O8 0.486162 0.323811 0.199585
O O9 0.750000 0.250000 0.211902
O O10 0.700343 0.411189 0.221528
O O11 0.803761 0.406488 0.254405
O O12 0.750000 0.363073 0.000000
O O13 0.615227 0.513732 0.306297
O O14 0.663261 0.400236 0.471026
O O15 0.489219 0.448422 0.642811
O O16 0.597286 0.451838 0.648440
O O17 0.432038 0.328705 0.764704
O O18 0.420521 0.250000 0.000000
#
# Coordination Sequence:
#
# PCOD9395740 Si02
#       8
#     8   8   8   8   8   8   8   8
#     4   9  18  34  57  85 118 149 189 241 304 346
#     4   9  17  30  50  79 113 151 187 232 281 335
#     4  11  25  45  61  82 121 160 194 245 304 353
#     4  10  21  36  61  84 110 147 199 246 285 343
#     4   9  16  30  54  85 114 145 189 233 286 345
#     4  10  19  32  49  77 119 163 190 224 287 360
#     4   9  18  33  54  83 116 149 183 246 294 344
#     4  10  21  35  65  90 108 150 203 250 290 352
#
# _framework density 19.109435999999999
#
# number of rings (size 3 to 8) (size 9 to 14) (size 15 to 20)
#    0.000    2.375    1.250    1.125    1.750    4.500 
#    6.750    0.625    0.000   12.750    0.000    8.750 
#    0.000    0.000    0.000    0.000    0.000    0.000 
#
# Total GULP energy -356283.824977 kJ/mol
# GULP energy per Si atom -5566.934765 kJ/mol
# Density = 1.906594 g / cm^3
# Si number density = 19.109436 Si / 1000 Ang^3
#
#
#
# Elastic Constant Matrix: (Units=GPa)
#
#
# Indices 1 2 3 4 5 6 
#
# 1 66.7620 25.9390 32.4647 0.0000 0.0000 0.0000
# 2 25.9390 92.6140 22.6270 0.0000 0.0000 0.0000
# 3 32.4647 22.6270 87.8433 0.0000 0.0000 0.0000
# 4 0.0000 0.0000 0.0000 18.7990 0.0000 0.0000
# 5 0.0000 0.0000 0.0000 0.0000 15.5941 0.0000
# 6 0.0000 0.0000 0.0000 0.0000 0.0000 20.1828
#
#
#
# Elastic Compliance Matrix: (Units=1/GPa)
#
#
# Indices 1 2 3 4 5 6 
#
# 1 0.019530 -0.003955 -0.006199 0.000000 0.000000 0.000000
# 2 -0.003955 0.012324 -0.001713 0.000000 0.000000 0.000000
# 3 -0.006199 -0.001713 0.014116 0.000000 0.000000 0.000000
# 4 0.000000 0.000000 0.000000 0.053194 0.000000 0.000000
# 5 0.000000 0.000000 0.000000 0.000000 0.064127 0.000000
# 6 0.000000 0.000000 0.000000 0.000000 0.000000 0.049547
#
#
# Mechanical properties :
#
#
# Convention : Reuss Voigt Hill
#
# Bulk Modulus (GPa) = 44.97249 45.47565 45.22407
# Shear Modulus (GPa) = 20.49320 21.99440 21.24380
#
# Velocity S-wave (km/s) = 3.27832 3.39628 3.33782
# Velocity P-wave (km/s) = 6.15753 6.26328 6.21063
#
# Compressibility (1/GPa) = 0.02223581
#
# Stress axis : x y z
#
# Youngs Moduli (GPa) = 51.20408 81.14434 70.84165
#
# Poissons Ratio (x) = 0.32095 0.43914
# Poissons Ratio (y) = 0.20253 0.12132
# Poissons Ratio (z) = 0.31741 0.13897
#
# Static dielectric constant tensor:
#      x y z
#    x 1.697330 0.000000 0.000000 
#    y 0.000000 1.710640 0.000000 
#    z 0.000000 0.000000 1.692750 
# 
# From -- ./inp_files/16119.got.cif
#   From: 2010.05.17/outbox.cif.g08.bks.cpg/sg50_9_cif.got.tgz:16119.got - 2010.06.03 11:33:33.
