data_PCOD9395069
_publ_section_title
;
Structure prediction by ZEFSAII (Michael W. Deem and Ramdas Pophale) SiO2 
 PCOD9395069
Probable space group: P C C M
;
_chemical_formula_sum "Si O2"
_cell_formula_units_Z 48
_cell_length_a 9.177498
_cell_length_b 19.910518
_cell_length_c 14.155008
_cell_angle_alpha 90.000000
_cell_angle_beta 90.000000
_cell_angle_gamma 90.000000
_cell_volume 2586.526764
_symmetry_space_group_name_H-M "P C C M"
_symmetry_group_IT_number 49
_symmetry_cell_setting 'orthorhombic'
loop_
_space_group_symop_operation_xyz
x,y,z
-x,-y,z
x,-y,1/2-z
-x,y,1/2-z
-x,-y,-z
x,y,-z
-x,y,1/2+z
x,-y,1/2+z
loop_
_atom_site_type_symbol
_atom_site_label
_atom_site_fract_x
_atom_site_fract_y
_atom_site_fract_z
Si Si1 0.346615 0.180912 0.304482
Si Si2 0.184743 0.439937 0.612358
Si Si3 0.161898 0.067724 0.206717
Si Si4 0.672072 0.330811 0.233766
Si Si5 0.848997 0.407327 0.386886
Si Si6 0.407199 0.105026 0.500000
Si Si7 0.267597 0.042767 0.000000
O O1 0.500000 0.181870 0.250000
O O2 0.243638 0.132555 0.244398
O O3 0.287904 0.257002 0.304519
O O4 0.370576 0.148342 0.407179
O O5 0.195834 0.438342 0.500000
O O6 0.293371 0.388976 0.659778
O O7 0.206799 0.517747 0.639053
O O8 0.021150 0.414024 0.635256
O O9 0.177239 0.060454 0.094217
O O10 0.000000 0.070137 0.250000
O O11 0.233237 0.000000 0.250000
O O12 0.500000 0.330560 0.250000
O O13 0.763897 0.352001 0.326680
O O14 0.833555 0.397527 0.500000
O O15 0.577934 0.083008 0.500000
O O16 0.313519 0.035919 0.500000
#
# Coordination Sequence:
#
# PCOD9395069 Si02
#       7
#     8   8   8   8   8   4   4
#     4  11  24  43  61  90 125 167 209 255 299 372
#     4   9  19  37  64  88 113 155 209 258 298 359
#     4  11  24  41  64  95 134 155 200 262 316 374
#     4  11  24  37  56  87 125 162 193 246 313 367
#     4   9  19  39  62  87 116 156 209 256 299 360
#     4  11  22  39  74  93 120 164 223 253 295 375
#     4  11  22  40  73 100 113 171 213 259 315 363
#
# _framework density 18.557704999999999
#
# number of rings (size 3 to 8) (size 9 to 14) (size 15 to 20)
#    0.000    1.667    3.333    2.000    1.167    7.000 
#    6.000    1.667    0.000    0.000    0.000    0.000 
#    0.000    0.000    0.000    0.000    0.000    0.000 
#
# Total GULP energy -267943.966746 kJ/mol
# GULP energy per Si atom -5582.165974 kJ/mol
# Density = 1.851547 g / cm^3
# Si number density = 18.557705 Si / 1000 Ang^3
#
#
#
# Elastic Constant Matrix: (Units=GPa)
#
#
# Indices 1 2 3 4 5 6 
#
# 1 57.2772 48.0936 33.4961 0.0000 0.0000 0.0000
# 2 48.0936 133.8766 52.4168 0.0000 0.0000 0.0000
# 3 33.4961 52.4168 146.5008 0.0000 0.0000 0.0000
# 4 0.0000 0.0000 0.0000 -0.3181 0.0000 0.0000
# 5 0.0000 0.0000 0.0000 0.0000 36.7075 0.0000
# 6 0.0000 0.0000 0.0000 0.0000 0.0000 77.2995
#
#
#
# Elastic Compliance Matrix: (Units=1/GPa)
#
#
# Indices 1 2 3 4 5 6 
#
# 1 0.026115 -0.008191 -0.003040 0.000000 0.000000 0.000000
# 2 -0.008191 0.011256 -0.002154 0.000000 0.000000 0.000000
# 3 -0.003040 -0.002154 0.008292 0.000000 0.000000 0.000000
# 4 0.000000 0.000000 0.000000 -3.143495 0.000000 0.000000
# 5 0.000000 0.000000 0.000000 0.000000 0.027242 0.000000
# 6 0.000000 0.000000 0.000000 0.000000 0.000000 0.012937
#
#
# Mechanical properties :
#
#
# Convention : Reuss Voigt Hill
#
# Bulk Modulus (GPa) = 52.93567 67.29640 60.11603
# Shear Modulus (GPa) = -1.65312 36.31432 17.33060
#
# Velocity S-wave (km/s) = -0.94485 4.42841 3.05925
# Velocity P-wave (km/s) = 5.23417 7.90505 6.70397
#
# Compressibility (1/GPa) = 0.01889086
#
# Stress axis : x y z
#
# Youngs Moduli (GPa) = 38.29282 88.84471 120.60076
#
# Poissons Ratio (x) = 0.72773 0.36665
# Poissons Ratio (y) = 0.31366 0.25982
# Poissons Ratio (z) = 0.11642 0.19140
#
# Static dielectric constant tensor:
#      x y z
#    x 1.523670 0.000000 0.000000 
#    y 0.000000 1.637490 0.000000 
#    z 0.000000 0.000000 1.647440 
# 
# From -- ./inp_files/11893.got.cif
#   From: 2010.05.17/outbox.cif.g08.bks.cpg/sg49_6_cif.got.tgz:11893.got - 2010.06.03 21:02:19.
