data_PCOD9395408
_publ_section_title
;
Structure prediction by ZEFSAII (Michael W. Deem and Ramdas Pophale) SiO2 
 PCOD9395408
Probable space group: P B A N
;
_chemical_formula_sum "Si O2"
_cell_formula_units_Z 40
_cell_length_a 8.785294
_cell_length_b 14.730811
_cell_length_c 12.614224
_cell_angle_alpha 90.000000
_cell_angle_beta 90.000000
_cell_angle_gamma 90.000000
_cell_volume 1632.463561
_symmetry_space_group_name_H-M "P B A N"
_symmetry_group_IT_number 50
_space_group.IT_coordinate_system_code '2'
_symmetry_cell_setting 'orthorhombic'
loop_
_space_group_symop_operation_xyz
x,y,z
1/2-x,1/2-y,z
x,1/2-y,-z
1/2-x,y,-z
-x,-y,-z
1/2+x,1/2+y,-z
-x,1/2+y,z
1/2+x,-y,z
loop_
_atom_site_type_symbol
_atom_site_label
_atom_site_fract_x
_atom_site_fract_y
_atom_site_fract_z
Si Si1 0.461648 0.057477 0.762496
Si Si2 0.302011 0.016017 0.389075
Si Si3 0.589125 0.419162 0.940542
Si Si4 0.921072 0.706230 0.602031
Si Si5 0.066904 0.250953 0.841121
O O1 0.331597 0.067682 0.674282
O O2 0.474630 0.142694 0.841467
O O3 0.614036 0.046066 0.695447
O O4 0.410446 0.967695 0.825248
O O5 0.250000 0.974447 0.500000
O O6 0.413746 0.099009 0.417614
O O7 0.506512 0.323101 0.918992
O O8 0.750000 0.407736 0.000000
O O9 0.500000 0.500000 0.000000
O O10 0.750000 0.750000 0.603878
O O11 0.000430 0.750000 0.500000
O O12 0.978173 0.723057 0.720666
O O13 0.250000 0.250000 0.853938
#
# Coordination Sequence:
#
# PCOD9395408 Si02
#       5
#     8   8   8   8   8
#     4  12  24  44  73 106 148 197 252 317 389 465
#     4  12  22  39  68 112 152 196 248 312 379 472
#     4  12  27  49  77 112 151 201 268 332 397 470
#     4  10  16  33  67 103 140 192 255 288 367 459
#     4  11  21  44  74 105 148 201 258 323 391 471
#
# _framework density 24.502842999999999
#
# number of rings (size 3 to 8) (size 9 to 14) (size 15 to 20)
#    0.000    0.600    8.000    3.000    0.000    0.800 
#    0.000    9.000    0.000    1.200    0.000    0.000 
#    0.000    0.000    0.000    0.000    0.000    0.000 
#
# Total GULP energy -223614.449121 kJ/mol
# GULP energy per Si atom -5590.361228 kJ/mol
# Density = 2.444707 g / cm^3
# Si number density = 24.502843 Si / 1000 Ang^3
#
#
#
# Elastic Constant Matrix: (Units=GPa)
#
#
# Indices 1 2 3 4 5 6 
#
# 1 105.7429 71.2631 62.2819 0.0000 0.0000 0.0000
# 2 71.2631 180.9308 73.8683 0.0000 0.0000 0.0000
# 3 62.2819 73.8683 151.3775 0.0000 0.0000 0.0000
# 4 0.0000 0.0000 0.0000 75.8896 0.0000 0.0000
# 5 0.0000 0.0000 0.0000 0.0000 26.2969 0.0000
# 6 0.0000 0.0000 0.0000 0.0000 0.0000 29.9437
#
#
#
# Elastic Compliance Matrix: (Units=1/GPa)
#
#
# Indices 1 2 3 4 5 6 
#
# 1 0.014580 -0.004113 -0.003992 0.000000 0.000000 0.000000
# 2 -0.004113 0.008062 -0.002242 0.000000 0.000000 0.000000
# 3 -0.003992 -0.002242 0.009342 0.000000 0.000000 0.000000
# 4 0.000000 0.000000 0.000000 0.013177 0.000000 0.000000
# 5 0.000000 0.000000 0.000000 0.000000 0.038027 0.000000
# 6 0.000000 0.000000 0.000000 0.000000 0.000000 0.033396
#
#
# Mechanical properties :
#
#
# Convention : Reuss Voigt Hill
#
# Bulk Modulus (GPa) = 88.56351 94.76419 91.66385
# Shear Modulus (GPa) = 35.45060 41.80190 38.62625
#
# Velocity S-wave (km/s) = 3.80780 4.13486 3.97470
# Velocity P-wave (km/s) = 7.45353 7.84569 7.65212
#
# Compressibility (1/GPa) = 0.01129133
#
# Stress axis : x y z
#
# Youngs Moduli (GPa) = 68.58854 124.03506 107.03966
#
# Poissons Ratio (x) = 0.51014 0.42726
# Poissons Ratio (y) = 0.28209 0.23998
# Poissons Ratio (z) = 0.27378 0.27809
#
# Static dielectric constant tensor:
#      x y z
#    x 2.007970 0.000000 0.000000 
#    y 0.000000 1.949390 0.000000 
#    z 0.000000 0.000000 2.203290 
# 
# From -- ./inp_files/24655.got.cif
#   From: 2010.05.17/outbox.cif.g08.bks.cpg/sg50_13_cif.got.tgz:24655.got - 2010.06.03 11:33:33.
