data_PCOD9395744
_publ_section_title
;
Structure prediction by ZEFSAII (Michael W. Deem and Ramdas Pophale) SiO2 
 PCOD9395744
Probable space group: P B A N
;
_chemical_formula_sum "Si O2"
_cell_formula_units_Z 40
_cell_length_a 7.631822
_cell_length_b 24.181726
_cell_length_c 8.806020
_cell_angle_alpha 90.000000
_cell_angle_beta 90.000000
_cell_angle_gamma 90.000000
_cell_volume 1625.156525
_symmetry_space_group_name_H-M "P B A N"
_symmetry_group_IT_number 50
_space_group.IT_coordinate_system_code '2'
_symmetry_cell_setting 'orthorhombic'
loop_
_space_group_symop_operation_xyz
x,y,z
1/2-x,1/2-y,z
x,1/2-y,-z
1/2-x,y,-z
-x,-y,-z
1/2+x,1/2+y,-z
-x,1/2+y,z
1/2+x,-y,z
loop_
_atom_site_type_symbol
_atom_site_label
_atom_site_fract_x
_atom_site_fract_y
_atom_site_fract_z
Si Si1 0.292237 0.515314 0.823618
Si Si2 0.076254 0.592310 0.597546
Si Si3 0.117162 0.079342 0.298547
Si Si4 0.974992 0.313946 0.834768
Si Si5 0.550042 0.313665 0.816201
O O1 0.158136 0.549478 0.717393
O O2 0.287666 0.453113 0.757749
O O3 0.471480 0.548114 0.803299
O O4 0.250000 0.515757 0.000000
O O5 0.250000 0.610176 0.500000
O O6 0.996646 0.644704 0.684838
O O7 0.943445 0.569564 0.470920
O O8 0.086798 0.143431 0.262815
O O9 0.763512 0.319532 0.817677
O O10 0.005149 0.249903 0.794446
O O11 0.011189 0.326473 0.012438
#
# Coordination Sequence:
#
# PCOD9395744 Si02
#       5
#     8   8   8   8   8
#     4  11  22  37  54  76 107 152 188 227 272 337
#     4  10  19  32  51  78 114 143 180 233 284 340
#     4  11  22  36  53  81 114 141 186 232 279 338
#     4   9  17  30  52  78 110 139 176 229 279 341
#     4   9  16  30  51  77 112 139 172 227 296 322
#
# _framework density 24.613015000000001
#
# number of rings (size 3 to 8) (size 9 to 14) (size 15 to 20)
#    0.000    2.000    4.000    3.600    0.000    0.800 
#    0.000    0.000    0.000    0.000    0.000    9.800 
#    0.000   16.000    0.000    0.000    0.000    0.000 
#
# Total GULP energy -223930.967054 kJ/mol
# GULP energy per Si atom -5598.274176 kJ/mol
# Density = 2.455699 g / cm^3
# Si number density = 24.613015 Si / 1000 Ang^3
#
#
#
# Elastic Constant Matrix: (Units=GPa)
#
#
# Indices 1 2 3 4 5 6 
#
# 1 77.8212 15.5689 2.1527 0.0000 0.0000 0.0000
# 2 15.5689 128.5281 71.2170 0.0000 0.0000 0.0000
# 3 2.1527 71.2170 164.5441 0.0000 0.0000 0.0000
# 4 0.0000 0.0000 0.0000 39.1662 0.0000 0.0000
# 5 0.0000 0.0000 0.0000 0.0000 10.6358 0.0000
# 6 0.0000 0.0000 0.0000 0.0000 0.0000 17.2143
#
#
#
# Elastic Compliance Matrix: (Units=1/GPa)
#
#
# Indices 1 2 3 4 5 6 
#
# 1 0.013227 -0.001982 0.000685 0.000000 0.000000 0.000000
# 2 -0.001982 0.010532 -0.004532 0.000000 0.000000 0.000000
# 3 0.000685 -0.004532 0.008030 0.000000 0.000000 0.000000
# 4 0.000000 0.000000 0.000000 0.025532 0.000000 0.000000
# 5 0.000000 0.000000 0.000000 0.000000 0.094022 0.000000
# 6 0.000000 0.000000 0.000000 0.000000 0.000000 0.058091
#
#
# Mechanical properties :
#
#
# Convention : Reuss Voigt Hill
#
# Bulk Modulus (GPa) = 49.67553 60.97452 55.32502
# Shear Modulus (GPa) = 21.94866 32.20024 27.07445
#
# Velocity S-wave (km/s) = 2.98946 3.62091 3.32023
# Velocity P-wave (km/s) = 5.66941 6.50449 6.10126
#
# Compressibility (1/GPa) = 0.02013063
#
# Stress axis : x y z
#
# Youngs Moduli (GPa) = 75.60021 94.95030 124.53106
#
# Poissons Ratio (x) = 0.18815 -0.08526
# Poissons Ratio (y) = 0.14981 0.56442
# Poissons Ratio (z) = -0.05176 0.43035
#
# Static dielectric constant tensor:
#      x y z
#    x 2.138400 0.000000 0.000000 
#    y 0.000000 1.933390 0.000000 
#    z 0.000000 0.000000 1.893240 
# 
# From -- ./inp_files/9519.got.cif
#   From: 2010.05.17/outbox.cif.g08.bks.cpg/sg50_5_cif.got.tgz:9519.got - 2010.06.03 11:33:33.
