data_PCOD9395153
_publ_section_title
;
Structure prediction by ZEFSAII (Michael W. Deem and Ramdas Pophale) SiO2 
 PCOD9395153
Probable space group: P C C M
;
_chemical_formula_sum "Si O2"
_cell_formula_units_Z 30
_cell_length_a 13.758610
_cell_length_b 5.485580
_cell_length_c 17.393412
_cell_angle_alpha 90.000000
_cell_angle_beta 90.000000
_cell_angle_gamma 90.000000
_cell_volume 1312.749609
_symmetry_space_group_name_H-M "P C C M"
_symmetry_group_IT_number 49
_symmetry_cell_setting 'orthorhombic'
loop_
_space_group_symop_operation_xyz
x,y,z
-x,-y,z
x,-y,1/2-z
-x,y,1/2-z
-x,-y,-z
x,y,-z
-x,y,1/2+z
x,-y,1/2+z
loop_
_atom_site_type_symbol
_atom_site_label
_atom_site_fract_x
_atom_site_fract_y
_atom_site_fract_z
Si Si1 0.149286 0.344564 0.830482
Si Si2 0.320344 0.070585 0.500000
Si Si3 0.500000 0.000000 0.890163
Si Si4 0.000000 0.000000 0.250000
Si Si5 0.365056 0.252426 0.795999
Si Si6 0.192445 0.564533 0.500000
O O1 0.147693 0.500000 0.750000
O O2 0.259426 0.247800 0.835176
O O3 0.134981 0.446162 0.917517
O O4 0.069069 0.148816 0.807605
O O5 0.399886 0.070344 0.568145
O O6 0.259573 0.320871 0.500000
O O7 0.253768 0.823932 0.500000
O O8 0.538383 0.765849 0.845873
O O9 0.365550 0.500000 0.750000
O O10 0.368927 0.000000 0.750000
#
# Coordination Sequence:
#
# PCOD9395153 Si02
#       6
#     8   4   4   2   8   4
#     4  11  27  51  81 118 155 205 261 329 402 473
#     4  11  28  46  72 113 159 217 271 316 384 454
#     4  11  25  46  70 112 161 217 268 321 369 466
#     4  12  26  54  88 116 148 198 262 342 406 486
#     4  11  25  43  70 108 155 206 261 317 383 455
#     4  12  28  52  83 112 166 214 259 326 392 473
#
# _framework density 22.852796999999999
#
# number of rings (size 3 to 8) (size 9 to 14) (size 15 to 20)
#    0.000    0.800    4.000    0.800   11.200    6.933 
#    0.000    2.667    0.000    0.000    0.000    0.000 
#    0.000    0.000    0.000    0.000    0.000    0.000 
#
# Total GULP energy -167116.915558 kJ/mol
# GULP energy per Si atom -5570.563852 kJ/mol
# Density = 2.280078 g / cm^3
# Si number density = 22.852797 Si / 1000 Ang^3
#
#
#
# Elastic Constant Matrix: (Units=GPa)
#
#
# Indices 1 2 3 4 5 6 
#
# 1 98.7885 60.9596 58.3454 0.0000 0.0000 0.0000
# 2 60.9596 148.7345 66.9405 0.0000 0.0000 0.0000
# 3 58.3454 66.9405 174.5236 0.0000 0.0000 0.0000
# 4 0.0000 0.0000 0.0000 29.1873 0.0000 0.0000
# 5 0.0000 0.0000 0.0000 0.0000 15.5684 0.0000
# 6 0.0000 0.0000 0.0000 0.0000 0.0000 10.6646
#
#
#
# Elastic Compliance Matrix: (Units=1/GPa)
#
#
# Indices 1 2 3 4 5 6 
#
# 1 0.014884 -0.004666 -0.003186 0.000000 0.000000 0.000000
# 2 -0.004666 0.009589 -0.002118 0.000000 0.000000 0.000000
# 3 -0.003186 -0.002118 0.007607 0.000000 0.000000 0.000000
# 4 0.000000 0.000000 0.000000 0.034262 0.000000 0.000000
# 5 0.000000 0.000000 0.000000 0.000000 0.064233 0.000000
# 6 0.000000 0.000000 0.000000 0.000000 0.000000 0.093769
#
#
# Mechanical properties :
#
#
# Convention : Reuss Voigt Hill
#
# Bulk Modulus (GPa) = 82.37463 88.28196 85.32829
# Shear Modulus (GPa) = 20.13448 26.80412 23.46930
#
# Velocity S-wave (km/s) = 2.97147 3.42848 3.20812
# Velocity P-wave (km/s) = 6.92076 7.37477 7.15137
#
# Compressibility (1/GPa) = 0.01213966
#
# Stress axis : x y z
#
# Youngs Moduli (GPa) = 67.18740 104.28473 131.45074
#
# Poissons Ratio (x) = 0.48662 0.41881
# Poissons Ratio (y) = 0.31351 0.27842
# Poissons Ratio (z) = 0.21406 0.22088
#
# Static dielectric constant tensor:
#      x y z
#    x 1.807490 0.000000 0.000000 
#    y 0.000000 1.734250 0.000000 
#    z 0.000000 0.000000 2.222170 
# 
# From -- ./inp_files/17470.got.cif
#   From: 2010.05.17/outbox.cif.g08.bks.cpg/sg49_9_cif.got.tgz:17470.got - 2010.06.03 21:02:19.
