data_PCOD9395789
_publ_section_title
;
Structure prediction by ZEFSAII (Michael W. Deem and Ramdas Pophale) SiO2 
 PCOD9395789
Probable space group: P B A N
;
_chemical_formula_sum "Si O2"
_cell_formula_units_Z 56
_cell_length_a 17.748667
_cell_length_b 5.309259
_cell_length_c 29.905372
_cell_angle_alpha 90.000000
_cell_angle_beta 90.000000
_cell_angle_gamma 90.000000
_cell_volume 2818.051089
_symmetry_space_group_name_H-M "P B A N"
_symmetry_group_IT_number 50
_space_group.IT_coordinate_system_code '2'
_symmetry_cell_setting 'orthorhombic'
loop_
_space_group_symop_operation_xyz
x,y,z
1/2-x,1/2-y,z
x,1/2-y,-z
1/2-x,y,-z
-x,-y,-z
1/2+x,1/2+y,-z
-x,1/2+y,z
1/2+x,-y,z
loop_
_atom_site_type_symbol
_atom_site_label
_atom_site_fract_x
_atom_site_fract_y
_atom_site_fract_z
Si Si1 0.948690 0.018365 0.726365
Si Si2 0.949509 0.007429 0.924957
Si Si3 0.294502 0.000104 0.564883
Si Si4 0.046217 0.437280 0.824570
Si Si5 0.283240 0.499918 0.050048
Si Si6 0.531977 0.000022 0.449608
Si Si7 0.795866 0.999920 0.672772
O O1 0.879279 0.002968 0.692767
O O2 0.005157 0.779625 0.721463
O O3 0.915987 0.997917 0.777224
O O4 0.002808 0.763417 0.931937
O O5 0.920411 0.992804 0.873298
O O6 0.873236 0.000658 0.953073
O O7 0.250000 0.750000 0.551683
O O8 0.250000 0.250000 0.551573
O O9 0.378914 0.999899 0.547144
O O10 0.300679 0.000603 0.618833
O O11 0.977753 0.643496 0.824048
O O12 0.250000 0.750000 0.072385
O O13 0.250000 0.250000 0.072418
O O14 0.250000 0.499866 0.000000
O O15 0.500019 0.749994 0.426827
O O16 0.500000 0.000000 0.500000
O O17 0.750000 0.750000 0.686239
O O18 0.750000 0.250000 0.686121
#
# Coordination Sequence:
#
# PCOD9395789 Si02
#       7
#     8   8   8   8   8   8   8
#     4  10  19  33  54  80 107 141 178 215 261 310
#     4  10  19  35  58  79  99 137 184 217 252 313
#     4  10  21  38  58  78 106 146 181 212 263 322
#     4   8  16  30  50  76 105 132 171 220 257 299
#     4  10  21  38  53  74 109 137 162 216 276 313
#     4  10  21  38  56  81 110 134 171 227 271 306
#     4  10  21  36  53  78 112 143 176 219 260 309
#
# _framework density 19.871891000000002
#
# number of rings (size 3 to 8) (size 9 to 14) (size 15 to 20)
#    0.000    2.286    0.000    2.571    0.000    1.143 
#    0.000   18.571    0.000    0.000    0.000    0.000 
#    0.000    0.000    0.000    0.000    0.000    0.000 
#
# Total GULP energy -312346.037077 kJ/mol
# GULP energy per Si atom -5577.607805 kJ/mol
# Density = 1.982666 g / cm^3
# Si number density = 19.871891 Si / 1000 Ang^3
#
#
#
# Elastic Constant Matrix: (Units=GPa)
#
#
# Indices 1 2 3 4 5 6 
#
# 1 161.5769 80.0869 40.9560 0.0000 0.0000 0.0000
# 2 80.0869 199.3003 16.6609 0.0000 0.0000 0.0000
# 3 40.9560 16.6609 58.4046 0.0000 0.0000 0.0000
# 4 0.0000 0.0000 0.0000 5.3773 0.0000 0.0000
# 5 0.0000 0.0000 0.0000 0.0000 47.7790 0.0000
# 6 0.0000 0.0000 0.0000 0.0000 0.0000 32.0260
#
#
#
# Elastic Compliance Matrix: (Units=1/GPa)
#
#
# Indices 1 2 3 4 5 6 
#
# 1 0.009191 -0.003231 -0.005523 0.000000 0.000000 0.000000
# 2 -0.003231 0.006276 0.000476 0.000000 0.000000 0.000000
# 3 -0.005523 0.000476 0.020859 0.000000 0.000000 0.000000
# 4 0.000000 0.000000 0.000000 0.185966 0.000000 0.000000
# 5 0.000000 0.000000 0.000000 0.000000 0.020930 0.000000
# 6 0.000000 0.000000 0.000000 0.000000 0.000000 0.031225
#
#
# Mechanical properties :
#
#
# Convention : Reuss Voigt Hill
#
# Bulk Modulus (GPa) = 50.58567 77.18771 63.88669
# Shear Modulus (GPa) = 16.80144 35.80833 26.30488
#
# Velocity S-wave (km/s) = 2.91088 4.24955 3.64225
# Velocity P-wave (km/s) = 6.06703 7.93759 7.06449
#
# Compressibility (1/GPa) = 0.01976844
#
# Stress axis : x y z
#
# Youngs Moduli (GPa) = 108.80576 159.32871 47.94021
#
# Poissons Ratio (x) = 0.51487 0.26478
# Poissons Ratio (y) = 0.35160 -0.02280
# Poissons Ratio (z) = 0.60095 -0.07578
#
# Static dielectric constant tensor:
#      x y z
#    x 1.640880 0.000000 0.000000 
#    y 0.000000 1.662550 0.000000 
#    z 0.000000 0.000000 1.720960 
# 
# From -- ./inp_files/32395.got.cif
#   From: 2010.05.17/outbox.cif.g08.bks.cpg/sg50_17_cif.got.tgz:32395.got - 2010.06.03 11:33:33.
