data_PCOD9395189
_publ_section_title
;
Structure prediction by ZEFSAII (Michael W. Deem and Ramdas Pophale) SiO2 
 PCOD9395189
Probable space group: P C C M
;
_chemical_formula_sum "Si O2"
_cell_formula_units_Z 48
_cell_length_a 7.149957
_cell_length_b 15.560298
_cell_length_c 17.200687
_cell_angle_alpha 90.000000
_cell_angle_beta 90.000000
_cell_angle_gamma 90.000000
_cell_volume 1913.670372
_symmetry_space_group_name_H-M "P C C M"
_symmetry_group_IT_number 49
_symmetry_cell_setting 'orthorhombic'
loop_
_space_group_symop_operation_xyz
x,y,z
-x,-y,z
x,-y,1/2-z
-x,y,1/2-z
-x,-y,-z
x,y,-z
-x,y,1/2+z
x,-y,1/2+z
loop_
_atom_site_type_symbol
_atom_site_label
_atom_site_fract_x
_atom_site_fract_y
_atom_site_fract_z
Si Si1 0.219729 0.477808 0.834854
Si Si2 0.287867 0.726105 0.500000
Si Si3 0.221916 0.519432 0.500000
Si Si4 0.282123 0.723585 0.334934
Si Si5 0.721284 0.770733 0.665888
Si Si6 0.280980 0.025137 0.334001
Si Si7 0.270256 0.230836 0.500000
Si Si8 0.278615 0.022788 0.500000
O O1 0.297576 0.500000 0.750000
O O2 0.293667 0.516355 0.916838
O O3 0.246637 0.376824 0.840690
O O4 0.000000 0.500000 0.832865
O O5 0.254956 0.622754 0.500000
O O6 0.215973 0.762790 0.417515
O O7 0.509562 0.745486 0.500000
O O8 0.000000 0.500000 0.500000
O O9 0.503828 0.742651 0.332714
O O10 0.203014 0.748708 0.251031
O O11 0.728858 0.872840 0.661680
O O12 0.802350 0.735860 0.583838
O O13 0.206887 0.989084 0.416483
O O14 0.500000 0.000000 0.332243
O O15 0.202588 0.000000 0.250000
O O16 0.256309 0.126680 0.500000
O O17 0.500000 0.000000 0.500000
#
# Coordination Sequence:
#
# PCOD9395189 Si02
#       8
#     8   4   4   8   8   8   4   4
#     4   9  17  29  44  60  76  96 123 159 199 241
#     4   8  14  22  36  54  72  95 123 156 193 231
#     4   8  14  26  43  59  74  92 117 150 196 244
#     4   9  15  25  39  56  76  99 127 159 195 237
#     4   9  16  25  37  55  78 107 136 165 198 235
#     4   9  14  21  32  48  72 103 135 165 191 225
#     4   8  14  24  35  48  73 104 136 165 193 231
#     4   8  14  20  28  43  65  97 136 167 192 218
#
# _framework density 25.082691000000001
#
# number of rings (size 3 to 8) (size 9 to 14) (size 15 to 20)
#    0.000    3.333    0.000    2.000    0.000    1.333 
#    0.000    2.500    0.000    0.000    0.000   17.500 
#    0.000    0.000    0.000   48.000    0.000   20.000 
#
# Total GULP energy -267456.149046 kJ/mol
# GULP energy per Si atom -5572.003105 kJ/mol
# Density = 2.502560 g / cm^3
# Si number density = 25.082691 Si / 1000 Ang^3
#
#
#
# Elastic Constant Matrix: (Units=GPa)
#
#
# Indices 1 2 3 4 5 6 
#
# 1 119.6563 -11.2838 16.0236 0.0000 0.0000 0.0000
# 2 -11.2838 61.2242 21.8869 0.0000 0.0000 0.0000
# 3 16.0236 21.8869 403.5595 0.0000 0.0000 0.0000
# 4 0.0000 0.0000 0.0000 30.5015 0.0000 0.0000
# 5 0.0000 0.0000 0.0000 0.0000 -72.6810 0.0000
# 6 0.0000 0.0000 0.0000 0.0000 0.0000 222.0995
#
#
#
# Elastic Compliance Matrix: (Units=1/GPa)
#
#
# Indices 1 2 3 4 5 6 
#
# 1 0.008579 0.001737 -0.000435 0.000000 0.000000 0.000000
# 2 0.001737 0.017008 -0.000991 0.000000 0.000000 0.000000
# 3 -0.000435 -0.000991 0.002549 0.000000 0.000000 0.000000
# 4 0.000000 0.000000 0.000000 0.032785 0.000000 0.000000
# 5 0.000000 0.000000 0.000000 0.000000 -0.013759 0.000000
# 6 0.000000 0.000000 0.000000 0.000000 0.000000 0.004502
#
#
# Mechanical properties :
#
#
# Convention : Reuss Voigt Hill
#
# Bulk Modulus (GPa) = 34.77412 70.85481 52.81446
# Shear Modulus (GPa) = 82.46744 73.17155 77.81949
#
# Velocity S-wave (km/s) = 5.74017 5.40698 5.57607
# Velocity P-wave (km/s) = 7.60439 8.20307 7.90940
#
# Compressibility (1/GPa) = 0.02875702
#
# Stress axis : x y z
#
# Youngs Moduli (GPa) = 116.56006 58.79623 392.31362
#
# Poissons Ratio (x) = -0.10211 0.17059
# Poissons Ratio (y) = -0.20242 0.38893
# Poissons Ratio (z) = 0.05068 0.05829
#
# Static dielectric constant tensor:
#      x y z
#    x 2.064770 0.000000 0.000000 
#    y 0.000000 1.953250 0.000000 
#    z 0.000000 0.000000 2.209360 
# 
# From -- ./inp_files/16383.got.cif
#   From: 2010.05.17/outbox.cif.g08.bks.cpg/sg49_9_cif.got.tgz:16383.got - 2010.06.03 21:02:19.
