data_PCOD9395258
_publ_section_title
;
Structure prediction by ZEFSAII (Michael W. Deem and Ramdas Pophale) SiO2 
 PCOD9395258
Probable space group: P C C M
;
_chemical_formula_sum "Si O2"
_cell_formula_units_Z 40
_cell_length_a 9.000000
_cell_length_b 27.000000
_cell_length_c 9.000000
_cell_angle_alpha 90.000000
_cell_angle_beta 90.000000
_cell_angle_gamma 90.000000
_cell_volume 2187.000000
_symmetry_space_group_name_H-M "P C C M"
_symmetry_group_IT_number 49
_symmetry_cell_setting 'orthorhombic'
loop_
_space_group_symop_operation_xyz
x,y,z
-x,-y,z
x,-y,1/2-z
-x,y,1/2-z
-x,-y,-z
x,y,-z
-x,y,1/2+z
x,-y,1/2+z
loop_
_atom_site_type_symbol
_atom_site_label
_atom_site_fract_x
_atom_site_fract_y
_atom_site_fract_z
Si Si1 0.161172 0.147200 0.177996
Si Si2 0.340920 0.351658 0.821845
Si Si3 0.662954 0.950845 0.820934
Si Si4 0.162373 0.744367 0.679043
Si Si5 0.162567 0.450814 0.178078
O O1 0.254740 0.099535 0.221168
O O2 0.226028 0.201282 0.217614
O O3 0.000000 0.144229 0.250000
O O4 0.145949 0.146039 0.000000
O O5 0.500000 0.354866 0.750000
O O6 0.258894 0.301891 0.770099
O O7 0.249173 0.400870 0.785994
O O8 0.353531 0.349137 0.000000
O O9 0.500000 0.948072 0.750000
O O10 0.735232 0.000000 0.750000
O O11 0.655587 0.955273 0.000000
O O12 0.148588 0.741758 0.500000
O O13 0.000000 0.741023 0.750000
O O14 0.232949 0.500000 0.250000
O O15 0.000000 0.446663 0.250000
O O16 0.151961 0.456273 0.000000
#
# Coordination Sequence:
#
# PCOD9395258 Si02
#       5
#     8   8   8   8   8
#     4   9  19  34  53  76 102 130 165 207 252 298
#     4  10  22  36  52  76 106 136 169 207 251 299
#     4  10  20  34  51  73 100 133 169 206 247 297
#     4   9  18  35  55  76 101 131 167 208 250 298
#     4  10  20  35  55  79 103 133 171 210 250 298
#
# _framework density 18.289895000000001
#
# number of rings (size 3 to 8) (size 9 to 14) (size 15 to 20)
#    0.000    2.400    0.000    3.000    0.000    5.600 
#    0.000    4.000    0.000    0.000    0.000    0.000 
#    0.000    0.000    0.000    0.000    0.000    0.000 
#
# Total GULP energy -222996.379721 kJ/mol
# GULP energy per Si atom -5574.909493 kJ/mol
# Density = 1.824827 g / cm^3
# Si number density = 18.289895 Si / 1000 Ang^3
#
#
#
# Elastic Constant Matrix: (Units=GPa)
#
#
# Indices 1 2 3 4 5 6 
#
# 1 63.7802 91.9963 24.3510 0.0000 0.0000 0.0000
# 2 91.9963 228.6106 58.9302 0.0000 0.0000 0.0000
# 3 24.3510 58.9302 23.3855 0.0000 0.0000 0.0000
# 4 0.0000 0.0000 0.0000 24.7631 0.0000 0.0000
# 5 0.0000 0.0000 0.0000 0.0000 25.5012 0.0000
# 6 0.0000 0.0000 0.0000 0.0000 0.0000 6.4127
#
#
#
# Elastic Compliance Matrix: (Units=1/GPa)
#
#
# Indices 1 2 3 4 5 6 
#
# 1 0.037439 -0.014316 -0.002908 0.000000 0.000000 0.000000
# 2 -0.014316 0.017957 -0.030344 0.000000 0.000000 0.000000
# 3 -0.002908 -0.030344 0.122255 0.000000 0.000000 0.000000
# 4 0.000000 0.000000 0.000000 0.040383 0.000000 0.000000
# 5 0.000000 0.000000 0.000000 0.000000 0.039214 0.000000
# 6 0.000000 0.000000 0.000000 0.000000 0.000000 0.155941
#
#
# Mechanical properties :
#
#
# Convention : Reuss Voigt Hill
#
# Bulk Modulus (GPa) = 12.11917 74.03680 43.07798
# Shear Modulus (GPa) = 9.33132 20.70200 15.01666
#
# Velocity S-wave (km/s) = 2.26119 3.36799 2.86848
# Velocity P-wave (km/s) = 3.66849 7.46271 5.88004
#
# Compressibility (1/GPa) = 0.08251392
#
# Stress axis : x y z
#
# Youngs Moduli (GPa) = 26.71011 55.68784 8.17964
#
# Poissons Ratio (x) = 0.79724 0.02379
# Poissons Ratio (y) = 0.38239 0.24820
# Poissons Ratio (z) = 0.07768 1.68979
#
# Static dielectric constant tensor:
#      x y z
#    x 1.600350 0.000000 0.000000 
#    y 0.000000 1.683840 0.000000 
#    z 0.000000 0.000000 1.612020 
# 
# From -- ./inp_files/1695.got.cif
#   From: 2010.05.17/outbox.ucp.g08.bks.cvg/sg49_1_cif.got.tgz:1695.got - 2010.06.11 16:40:14.
