data_PCOD9395994
_publ_section_title
;
Structure prediction by ZEFSAII (Michael W. Deem and Ramdas Pophale) SiO2 
 PCOD9395994
Probable space group: P B A N
;
_chemical_formula_sum "Si O2"
_cell_formula_units_Z 60
_cell_length_a 24.469756
_cell_length_b 23.966547
_cell_length_c 5.203915
_cell_angle_alpha 90.000000
_cell_angle_beta 90.000000
_cell_angle_gamma 90.000000
_cell_volume 3051.864871
_symmetry_space_group_name_H-M "P B A N"
_symmetry_group_IT_number 50
_space_group.IT_coordinate_system_code '2'
_symmetry_cell_setting 'orthorhombic'
loop_
_space_group_symop_operation_xyz
x,y,z
1/2-x,1/2-y,z
x,1/2-y,-z
1/2-x,y,-z
-x,-y,-z
1/2+x,1/2+y,-z
-x,1/2+y,z
1/2+x,-y,z
loop_
_atom_site_type_symbol
_atom_site_label
_atom_site_fract_x
_atom_site_fract_y
_atom_site_fract_z
Si Si1 0.812066 0.812651 0.405912
Si Si2 0.750000 0.956283 0.000000
Si Si3 0.660856 0.629508 0.881282
Si Si4 0.812756 0.223570 0.750327
Si Si5 0.335039 0.529145 0.706234
Si Si6 0.648028 0.403643 0.770743
Si Si7 0.925604 0.548430 0.887379
Si Si8 0.535310 0.040940 0.307973
O O1 0.821859 0.750000 0.500000
O O2 0.750000 0.824594 0.500000
O O3 0.820310 0.826705 0.105448
O O4 0.849641 0.848212 0.597207
O O5 0.708235 0.916275 0.144791
O O6 0.714401 0.992792 0.809902
O O7 0.610391 0.596715 0.995784
O O8 0.750000 0.250000 0.750438
O O9 0.838725 0.250000 0.500000
O O10 0.823696 0.157336 0.754194
O O11 0.839061 0.250000 0.000000
O O12 0.321831 0.556950 0.435495
O O13 0.387610 0.487375 0.689708
O O14 0.347057 0.573748 0.936629
O O15 0.585465 0.414729 0.664339
O O16 0.982872 0.573448 0.799388
O O17 0.940276 0.502507 0.102459
O O18 0.500000 0.000000 0.500000
#
# Coordination Sequence:
#
# PCOD9395994 Si02
#       8
#     8   4   8   8   8   8   8   8
#     4  11  22  38  58  82 111 153 207 251 286 347
#     4  10  22  34  51  82 125 156 184 226 294 368
#     4  11  22  37  57  83 117 158 194 242 301 359
#     4  10  22  40  61  84 115 155 205 248 290 351
#     4  10  22  35  54  87 122 152 185 236 289 371
#     4  11  22  38  60  85 115 155 199 244 305 347
#     4   9  21  35  57  88 120 152 193 236 298 368
#     4  10  19  37  60  88 118 152 196 245 296 378
#
# _framework density 19.660108999999999
#
# number of rings (size 3 to 8) (size 9 to 14) (size 15 to 20)
#    0.000    1.733    2.667    1.200    1.867    9.067 
#    0.000    0.000    0.000    2.400    0.000    0.000 
#    0.000    0.000    0.000    0.000    0.000    0.000 
#
# Total GULP energy -334010.702367 kJ/mol
# GULP energy per Si atom -5566.845039 kJ/mol
# Density = 1.961536 g / cm^3
# Si number density = 19.660109 Si / 1000 Ang^3
#
#
#
# Elastic Constant Matrix: (Units=GPa)
#
#
# Indices 1 2 3 4 5 6 
#
# 1 87.0366 39.0642 -7.4049 0.0000 0.0000 0.0000
# 2 39.0642 81.6705 2.6107 0.0000 0.0000 0.0000
# 3 -7.4049 2.6107 57.4961 0.0000 0.0000 0.0000
# 4 0.0000 0.0000 0.0000 17.2390 0.0000 0.0000
# 5 0.0000 0.0000 0.0000 0.0000 5.2205 0.0000
# 6 0.0000 0.0000 0.0000 0.0000 0.0000 20.9558
#
#
#
# Elastic Compliance Matrix: (Units=1/GPa)
#
#
# Indices 1 2 3 4 5 6 
#
# 1 0.014915 -0.007206 0.002248 0.000000 0.000000 0.000000
# 2 -0.007206 0.015744 -0.001643 0.000000 0.000000 0.000000
# 3 0.002248 -0.001643 0.017757 0.000000 0.000000 0.000000
# 4 0.000000 0.000000 0.000000 0.058008 0.000000 0.000000
# 5 0.000000 0.000000 0.000000 0.000000 0.191552 0.000000
# 6 0.000000 0.000000 0.000000 0.000000 0.000000 0.047720
#
#
# Mechanical properties :
#
#
# Convention : Reuss Voigt Hill
#
# Bulk Modulus (GPa) = 28.39813 32.74925 30.57369
# Shear Modulus (GPa) = 13.49040 21.47860 17.48450
#
# Velocity S-wave (km/s) = 2.62235 3.30888 2.98541
# Velocity P-wave (km/s) = 4.86260 5.59394 5.24104
#
# Compressibility (1/GPa) = 0.03521359
#
# Stress axis : x y z
#
# Youngs Moduli (GPa) = 67.04724 63.51820 56.31709
#
# Poissons Ratio (x) = 0.45770 -0.12660
# Poissons Ratio (y) = 0.48313 0.09252
# Poissons Ratio (z) = -0.15073 0.10435
#
# Static dielectric constant tensor:
#      x y z
#    x 1.742670 0.000000 0.000000 
#    y 0.000000 1.722220 0.000000 
#    z 0.000000 0.000000 1.706740 
# 
# From -- ./inp_files/6121.got.cif
#   From: 2010.05.17/outbox.cif.g08.bks.cpg/sg50_4_cif.got.tgz:6121.got - 2010.06.03 11:33:33.
