data_PCOD9395943
_publ_section_title
;
Structure prediction by ZEFSAII (Michael W. Deem and Ramdas Pophale) SiO2 
 PCOD9395943
Probable space group: P B A N
;
_chemical_formula_sum "Si O2"
_cell_formula_units_Z 40
_cell_length_a 15.267746
_cell_length_b 17.601500
_cell_length_c 5.640465
_cell_angle_alpha 90.000000
_cell_angle_beta 90.000000
_cell_angle_gamma 90.000000
_cell_volume 1515.791666
_symmetry_space_group_name_H-M "P B A N"
_symmetry_group_IT_number 50
_space_group.IT_coordinate_system_code '2'
_symmetry_cell_setting 'orthorhombic'
loop_
_space_group_symop_operation_xyz
x,y,z
1/2-x,1/2-y,z
x,1/2-y,-z
1/2-x,y,-z
-x,-y,-z
1/2+x,1/2+y,-z
-x,1/2+y,z
1/2+x,-y,z
loop_
_atom_site_type_symbol
_atom_site_label
_atom_site_fract_x
_atom_site_fract_y
_atom_site_fract_z
Si Si1 0.034698 0.914269 0.342900
Si Si2 0.462871 0.750313 0.249961
Si Si3 0.355133 0.457076 0.856217
Si Si4 0.124740 0.432309 0.634425
Si Si5 0.700093 0.367009 0.240701
O O1 0.071948 0.836150 0.253395
O O2 0.960493 0.946139 0.166613
O O3 0.975895 0.905900 0.583653
O O4 0.108904 0.976478 0.365160
O O5 0.514332 0.750000 0.500000
O O6 0.383431 0.809903 0.259431
O O7 0.513125 0.750000 0.000000
O O8 0.328975 0.414615 0.613537
O O9 0.327373 0.545037 0.824418
O O10 0.334959 0.420241 0.109754
O O11 0.750000 0.363361 0.500000
O O12 0.750000 0.342560 0.000000
#
# Coordination Sequence:
#
# PCOD9395943 Si02
#       5
#     8   8   8   8   8
#     4   9  21  33  60  82 109 147 210 264 330 348
#     4  12  26  39  59  85 126 169 211 258 315 397
#     4  10  19  36  59  80 111 153 214 266 298 361
#     4   9  18  31  59  82 101 139 202 270 317 341
#     4  12  26  43  59  85 129 182 218 246 307 395
#
# _framework density 26.388850000000001
#
# number of rings (size 3 to 8) (size 9 to 14) (size 15 to 20)
#    1.200    0.400    0.000    5.400    2.800    2.400 
#    0.000    0.000    0.000    0.000    0.000    0.000 
#    0.000    4.800    0.000    3.600    0.000    0.000 
#
# Total GULP energy -222917.794964 kJ/mol
# GULP energy per Si atom -5572.944874 kJ/mol
# Density = 2.632879 g / cm^3
# Si number density = 26.388850 Si / 1000 Ang^3
#
#
#
# Elastic Constant Matrix: (Units=GPa)
#
#
# Indices 1 2 3 4 5 6 
#
# 1 81.9991 14.3410 71.2913 0.0000 0.0000 0.0000
# 2 14.3410 68.6486 0.4813 0.0000 0.0000 0.0000
# 3 71.2913 0.4813 316.5727 0.0000 0.0000 0.0000
# 4 0.0000 0.0000 0.0000 15.5836 0.0000 0.0000
# 5 0.0000 0.0000 0.0000 0.0000 43.3951 0.0000
# 6 0.0000 0.0000 0.0000 0.0000 0.0000 17.1703
#
#
#
# Elastic Compliance Matrix: (Units=1/GPa)
#
#
# Indices 1 2 3 4 5 6 
#
# 1 0.015875 -0.003291 -0.003570 0.000000 0.000000 0.000000
# 2 -0.003291 0.015249 0.000718 0.000000 0.000000 0.000000
# 3 -0.003570 0.000718 0.003962 0.000000 0.000000 0.000000
# 4 0.000000 0.000000 0.000000 0.064170 0.000000 0.000000
# 5 0.000000 0.000000 0.000000 0.000000 0.023044 0.000000
# 6 0.000000 0.000000 0.000000 0.000000 0.000000 0.058240
#
#
# Mechanical properties :
#
#
# Convention : Reuss Voigt Hill
#
# Bulk Modulus (GPa) = 43.86081 71.04974 57.45528
# Shear Modulus (GPa) = 24.94688 40.63693 32.79190
#
# Velocity S-wave (km/s) = 3.07800 3.92845 3.52894
# Velocity P-wave (km/s) = 5.41195 6.89634 6.19874
#
# Compressibility (1/GPa) = 0.02279939
#
# Stress axis : x y z
#
# Youngs Moduli (GPa) = 62.99372 65.57612 252.41850
#
# Poissons Ratio (x) = 0.21583 0.90111
# Poissons Ratio (y) = 0.20733 -0.18124
# Poissons Ratio (z) = 0.22488 -0.04708
#
# Static dielectric constant tensor:
#      x y z
#    x 2.227930 0.000000 0.000000 
#    y 0.000000 2.093750 0.000000 
#    z 0.000000 0.000000 2.302100 
# 
# From -- ./inp_files/5142.got.cif
#   From: 2010.05.17/outbox.cif.g08.bks.cpg/sg50_3_cif.got.tgz:5142.got - 2010.06.03 11:33:33.
