data_PCOD9395179
_publ_section_title
;
Structure prediction by ZEFSAII (Michael W. Deem and Ramdas Pophale) SiO2 
 PCOD9395179
Probable space group: P C C M
;
_chemical_formula_sum "Si O2"
_cell_formula_units_Z 64
_cell_length_a 27.119396
_cell_length_b 7.750029
_cell_length_c 15.277602
_cell_angle_alpha 90.000000
_cell_angle_beta 90.000000
_cell_angle_gamma 90.000000
_cell_volume 3210.986889
_symmetry_space_group_name_H-M "P C C M"
_symmetry_group_IT_number 49
_symmetry_cell_setting 'orthorhombic'
loop_
_space_group_symop_operation_xyz
x,y,z
-x,-y,z
x,-y,1/2-z
-x,y,1/2-z
-x,-y,-z
x,y,-z
-x,y,1/2+z
x,-y,1/2+z
loop_
_atom_site_type_symbol
_atom_site_label
_atom_site_fract_x
_atom_site_fract_y
_atom_site_fract_z
Si Si1 0.241069 0.791621 0.899761
Si Si2 0.572309 0.799720 0.250000
Si Si3 0.943533 0.211502 0.250000
Si Si4 0.241069 0.791620 0.600239
Si Si5 0.500000 0.788679 0.399263
Si Si6 0.683003 0.302522 0.250000
Si Si7 0.869719 0.210578 0.399730
Si Si8 0.869719 0.210578 0.100270
O O1 0.282956 0.734842 0.833692
O O2 0.185696 0.735617 0.873107
O O3 0.240686 0.000000 0.899329
O O4 0.249308 0.735428 0.000000
O O5 0.546626 0.731846 0.339035
O O6 0.546626 0.731846 0.160965
O O7 0.630944 0.791741 0.250000
O O8 0.558573 0.000000 0.250000
O O9 0.912172 0.267515 0.334290
O O10 0.912172 0.267515 0.165710
O O11 0.000000 0.269045 0.250000
O O12 0.944145 0.000000 0.250000
O O13 0.249308 0.735427 0.500000
O O14 0.282956 0.734841 0.666308
O O15 0.185696 0.735617 0.626893
O O16 0.500000 0.727327 0.500000
O O17 0.500000 0.000000 0.405258
O O18 0.668956 0.500000 0.250000
O O19 0.877809 0.263751 0.500000
O O20 0.869708 0.000000 0.398544
O O21 0.877809 0.263751 0.000000
#
# Coordination Sequence:
#
# PCOD9395179 Si02
#       8
#     8   8   8   8   8   8   8   8
#     4   9  18  34  55  73  91 127 178 219 249 290
#     4   9  18  33  53  77 102 130 169 207 238 284
#     4   9  15  20  30  54  89 124 150 179 233 302
#     4   9  18  34  55  73  91 127 178 219 249 290
#     4   8  15  31  56  80  98 122 164 215 250 271
#     4  12  24  34  48  75 113 143 161 199 256 307
#     4   8  14  25  41  60  82 113 157 203 240 281
#     4   8  14  25  41  60  82 113 157 203 240 281
#
# _framework density 19.931567000000001
#
# number of rings (size 3 to 8) (size 9 to 14) (size 15 to 20)
#    0.000    3.000    0.000    4.125    0.000    4.000 
#    0.000    6.250    0.000    0.750    0.000    0.000 
#    0.000    8.000    0.000   22.000    0.000   22.000 
#
# Total GULP energy -356839.584441 kJ/mol
# GULP energy per Si atom -5575.618507 kJ/mol
# Density = 1.988620 g / cm^3
# Si number density = 19.931567 Si / 1000 Ang^3
#
#
#
# Elastic Constant Matrix: (Units=GPa)
#
#
# Indices 1 2 3 4 5 6 
#
# 1 166.4170 -2.9402 97.9834 0.0000 0.0000 0.0000
# 2 -2.9402 25.3960 1.8119 0.0000 0.0000 0.0000
# 3 97.9834 1.8119 145.5611 0.0000 0.0000 0.0000
# 4 0.0000 0.0000 0.0000 -24.6528 0.0000 0.0000
# 5 0.0000 0.0000 0.0000 0.0000 -61.8675 0.0000
# 6 0.0000 0.0000 0.0000 0.0000 0.0000 -38.7790
#
#
#
# Elastic Compliance Matrix: (Units=1/GPa)
#
#
# Indices 1 2 3 4 5 6 
#
# 1 0.010022 0.001643 -0.006767 0.000000 0.000000 0.000000
# 2 0.001643 0.039681 -0.001600 0.000000 0.000000 0.000000
# 3 -0.006767 -0.001600 0.011445 0.000000 0.000000 0.000000
# 4 0.000000 0.000000 0.000000 -0.040563 0.000000 0.000000
# 5 0.000000 0.000000 0.000000 0.000000 -0.016164 0.000000
# 6 0.000000 0.000000 0.000000 0.000000 0.000000 -0.025787
#
#
# Mechanical properties :
#
#
# Convention : Reuss Voigt Hill
#
# Bulk Modulus (GPa) = 20.96418 59.00935 39.98676
# Shear Modulus (GPa) = 626.45842 -9.02527 308.71658
#
# Velocity S-wave (km/s) = 17.74787 -2.13025 12.45891
# Velocity P-wave (km/s) = 20.74906 4.86000 15.06889
#
# Compressibility (1/GPa) = 0.04770042
#
# Stress axis : x y z
#
# Youngs Moduli (GPa) = 99.77818 25.20119 87.37490
#
# Poissons Ratio (x) = -0.04141 0.59125
# Poissons Ratio (y) = -0.16394 0.13980
# Poissons Ratio (z) = 0.67518 0.04032
#
# Static dielectric constant tensor:
#      x y z
#    x 1.692310 0.000000 0.000000 
#    y 0.000000 1.730140 0.000000 
#    z 0.000000 0.000000 1.702190 
# 
# From -- ./inp_files/14527.got.cif
#   From: 2010.05.17/outbox.cif.g08.bks.cpg/sg49_8_cif.got.tgz:14527.got - 2010.06.03 21:02:19.
