data_PCOD9395990
_publ_section_title
;
Structure prediction by ZEFSAII (Michael W. Deem and Ramdas Pophale) SiO2 
 PCOD9395990
Probable space group: P B A N
;
_chemical_formula_sum "Si O2"
_cell_formula_units_Z 56
_cell_length_a 13.573287
_cell_length_b 33.439335
_cell_length_c 5.383561
_cell_angle_alpha 90.000000
_cell_angle_beta 90.000000
_cell_angle_gamma 90.000000
_cell_volume 2443.499771
_symmetry_space_group_name_H-M "P B A N"
_symmetry_group_IT_number 50
_space_group.IT_coordinate_system_code '2'
_symmetry_cell_setting 'orthorhombic'
loop_
_space_group_symop_operation_xyz
x,y,z
1/2-x,1/2-y,z
x,1/2-y,-z
1/2-x,y,-z
-x,-y,-z
1/2+x,1/2+y,-z
-x,1/2+y,z
1/2+x,-y,z
loop_
_atom_site_type_symbol
_atom_site_label
_atom_site_fract_x
_atom_site_fract_y
_atom_site_fract_z
Si Si1 0.878956 0.396743 0.888120
Si Si2 0.027719 0.789606 0.400515
Si Si3 0.855566 0.197003 0.104969
Si Si4 0.311968 0.010566 0.757572
Si Si5 0.411182 0.126468 0.392496
Si Si6 0.596540 0.067400 0.384617
Si Si7 0.382450 0.098812 0.886967
O O1 0.852361 0.350843 0.862571
O O2 0.855503 0.423838 0.650689
O O3 0.998484 0.397637 0.899736
O O4 0.846902 0.411105 0.158719
O O5 0.970028 0.750000 0.500000
O O6 0.110949 0.790058 0.619547
O O7 0.968768 0.831530 0.403598
O O8 0.070987 0.790027 0.119868
O O9 0.750000 0.208919 0.000000
O O10 0.250000 0.014862 0.500000
O O11 0.353084 0.053130 0.846099
O O12 0.397677 0.978882 0.689322
O O13 0.250000 0.996277 0.000000
O O14 0.490307 0.089143 0.397953
O O15 0.352493 0.122798 0.644823
O O16 0.350867 0.118067 0.144831
#
# Coordination Sequence:
#
# PCOD9395990 Si02
#       7
#     8   8   8   8   8   8   8
#     4  10  19  37  60  83 101 153 211 240 287 331
#     4  12  23  40  59  86 122 154 199 256 293 348
#     4  12  23  38  56  83 119 156 200 244 290 352
#     4  12  26  40  54  90 124 152 194 250 317 358
#     4  10  19  39  61  88 104 156 210 238 297 340
#     4  10  20  36  57  77 113 147 194 245 282 347
#     4  10  20  38  65  77 116 153 196 252 287 368
#
# _framework density 22.917949
#
# number of rings (size 3 to 8) (size 9 to 14) (size 15 to 20)
#    0.000    1.143    5.714    2.571    0.000    8.000 
#    0.000    0.000    0.000    0.000    0.000    0.000 
#    0.000    8.571    0.000    0.000    0.000    0.000 
#
# Total GULP energy -312648.271688 kJ/mol
# GULP energy per Si atom -5583.004852 kJ/mol
# Density = 2.286579 g / cm^3
# Si number density = 22.917949 Si / 1000 Ang^3
#
#
#
# Elastic Constant Matrix: (Units=GPa)
#
#
# Indices 1 2 3 4 5 6 
#
# 1 67.9578 32.8136 34.4291 0.0000 0.0000 0.0000
# 2 32.8136 130.4627 30.4308 0.0000 0.0000 0.0000
# 3 34.4291 30.4308 213.6495 0.0000 0.0000 0.0000
# 4 0.0000 0.0000 0.0000 43.9281 0.0000 0.0000
# 5 0.0000 0.0000 0.0000 0.0000 29.1819 0.0000
# 6 0.0000 0.0000 0.0000 0.0000 0.0000 -22.1483
#
#
#
# Elastic Compliance Matrix: (Units=1/GPa)
#
#
# Indices 1 2 3 4 5 6 
#
# 1 0.017783 -0.003935 -0.002305 0.000000 0.000000 0.000000
# 2 -0.003935 0.008799 -0.000619 0.000000 0.000000 0.000000
# 3 -0.002305 -0.000619 0.005140 0.000000 0.000000 0.000000
# 4 0.000000 0.000000 0.000000 0.022764 0.000000 0.000000
# 5 0.000000 0.000000 0.000000 0.000000 0.034268 0.000000
# 6 0.000000 0.000000 0.000000 0.000000 0.000000 -0.045150
#
#
# Mechanical properties :
#
#
# Convention : Reuss Voigt Hill
#
# Bulk Modulus (GPa) = 55.54460 67.49077 61.51769
# Shear Modulus (GPa) = 78.95866 31.15213 55.05539
#
# Velocity S-wave (km/s) = 5.87602 3.69085 4.90663
# Velocity P-wave (km/s) = 8.38604 6.90478 7.68120
#
# Compressibility (1/GPa) = 0.01800355
#
# Stress axis : x y z
#
# Youngs Moduli (GPa) = 56.23376 113.64705 194.54382
#
# Poissons Ratio (x) = 0.44720 0.44846
# Poissons Ratio (y) = 0.22128 0.12046
# Poissons Ratio (z) = 0.12963 0.07037
#
# Static dielectric constant tensor:
#      x y z
#    x 1.939450 0.000000 0.000000 
#    y 0.000000 1.880800 0.000000 
#    z 0.000000 0.000000 1.902180 
# 
# From -- ./inp_files/3759.got.cif
#   From: 2010.05.17/outbox.cif.g08.bks.cpg/sg50_2_cif.got.tgz:3759.got - 2010.06.03 11:33:33.
