data_PCOD9395084
_publ_section_title
;
Structure prediction by ZEFSAII (Michael W. Deem and Ramdas Pophale) SiO2 
 PCOD9395084
Probable space group: P C C M
;
_chemical_formula_sum "Si O2"
_cell_formula_units_Z 18
_cell_length_a 7.318268
_cell_length_b 12.108263
_cell_length_c 8.928828
_cell_angle_alpha 90.000000
_cell_angle_beta 90.000000
_cell_angle_gamma 90.000000
_cell_volume 791.196964
_symmetry_space_group_name_H-M "P C C M"
_symmetry_group_IT_number 49
_symmetry_cell_setting 'orthorhombic'
loop_
_space_group_symop_operation_xyz
x,y,z
-x,-y,z
x,-y,1/2-z
-x,y,1/2-z
-x,-y,-z
x,y,-z
-x,y,1/2+z
x,-y,1/2+z
loop_
_atom_site_type_symbol
_atom_site_label
_atom_site_fract_x
_atom_site_fract_y
_atom_site_fract_z
Si Si1 0.000000 0.500000 0.750000
Si Si2 0.321957 0.663487 0.171680
Si Si3 0.797416 0.111040 0.320427
O O1 0.855778 0.415960 0.826860
O O2 0.500000 0.613247 0.250000
O O3 0.287321 0.774841 0.265167
O O4 0.361521 0.691279 0.000000
O O5 0.802807 0.104007 0.500000
O O6 0.000000 0.115076 0.250000
O O7 0.712245 0.000000 0.250000
#
# Coordination Sequence:
#
# PCOD9395084 Si02
#       3
#     2   8   8
#     4  12  28  48  78 100 142 188 244 294 362 414
#     4  12  27  47  73 107 144 187 240 294 355 423
#     4  11  22  41  71 106 144 187 233 287 353 424
#
# _framework density 22.750339
#
# number of rings (size 3 to 8) (size 9 to 14) (size 15 to 20)
#    0.000    0.444    2.222    8.000    0.000    8.000 
#    0.000    4.444    0.000    0.000    0.000    0.000 
#    0.000    0.000    0.000    0.000    0.000    0.000 
#
# Total GULP energy -100597.206242 kJ/mol
# GULP energy per Si atom -5588.733680 kJ/mol
# Density = 2.269856 g / cm^3
# Si number density = 22.750339 Si / 1000 Ang^3
#
#
#
# Elastic Constant Matrix: (Units=GPa)
#
#
# Indices 1 2 3 4 5 6 
#
# 1 147.9634 54.2289 56.0373 0.0000 0.0000 0.0000
# 2 54.2289 195.6224 85.8585 0.0000 0.0000 0.0000
# 3 56.0373 85.8585 261.1839 0.0000 0.0000 0.0000
# 4 0.0000 0.0000 0.0000 8.8266 0.0000 0.0000
# 5 0.0000 0.0000 0.0000 0.0000 71.1934 0.0000
# 6 0.0000 0.0000 0.0000 0.0000 0.0000 -2.8020
#
#
#
# Elastic Compliance Matrix: (Units=1/GPa)
#
#
# Indices 1 2 3 4 5 6 
#
# 1 0.007795 -0.001667 -0.001124 0.000000 0.000000 0.000000
# 2 -0.001667 0.006330 -0.001723 0.000000 0.000000 0.000000
# 3 -0.001124 -0.001723 0.004636 0.000000 0.000000 0.000000
# 4 0.000000 0.000000 0.000000 0.113295 0.000000 0.000000
# 5 0.000000 0.000000 0.000000 0.000000 0.014046 0.000000
# 6 0.000000 0.000000 0.000000 0.000000 0.000000 -0.356884
#
#
# Mechanical properties :
#
#
# Convention : Reuss Voigt Hill
#
# Bulk Modulus (GPa) = 102.75275 110.77990 106.76632
# Shear Modulus (GPa) = -25.18800 42.68659 8.74930
#
# Velocity S-wave (km/s) = -3.33099 4.33633 1.96320
# Velocity P-wave (km/s) = 5.51991 8.59483 7.22290
#
# Compressibility (1/GPa) = 0.00973210
#
# Stress axis : x y z
#
# Youngs Moduli (GPa) = 128.28098 157.96620 215.68320
#
# Poissons Ratio (x) = 0.26341 0.24250
# Poissons Ratio (y) = 0.21391 0.37167
# Poissons Ratio (z) = 0.14423 0.27221
#
# Static dielectric constant tensor:
#      x y z
#    x 1.850600 0.000000 0.000000 
#    y 0.000000 1.913000 0.000000 
#    z 0.000000 0.000000 1.776500 
# 
# From -- ./inp_files/947.got.cif
#   From: 2010.05.17/outbox.cif.g08.bks.cpg/sg49_1_cif.got.tgz:947.got - 2010.06.03 21:02:19.
