data_PCOD9395127
_publ_section_title
;
Structure prediction by ZEFSAII (Michael W. Deem and Ramdas Pophale) SiO2 
 PCOD9395127
Probable space group: P C C M
;
_chemical_formula_sum "Si O2"
_cell_formula_units_Z 34
_cell_length_a 20.899429
_cell_length_b 7.635217
_cell_length_c 9.553289
_cell_angle_alpha 90.000000
_cell_angle_beta 90.000000
_cell_angle_gamma 90.000000
_cell_volume 1524.434333
_symmetry_space_group_name_H-M "P C C M"
_symmetry_group_IT_number 49
_symmetry_cell_setting 'orthorhombic'
loop_
_space_group_symop_operation_xyz
x,y,z
-x,-y,z
x,-y,1/2-z
-x,y,1/2-z
-x,-y,-z
x,y,-z
-x,y,1/2+z
x,-y,1/2+z
loop_
_atom_site_type_symbol
_atom_site_label
_atom_site_fract_x
_atom_site_fract_y
_atom_site_fract_z
Si Si1 0.093882 0.809358 0.334215
Si Si2 0.407874 0.839842 0.500000
Si Si3 0.450893 0.756783 0.000000
Si Si4 0.651252 0.302760 0.775686
Si Si5 0.000000 0.500000 0.250000
Si Si6 0.788699 0.824760 0.660163
O O1 0.103572 0.848756 0.500000
O O2 0.156624 0.732588 0.253430
O O3 0.044144 0.646363 0.328153
O O4 0.078803 0.000000 0.250000
O O5 0.473584 0.727620 0.500000
O O6 0.366427 0.800783 0.635848
O O7 0.433165 0.037012 0.500000
O O8 0.413242 0.689403 0.133895
O O9 0.669406 0.500000 0.750000
O O10 0.714864 0.230504 0.845104
O O11 0.810700 0.836948 0.500000
O O12 0.784946 0.000000 0.750000
#
# Coordination Sequence:
#
# PCOD9395127 Si02
#       6
#     8   4   4   8   2   8
#     4  11  26  48  77 111 150 196 245 298 359 423
#     4  11  25  41  73  89 133 177 232 285 346 423
#     4  11  23  47  63  99 125 181 234 279 346 431
#     4  12  26  41  64  99 136 176 224 291 356 411
#     4  12  28  48  76 116 154 196 236 294 346 438
#     4  11  24  45  72 102 140 186 239 290 347 420
#
# _framework density 22.303355
#
# number of rings (size 3 to 8) (size 9 to 14) (size 15 to 20)
#    0.000    0.706    1.176    7.059    4.941    9.412 
#    0.000    0.000    0.000    0.000    0.000    0.000 
#    0.000    0.000    0.000    0.000    0.000    0.000 
#
# Total GULP energy -189394.243621 kJ/mol
# GULP energy per Si atom -5570.418930 kJ/mol
# Density = 2.225259 g / cm^3
# Si number density = 22.303355 Si / 1000 Ang^3
#
#
#
# Elastic Constant Matrix: (Units=GPa)
#
#
# Indices 1 2 3 4 5 6 
#
# 1 124.6114 21.0893 55.6302 0.0000 0.0000 0.0000
# 2 21.0893 61.0464 24.7651 0.0000 0.0000 0.0000
# 3 55.6302 24.7651 197.0657 0.0000 0.0000 0.0000
# 4 0.0000 0.0000 0.0000 46.0119 0.0000 0.0000
# 5 0.0000 0.0000 0.0000 0.0000 -51.6595 0.0000
# 6 0.0000 0.0000 0.0000 0.0000 0.0000 39.7056
#
#
#
# Elastic Compliance Matrix: (Units=1/GPa)
#
#
# Indices 1 2 3 4 5 6 
#
# 1 0.009481 -0.002307 -0.002386 0.000000 0.000000 0.000000
# 2 -0.002307 0.017822 -0.001588 0.000000 0.000000 0.000000
# 3 -0.002386 -0.001588 0.005948 0.000000 0.000000 0.000000
# 4 0.000000 0.000000 0.000000 0.021734 0.000000 0.000000
# 5 0.000000 0.000000 0.000000 0.000000 -0.019358 0.000000
# 6 0.000000 0.000000 0.000000 0.000000 0.000000 0.025185
#
#
# Mechanical properties :
#
#
# Convention : Reuss Voigt Hill
#
# Bulk Modulus (GPa) = 48.33970 65.07695 56.70833
# Shear Modulus (GPa) = 62.28826 25.56085 43.92456
#
# Velocity S-wave (km/s) = 5.29040 3.38901 4.44262
# Velocity P-wave (km/s) = 7.68366 6.67498 7.19701
#
# Compressibility (1/GPa) = 0.02068693
#
# Stress axis : x y z
#
# Youngs Moduli (GPa) = 105.47661 56.10910 168.13123
#
# Poissons Ratio (x) = 0.12945 0.40123
# Poissons Ratio (y) = 0.24335 0.26707
# Poissons Ratio (z) = 0.25171 0.08913
#
# Static dielectric constant tensor:
#      x y z
#    x 1.935420 0.000000 0.000000 
#    y 0.000000 1.762710 0.000000 
#    z 0.000000 0.000000 1.934630 
# 
# From -- ./inp_files/5567.got.cif
#   From: 2010.05.17/outbox.cif.g08.bks.cpg/sg49_3_cif.got.tgz:5567.got - 2010.06.03 21:02:19.
