data_PCOD9395098
_publ_section_title
;
Structure prediction by ZEFSAII (Michael W. Deem and Ramdas Pophale) SiO2 
 PCOD9395098
Probable space group: P C C M
;
_chemical_formula_sum "Si O2"
_cell_formula_units_Z 64
_cell_length_a 15.358142
_cell_length_b 11.838566
_cell_length_c 16.857158
_cell_angle_alpha 90.000000
_cell_angle_beta 90.000000
_cell_angle_gamma 90.000000
_cell_volume 3064.941120
_symmetry_space_group_name_H-M "P C C M"
_symmetry_group_IT_number 49
_symmetry_cell_setting 'orthorhombic'
loop_
_space_group_symop_operation_xyz
x,y,z
-x,-y,z
x,-y,1/2-z
-x,y,1/2-z
-x,-y,-z
x,y,-z
-x,y,1/2+z
x,-y,1/2+z
loop_
_atom_site_type_symbol
_atom_site_label
_atom_site_fract_x
_atom_site_fract_y
_atom_site_fract_z
Si Si1 0.554524 0.332596 0.595777
Si Si2 0.082263 0.167742 0.855860
Si Si3 0.365935 0.434713 0.595941
Si Si4 0.581738 0.922148 0.902803
Si Si5 0.890407 0.177208 0.827013
Si Si6 0.228036 0.997713 0.908095
Si Si7 0.808413 0.579058 0.671853
Si Si8 0.076524 0.579366 0.591235
O O1 0.560068 0.329339 0.500000
O O2 0.456721 0.372519 0.613746
O O3 0.619534 0.433481 0.619017
O O4 0.572332 0.207066 0.625272
O O5 0.095845 0.141675 0.763564
O O6 0.155952 0.097469 0.900717
O O7 0.091922 0.301719 0.867805
O O8 0.979915 0.147621 0.873445
O O9 0.351782 0.426352 0.500000
O O10 0.288666 0.386077 0.648580
O O11 0.676684 0.966704 0.878252
O O12 0.500000 0.000000 0.878438
O O13 0.581084 0.920742 0.000000
O O14 0.868838 0.310277 0.826260
O O15 0.811474 0.107983 0.862651
O O16 0.237344 0.967940 0.000000
O O17 0.814172 0.500000 0.750000
O O18 0.839384 0.498035 0.600549
O O19 0.054430 0.603051 0.500000
O O20 0.000000 0.500000 0.626133
#
# Coordination Sequence:
#
# PCOD9395098 Si02
#       8
#     8   8   8   8   8   8   8   8
#     4   8  16  34  58  84 120 164 207 260 323 384
#     4  11  23  45  66  88 125 175 218 262 319 397
#     4   9  19  35  59  90 121 159 212 267 320 377
#     4   9  19  35  57  88 125 163 202 254 322 386
#     4  11  25  42  66  88 126 176 218 258 321 391
#     4  11  25  41  65  99 129 162 217 278 321 372
#     4  12  24  39  60  92 130 171 208 258 320 392
#     4  11  23  39  63  93 123 160 209 264 319 372
#
# _framework density 20.881316000000002
#
# number of rings (size 3 to 8) (size 9 to 14) (size 15 to 20)
#    0.000    1.750    2.500    2.250    3.500    3.750 
#    0.000    1.250    0.000    1.500    0.000    0.000 
#    0.000    0.000    0.000    0.000    0.000    0.000 
#
# Total GULP energy -357276.146861 kJ/mol
# GULP energy per Si atom -5582.439795 kJ/mol
# Density = 2.083379 g / cm^3
# Si number density = 20.881316 Si / 1000 Ang^3
#
#
#
# Elastic Constant Matrix: (Units=GPa)
#
#
# Indices 1 2 3 4 5 6 
#
# 1 117.1264 46.5692 18.1709 0.0000 0.0000 0.0000
# 2 46.5692 115.8888 24.0920 0.0000 0.0000 0.0000
# 3 18.1709 24.0920 24.1673 0.0000 0.0000 0.0000
# 4 0.0000 0.0000 0.0000 24.8709 0.0000 0.0000
# 5 0.0000 0.0000 0.0000 0.0000 -22.3164 0.0000
# 6 0.0000 0.0000 0.0000 0.0000 0.0000 26.1650
#
#
#
# Elastic Compliance Matrix: (Units=1/GPa)
#
#
# Indices 1 2 3 4 5 6 
#
# 1 0.010565 -0.003272 -0.004682 0.000000 0.000000 0.000000
# 2 -0.003272 0.011898 -0.009401 0.000000 0.000000 0.000000
# 3 -0.004682 -0.009401 0.054270 0.000000 0.000000 0.000000
# 4 0.000000 0.000000 0.000000 0.040208 0.000000 0.000000
# 5 0.000000 0.000000 0.000000 0.000000 -0.044810 0.000000
# 6 0.000000 0.000000 0.000000 0.000000 0.000000 0.038219
#
#
# Mechanical properties :
#
#
# Convention : Reuss Voigt Hill
#
# Bulk Modulus (GPa) = 23.79605 48.31630 36.05618
# Shear Modulus (GPa) = 31.43324 16.96725 24.20025
#
# Velocity S-wave (km/s) = 3.88407 2.85363 3.40802
# Velocity P-wave (km/s) = 5.61562 5.83493 5.72632
#
# Compressibility (1/GPa) = 0.04202379
#
# Stress axis : x y z
#
# Youngs Moduli (GPa) = 94.65083 84.04614 18.42641
#
# Poissons Ratio (x) = 0.27502 0.08627
# Poissons Ratio (y) = 0.30972 0.17322
# Poissons Ratio (z) = 0.44312 0.79010
#
# Static dielectric constant tensor:
#      x y z
#    x 1.791410 0.000000 0.000000 
#    y 0.000000 1.749270 0.000000 
#    z 0.000000 0.000000 1.744590 
# 
# From -- ./inp_files/17954.got.cif
#   From: 2010.05.17/outbox.cif.g08.bks.cpg/sg49_9_cif.got.tgz:17954.got - 2010.06.03 21:02:19.
