data_PCOD9395780
_publ_section_title
;
Structure prediction by ZEFSAII (Michael W. Deem and Ramdas Pophale) SiO2 
 PCOD9395780
Probable space group: P B A N
;
_chemical_formula_sum "Si O2"
_cell_formula_units_Z 42
_cell_length_a 12.237060
_cell_length_b 24.152656
_cell_length_c 7.519153
_cell_angle_alpha 90.000000
_cell_angle_beta 90.000000
_cell_angle_gamma 90.000000
_cell_volume 2222.342068
_symmetry_space_group_name_H-M "P B A N"
_symmetry_group_IT_number 50
_space_group.IT_coordinate_system_code '2'
_symmetry_cell_setting 'orthorhombic'
loop_
_space_group_symop_operation_xyz
x,y,z
1/2-x,1/2-y,z
x,1/2-y,-z
1/2-x,y,-z
-x,-y,-z
1/2+x,1/2+y,-z
-x,1/2+y,z
1/2+x,-y,z
loop_
_atom_site_type_symbol
_atom_site_label
_atom_site_fract_x
_atom_site_fract_y
_atom_site_fract_z
Si Si1 0.053474 0.452882 0.721807
Si Si2 0.250000 0.750000 0.000000
Si Si3 0.162504 0.931292 0.841063
Si Si4 0.518474 0.422647 0.669184
Si Si5 0.791411 0.333418 0.309308
Si Si6 0.287646 0.054702 0.205255
O O1 0.064036 0.519154 0.748686
O O2 0.174695 0.428919 0.703600
O O3 0.968486 0.431292 0.871237
O O4 0.996251 0.437768 0.537569
O O5 0.193545 0.708917 0.855497
O O6 0.194957 0.876876 0.735530
O O7 0.182811 0.990785 0.748109
O O8 0.250000 0.930610 0.000000
O O9 0.600969 0.371907 0.683845
O O10 0.397859 0.412954 0.750211
O O11 0.750000 0.310360 0.500000
O O12 0.250000 0.056005 0.000000
#
# Coordination Sequence:
#
# PCOD9395780 Si02
#       6
#     8   2   8   8   8   8
#     4  10  19  33  52  88 127 173 198 235 291 394
#     4  12  30  44  68  86 122 152 222 280 330 348
#     4  10  20  32  55  84 127 169 201 246 303 365
#     4  10  21  33  57  82 126 167 205 242 301 370
#     4  12  23  43  63  92 119 162 205 268 316 371
#     4  10  21  30  50  88 131 172 200 231 287 392
#
# _framework density 18.898980999999999
#
# number of rings (size 3 to 8) (size 9 to 14) (size 15 to 20)
#    0.000    1.524    4.762    0.857    2.667    2.286 
#    0.000    0.000    0.000    0.000    0.000    6.000 
#    0.000    0.000    0.000    0.000    0.000    0.000 
#
# Total GULP energy -233960.499138 kJ/mol
# GULP energy per Si atom -5570.488075 kJ/mol
# Density = 1.885597 g / cm^3
# Si number density = 18.898981 Si / 1000 Ang^3
#
#
#
# Elastic Constant Matrix: (Units=GPa)
#
#
# Indices 1 2 3 4 5 6 
#
# 1 162.2825 42.3869 39.5167 0.0000 0.0000 0.0000
# 2 42.3869 83.1196 40.0221 0.0000 0.0000 0.0000
# 3 39.5167 40.0221 94.6827 0.0000 0.0000 0.0000
# 4 0.0000 0.0000 0.0000 25.7461 0.0000 0.0000
# 5 0.0000 0.0000 0.0000 0.0000 29.9965 0.0000
# 6 0.0000 0.0000 0.0000 0.0000 0.0000 5.8425
#
#
#
# Elastic Compliance Matrix: (Units=1/GPa)
#
#
# Indices 1 2 3 4 5 6 
#
# 1 0.007362 -0.002856 -0.001865 0.000000 0.000000 0.000000
# 2 -0.002856 0.016213 -0.005661 0.000000 0.000000 0.000000
# 3 -0.001865 -0.005661 0.013733 0.000000 0.000000 0.000000
# 4 0.000000 0.000000 0.000000 0.038841 0.000000 0.000000
# 5 0.000000 0.000000 0.000000 0.000000 0.033337 0.000000
# 6 0.000000 0.000000 0.000000 0.000000 0.000000 0.171159
#
#
# Mechanical properties :
#
#
# Convention : Reuss Voigt Hill
#
# Bulk Modulus (GPa) = 60.44858 64.88179 62.66519
# Shear Modulus (GPa) = 16.29059 26.86096 21.57578
#
# Velocity S-wave (km/s) = 2.93914 3.77409 3.38248
# Velocity P-wave (km/s) = 6.60095 7.30733 6.96310
#
# Compressibility (1/GPa) = 0.01654299
#
# Stress axis : x y z
#
# Youngs Moduli (GPa) = 135.82593 61.67781 72.81662
#
# Poissons Ratio (x) = 0.17617 0.13583
# Poissons Ratio (y) = 0.38795 0.41223
# Poissons Ratio (z) = 0.25337 0.34917
#
# Static dielectric constant tensor:
#      x y z
#    x 1.746930 0.000000 0.000000 
#    y 0.000000 1.628440 0.000000 
#    z 0.000000 0.000000 1.815080 
# 
# From -- ./inp_files/11475.got.cif
#   From: 2010.05.17/outbox.cif.g08.bks.cpg/sg50_6_cif.got.tgz:11475.got - 2010.06.03 11:33:33.
