data_PCOD9395988
_publ_section_title
;
Structure prediction by ZEFSAII (Michael W. Deem and Ramdas Pophale) SiO2 
 PCOD9395988
Probable space group: P B A N
;
_chemical_formula_sum "Si O2"
_cell_formula_units_Z 60
_cell_length_a 9.179343
_cell_length_b 19.407993
_cell_length_c 18.604059
_cell_angle_alpha 90.000000
_cell_angle_beta 90.000000
_cell_angle_gamma 90.000000
_cell_volume 3314.361941
_symmetry_space_group_name_H-M "P B A N"
_symmetry_group_IT_number 50
_space_group.IT_coordinate_system_code '2'
_symmetry_cell_setting 'orthorhombic'
loop_
_space_group_symop_operation_xyz
x,y,z
1/2-x,1/2-y,z
x,1/2-y,-z
1/2-x,y,-z
-x,-y,-z
1/2+x,1/2+y,-z
-x,1/2+y,z
1/2+x,-y,z
loop_
_atom_site_type_symbol
_atom_site_label
_atom_site_fract_x
_atom_site_fract_y
_atom_site_fract_z
Si Si1 0.576662 0.234222 0.222661
Si Si2 0.994623 0.972617 0.604097
Si Si3 0.065114 0.619506 0.271698
Si Si4 0.405542 0.587253 0.286192
Si Si5 0.837168 0.556132 0.928388
Si Si6 0.940323 0.523513 0.158683
Si Si7 0.589991 0.716654 0.074130
Si Si8 0.750000 0.498675 0.500000
O O1 0.750000 0.250000 0.214987
O O2 0.527696 0.300780 0.267021
O O3 0.540081 0.163289 0.263999
O O4 0.506619 0.231117 0.143867
O O5 0.974779 0.918838 0.667635
O O6 0.145573 0.963354 0.560160
O O7 0.973331 0.047345 0.644516
O O8 0.867883 0.961880 0.546850
O O9 0.231798 0.600350 0.291248
O O10 0.028193 0.585596 0.195151
O O11 0.430798 0.536604 0.218423
O O12 0.718784 0.548371 0.864575
O O13 0.890271 0.634718 0.934825
O O14 0.970127 0.506860 0.907978
O O15 0.750000 0.537169 0.000000
O O16 0.750000 0.750000 0.084983
O O17 0.531997 0.750000 0.000000
#
# Coordination Sequence:
#
# PCOD9395988 Si02
#       8
#     8   8   8   8   8   8   8   4
#     4  10  22  39  61  85 117 156 195 248 293 349
#     4  10  20  36  62  91 120 153 191 234 278 346
#     4  10  20  36  60  88 116 147 199 240 289 339
#     4  10  19  37  59  87 116 149 197 242 285 346
#     4  12  23  39  57  79 113 157 197 255 309 366
#     4  11  22  37  59  82 114 146 203 254 302 345
#     4  11  22  40  58  80 115 156 204 242 311 368
#     4  10  20  36  62  90 122 156 188 226 282 346
#
# _framework density 18.103031000000001
#
# number of rings (size 3 to 8) (size 9 to 14) (size 15 to 20)
#    0.000    1.467    5.333    1.200    0.000    0.267 
#    2.400    0.000    0.000    4.800    0.000    0.000 
#    0.000    0.000    0.000    0.000    0.000    0.000 
#
# Total GULP energy -334410.982388 kJ/mol
# GULP energy per Si atom -5573.516373 kJ/mol
# Density = 1.806183 g / cm^3
# Si number density = 18.103031 Si / 1000 Ang^3
#
#
#
# Elastic Constant Matrix: (Units=GPa)
#
#
# Indices 1 2 3 4 5 6 
#
# 1 44.1684 16.8277 20.5606 0.0000 0.0000 0.0000
# 2 16.8277 114.6507 46.5204 0.0000 0.0000 0.0000
# 3 20.5606 46.5204 88.3157 0.0000 0.0000 0.0000
# 4 0.0000 0.0000 0.0000 8.1036 0.0000 0.0000
# 5 0.0000 0.0000 0.0000 0.0000 36.6340 0.0000
# 6 0.0000 0.0000 0.0000 0.0000 0.0000 14.6242
#
#
#
# Elastic Compliance Matrix: (Units=1/GPa)
#
#
# Indices 1 2 3 4 5 6 
#
# 1 0.025652 -0.001707 -0.005073 0.000000 0.000000 0.000000
# 2 -0.001707 0.011207 -0.005506 0.000000 0.000000 0.000000
# 3 -0.005073 -0.005506 0.015404 0.000000 0.000000 0.000000
# 4 0.000000 0.000000 0.000000 0.123401 0.000000 0.000000
# 5 0.000000 0.000000 0.000000 0.000000 0.027297 0.000000
# 6 0.000000 0.000000 0.000000 0.000000 0.000000 0.068380
#
#
# Mechanical properties :
#
#
# Convention : Reuss Voigt Hill
#
# Bulk Modulus (GPa) = 36.11125 46.10582 41.10853
# Shear Modulus (GPa) = 16.38573 22.75410 19.56992
#
# Velocity S-wave (km/s) = 3.01181 3.54916 3.29147
# Velocity P-wave (km/s) = 5.66442 6.50532 6.09938
#
# Compressibility (1/GPa) = 0.02769220
#
# Stress axis : x y z
#
# Youngs Moduli (GPa) = 38.98276 89.23265 64.91712
#
# Poissons Ratio (x) = 0.15229 0.32933
# Poissons Ratio (y) = 0.06653 0.35742
# Poissons Ratio (z) = 0.19776 0.49130
#
# Static dielectric constant tensor:
#      x y z
#    x 1.650650 0.000000 0.000000 
#    y 0.000000 1.620340 0.000000 
#    z 0.000000 0.000000 1.638210 
# 
# From -- ./inp_files/28899.got.cif
#   From: 2010.05.17/outbox.cif.g08.bks.cpg/sg50_15_cif.got.tgz:28899.got - 2010.06.03 11:33:33.
