data_PCOD9395181
_publ_section_title
;
Structure prediction by ZEFSAII (Michael W. Deem and Ramdas Pophale) SiO2 
 PCOD9395181
Probable space group: P C C M
;
_chemical_formula_sum "Si O2"
_cell_formula_units_Z 44
_cell_length_a 20.526872
_cell_length_b 7.462569
_cell_length_c 15.144052
_cell_angle_alpha 90.000000
_cell_angle_beta 90.000000
_cell_angle_gamma 90.000000
_cell_volume 2319.814326
_symmetry_space_group_name_H-M "P C C M"
_symmetry_group_IT_number 49
_symmetry_cell_setting 'orthorhombic'
loop_
_space_group_symop_operation_xyz
x,y,z
-x,-y,z
x,-y,1/2-z
-x,y,1/2-z
-x,-y,-z
x,y,-z
-x,y,1/2+z
x,-y,1/2+z
loop_
_atom_site_type_symbol
_atom_site_label
_atom_site_fract_x
_atom_site_fract_y
_atom_site_fract_z
Si Si1 0.604751 0.783712 0.500000
Si Si2 0.604751 0.216288 0.500000
Si Si3 0.926979 0.791588 0.606794
Si Si4 0.073021 0.208412 0.893206
Si Si5 0.500000 0.782996 0.148029
Si Si6 0.717437 0.500000 0.500000
Si Si7 0.821978 0.500000 0.846266
O O1 0.562150 0.734720 0.412907
O O2 0.670923 0.673180 0.500000
O O3 0.613555 1.000000 0.500000
O O4 0.562150 0.265280 0.412907
O O5 0.670923 0.326820 0.500000
O O6 0.925298 0.778751 0.500000
O O7 0.870024 0.668875 0.642508
O O8 0.000000 0.735317 0.634588
O O9 0.918884 1.000000 0.630332
O O10 0.129976 0.331124 0.857492
O O11 0.074702 0.221249 0.000000
O O12 0.500000 0.719411 0.250000
O O13 0.500000 0.000000 0.151490
O O14 0.765609 0.500000 0.582616
O O15 0.792206 0.500000 0.750000
#
# Coordination Sequence:
#
# PCOD9395181 Si02
#       7
#     4   4   8   8   8   4   8
#     4   9  20  38  60  85 114 150 185 226 282 330
#     4   9  20  38  60  85 114 150 185 226 282 330
#     4   9  18  36  63  88 109 140 186 244 306 355
#     4   9  18  36  63  88 109 140 186 244 306 355
#     4   8  15  33  63  94 117 138 176 232 287 333
#     4  12  26  41  53  78 118 160 202 232 258 334
#     4  12  25  39  56  80 115 158 196 236 287 341
#
# _framework density 18.967036
#
# number of rings (size 3 to 8) (size 9 to 14) (size 15 to 20)
#    0.000    2.364    1.818    2.727    0.000    8.000 
#    0.000    2.727    0.000    0.000    0.000    0.000 
#    0.000    0.000    0.000    0.000    0.000    0.000 
#
# Total GULP energy -245650.337892 kJ/mol
# GULP energy per Si atom -5582.962225 kJ/mol
# Density = 1.892387 g / cm^3
# Si number density = 18.967036 Si / 1000 Ang^3
#
#
#
# Elastic Constant Matrix: (Units=GPa)
#
#
# Indices 1 2 3 4 5 6 
#
# 1 153.5976 62.3277 84.6086 0.0000 0.0000 0.0000
# 2 62.3277 81.5096 39.8536 0.0000 0.0000 0.0000
# 3 84.6086 39.8536 165.4206 0.0000 0.0000 0.0000
# 4 0.0000 0.0000 0.0000 38.3715 0.0000 0.0000
# 5 0.0000 0.0000 0.0000 0.0000 226.7481 0.0000
# 6 0.0000 0.0000 0.0000 0.0000 0.0000 58.3536
#
#
#
# Elastic Compliance Matrix: (Units=1/GPa)
#
#
# Indices 1 2 3 4 5 6 
#
# 1 0.011647 -0.006794 -0.004321 0.000000 0.000000 0.000000
# 2 -0.006794 0.017869 -0.000830 0.000000 0.000000 0.000000
# 3 -0.004321 -0.000830 0.008455 0.000000 0.000000 0.000000
# 4 0.000000 0.000000 0.000000 0.026061 0.000000 0.000000
# 5 0.000000 0.000000 0.000000 0.000000 0.004410 0.000000
# 6 0.000000 0.000000 0.000000 0.000000 0.000000 0.017137
#
#
# Mechanical properties :
#
#
# Convention : Reuss Voigt Hill
#
# Bulk Modulus (GPa) = 71.00969 86.01194 78.51081
# Shear Modulus (GPa) = 43.79690 78.94383 61.37037
#
# Velocity S-wave (km/s) = 4.81053 6.45848 5.69443
# Velocity P-wave (km/s) = 8.26890 10.05298 9.20427
#
# Compressibility (1/GPa) = 0.01408258
#
# Stress axis : x y z
#
# Youngs Moduli (GPa) = 85.85691 55.96139 118.27218
#
# Poissons Ratio (x) = 0.38019 0.51100
# Poissons Ratio (y) = 0.58329 0.09820
# Poissons Ratio (z) = 0.37095 0.04646
#
# Static dielectric constant tensor:
#      x y z
#    x 1.608920 0.000000 0.000000 
#    y 0.000000 1.667520 0.000000 
#    z 0.000000 0.000000 1.684000 
# 
# From -- ./inp_files/13983.got.cif
#   From: 2010.05.17/outbox.cif.g08.bks.cpg/sg49_7_cif.got.tgz:13983.got - 2010.06.03 21:02:19.
