data_PCOD9395213
_publ_section_title
;
Structure prediction by ZEFSAII (Michael W. Deem and Ramdas Pophale) SiO2 
 PCOD9395213
Probable space group: P C C M
;
_chemical_formula_sum "Si O2"
_cell_formula_units_Z 48
_cell_length_a 9.000000
_cell_length_b 15.000000
_cell_length_c 18.000000
_cell_angle_alpha 90.000000
_cell_angle_beta 90.000000
_cell_angle_gamma 90.000000
_cell_volume 2430.000000
_symmetry_space_group_name_H-M "P C C M"
_symmetry_group_IT_number 49
_symmetry_cell_setting 'orthorhombic'
loop_
_space_group_symop_operation_xyz
x,y,z
-x,-y,z
x,-y,1/2-z
-x,y,1/2-z
-x,-y,-z
x,y,-z
-x,y,1/2+z
x,-y,1/2+z
loop_
_atom_site_type_symbol
_atom_site_label
_atom_site_fract_x
_atom_site_fract_y
_atom_site_fract_z
Si Si1 0.658825 0.898783 0.727151
Si Si2 0.359622 0.332501 0.585887
Si Si3 0.835197 0.486513 0.086838
Si Si4 0.690228 0.321398 0.585596
Si Si5 0.181150 0.850152 0.914624
Si Si6 0.091546 0.205511 0.817715
O O1 0.500000 0.857293 0.750000
O O2 0.702165 0.897137 0.640335
O O3 0.791599 0.855593 0.774033
O O4 0.652714 0.000000 0.750000
O O5 0.393518 0.359405 0.500000
O O6 0.267145 0.411312 0.623075
O O7 0.522859 0.311722 0.616352
O O8 0.249484 0.249316 0.583790
O O9 0.740917 0.576302 0.085733
O O10 0.000000 0.500000 0.118703
O O11 0.860556 0.458224 0.000000
O O12 0.693824 0.288546 0.500000
O O13 0.812477 0.270761 0.632717
O O14 0.023747 0.845611 0.871887
O O15 0.170794 0.881815 0.000000
O O16 0.000000 0.249928 0.750000
#
# Coordination Sequence:
#
# PCOD9395213 Si02
#       6
#     8   8   8   8   8   8
#     4  10  22  42  63  83 112 149 182 220 280 344
#     4   9  17  29  49  79 111 142 180 227 272 316
#     4   9  16  26  44  73 109 144 179 223 272 317
#     4  10  18  30  50  77 109 145 187 228 269 322
#     4  10  20  36  59  86 114 145 188 234 273 322
#     4  10  21  35  55  80 108 144 181 225 281 335
#
# _framework density 19.753086
#
# number of rings (size 3 to 8) (size 9 to 14) (size 15 to 20)
#    0.000    2.333    0.000    3.000    0.000    7.667 
#    0.000    5.000    0.000   11.500    0.000   15.167 
#    0.000    0.000    0.000    0.000    0.000    0.000 
#
# Total GULP energy -267354.149018 kJ/mol
# GULP energy per Si atom -5569.878105 kJ/mol
# Density = 1.970813 g / cm^3
# Si number density = 19.753086 Si / 1000 Ang^3
#
#
#
# Elastic Constant Matrix: (Units=GPa)
#
#
# Indices 1 2 3 4 5 6 
#
# 1 138.8210 16.8733 48.9932 0.0000 0.0000 0.0000
# 2 16.8733 42.0382 26.5521 0.0000 0.0000 0.0000
# 3 48.9932 26.5521 107.7319 0.0000 0.0000 0.0000
# 4 0.0000 0.0000 0.0000 -1.8851 0.0000 0.0000
# 5 0.0000 0.0000 0.0000 0.0000 22.5984 0.0000
# 6 0.0000 0.0000 0.0000 0.0000 0.0000 23.3339
#
#
#
# Elastic Compliance Matrix: (Units=1/GPa)
#
#
# Indices 1 2 3 4 5 6 
#
# 1 0.008629 -0.001166 -0.003637 0.000000 0.000000 0.000000
# 2 -0.001166 0.028331 -0.006452 0.000000 0.000000 0.000000
# 3 -0.003637 -0.006452 0.012526 0.000000 0.000000 0.000000
# 4 0.000000 0.000000 0.000000 -0.530488 0.000000 0.000000
# 5 0.000000 0.000000 0.000000 0.000000 0.044251 0.000000
# 6 0.000000 0.000000 0.000000 0.000000 0.000000 0.042856
#
#
# Mechanical properties :
#
#
# Convention : Reuss Voigt Hill
#
# Bulk Modulus (GPa) = 37.07002 52.60316 44.83659
# Shear Modulus (GPa) = -13.79720 21.88763 4.04521
#
# Velocity S-wave (km/s) = -2.64575 3.33237 1.43260
# Velocity P-wave (km/s) = 3.07800 6.44161 5.04819
#
# Compressibility (1/GPa) = 0.02697598
#
# Stress axis : x y z
#
# Youngs Moduli (GPa) = 115.89174 35.29646 79.83166
#
# Poissons Ratio (x) = 0.04117 0.29032
# Poissons Ratio (y) = 0.13518 0.51509
# Poissons Ratio (z) = 0.42145 0.22774
#
# Static dielectric constant tensor:
#      x y z
#    x 1.771480 0.000000 0.000000 
#    y 0.000000 1.701140 0.000000 
#    z 0.000000 0.000000 1.731640 
# 
# From -- ./inp_files/16330.got.cif
#   From: 2010.05.17/outbox.ucp.g08.bks.cvg/sg49_9_cif.got.tgz:16330.got - 2010.06.11 16:40:14.
