data_PCOD9395927
_publ_section_title
;
Structure prediction by ZEFSAII (Michael W. Deem and Ramdas Pophale) SiO2 
 PCOD9395927
Probable space group: P B A N
;
_chemical_formula_sum "Si O2"
_cell_formula_units_Z 56
_cell_length_a 10.044980
_cell_length_b 14.717899
_cell_length_c 19.436434
_cell_angle_alpha 90.000000
_cell_angle_beta 90.000000
_cell_angle_gamma 90.000000
_cell_volume 2873.501860
_symmetry_space_group_name_H-M "P B A N"
_symmetry_group_IT_number 50
_space_group.IT_coordinate_system_code '2'
_symmetry_cell_setting 'orthorhombic'
loop_
_space_group_symop_operation_xyz
x,y,z
1/2-x,1/2-y,z
x,1/2-y,-z
1/2-x,y,-z
-x,-y,-z
1/2+x,1/2+y,-z
-x,1/2+y,z
1/2+x,-y,z
loop_
_atom_site_type_symbol
_atom_site_label
_atom_site_fract_x
_atom_site_fract_y
_atom_site_fract_z
Si Si1 0.721366 0.949603 0.170573
Si Si2 0.896295 0.351268 0.640556
Si Si3 0.406430 0.586127 0.492499
Si Si4 0.080562 0.659024 0.659570
Si Si5 0.481608 0.250000 0.000000
Si Si6 0.250000 0.250000 0.890623
Si Si7 0.476344 0.996815 0.256572
Si Si8 0.612344 0.058820 0.038674
O O1 0.764831 0.847810 0.147238
O O2 0.851291 0.996496 0.204807
O O3 0.602022 0.944820 0.224951
O O4 0.651479 0.013966 0.112197
O O5 0.920629 0.349803 0.559041
O O6 0.963373 0.262055 0.671214
O O7 0.740873 0.345873 0.659870
O O8 0.942209 0.443915 0.673797
O O9 0.250000 0.559641 0.500000
O O10 0.500000 0.500000 0.500000
O O11 0.443988 0.629534 0.419402
O O12 0.020771 0.595496 0.717731
O O13 0.379626 0.270232 0.062280
O O14 0.565628 0.163598 0.027873
O O15 0.750000 0.048523 0.000000
O O16 0.500000 0.000000 0.000000
#
# Coordination Sequence:
#
# PCOD9395927 Si02
#       8
#     8   8   8   8   4   4   8   8
#     4  12  27  43  67  99 137 177 217 266 326 402
#     4  10  21  40  64  91 126 172 224 273 324 390
#     4  10  19  35  65  93 121 163 220 282 331 376
#     4  10  21  40  64  92 126 172 224 271 326 393
#     4  11  23  44  76 104 128 168 214 276 330 384
#     4  11  24  44  70 102 134 171 214 264 340 393
#     4  12  24  43  62  94 134 179 214 268 325 394
#     4  12  24  47  72 101 133 168 218 275 325 384
#
# _framework density 19.488416000000001
#
# number of rings (size 3 to 8) (size 9 to 14) (size 15 to 20)
#    0.000    1.000    4.286    3.214    2.000    1.714 
#    0.000    0.000    0.000    0.857    0.000    0.000 
#    0.000    0.000    0.000    0.000    0.000    0.000 
#
# Total GULP energy -312063.568427 kJ/mol
# GULP energy per Si atom -5572.563722 kJ/mol
# Density = 1.944406 g / cm^3
# Si number density = 19.488416 Si / 1000 Ang^3
#
#
#
# Elastic Constant Matrix: (Units=GPa)
#
#
# Indices 1 2 3 4 5 6 
#
# 1 74.5157 21.0877 25.0986 0.0000 0.0000 0.0000
# 2 21.0877 102.7249 21.1568 0.0000 0.0000 0.0000
# 3 25.0986 21.1568 65.7440 0.0000 0.0000 0.0000
# 4 0.0000 0.0000 0.0000 -7.2216 0.0000 0.0000
# 5 0.0000 0.0000 0.0000 0.0000 32.5008 0.0000
# 6 0.0000 0.0000 0.0000 0.0000 0.0000 26.8742
#
#
#
# Elastic Compliance Matrix: (Units=1/GPa)
#
#
# Indices 1 2 3 4 5 6 
#
# 1 0.015831 -0.002147 -0.005352 0.000000 0.000000 0.000000
# 2 -0.002147 0.010717 -0.002629 0.000000 0.000000 0.000000
# 3 -0.005352 -0.002629 0.018100 0.000000 0.000000 0.000000
# 4 0.000000 0.000000 0.000000 -0.138474 0.000000 0.000000
# 5 0.000000 0.000000 0.000000 0.000000 0.030768 0.000000
# 6 0.000000 0.000000 0.000000 0.000000 0.000000 0.037210
#
#
# Mechanical properties :
#
#
# Convention : Reuss Voigt Hill
#
# Bulk Modulus (GPa) = 41.00082 41.96343 41.48212
# Shear Modulus (GPa) = 1968.31370 22.14012 995.22691
#
# Velocity S-wave (km/s) = 31.81484 3.37421 22.62266
# Velocity P-wave (km/s) = 37.02247 6.06298 26.52756
#
# Compressibility (1/GPa) = 0.02438976
#
# Stress axis : x y z
#
# Youngs Moduli (GPa) = 63.16912 93.30951 55.24888
#
# Poissons Ratio (x) = 0.20037 0.29572
# Poissons Ratio (y) = 0.13565 0.14525
# Poissons Ratio (z) = 0.33811 0.24531
#
# Static dielectric constant tensor:
#      x y z
#    x 1.671000 0.000000 0.000000 
#    y 0.000000 1.745170 0.000000 
#    z 0.000000 0.000000 1.697100 
# 
# From -- ./inp_files/30686.got.cif
#   From: 2010.05.17/outbox.cif.g08.bks.cpg/sg50_16_cif.got.tgz:30686.got - 2010.06.03 11:33:33.
