data_PCOD9395380
_publ_section_title
;
Structure prediction by ZEFSAII (Michael W. Deem and Ramdas Pophale) SiO2 
 PCOD9395380
Probable space group: P B A N
;
_chemical_formula_sum "Si O2"
_cell_formula_units_Z 40
_cell_length_a 5.268665
_cell_length_b 15.271367
_cell_length_c 24.041604
_cell_angle_alpha 90.000000
_cell_angle_beta 90.000000
_cell_angle_gamma 90.000000
_cell_volume 1934.380650
_symmetry_space_group_name_H-M "P B A N"
_symmetry_group_IT_number 50
_space_group.IT_coordinate_system_code '2'
_symmetry_cell_setting 'orthorhombic'
loop_
_space_group_symop_operation_xyz
x,y,z
1/2-x,1/2-y,z
x,1/2-y,-z
1/2-x,y,-z
-x,-y,-z
1/2+x,1/2+y,-z
-x,1/2+y,z
1/2+x,-y,z
loop_
_atom_site_type_symbol
_atom_site_label
_atom_site_fract_x
_atom_site_fract_y
_atom_site_fract_z
Si Si1 0.467683 0.555393 0.346978
Si Si2 0.768065 0.354831 0.239088
Si Si3 0.003613 0.600048 0.524699
Si Si4 0.767570 0.557798 0.938303
Si Si5 0.737053 0.644860 0.822144
O O1 0.756943 0.521787 0.340985
O O2 0.366637 0.621287 0.300338
O O3 0.465482 0.592744 0.409410
O O4 0.750000 0.250000 0.235383
O O5 0.495834 0.387468 0.216586
O O6 0.992476 0.389096 0.199477
O O7 0.250000 0.644180 0.500000
O O8 0.750000 0.640650 0.500000
O O9 0.000000 0.500000 0.500000
O O10 0.549113 0.483348 0.935017
O O11 0.710070 0.619121 0.886162
O O12 0.750000 0.598868 0.000000
O O13 0.750000 0.750000 0.817524
#
# Coordination Sequence:
#
# PCOD9395380 Si02
#       5
#     8   8   8   8   8
#     4  12  21  32  55  85 104 136 187 226 264 327
#     4  10  23  39  53  77 114 149 179 226 285 324
#     4  10  16  30  48  74 109 132 161 218 264 307
#     4  10  21  36  57  85 115 144 177 228 286 325
#     4  10  21  39  58  76 107 151 189 223 268 329
#
# _framework density 20.678453999999999
#
# number of rings (size 3 to 8) (size 9 to 14) (size 15 to 20)
#    0.000    1.600    4.000    2.400    0.000    5.200 
#    0.000    0.000    0.000    7.800    0.000    2.800 
#    0.000    0.000    0.000    0.000    0.000    0.000 
#
# Total GULP energy -223106.719807 kJ/mol
# GULP energy per Si atom -5577.667995 kJ/mol
# Density = 2.063139 g / cm^3
# Si number density = 20.678454 Si / 1000 Ang^3
#
#
#
# Elastic Constant Matrix: (Units=GPa)
#
#
# Indices 1 2 3 4 5 6 
#
# 1 147.4077 13.7178 52.9529 0.0000 0.0000 0.0000
# 2 13.7178 21.5230 15.0398 0.0000 0.0000 0.0000
# 3 52.9529 15.0398 163.5145 0.0000 0.0000 0.0000
# 4 0.0000 0.0000 0.0000 312.0783 0.0000 0.0000
# 5 0.0000 0.0000 0.0000 0.0000 34.4234 0.0000
# 6 0.0000 0.0000 0.0000 0.0000 0.0000 5.0621
#
#
#
# Elastic Compliance Matrix: (Units=1/GPa)
#
#
# Indices 1 2 3 4 5 6 
#
# 1 0.007913 -0.003476 -0.002243 0.000000 0.000000 0.000000
# 2 -0.003476 0.051180 -0.003582 0.000000 0.000000 0.000000
# 3 -0.002243 -0.003582 0.007171 0.000000 0.000000 0.000000
# 4 0.000000 0.000000 0.000000 0.003204 0.000000 0.000000
# 5 0.000000 0.000000 0.000000 0.000000 0.029050 0.000000
# 6 0.000000 0.000000 0.000000 0.000000 0.000000 0.197547
#
#
# Mechanical properties :
#
#
# Convention : Reuss Voigt Hill
#
# Bulk Modulus (GPa) = 20.98050 55.09626 38.03838
# Shear Modulus (GPa) = 15.12606 87.02839 51.07723
#
# Velocity S-wave (km/s) = 2.70754 6.49445 4.97537
# Velocity P-wave (km/s) = 4.46570 9.10710 7.17223
#
# Compressibility (1/GPa) = 0.04766330
#
# Stress axis : x y z
#
# Youngs Moduli (GPa) = 126.37280 19.53875 139.44195
#
# Poissons Ratio (x) = 0.06792 0.31275
# Poissons Ratio (y) = 0.43929 0.49945
# Poissons Ratio (z) = 0.28344 0.06998
#
# Static dielectric constant tensor:
#      x y z
#    x 1.763160 0.000000 0.000000 
#    y 0.000000 1.712190 0.000000 
#    z 0.000000 0.000000 1.745680 
# 
# From -- ./inp_files/28060.got.cif
#   From: 2010.05.17/outbox.cif.g08.bks.cpg/sg50_15_cif.got.tgz:28060.got - 2010.06.03 11:33:33.
