data_PCOD9395163
_publ_section_title
;
Structure prediction by ZEFSAII (Michael W. Deem and Ramdas Pophale) SiO2 
 PCOD9395163
Probable space group: P C C M
;
_chemical_formula_sum "Si O2"
_cell_formula_units_Z 28
_cell_length_a 7.320624
_cell_length_b 10.639171
_cell_length_c 15.461164
_cell_angle_alpha 90.000000
_cell_angle_beta 90.000000
_cell_angle_gamma 90.000000
_cell_volume 1204.198487
_symmetry_space_group_name_H-M "P C C M"
_symmetry_group_IT_number 49
_symmetry_cell_setting 'orthorhombic'
loop_
_space_group_symop_operation_xyz
x,y,z
-x,-y,z
x,-y,1/2-z
-x,y,1/2-z
-x,-y,-z
x,y,-z
-x,y,1/2+z
x,-y,1/2+z
loop_
_atom_site_type_symbol
_atom_site_label
_atom_site_fract_x
_atom_site_fract_y
_atom_site_fract_z
Si Si1 0.000000 0.000000 0.500000
Si Si2 0.464768 0.355880 0.146112
Si Si3 0.756486 0.164573 0.130414
Si Si4 0.500000 0.000000 0.750000
Si Si5 0.046998 0.354280 0.103527
O O1 0.865101 0.935719 0.426709
O O2 0.500000 0.500000 0.119826
O O3 0.500000 0.348732 0.250000
O O4 0.600770 0.261946 0.097215
O O5 0.255520 0.326382 0.125791
O O6 0.913035 0.263991 0.155947
O O7 0.636878 0.086499 0.196697
O O8 0.000000 0.500000 0.120017
O O9 0.018911 0.329737 0.000000
#
# Coordination Sequence:
#
# PCOD9395163 Si02
#       5
#     2   8   8   2   8
#     4  12  32  48  80 104 170 214 266 304 390 466
#     4  11  25  47  78 119 156 197 257 332 401 465
#     4  12  28  55  72 120 149 219 258 327 379 484
#     4  12  32  52  86 104 174 214 268 308 396 470
#     4  11  25  47  80 117 156 196 255 332 401 464
#
# _framework density 23.25198
#
# number of rings (size 3 to 8) (size 9 to 14) (size 15 to 20)
#    0.000    0.571    5.714    0.000    6.000    5.143 
#    0.000    0.000    0.000    0.000    0.000    0.000 
#    0.000    0.000    0.000    0.000    0.000    0.000 
#
# Total GULP energy -156016.491704 kJ/mol
# GULP energy per Si atom -5572.017561 kJ/mol
# Density = 2.319906 g / cm^3
# Si number density = 23.251980 Si / 1000 Ang^3
#
#
#
# Elastic Constant Matrix: (Units=GPa)
#
#
# Indices 1 2 3 4 5 6 
#
# 1 263.4013 119.4622 66.7361 0.0000 0.0000 0.0000
# 2 119.4622 156.8330 80.0536 0.0000 0.0000 0.0000
# 3 66.7361 80.0536 102.7744 0.0000 0.0000 0.0000
# 4 0.0000 0.0000 0.0000 -34.8615 0.0000 0.0000
# 5 0.0000 0.0000 0.0000 0.0000 -45.1273 0.0000
# 6 0.0000 0.0000 0.0000 0.0000 0.0000 77.1468
#
#
#
# Elastic Compliance Matrix: (Units=1/GPa)
#
#
# Indices 1 2 3 4 5 6 
#
# 1 0.005818 -0.004156 -0.000541 0.000000 0.000000 0.000000
# 2 -0.004156 0.013553 -0.007858 0.000000 0.000000 0.000000
# 3 -0.000541 -0.007858 0.016202 0.000000 0.000000 0.000000
# 4 0.000000 0.000000 0.000000 -0.028685 0.000000 0.000000
# 5 0.000000 0.000000 0.000000 0.000000 -0.022160 0.000000
# 6 0.000000 0.000000 0.000000 0.000000 0.000000 0.012962
#
#
# Mechanical properties :
#
#
# Convention : Reuss Voigt Hill
#
# Bulk Modulus (GPa) = 95.57001 117.27916 106.42459
# Shear Modulus (GPa) = 190.19353 16.54872 103.37112
#
# Velocity S-wave (km/s) = 9.05396 2.67069 6.67484
# Velocity P-wave (km/s) = 12.26744 7.74971 10.26031
#
# Compressibility (1/GPa) = 0.01046353
#
# Stress axis : x y z
#
# Youngs Moduli (GPa) = 171.86963 73.78567 61.71964
#
# Poissons Ratio (x) = 0.30663 0.03340
# Poissons Ratio (y) = 0.71424 0.48500
# Poissons Ratio (z) = 0.09300 0.57981
#
# Static dielectric constant tensor:
#      x y z
#    x 1.788790 0.000000 0.000000 
#    y 0.000000 1.739210 0.000000 
#    z 0.000000 0.000000 1.928300 
# 
# From -- ./inp_files/18680.got.cif
#   From: 2010.05.17/outbox.cif.g08.bks.cpg/sg49_10_cif.got.tgz:18680.got - 2010.06.03 21:02:19.
