data_PCOD9395363
_publ_section_title
;
Structure prediction by ZEFSAII (Michael W. Deem and Ramdas Pophale) SiO2 
 PCOD9395363
Probable space group: P B A N
;
_chemical_formula_sum "Si O2"
_cell_formula_units_Z 50
_cell_length_a 26.096053
_cell_length_b 14.406648
_cell_length_c 5.516486
_cell_angle_alpha 90.000000
_cell_angle_beta 90.000000
_cell_angle_gamma 90.000000
_cell_volume 2073.959595
_symmetry_space_group_name_H-M "P B A N"
_symmetry_group_IT_number 50
_space_group.IT_coordinate_system_code '2'
_symmetry_cell_setting 'orthorhombic'
loop_
_space_group_symop_operation_xyz
x,y,z
1/2-x,1/2-y,z
x,1/2-y,-z
1/2-x,y,-z
-x,-y,-z
1/2+x,1/2+y,-z
-x,1/2+y,z
1/2+x,-y,z
loop_
_atom_site_type_symbol
_atom_site_label
_atom_site_fract_x
_atom_site_fract_y
_atom_site_fract_z
Si Si1 0.689249 0.914569 0.522732
Si Si2 0.374510 0.608616 0.567052
Si Si3 0.493176 0.610548 0.530069
Si Si4 0.345326 0.092761 0.980621
Si Si5 0.750000 0.250000 0.000000
Si Si6 0.831693 0.378409 0.074214
Si Si7 0.467242 0.403600 0.977792
O O1 0.750000 0.935774 0.500000
O O2 0.668476 0.864888 0.280283
O O3 0.652658 0.006855 0.547854
O O4 0.679946 0.864940 0.780159
O O5 0.434474 0.618226 0.608012
O O6 0.370611 0.641174 0.289331
O O7 0.347856 0.651991 0.804119
O O8 0.500000 0.500000 0.500000
O O9 0.524798 0.643931 0.761646
O O10 0.511433 0.644624 0.265903
O O11 0.406084 0.080906 0.031267
O O12 0.322740 0.988044 0.949263
O O13 0.782541 0.321522 0.154997
O O14 0.500000 0.500000 0.000000
#
# Coordination Sequence:
#
# PCOD9395363 Si02
#       7
#     8   8   8   8   2   8   8
#     4  10  18  26  40  54  74 104 138 162 204 244
#     4  10  20  32  48  62  82 100 128 176 226 280
#     4  10  16  26  44  66  82 100 116 146 210 294
#     4  10  19  30  42  61  80 104 129 176 222 271
#     4  12  28  38  52  62  76 122 164 214 236 270
#     4  10  22  34  46  58  79  98 147 184 234 260
#     4  10  16  25  43  62  86  98 118 147 207 292
#
# _framework density 24.108474000000001
#
# number of rings (size 3 to 8) (size 9 to 14) (size 15 to 20)
#    0.000    1.920    0.000   10.080    8.960    1.280 
#    0.000    0.000    0.000    0.000    0.000    0.000 
#    0.000    0.000    0.000    0.000    0.000    0.000 
#
# Total GULP energy -278630.997049 kJ/mol
# GULP energy per Si atom -5572.619941 kJ/mol
# Density = 2.405360 g / cm^3
# Si number density = 24.108474 Si / 1000 Ang^3
#
#
#
# Elastic Constant Matrix: (Units=GPa)
#
#
# Indices 1 2 3 4 5 6 
#
# 1 124.1201 7.5708 23.9073 0.0000 0.0000 0.0000
# 2 7.5708 55.7818 11.4999 0.0000 0.0000 0.0000
# 3 23.9073 11.4999 237.9015 0.0000 0.0000 0.0000
# 4 0.0000 0.0000 0.0000 -127.4380 0.0000 0.0000
# 5 0.0000 0.0000 0.0000 0.0000 31.3019 0.0000
# 6 0.0000 0.0000 0.0000 0.0000 0.0000 -12.4367
#
#
#
# Elastic Compliance Matrix: (Units=1/GPa)
#
#
# Indices 1 2 3 4 5 6 
#
# 1 0.008266 -0.000960 -0.000784 0.000000 0.000000 0.000000
# 2 -0.000960 0.018219 -0.000784 0.000000 0.000000 0.000000
# 3 -0.000784 -0.000784 0.004320 0.000000 0.000000 0.000000
# 4 0.000000 0.000000 0.000000 -0.007847 0.000000 0.000000
# 5 0.000000 0.000000 0.000000 0.000000 0.031947 0.000000
# 6 0.000000 0.000000 0.000000 0.000000 0.000000 -0.080407
#
#
# Mechanical properties :
#
#
# Convention : Reuss Voigt Hill
#
# Bulk Modulus (GPa) = 38.83791 55.97328 47.40559
# Shear Modulus (GPa) = -421.53476 3.27379 -209.13049
#
# Velocity S-wave (km/s) = -13.23740 1.16657 -9.32384
# Velocity P-wave (km/s) = 14.74767 5.00821 9.80846
#
# Compressibility (1/GPa) = 0.02574804
#
# Stress axis : x y z
#
# Youngs Moduli (GPa) = 120.97241 54.88780 231.47390
#
# Poissons Ratio (x) = 0.05271 0.18154
# Poissons Ratio (y) = 0.11616 0.18152
# Poissons Ratio (z) = 0.09488 0.04304
#
# Static dielectric constant tensor:
#      x y z
#    x 1.588390 0.000000 0.000000 
#    y 0.000000 1.593960 0.000000 
#    z 0.000000 0.000000 2.069770 
# 
# From -- ./inp_files/6076.got.cif
#   From: 2010.05.17/outbox.cif.g08.bks.cpg/sg50_4_cif.got.tgz:6076.got - 2010.06.03 11:33:33.
