data_PCOD9395518
_publ_section_title
;
Structure prediction by ZEFSAII (Michael W. Deem and Ramdas Pophale) SiO2 
 PCOD9395518
Probable space group: P B A N
;
_chemical_formula_sum "Si O2"
_cell_formula_units_Z 52
_cell_length_a 24.560576
_cell_length_b 5.539697
_cell_length_c 14.900778
_cell_angle_alpha 90.000000
_cell_angle_beta 90.000000
_cell_angle_gamma 90.000000
_cell_volume 2027.372276
_symmetry_space_group_name_H-M "P B A N"
_symmetry_group_IT_number 50
_space_group.IT_coordinate_system_code '2'
_symmetry_cell_setting 'orthorhombic'
loop_
_space_group_symop_operation_xyz
x,y,z
1/2-x,1/2-y,z
x,1/2-y,-z
1/2-x,y,-z
-x,-y,-z
1/2+x,1/2+y,-z
-x,1/2+y,z
1/2+x,-y,z
loop_
_atom_site_type_symbol
_atom_site_label
_atom_site_fract_x
_atom_site_fract_y
_atom_site_fract_z
Si Si1 0.371110 0.750000 0.500000
Si Si2 0.186754 0.250654 0.184096
Si Si3 0.475239 0.860663 0.815400
Si Si4 0.724939 0.004912 0.600024
Si Si5 0.129539 0.750000 0.000000
Si Si6 0.472329 0.605814 0.399130
Si Si7 0.849380 0.250649 0.192228
Si Si8 0.382850 0.250000 0.000000
O O1 0.336532 0.923100 0.432617
O O2 0.410481 0.595797 0.434463
O O3 0.250000 0.250000 0.163277
O O4 0.170606 0.499780 0.233956
O O5 0.169219 0.003787 0.232255
O O6 0.152696 0.251501 0.091263
O O7 0.512682 0.635675 0.848629
O O8 0.479516 0.892134 0.708214
O O9 0.413805 0.763462 0.821559
O O10 0.750000 0.250000 0.643184
O O11 0.750000 0.997312 0.500000
O O12 0.750000 0.750000 0.639301
O O13 0.168564 0.748748 0.087209
O O14 0.092063 0.513249 0.000016
O O15 0.505787 0.369810 0.425691
#
# Coordination Sequence:
#
# PCOD9395518 Si02
#       8
#     4   8   8   8   4   8   8   4
#     4  10  19  34  60  82 112 142 165 218 268 286
#     4  10  18  29  49  76 104 135 166 207 256 312
#     4  10  21  39  57  74 100 138 176 213 261 318
#     4   8  16  28  45  72 102 135 170 193 224 288
#     4   8  16  28  45  73  97 124 171 217 245 294
#     4  10  22  36  55  84 109 131 171 215 264 323
#     4  10  19  33  52  72 102 136 171 212 257 303
#     4   8  15  26  42  69 103 132 161 199 258 310
#
# _framework density 25.648965
#
# number of rings (size 3 to 8) (size 9 to 14) (size 15 to 20)
#    0.000    2.769    0.000    2.077    0.000    4.923 
#    0.000    5.385    0.000    9.231    0.000    0.000 
#    0.000    0.000    0.000    0.000    0.000    0.000 
#
# Total GULP energy -289871.956358 kJ/mol
# GULP energy per Si atom -5574.460699 kJ/mol
# Density = 2.559059 g / cm^3
# Si number density = 25.648965 Si / 1000 Ang^3
#
#
#
# Elastic Constant Matrix: (Units=GPa)
#
#
# Indices 1 2 3 4 5 6 
#
# 1 106.2750 59.5088 -3.2634 0.0000 0.0000 0.0000
# 2 59.5088 278.2990 31.0208 0.0000 0.0000 0.0000
# 3 -3.2634 31.0208 49.1091 0.0000 0.0000 0.0000
# 4 0.0000 0.0000 0.0000 28.3881 0.0000 0.0000
# 5 0.0000 0.0000 0.0000 0.0000 23.7158 0.0000
# 6 0.0000 0.0000 0.0000 0.0000 0.0000 -10.6757
#
#
#
# Elastic Compliance Matrix: (Units=1/GPa)
#
#
# Indices 1 2 3 4 5 6 
#
# 1 0.010940 -0.002604 0.002372 0.000000 0.000000 0.000000
# 2 -0.002604 0.004485 -0.003006 0.000000 0.000000 0.000000
# 3 0.002372 -0.003006 0.022419 0.000000 0.000000 0.000000
# 4 0.000000 0.000000 0.000000 0.035226 0.000000 0.000000
# 5 0.000000 0.000000 0.000000 0.000000 0.042166 0.000000
# 6 0.000000 0.000000 0.000000 0.000000 0.000000 -0.093671
#
#
# Mechanical properties :
#
#
# Convention : Reuss Voigt Hill
#
# Bulk Modulus (GPa) = 31.87919 67.57951 49.72935
# Shear Modulus (GPa) = 129.87651 31.38011 80.62831
#
# Velocity S-wave (km/s) = 7.12363 3.50157 5.61280
# Velocity P-wave (km/s) = 8.95084 6.53858 7.83807
#
# Compressibility (1/GPa) = 0.03136843
#
# Stress axis : x y z
#
# Youngs Moduli (GPa) = 91.40477 222.96064 44.60442
#
# Poissons Ratio (x) = 0.58053 -0.10579
# Poissons Ratio (y) = 0.23799 0.13409
# Poissons Ratio (z) = -0.21679 0.67025
#
# Static dielectric constant tensor:
#      x y z
#    x 2.003820 0.000000 0.000000 
#    y 0.000000 2.242440 0.000000 
#    z 0.000000 0.000000 2.325460 
# 
# From -- ./inp_files/31197.got.cif
#   From: 2010.05.17/outbox.cif.g08.bks.cpg/sg50_16_cif.got.tgz:31197.got - 2010.06.03 11:33:33.
