data_PCOD9395062
_publ_section_title
;
Structure prediction by ZEFSAII (Michael W. Deem and Ramdas Pophale) SiO2 
 PCOD9395062
Probable space group: P C C M
;
_chemical_formula_sum "Si O2"
_cell_formula_units_Z 48
_cell_length_a 9.274779
_cell_length_b 31.952956
_cell_length_c 8.667365
_cell_angle_alpha 90.000000
_cell_angle_beta 90.000000
_cell_angle_gamma 90.000000
_cell_volume 2568.630868
_symmetry_space_group_name_H-M "P C C M"
_symmetry_group_IT_number 49
_symmetry_cell_setting 'orthorhombic'
loop_
_space_group_symop_operation_xyz
x,y,z
-x,-y,z
x,-y,1/2-z
-x,y,1/2-z
-x,-y,-z
x,y,-z
-x,y,1/2+z
x,-y,1/2+z
loop_
_atom_site_type_symbol
_atom_site_label
_atom_site_fract_x
_atom_site_fract_y
_atom_site_fract_z
Si Si1 0.160932 0.216006 0.814479
Si Si2 0.662120 0.134532 0.314022
Si Si3 0.160149 0.377713 0.685114
Si Si4 0.663385 0.042429 0.315360
Si Si5 0.660384 0.545421 0.815327
Si Si6 0.338985 0.294148 0.684851
O O1 0.238285 0.172879 0.764012
O O2 0.253606 0.254943 0.754218
O O3 0.000000 0.218406 0.750000
O O4 0.157145 0.216944 0.000000
O O5 0.500000 0.139197 0.250000
O O6 0.652432 0.135482 0.500000
O O7 0.721799 0.088335 0.271259
O O8 0.156005 0.381927 0.500000
O O9 0.233887 0.418497 0.757833
O O10 0.255174 0.336928 0.723778
O O11 0.000000 0.372367 0.750000
O O12 0.500000 0.043172 0.250000
O O13 0.658469 0.039310 0.500000
O O14 0.733065 0.000000 0.250000
O O15 0.703924 0.500000 0.750000
O O16 0.500000 0.553986 0.750000
O O17 0.654852 0.543972 0.000000
O O18 0.500000 0.295407 0.750000
O O19 0.343504 0.290255 0.500000
#
# Coordination Sequence:
#
# PCOD9395062 Si02
#       6
#     8   8   8   8   8   8
#     4  11  23  39  58  81 111 146 185 229 279 334
#     4   9  19  33  51  76 106 139 177 223 271 325
#     4  11  24  41  61  88 121 156 194 236 285 338
#     4   9  15  25  42  68 100 132 169 214 266 318
#     4  11  22  39  63  90 121 157 199 244 290 339
#     4  11  24  41  63  89 117 149 187 232 280 333
#
# _framework density 18.686997999999999
#
# number of rings (size 3 to 8) (size 9 to 14) (size 15 to 20)
#    0.000    1.667    0.000    6.000    0.000    9.000 
#    0.000    1.667    0.000    0.500    0.000    3.500 
#    0.000    0.000    0.000    0.000    0.000    0.000 
#
# Total GULP energy -268139.673610 kJ/mol
# GULP energy per Si atom -5586.243200 kJ/mol
# Density = 1.864447 g / cm^3
# Si number density = 18.686998 Si / 1000 Ang^3
#
#
#
# Elastic Constant Matrix: (Units=GPa)
#
#
# Indices 1 2 3 4 5 6 
#
# 1 134.4562 113.1664 52.0926 0.0000 0.0000 0.0000
# 2 113.1664 189.5296 74.2431 0.0000 0.0000 0.0000
# 3 52.0926 74.2431 82.4709 0.0000 0.0000 0.0000
# 4 0.0000 0.0000 0.0000 24.9475 0.0000 0.0000
# 5 0.0000 0.0000 0.0000 0.0000 29.3598 0.0000
# 6 0.0000 0.0000 0.0000 0.0000 0.0000 106.1643
#
#
#
# Elastic Compliance Matrix: (Units=1/GPa)
#
#
# Indices 1 2 3 4 5 6 
#
# 1 0.015208 -0.008214 -0.002211 0.000000 0.000000 0.000000
# 2 -0.008214 0.012587 -0.006143 0.000000 0.000000 0.000000
# 3 -0.002211 -0.006143 0.019052 0.000000 0.000000 0.000000
# 4 0.000000 0.000000 0.000000 0.040084 0.000000 0.000000
# 5 0.000000 0.000000 0.000000 0.000000 0.034060 0.000000
# 6 0.000000 0.000000 0.000000 0.000000 0.000000 0.009419
#
#
# Mechanical properties :
#
#
# Convention : Reuss Voigt Hill
#
# Bulk Modulus (GPa) = 72.93702 98.38457 85.66079
# Shear Modulus (GPa) = 29.74115 43.22462 36.48289
#
# Velocity S-wave (km/s) = 3.99374 4.81467 4.42329
# Velocity P-wave (km/s) = 7.77060 9.14719 8.48685
#
# Compressibility (1/GPa) = 0.01371046
#
# Stress axis : x y z
#
# Youngs Moduli (GPa) = 65.75686 79.44632 52.48717
#
# Poissons Ratio (x) = 0.65258 0.11606
# Poissons Ratio (y) = 0.54013 0.32242
# Poissons Ratio (z) = 0.14540 0.48803
#
# Static dielectric constant tensor:
#      x y z
#    x 1.599190 0.000000 0.000000 
#    y 0.000000 1.668740 0.000000 
#    z 0.000000 0.000000 1.630140 
# 
# From -- ./inp_files/2067.got.cif
#   From: 2010.05.17/outbox.cif.g08.bks.cpg/sg49_2_cif.got.tgz:2067.got - 2010.06.03 21:02:19.
