data_PCOD9395418
_publ_section_title
;
Structure prediction by ZEFSAII (Michael W. Deem and Ramdas Pophale) SiO2 
 PCOD9395418
Probable space group: P B A N
;
_chemical_formula_sum "Si O2"
_cell_formula_units_Z 40
_cell_length_a 13.185456
_cell_length_b 15.912622
_cell_length_c 8.786865
_cell_angle_alpha 90.000000
_cell_angle_beta 90.000000
_cell_angle_gamma 90.000000
_cell_volume 1843.617637
_symmetry_space_group_name_H-M "P B A N"
_symmetry_group_IT_number 50
_space_group.IT_coordinate_system_code '2'
_symmetry_cell_setting 'orthorhombic'
loop_
_space_group_symop_operation_xyz
x,y,z
1/2-x,1/2-y,z
x,1/2-y,-z
1/2-x,y,-z
-x,-y,-z
1/2+x,1/2+y,-z
-x,1/2+y,z
1/2+x,-y,z
loop_
_atom_site_type_symbol
_atom_site_label
_atom_site_fract_x
_atom_site_fract_y
_atom_site_fract_z
Si Si1 0.908426 0.750000 0.000000
Si Si2 0.466870 0.858853 0.240239
Si Si3 0.960216 0.029016 0.829354
Si Si4 0.150822 0.133087 0.738682
Si Si5 0.939088 0.750000 0.500000
Si Si6 0.739104 0.461883 0.178686
O O1 0.841732 0.694951 0.883431
O O2 0.983567 0.810087 0.902706
O O3 0.534066 0.942234 0.261418
O O4 0.488291 0.799096 0.382359
O O5 0.353145 0.896940 0.211304
O O6 0.852188 0.071154 0.799105
O O7 0.042236 0.091342 0.767411
O O8 0.000000 0.000000 0.000000
O O9 0.135576 0.187660 0.589975
O O10 0.222214 0.051448 0.738898
O O11 0.750000 0.484566 0.000000
#
# Coordination Sequence:
#
# PCOD9395418 Si02
#       6
#     4   8   8   8   4   8
#     4  10  16  36  58  86 122 168 200 276 320 360
#     4  10  21  38  63  87 129 166 214 263 317 389
#     4  11  19  38  64  92 118 155 218 275 313 364
#     4  10  21  38  63  87 129 166 214 263 317 389
#     4  10  24  44  58  90 140 186 200 246 346 384
#     4  11  19  36  64  96 114 155 220 275 317 362
#
# _framework density 21.696473000000001
#
# number of rings (size 3 to 8) (size 9 to 14) (size 15 to 20)
#    0.000    1.600    6.000    0.000    0.000    3.200 
#    0.000   25.000    0.000    0.000    0.000    0.000 
#    0.000    0.000    0.000    0.000    0.000    0.000 
#
# Total GULP energy -223012.625324 kJ/mol
# GULP energy per Si atom -5575.315633 kJ/mol
# Density = 2.164709 g / cm^3
# Si number density = 21.696473 Si / 1000 Ang^3
#
#
#
# Elastic Constant Matrix: (Units=GPa)
#
#
# Indices 1 2 3 4 5 6 
#
# 1 118.4541 8.8928 16.3292 0.0000 0.0000 0.0000
# 2 8.8928 91.3771 44.0033 0.0000 0.0000 0.0000
# 3 16.3292 44.0033 92.5827 0.0000 0.0000 0.0000
# 4 0.0000 0.0000 0.0000 34.1339 0.0000 0.0000
# 5 0.0000 0.0000 0.0000 0.0000 -45.1606 0.0000
# 6 0.0000 0.0000 0.0000 0.0000 0.0000 -7.2401
#
#
#
# Elastic Compliance Matrix: (Units=1/GPa)
#
#
# Indices 1 2 3 4 5 6 
#
# 1 0.008654 -0.000139 -0.001460 0.000000 0.000000 0.000000
# 2 -0.000139 0.014194 -0.006722 0.000000 0.000000 0.000000
# 3 -0.001460 -0.006722 0.014253 0.000000 0.000000 0.000000
# 4 0.000000 0.000000 0.000000 0.029296 0.000000 0.000000
# 5 0.000000 0.000000 0.000000 0.000000 -0.022143 0.000000
# 6 0.000000 0.000000 0.000000 0.000000 0.000000 -0.138120
#
#
# Mechanical properties :
#
#
# Convention : Reuss Voigt Hill
#
# Bulk Modulus (GPa) = 48.87730 48.98495 48.93113
# Shear Modulus (GPa) = -71.01886 11.89256 -29.56315
#
# Velocity S-wave (km/s) = -5.72747 2.34376 -3.69532
# Velocity P-wave (km/s) = 4.60021 5.47272 2.09628
#
# Compressibility (1/GPa) = 0.02045940
#
# Stress axis : x y z
#
# Youngs Moduli (GPa) = 115.55591 70.45186 70.15843
#
# Poissons Ratio (x) = 0.00979 0.10245
# Poissons Ratio (y) = 0.01606 0.47159
# Poissons Ratio (z) = 0.16874 0.47356
#
# Static dielectric constant tensor:
#      x y z
#    x 1.905580 0.000000 0.000000 
#    y 0.000000 1.936450 0.000000 
#    z 0.000000 0.000000 0.136790 
# 
# From -- ./inp_files/12596.got.cif
#   From: 2010.05.17/outbox.cif.g08.bks.cpg/sg50_7_cif.got.tgz:12596.got - 2010.06.03 11:33:33.
