data_PCOD9395732
_publ_section_title
;
Structure prediction by ZEFSAII (Michael W. Deem and Ramdas Pophale) SiO2 
 PCOD9395732
Probable space group: P B A N
;
_chemical_formula_sum "Si O2"
_cell_formula_units_Z 34
_cell_length_a 13.645103
_cell_length_b 5.071854
_cell_length_c 21.458466
_cell_angle_alpha 90.000000
_cell_angle_beta 90.000000
_cell_angle_gamma 90.000000
_cell_volume 1485.053959
_symmetry_space_group_name_H-M "P B A N"
_symmetry_group_IT_number 50
_space_group.IT_coordinate_system_code '2'
_symmetry_cell_setting 'orthorhombic'
loop_
_space_group_symop_operation_xyz
x,y,z
1/2-x,1/2-y,z
x,1/2-y,-z
1/2-x,y,-z
-x,-y,-z
1/2+x,1/2+y,-z
-x,1/2+y,z
1/2+x,-y,z
loop_
_atom_site_type_symbol
_atom_site_label
_atom_site_fract_x
_atom_site_fract_y
_atom_site_fract_z
Si Si1 0.071378 0.593382 0.081777
Si Si2 0.366054 0.735199 0.353208
Si Si3 0.630652 0.729463 0.429156
Si Si4 0.057951 0.947522 0.776774
Si Si5 0.750000 0.250000 0.000000
O O1 0.101025 0.605406 0.154904
O O2 0.171636 0.590464 0.042404
O O3 0.998227 0.347978 0.070626
O O4 0.250000 0.750000 0.356254
O O5 0.396740 0.448462 0.377400
O O6 0.390877 0.836529 0.284415
O O7 0.399783 0.947594 0.403510
O O8 0.750000 0.750000 0.432196
O O9 0.595274 0.750000 0.500000
O O10 0.960785 0.760718 0.775212
#
# Coordination Sequence:
#
# PCOD9395732 Si02
#       5
#     8   8   8   8   2
#     4  10  24  43  64  97 133 168 215 259 310 378
#     4  10  19  31  55  80 105 142 196 242 281 351
#     4   9  17  30  49  79 111 142 182 241 299 342
#     4  10  21  39  58  80 117 156 189 240 298 349
#     4  12  24  42  76  96 132 178 202 266 312 372
#
# _framework density 22.894791999999999
#
# number of rings (size 3 to 8) (size 9 to 14) (size 15 to 20)
#    0.000    2.118    0.000    2.824    1.647    4.706 
#    0.000    0.000    0.000   14.118    0.000    0.000 
#    0.000    0.000    0.000    0.000    0.000    0.000 
#
# Total GULP energy -189791.752291 kJ/mol
# GULP energy per Si atom -5582.110362 kJ/mol
# Density = 2.284268 g / cm^3
# Si number density = 22.894792 Si / 1000 Ang^3
#
#
#
# Elastic Constant Matrix: (Units=GPa)
#
#
# Indices 1 2 3 4 5 6 
#
# 1 107.1917 -10.5064 37.5353 0.0000 0.0000 0.0000
# 2 -10.5064 85.5329 20.3418 0.0000 0.0000 0.0000
# 3 37.5353 20.3418 170.6334 0.0000 0.0000 0.0000
# 4 0.0000 0.0000 0.0000 23.4226 0.0000 0.0000
# 5 0.0000 0.0000 0.0000 0.0000 149.6547 0.0000
# 6 0.0000 0.0000 0.0000 0.0000 0.0000 -21.7370
#
#
#
# Elastic Compliance Matrix: (Units=1/GPa)
#
#
# Indices 1 2 3 4 5 6 
#
# 1 0.010391 0.001873 -0.002509 0.000000 0.000000 0.000000
# 2 0.001873 0.012370 -0.001887 0.000000 0.000000 0.000000
# 3 -0.002509 -0.001887 0.006637 0.000000 0.000000 0.000000
# 4 0.000000 0.000000 0.000000 0.042694 0.000000 0.000000
# 5 0.000000 0.000000 0.000000 0.000000 0.006682 0.000000
# 6 0.000000 0.000000 0.000000 0.000000 0.000000 -0.046005
#
#
# Mechanical properties :
#
#
# Convention : Reuss Voigt Hill
#
# Bulk Modulus (GPa) = 41.06198 50.89993 45.98095
# Shear Modulus (GPa) = 108.85294 51.33388 80.09341
#
# Velocity S-wave (km/s) = 6.90276 4.74029 5.92108
# Velocity P-wave (km/s) = 9.02800 7.22778 8.17758
#
# Compressibility (1/GPa) = 0.02435343
#
# Stress axis : x y z
#
# Youngs Moduli (GPa) = 96.23433 80.83937 150.66150
#
# Poissons Ratio (x) = -0.15142 0.37803
# Poissons Ratio (y) = -0.18026 0.28426
# Poissons Ratio (z) = 0.24147 0.15252
#
# Static dielectric constant tensor:
#      x y z
#    x 1.866680 0.000000 0.000000 
#    y 0.000000 1.852110 0.000000 
#    z 0.000000 0.000000 1.880490 
# 
# From -- ./inp_files/30917.got.cif
#   From: 2010.05.17/outbox.cif.g08.bks.cpg/sg50_16_cif.got.tgz:30917.got - 2010.06.03 11:33:33.
