data_PCOD9395111
_publ_section_title
;
Structure prediction by ZEFSAII (Michael W. Deem and Ramdas Pophale) SiO2 
 PCOD9395111
Probable space group: P C C M
;
_chemical_formula_sum "Si O2"
_cell_formula_units_Z 56
_cell_length_a 7.264584
_cell_length_b 16.360326
_cell_length_c 20.016610
_cell_angle_alpha 90.000000
_cell_angle_beta 90.000000
_cell_angle_gamma 90.000000
_cell_volume 2378.993364
_symmetry_space_group_name_H-M "P C C M"
_symmetry_group_IT_number 49
_symmetry_cell_setting 'orthorhombic'
loop_
_space_group_symop_operation_xyz
x,y,z
-x,-y,z
x,-y,1/2-z
-x,y,1/2-z
-x,-y,-z
x,y,-z
-x,y,1/2+z
x,-y,1/2+z
loop_
_atom_site_type_symbol
_atom_site_label
_atom_site_fract_x
_atom_site_fract_y
_atom_site_fract_z
Si Si1 0.567231 0.270440 0.183864
Si Si2 0.879455 0.392147 0.187152
Si Si3 0.275389 0.001274 0.172885
Si Si4 0.193897 0.688147 0.608679
Si Si5 0.279607 0.506875 0.572891
Si Si6 0.680473 0.855372 0.423222
Si Si7 0.237576 0.130666 0.929571
O O1 0.500000 0.221259 0.250000
O O2 0.694552 0.344778 0.207480
O O3 0.617956 0.301422 0.350270
O O4 0.677519 0.221513 0.127031
O O5 0.817173 0.460154 0.133696
O O6 0.000000 0.419070 0.250000
O O7 0.014649 0.327648 0.152116
O O8 0.232760 0.928212 0.120471
O O9 0.500000 0.000000 0.174835
O O10 0.215997 0.000000 0.250000
O O11 0.195526 0.081663 0.137212
O O12 0.223554 0.601833 0.571945
O O13 0.176295 0.775214 0.572885
O O14 0.500000 0.500000 0.581015
O O15 0.232390 0.470046 0.500000
O O16 0.748253 0.844718 0.500000
O O17 0.460851 0.871590 0.430468
O O18 0.175188 0.092957 0.000000
#
# Coordination Sequence:
#
# PCOD9395111 Si02
#       7
#     8   8   8   8   8   8   8
#     4  11  23  42  67  98 136 177 229 286 346 415
#     4  12  26  45  69 102 135 181 229 287 347 419
#     4   9  17  27  51  89 132 176 225 276 334 400
#     4  11  23  41  69  97 133 178 227 281 346 410
#     4  11  25  46  71 101 139 182 230 288 352 423
#     4   9  19  33  57  90 132 178 227 282 342 407
#     4   9  18  33  56  88 130 175 221 275 335 400
#
# _framework density 23.539368
#
# number of rings (size 3 to 8) (size 9 to 14) (size 15 to 20)
#    0.000    1.714    2.857    1.286    6.000    5.714 
#    0.000    1.429    0.000    0.857    0.000    4.000 
#    0.000    0.000    0.000    0.000    0.000    0.000 
#
# Total GULP energy -312634.726151 kJ/mol
# GULP energy per Si atom -5582.762967 kJ/mol
# Density = 2.348579 g / cm^3
# Si number density = 23.539368 Si / 1000 Ang^3
#
#
#
# Elastic Constant Matrix: (Units=GPa)
#
#
# Indices 1 2 3 4 5 6 
#
# 1 101.6784 19.0075 37.0170 0.0000 0.0000 0.0000
# 2 19.0075 108.5446 95.9191 0.0000 0.0000 0.0000
# 3 37.0170 95.9191 243.0581 0.0000 0.0000 0.0000
# 4 0.0000 0.0000 0.0000 7.6539 0.0000 0.0000
# 5 0.0000 0.0000 0.0000 0.0000 115.4003 0.0000
# 6 0.0000 0.0000 0.0000 0.0000 0.0000 -7.3954
#
#
#
# Elastic Compliance Matrix: (Units=1/GPa)
#
#
# Indices 1 2 3 4 5 6 
#
# 1 0.010442 -0.000650 -0.001334 0.000000 0.000000 0.000000
# 2 -0.000650 0.014186 -0.005499 0.000000 0.000000 0.000000
# 3 -0.001334 -0.005499 0.006488 0.000000 0.000000 0.000000
# 4 0.000000 0.000000 0.000000 0.130652 0.000000 0.000000
# 5 0.000000 0.000000 0.000000 0.000000 0.008665 0.000000
# 6 0.000000 0.000000 0.000000 0.000000 0.000000 -0.135218
#
#
# Mechanical properties :
#
#
# Convention : Reuss Voigt Hill
#
# Bulk Modulus (GPa) = 61.92038 84.12981 73.02509
# Shear Modulus (GPa) = 89.98491 43.22093 66.60292
#
# Velocity S-wave (km/s) = 6.18954 4.28964 5.32501
# Velocity P-wave (km/s) = 8.80015 7.76867 8.30045
#
# Compressibility (1/GPa) = 0.01614977
#
# Stress axis : x y z
#
# Youngs Moduli (GPa) = 95.76704 70.49011 154.13872
#
# Poissons Ratio (x) = 0.04581 0.20560
# Poissons Ratio (y) = 0.06223 0.84768
# Poissons Ratio (z) = 0.12774 0.38766
#
# Static dielectric constant tensor:
#      x y z
#    x 1.869870 0.000000 0.000000 
#    y 0.000000 1.914840 0.000000 
#    z 0.000000 0.000000 1.926390 
# 
# From -- ./inp_files/19887.got.cif
#   From: 2010.05.17/outbox.cif.g08.bks.cpg/sg49_10_cif.got.tgz:19887.got - 2010.06.03 21:02:19.
