data_PCOD9395382
_publ_section_title
;
Structure prediction by ZEFSAII (Michael W. Deem and Ramdas Pophale) SiO2 
 PCOD9395382
Probable space group: P B A N
;
_chemical_formula_sum "Si O2"
_cell_formula_units_Z 48
_cell_length_a 27.856197
_cell_length_b 17.834286
_cell_length_c 5.219635
_cell_angle_alpha 90.000000
_cell_angle_beta 90.000000
_cell_angle_gamma 90.000000
_cell_volume 2593.090575
_symmetry_space_group_name_H-M "P B A N"
_symmetry_group_IT_number 50
_space_group.IT_coordinate_system_code '2'
_symmetry_cell_setting 'orthorhombic'
loop_
_space_group_symop_operation_xyz
x,y,z
1/2-x,1/2-y,z
x,1/2-y,-z
1/2-x,y,-z
-x,-y,-z
1/2+x,1/2+y,-z
-x,1/2+y,z
1/2+x,-y,z
loop_
_atom_site_type_symbol
_atom_site_label
_atom_site_fract_x
_atom_site_fract_y
_atom_site_fract_z
Si Si1 0.067149 0.331203 0.451304
Si Si2 0.804993 0.216514 0.245155
Si Si3 0.483693 0.121044 0.937792
Si Si4 0.877634 0.515196 0.544711
Si Si5 0.572011 0.465269 0.943871
Si Si6 0.282035 0.956330 0.249144
O O1 0.089485 0.250000 0.500000
O O2 0.025276 0.339030 0.666829
O O3 0.104123 0.399784 0.490552
O O4 0.046146 0.340850 0.166450
O O5 0.750000 0.250000 0.246426
O O6 0.827323 0.250000 0.500000
O O7 0.802766 0.127716 0.215953
O O8 0.830314 0.250000 0.000000
O O9 0.461045 0.038274 0.887987
O O10 0.537188 0.106116 0.041395
O O11 0.887420 0.470704 0.277857
O O12 0.824717 0.510804 0.664553
O O13 0.908981 0.477896 0.769780
O O14 0.250000 0.949893 0.500000
O O15 0.250000 0.975606 0.000000
#
# Coordination Sequence:
#
# PCOD9395382 Si02
#       6
#     8   8   8   8   8   8
#     4  10  19  33  53  81 103 140 182 220 262 315
#     4  10  16  30  49  72  90 119 165 214 247 310
#     4   9  17  30  55  78  99 134 172 210 260 325
#     4  10  21  33  51  79 109 136 177 227 273 306
#     4   9  17  33  51  76 106 130 165 214 268 318
#     4  12  21  33  53  77 103 138 182 228 260 314
#
# _framework density 18.510731
#
# number of rings (size 3 to 8) (size 9 to 14) (size 15 to 20)
#    0.000    2.000    3.333    2.500    0.000    4.000 
#    0.000    0.000    0.000   10.500    0.000    1.167 
#    0.000    0.000    0.000    0.000    0.000    0.000 
#
# Total GULP energy -267300.498179 kJ/mol
# GULP energy per Si atom -5568.760379 kJ/mol
# Density = 1.846860 g / cm^3
# Si number density = 18.510731 Si / 1000 Ang^3
#
#
#
# Elastic Constant Matrix: (Units=GPa)
#
#
# Indices 1 2 3 4 5 6 
#
# 1 43.2513 34.3001 20.6089 0.0000 0.0000 0.0000
# 2 34.3001 70.8206 27.8428 0.0000 0.0000 0.0000
# 3 20.6089 27.8428 128.9559 0.0000 0.0000 0.0000
# 4 0.0000 0.0000 0.0000 20.0072 0.0000 0.0000
# 5 0.0000 0.0000 0.0000 0.0000 12.3340 0.0000
# 6 0.0000 0.0000 0.0000 0.0000 0.0000 11.3499
#
#
#
# Elastic Compliance Matrix: (Units=1/GPa)
#
#
# Indices 1 2 3 4 5 6 
#
# 1 0.038155 -0.017574 -0.002303 0.000000 0.000000 0.000000
# 2 -0.017574 0.023524 -0.002271 0.000000 0.000000 0.000000
# 3 -0.002303 -0.002271 0.008613 0.000000 0.000000 0.000000
# 4 0.000000 0.000000 0.000000 0.049982 0.000000 0.000000
# 5 0.000000 0.000000 0.000000 0.000000 0.081077 0.000000
# 6 0.000000 0.000000 0.000000 0.000000 0.000000 0.088106
#
#
# Mechanical properties :
#
#
# Convention : Reuss Voigt Hill
#
# Bulk Modulus (GPa) = 38.46638 45.39238 41.92938
# Shear Modulus (GPa) = 14.60202 19.42330 17.01266
#
# Velocity S-wave (km/s) = 2.81168 3.24280 3.03491
# Velocity P-wave (km/s) = 5.60057 6.21261 5.91451
#
# Compressibility (1/GPa) = 0.02599673
#
# Stress axis : x y z
#
# Youngs Moduli (GPa) = 26.20886 42.50925 116.10450
#
# Poissons Ratio (x) = 0.74705 0.26743
# Poissons Ratio (y) = 0.46059 0.26362
# Poissons Ratio (z) = 0.06037 0.09652
#
# Static dielectric constant tensor:
#      x y z
#    x 1.624100 0.000000 0.000000 
#    y 0.000000 1.636140 0.000000 
#    z 0.000000 0.000000 1.668370 
# 
# From -- ./inp_files/6695.got.cif
#   From: 2010.05.17/outbox.cif.g08.bks.cpg/sg50_4_cif.got.tgz:6695.got - 2010.06.03 11:33:33.
