data_PCOD9395741
_publ_section_title
;
Structure prediction by ZEFSAII (Michael W. Deem and Ramdas Pophale) SiO2 
 PCOD9395741
Probable space group: P B A N
;
_chemical_formula_sum "Si O2"
_cell_formula_units_Z 40
_cell_length_a 32.638162
_cell_length_b 9.215089
_cell_length_c 5.495258
_cell_angle_alpha 90.000000
_cell_angle_beta 90.000000
_cell_angle_gamma 90.000000
_cell_volume 1652.773401
_symmetry_space_group_name_H-M "P B A N"
_symmetry_group_IT_number 50
_space_group.IT_coordinate_system_code '2'
_symmetry_cell_setting 'orthorhombic'
loop_
_space_group_symop_operation_xyz
x,y,z
1/2-x,1/2-y,z
x,1/2-y,-z
1/2-x,y,-z
-x,-y,-z
1/2+x,1/2+y,-z
-x,1/2+y,z
1/2+x,-y,z
loop_
_atom_site_type_symbol
_atom_site_label
_atom_site_fract_x
_atom_site_fract_y
_atom_site_fract_z
Si Si1 0.852434 0.245483 0.749938
Si Si2 0.294014 0.025238 0.887408
Si Si3 0.955578 0.928086 0.000720
Si Si4 0.320909 0.447084 0.613423
Si Si5 0.415606 0.083272 0.499660
O O1 0.878004 0.250000 0.500000
O O2 0.822987 0.110757 0.815812
O O3 0.822431 0.380748 0.684471
O O4 0.877287 0.250000 0.000000
O O5 0.292395 0.092760 0.615637
O O6 0.250000 0.984615 0.000000
O O7 0.313006 0.112657 0.116055
O O8 0.930865 0.975176 0.758068
O O9 0.957573 0.750000 0.000000
O O10 0.933183 0.977869 0.248460
O O11 0.000000 0.000000 0.000000
O O12 0.366693 0.415595 0.523363
O O13 0.429561 0.250000 0.500000
#
# Coordination Sequence:
#
# PCOD9395741 Si02
#       5
#     8   8   8   8   8
#     4   8  16  28  43  66  97 131 171 218 268 329
#     4  10  19  32  50  74 108 147 188 237 294 350
#     4  10  21  40  64  93 123 156 195 235 289 354
#     4  10  19  33  52  76 105 144 190 232 278 339
#     4  10  21  38  62  85 115 155 194 238 289 350
#
# _framework density 24.201747999999998
#
# number of rings (size 3 to 8) (size 9 to 14) (size 15 to 20)
#    0.000    2.400    0.000    2.400    0.000    3.600 
#    0.000   19.000    0.000    3.600    0.000    0.000 
#    0.000    0.000    0.000    0.000    0.000    0.000 
#
# Total GULP energy -222732.145618 kJ/mol
# GULP energy per Si atom -5568.303640 kJ/mol
# Density = 2.414666 g / cm^3
# Si number density = 24.201748 Si / 1000 Ang^3
#
#
#
# Elastic Constant Matrix: (Units=GPa)
#
#
# Indices 1 2 3 4 5 6 
#
# 1 87.5336 0.8343 81.7196 0.0000 0.0000 0.0000
# 2 0.8343 67.3692 43.1412 0.0000 0.0000 0.0000
# 3 81.7196 43.1412 350.8683 0.0000 0.0000 0.0000
# 4 0.0000 0.0000 0.0000 24.9609 0.0000 0.0000
# 5 0.0000 0.0000 0.0000 0.0000 43.1696 0.0000
# 6 0.0000 0.0000 0.0000 0.0000 0.0000 -31.5230
#
#
#
# Elastic Compliance Matrix: (Units=1/GPa)
#
#
# Indices 1 2 3 4 5 6 
#
# 1 0.014896 0.002211 -0.003741 0.000000 0.000000 0.000000
# 2 0.002211 0.016440 -0.002536 0.000000 0.000000 0.000000
# 3 -0.003741 -0.002536 0.004033 0.000000 0.000000 0.000000
# 4 0.000000 0.000000 0.000000 0.040063 0.000000 0.000000
# 5 0.000000 0.000000 0.000000 0.000000 0.023164 0.000000
# 6 0.000000 0.000000 0.000000 0.000000 0.000000 -0.031723
#
#
# Mechanical properties :
#
#
# Convention : Reuss Voigt Hill
#
# Bulk Modulus (GPa) = 36.71503 84.12904 60.42204
# Shear Modulus (GPa) = 59.46322 32.65991 46.06157
#
# Velocity S-wave (km/s) = 4.96217 3.67752 4.36734
# Velocity P-wave (km/s) = 6.93067 7.27112 7.10294
#
# Compressibility (1/GPa) = 0.02723680
#
# Stress axis : x y z
#
# Youngs Moduli (GPa) = 67.13281 60.82551 247.93568
#
# Poissons Ratio (x) = -0.13450 0.92759
# Poissons Ratio (y) = -0.14845 0.62888
# Poissons Ratio (z) = 0.25116 0.15428
#
# Static dielectric constant tensor:
#      x y z
#    x 1.863290 0.000000 0.000000 
#    y 0.000000 2.120260 0.000000 
#    z 0.000000 0.000000 2.272480 
# 
# From -- ./inp_files/7098.got.cif
#   From: 2010.05.17/outbox.cif.g08.bks.cpg/sg50_4_cif.got.tgz:7098.got - 2010.06.03 11:33:33.
