data_PCOD9395651
_publ_section_title
;
Structure prediction by ZEFSAII (Michael W. Deem and Ramdas Pophale) SiO2 
 PCOD9395651
Probable space group: P B A N
;
_chemical_formula_sum "Si O2"
_cell_formula_units_Z 40
_cell_length_a 9.179051
_cell_length_b 24.133688
_cell_length_c 8.134051
_cell_angle_alpha 90.000000
_cell_angle_beta 90.000000
_cell_angle_gamma 90.000000
_cell_volume 1801.890385
_symmetry_space_group_name_H-M "P B A N"
_symmetry_group_IT_number 50
_space_group.IT_coordinate_system_code '2'
_symmetry_cell_setting 'orthorhombic'
loop_
_space_group_symop_operation_xyz
x,y,z
1/2-x,1/2-y,z
x,1/2-y,-z
1/2-x,y,-z
-x,-y,-z
1/2+x,1/2+y,-z
-x,1/2+y,z
1/2+x,-y,z
loop_
_atom_site_type_symbol
_atom_site_label
_atom_site_fract_x
_atom_site_fract_y
_atom_site_fract_z
Si Si1 0.076086 0.088998 0.140978
Si Si2 0.848584 0.032963 0.344155
Si Si3 0.496748 0.674590 0.129544
Si Si4 0.648942 0.598752 0.348110
Si Si5 0.250000 0.750000 0.000000
Si Si6 0.250000 0.250000 0.000000
Si Si7 0.250000 0.504631 0.000000
O O1 0.236142 0.106043 0.198820
O O2 0.989309 0.069759 0.303923
O O3 0.998725 0.134225 0.030110
O O4 0.112375 0.035343 0.031659
O O5 0.750000 0.047739 0.500000
O O6 0.885624 0.967106 0.361704
O O7 0.766096 0.037446 0.168844
O O8 0.515820 0.636976 0.292104
O O9 0.354633 0.712155 0.112337
O O10 0.638805 0.713788 0.109165
O O11 0.750000 0.615895 0.500000
#
# Coordination Sequence:
#
# PCOD9395651 Si02
#       7
#     8   8   8   8   2   2   4
#     4  11  19  39  61  91 126 175 225 266 323 398
#     4  10  22  36  55  96 146 177 212 264 325 397
#     4  11  20  43  66  95 121 164 222 288 337 412
#     4  10  21  38  64  96 126 176 222 264 324 408
#     4  10  28  40  68 102 124 158 226 288 380 388
#     4  10  18  38  78  76 112 158 218 296 328 380
#     4  10  19  33  58  89 124 183 225 263 306 394
#
# _framework density 22.198910000000001
#
# number of rings (size 3 to 8) (size 9 to 14) (size 15 to 20)
#    0.000    1.600    6.000    0.600    0.000    8.000 
#    7.200    0.500    0.000    1.200    0.000    0.000 
#    0.000    0.000    0.000    0.000    0.000    0.000 
#
# Total GULP energy -223386.764461 kJ/mol
# GULP energy per Si atom -5584.669112 kJ/mol
# Density = 2.214838 g / cm^3
# Si number density = 22.198910 Si / 1000 Ang^3
#
#
#
# Elastic Constant Matrix: (Units=GPa)
#
#
# Indices 1 2 3 4 5 6 
#
# 1 107.4775 58.2092 28.7222 0.0000 0.0000 0.0000
# 2 58.2092 70.9292 17.4221 0.0000 0.0000 0.0000
# 3 28.7222 17.4221 116.0833 0.0000 0.0000 0.0000
# 4 0.0000 0.0000 0.0000 13.8115 0.0000 0.0000
# 5 0.0000 0.0000 0.0000 0.0000 37.0459 0.0000
# 6 0.0000 0.0000 0.0000 0.0000 0.0000 60.7508
#
#
#
# Elastic Compliance Matrix: (Units=1/GPa)
#
#
# Indices 1 2 3 4 5 6 
#
# 1 0.017287 -0.013639 -0.002230 0.000000 0.000000 0.000000
# 2 -0.013639 0.025399 -0.000437 0.000000 0.000000 0.000000
# 3 -0.002230 -0.000437 0.009232 0.000000 0.000000 0.000000
# 4 0.000000 0.000000 0.000000 0.072403 0.000000 0.000000
# 5 0.000000 0.000000 0.000000 0.000000 0.026994 0.000000
# 6 0.000000 0.000000 0.000000 0.000000 0.000000 0.016461
#
#
# Mechanical properties :
#
#
# Convention : Reuss Voigt Hill
#
# Bulk Modulus (GPa) = 51.80061 55.91080 53.85570
# Shear Modulus (GPa) = 24.17507 34.99742 29.58625
#
# Velocity S-wave (km/s) = 3.30361 3.97487 3.65469
# Velocity P-wave (km/s) = 6.15932 6.80493 6.49016
#
# Compressibility (1/GPa) = 0.01930479
#
# Stress axis : x y z
#
# Youngs Moduli (GPa) = 57.84618 39.37130 108.31919
#
# Poissons Ratio (x) = 0.53699 0.24159
# Poissons Ratio (y) = 0.78898 0.04736
# Poissons Ratio (z) = 0.12902 0.01722
#
# Static dielectric constant tensor:
#      x y z
#    x 1.932790 0.000000 0.000000 
#    y 0.000000 1.848570 0.000000 
#    z 0.000000 0.000000 1.878210 
# 
# From -- ./inp_files/9819.got.cif
#   From: 2010.05.17/outbox.cif.g08.bks.cpg/sg50_5_cif.got.tgz:9819.got - 2010.06.03 11:33:33.
