data_PCOD9395301
_publ_section_title
;
Structure prediction by ZEFSAII (Michael W. Deem and Ramdas Pophale) SiO2 
 PCOD9395301
Probable space group: P C C M
;
_chemical_formula_sum "Si O2"
_cell_formula_units_Z 48
_cell_length_a 15.000000
_cell_length_b 9.000000
_cell_length_c 18.000000
_cell_angle_alpha 90.000000
_cell_angle_beta 90.000000
_cell_angle_gamma 90.000000
_cell_volume 2430.000000
_symmetry_space_group_name_H-M "P C C M"
_symmetry_group_IT_number 49
_symmetry_cell_setting 'orthorhombic'
loop_
_space_group_symop_operation_xyz
x,y,z
-x,-y,z
x,-y,1/2-z
-x,y,1/2-z
-x,-y,-z
x,y,-z
-x,y,1/2+z
x,-y,1/2+z
loop_
_atom_site_type_symbol
_atom_site_label
_atom_site_fract_x
_atom_site_fract_y
_atom_site_fract_z
Si Si1 0.200842 0.902410 0.182790
Si Si2 0.515785 0.673787 0.168876
Si Si3 0.862923 0.158547 0.414859
Si Si4 0.349021 0.192950 0.080210
Si Si5 0.100980 0.656625 0.724309
Si Si6 0.633016 0.850562 0.414762
O O1 0.147347 0.781230 0.227100
O O2 0.278453 0.832439 0.133784
O O3 0.242480 0.000000 0.250000
O O4 0.135431 0.003712 0.131482
O O5 0.500000 0.500000 0.168607
O O6 0.500000 0.737016 0.250000
O O7 0.615755 0.705243 0.144544
O O8 0.448373 0.754568 0.113827
O O9 0.897413 0.152283 0.500000
O O10 0.756463 0.180769 0.419950
O O11 0.896292 0.290908 0.361604
O O12 0.386471 0.026884 0.089633
O O13 0.378791 0.251188 0.000000
O O14 0.141830 0.500000 0.750000
O O15 0.000000 0.653448 0.750000
O O16 0.652885 0.816620 0.500000
#
# Coordination Sequence:
#
# PCOD9395301 Si02
#       6
#     8   8   8   8   8   8
#     4   9  19  35  61  88 111 145 187 236 284 335
#     4  11  25  36  48  76 113 151 191 230 273 328
#     4   9  19  38  63  88 115 146 192 242 288 334
#     4   9  19  37  58  80 106 141 183 235 283 325
#     4  10  22  40  59  85 121 157 186 226 282 348
#     4  10  21  37  57  82 109 141 186 234 281 330
#
# _framework density 19.753086
#
# number of rings (size 3 to 8) (size 9 to 14) (size 15 to 20)
#    0.000    2.333    0.000    2.500    7.000    7.667 
#    0.000    7.500    0.000    0.000    0.000    0.000 
#    0.000    0.000    0.000    0.000    0.000    0.000 
#
# Total GULP energy -267411.203564 kJ/mol
# GULP energy per Si atom -5571.066741 kJ/mol
# Density = 1.970813 g / cm^3
# Si number density = 19.753086 Si / 1000 Ang^3
#
#
#
# Elastic Constant Matrix: (Units=GPa)
#
#
# Indices 1 2 3 4 5 6 
#
# 1 26.4210 25.4188 20.4783 0.0000 0.0000 0.0000
# 2 25.4188 35.2213 44.5370 0.0000 0.0000 0.0000
# 3 20.4783 44.5370 136.1070 0.0000 0.0000 0.0000
# 4 0.0000 0.0000 0.0000 40.0006 0.0000 0.0000
# 5 0.0000 0.0000 0.0000 0.0000 -29.8592 0.0000
# 6 0.0000 0.0000 0.0000 0.0000 0.0000 7.0332
#
#
#
# Elastic Compliance Matrix: (Units=1/GPa)
#
#
# Indices 1 2 3 4 5 6 
#
# 1 0.156945 -0.142275 0.022942 0.000000 0.000000 0.000000
# 2 -0.142275 0.177407 -0.036645 0.000000 0.000000 0.000000
# 3 0.022942 -0.036645 0.015886 0.000000 0.000000 0.000000
# 4 0.000000 0.000000 0.000000 0.025000 0.000000 0.000000
# 5 0.000000 0.000000 0.000000 0.000000 -0.033490 0.000000
# 6 0.000000 0.000000 0.000000 0.000000 0.000000 0.142182
#
#
# Mechanical properties :
#
#
# Convention : Reuss Voigt Hill
#
# Bulk Modulus (GPa) = 26.12175 42.06860 34.09517
# Shear Modulus (GPa) = 6.18317 10.58927 8.38622
#
# Velocity S-wave (km/s) = 1.77116 2.31786 2.06270
# Velocity P-wave (km/s) = 4.17559 5.33917 4.79282
#
# Compressibility (1/GPa) = 0.03828228
#
# Stress axis : x y z
#
# Youngs Moduli (GPa) = 6.37167 5.63674 62.94692
#
# Poissons Ratio (x) = 0.80197 -1.44411
# Poissons Ratio (y) = 0.90653 2.30669
# Poissons Ratio (z) = -0.14618 0.20656
#
# Static dielectric constant tensor:
#      x y z
#    x 1.612080 0.000000 0.000000 
#    y 0.000000 1.778580 0.000000 
#    z 0.000000 0.000000 1.722990 
# 
# From -- ./inp_files/17731.got.cif
#   From: 2010.05.17/outbox.ucp.g08.bks.cvg/sg49_9_cif.got.tgz:17731.got - 2010.06.11 16:40:14.
