data_PCOD9395711
_publ_section_title
;
Structure prediction by ZEFSAII (Michael W. Deem and Ramdas Pophale) SiO2 
 PCOD9395711
Probable space group: P B A N
;
_chemical_formula_sum "Si O2"
_cell_formula_units_Z 56
_cell_length_a 19.810005
_cell_length_b 22.980719
_cell_length_c 5.589229
_cell_angle_alpha 90.000000
_cell_angle_beta 90.000000
_cell_angle_gamma 90.000000
_cell_volume 2544.486209
_symmetry_space_group_name_H-M "P B A N"
_symmetry_group_IT_number 50
_space_group.IT_coordinate_system_code '2'
_symmetry_cell_setting 'orthorhombic'
loop_
_space_group_symop_operation_xyz
x,y,z
1/2-x,1/2-y,z
x,1/2-y,-z
1/2-x,y,-z
-x,-y,-z
1/2+x,1/2+y,-z
-x,1/2+y,z
1/2+x,-y,z
loop_
_atom_site_type_symbol
_atom_site_label
_atom_site_fract_x
_atom_site_fract_y
_atom_site_fract_z
Si Si1 0.148577 0.183309 0.916844
Si Si2 0.495404 0.838999 0.383991
Si Si3 0.506393 0.163778 0.114605
Si Si4 0.106233 0.944831 0.089508
Si Si5 0.750000 0.041077 0.000000
Si Si6 0.750000 0.531572 0.500000
Si Si7 0.434556 0.533005 0.591048
Si Si8 0.156657 0.361705 0.583871
O O1 0.176304 0.178052 0.646479
O O2 0.074296 0.154554 0.891274
O O3 0.140368 0.250000 0.000000
O O4 0.182511 0.154014 0.149057
O O5 0.479342 0.808271 0.631306
O O6 0.453845 0.899132 0.380092
O O7 0.575231 0.855574 0.391724
O O8 0.479690 0.807134 0.138284
O O9 0.548474 0.103783 0.112421
O O10 0.180802 0.922998 0.021910
O O11 0.112350 0.971074 0.356454
O O12 0.086790 0.985182 0.860354
O O13 0.744606 0.003692 0.752099
O O14 0.813691 0.575816 0.482858
O O15 0.500000 0.500000 0.500000
#
# Coordination Sequence:
#
# PCOD9395711 Si02
#       8
#     8   8   8   8   4   4   8   8
#     4  10  19  36  62  85 103 131 172 225 292 355
#     4   8  16  28  48  68  94 131 161 210 271 323
#     4   8  16  32  50  75 105 127 160 213 278 324
#     4  10  21  36  49  76 107 139 187 223 266 313
#     4  12  26  38  56  76 108 160 208 226 246 318
#     4  12  26  42  53  72 108 160 199 234 260 308
#     4  10  19  31  50  74  98 130 175 230 279 311
#     4  10  21  37  53  74 110 140 176 228 284 315
#
# _framework density 22.008372000000001
#
# number of rings (size 3 to 8) (size 9 to 14) (size 15 to 20)
#    0.000    2.286    0.000    2.571    4.000    0.000 
#    5.143    2.143    0.000    0.000    0.000    0.500 
#    0.000    0.000    0.000   25.143    0.000    0.000 
#
# Total GULP energy -311774.636368 kJ/mol
# GULP energy per Si atom -5567.404221 kJ/mol
# Density = 2.195828 g / cm^3
# Si number density = 22.008372 Si / 1000 Ang^3
#
#
#
# Elastic Constant Matrix: (Units=GPa)
#
#
# Indices 1 2 3 4 5 6 
#
# 1 50.2868 14.0217 7.6351 0.0000 0.0000 0.0000
# 2 14.0217 55.7848 34.0113 0.0000 0.0000 0.0000
# 3 7.6351 34.0113 268.7478 0.0000 0.0000 0.0000
# 4 0.0000 0.0000 0.0000 21.1862 0.0000 0.0000
# 5 0.0000 0.0000 0.0000 0.0000 -136.4140 0.0000
# 6 0.0000 0.0000 0.0000 0.0000 0.0000 8.5485
#
#
#
# Elastic Compliance Matrix: (Units=1/GPa)
#
#
# Indices 1 2 3 4 5 6 
#
# 1 0.021386 -0.005424 0.000079 0.000000 0.000000 0.000000
# 2 -0.005424 0.020800 -0.002478 0.000000 0.000000 0.000000
# 3 0.000079 -0.002478 0.004032 0.000000 0.000000 0.000000
# 4 0.000000 0.000000 0.000000 0.047200 0.000000 0.000000
# 5 0.000000 0.000000 0.000000 0.000000 -0.007331 0.000000
# 6 0.000000 0.000000 0.000000 0.000000 0.000000 0.116979
#
#
# Mechanical properties :
#
#
# Convention : Reuss Voigt Hill
#
# Bulk Modulus (GPa) = 32.70884 54.01730 43.36307
# Shear Modulus (GPa) = 21.84317 -0.05908 10.89204
#
# Velocity S-wave (km/s) = 3.15380 -0.16402 2.22706
# Velocity P-wave (km/s) = 5.30625 4.95594 5.13408
#
# Compressibility (1/GPa) = 0.03057277
#
# Stress axis : x y z
#
# Youngs Moduli (GPa) = 46.75907 48.07641 247.99368
#
# Poissons Ratio (x) = 0.26074 -0.01954
# Poissons Ratio (y) = 0.25360 0.61460
# Poissons Ratio (z) = -0.00368 0.11915
#
# Static dielectric constant tensor:
#      x y z
#    x 1.855680 0.000000 0.000000 
#    y 0.000000 1.735050 0.000000 
#    z 0.000000 0.000000 1.930040 
# 
# From -- ./inp_files/5530.got.cif
#   From: 2010.05.17/outbox.cif.g08.bks.cpg/sg50_3_cif.got.tgz:5530.got - 2010.06.03 11:33:33.
