data_PCOD9395506
_publ_section_title
;
Structure prediction by ZEFSAII (Michael W. Deem and Ramdas Pophale) SiO2 
 PCOD9395506
Probable space group: P B A N
;
_chemical_formula_sum "Si O2"
_cell_formula_units_Z 52
_cell_length_a 21.063682
_cell_length_b 12.307698
_cell_length_c 11.750241
_cell_angle_alpha 90.000000
_cell_angle_beta 90.000000
_cell_angle_gamma 90.000000
_cell_volume 3046.196361
_symmetry_space_group_name_H-M "P B A N"
_symmetry_group_IT_number 50
_space_group.IT_coordinate_system_code '2'
_symmetry_cell_setting 'orthorhombic'
loop_
_space_group_symop_operation_xyz
x,y,z
1/2-x,1/2-y,z
x,1/2-y,-z
1/2-x,y,-z
-x,-y,-z
1/2+x,1/2+y,-z
-x,1/2+y,z
1/2+x,-y,z
loop_
_atom_site_type_symbol
_atom_site_label
_atom_site_fract_x
_atom_site_fract_y
_atom_site_fract_z
Si Si1 0.822664 0.744732 0.252935
Si Si2 0.458606 0.664514 0.283267
Si Si3 0.043447 0.068292 0.918237
Si Si4 0.365930 0.250000 0.000000
Si Si5 0.557031 0.405450 0.270160
Si Si6 0.410856 0.064873 0.672099
Si Si7 0.083258 0.390583 0.408382
O O1 0.750000 0.750000 0.290144
O O2 0.827964 0.763474 0.117450
O O3 0.854125 0.626775 0.267657
O O4 0.865850 0.826878 0.329485
O O5 0.499258 0.638404 0.168343
O O6 0.424946 0.780225 0.274534
O O7 0.412214 0.564680 0.311801
O O8 0.514282 0.659736 0.378342
O O9 0.088146 0.145347 0.991874
O O10 0.076763 0.977508 0.838636
O O11 0.000000 0.000000 0.000000
O O12 0.479796 0.402658 0.276724
O O13 0.579152 0.482749 0.372307
O O14 0.406835 0.107119 0.542495
#
# Coordination Sequence:
#
# PCOD9395506 Si02
#       7
#     8   8   8   4   8   8   8
#     4  12  24  38  56  78 109 151 193 235 274 321
#     4  10  18  32  52  84 116 146 173 222 287 338
#     4  10  18  28  52  79 115 146 176 224 278 337
#     4  12  19  40  52  78 112 142 191 226 276 328
#     4  10  18  32  51  83 114 143 176 222 283 343
#     4  10  20  33  53  81 113 143 185 224 277 335
#     4  10  20  34  51  81 111 147 183 225 278 330
#
# _framework density 17.070468999999999
#
# number of rings (size 3 to 8) (size 9 to 14) (size 15 to 20)
#    0.000    1.846    4.615    5.308    0.000    3.077 
#    0.000    0.000    0.000    0.923    0.000    2.154 
#    0.000    0.000    0.000    0.000    0.000    0.000 
#
# Total GULP energy -289734.392381 kJ/mol
# GULP energy per Si atom -5571.815238 kJ/mol
# Density = 1.703162 g / cm^3
# Si number density = 17.070469 Si / 1000 Ang^3
#
#
#
# Elastic Constant Matrix: (Units=GPa)
#
#
# Indices 1 2 3 4 5 6 
#
# 1 70.9922 32.2606 -0.1187 0.0000 0.0000 0.0000
# 2 32.2606 130.3579 7.0885 0.0000 0.0000 0.0000
# 3 -0.1187 7.0885 46.8461 0.0000 0.0000 0.0000
# 4 0.0000 0.0000 0.0000 25.1307 0.0000 0.0000
# 5 0.0000 0.0000 0.0000 0.0000 5.5073 0.0000
# 6 0.0000 0.0000 0.0000 0.0000 0.0000 11.2771
#
#
#
# Elastic Compliance Matrix: (Units=1/GPa)
#
#
# Indices 1 2 3 4 5 6 
#
# 1 0.015890 -0.003967 0.000641 0.000000 0.000000 0.000000
# 2 -0.003967 0.008725 -0.001330 0.000000 0.000000 0.000000
# 3 0.000641 -0.001330 0.021549 0.000000 0.000000 0.000000
# 4 0.000000 0.000000 0.000000 0.039792 0.000000 0.000000
# 5 0.000000 0.000000 0.000000 0.000000 0.181577 0.000000
# 6 0.000000 0.000000 0.000000 0.000000 0.000000 0.088675
#
#
# Mechanical properties :
#
#
# Convention : Reuss Voigt Hill
#
# Bulk Modulus (GPa) = 27.13652 36.29520 31.71586
# Shear Modulus (GPa) = 13.23429 22.31407 17.77418
#
# Velocity S-wave (km/s) = 2.78740 3.61941 3.23030
# Velocity P-wave (km/s) = 5.12745 6.22695 5.70376
#
# Compressibility (1/GPa) = 0.03685070
#
# Stress axis : x y z
#
# Youngs Moduli (GPa) = 62.93296 114.60893 46.40498
#
# Poissons Ratio (x) = 0.45468 -0.02973
# Poissons Ratio (y) = 0.24967 0.06173
# Poissons Ratio (z) = -0.04031 0.15247
#
# Static dielectric constant tensor:
#      x y z
#    x 1.555690 0.000000 0.000000 
#    y 0.000000 1.632060 0.000000 
#    z 0.000000 0.000000 1.651900 
# 
# From -- ./inp_files/21895.got.cif
#   From: 2010.05.17/outbox.cif.g08.bks.cpg/sg50_11_cif.got.tgz:21895.got - 2010.06.03 11:33:33.
