data_PCOD9395580
_publ_section_title
;
Structure prediction by ZEFSAII (Michael W. Deem and Ramdas Pophale) SiO2 
 PCOD9395580
Probable space group: P B A N
;
_chemical_formula_sum "Si O2"
_cell_formula_units_Z 40
_cell_length_a 8.434775
_cell_length_b 21.313978
_cell_length_c 11.014888
_cell_angle_alpha 90.000000
_cell_angle_beta 90.000000
_cell_angle_gamma 90.000000
_cell_volume 1980.241241
_symmetry_space_group_name_H-M "P B A N"
_symmetry_group_IT_number 50
_space_group.IT_coordinate_system_code '2'
_symmetry_cell_setting 'orthorhombic'
loop_
_space_group_symop_operation_xyz
x,y,z
1/2-x,1/2-y,z
x,1/2-y,-z
1/2-x,y,-z
-x,-y,-z
1/2+x,1/2+y,-z
-x,1/2+y,z
1/2+x,-y,z
loop_
_atom_site_type_symbol
_atom_site_label
_atom_site_fract_x
_atom_site_fract_y
_atom_site_fract_z
Si Si1 0.369260 0.199364 0.183978
Si Si2 0.654919 0.974551 0.167425
Si Si3 0.569051 0.274402 0.373868
Si Si4 0.657610 0.884184 0.371483
Si Si5 0.979957 0.580638 0.936597
O O1 0.250000 0.250000 0.130024
O O2 0.492357 0.239072 0.261518
O O3 0.268797 0.156745 0.279834
O O4 0.455070 0.153098 0.091166
O O5 0.634617 0.951017 0.304415
O O6 0.828001 0.953777 0.123852
O O7 0.623948 0.046561 0.131564
O O8 0.536469 0.935533 0.078180
O O9 0.750000 0.250000 0.374962
O O10 0.494677 0.250000 0.500000
O O11 0.510260 0.346655 0.374502
O O12 0.750000 0.888237 0.500000
#
# Coordination Sequence:
#
# PCOD9395580 Si02
#       5
#     8   8   8   8   8
#     4   9  18  32  55  76 105 143 182 230 276 337
#     4   9  19  34  56  77 105 146 180 231 280 339
#     4  10  19  31  51  77 106 141 181 229 286 337
#     4  10  18  33  54  76 106 143 185 224 278 346
#     4   9  18  36  55  79 106 141 193 227 285 341
#
# _framework density 20.199559000000001
#
# number of rings (size 3 to 8) (size 9 to 14) (size 15 to 20)
#    0.000    2.600    2.000    0.000    0.000    1.600 
#    0.000   21.000    4.400    1.200    0.000    0.000 
#    0.000    0.000    0.000    0.000    0.000    0.000 
#
# Total GULP energy -222739.722149 kJ/mol
# GULP energy per Si atom -5568.493054 kJ/mol
# Density = 2.015358 g / cm^3
# Si number density = 20.199559 Si / 1000 Ang^3
#
#
#
# Elastic Constant Matrix: (Units=GPa)
#
#
# Indices 1 2 3 4 5 6 
#
# 1 62.3361 16.0160 18.5661 0.0000 0.0000 0.0000
# 2 16.0160 78.9742 40.1261 0.0000 0.0000 0.0000
# 3 18.5661 40.1261 93.2776 0.0000 0.0000 0.0000
# 4 0.0000 0.0000 0.0000 29.1357 0.0000 0.0000
# 5 0.0000 0.0000 0.0000 0.0000 2.0946 0.0000
# 6 0.0000 0.0000 0.0000 0.0000 0.0000 25.9223
#
#
#
# Elastic Compliance Matrix: (Units=1/GPa)
#
#
# Indices 1 2 3 4 5 6 
#
# 1 0.017362 -0.002259 -0.002484 0.000000 0.000000 0.000000
# 2 -0.002259 0.016498 -0.006647 0.000000 0.000000 0.000000
# 3 -0.002484 -0.006647 0.014075 0.000000 0.000000 0.000000
# 4 0.000000 0.000000 0.000000 0.034322 0.000000 0.000000
# 5 0.000000 0.000000 0.000000 0.000000 0.477410 0.000000
# 6 0.000000 0.000000 0.000000 0.000000 0.000000 0.038577
#
#
# Mechanical properties :
#
#
# Convention : Reuss Voigt Hill
#
# Bulk Modulus (GPa) = 39.75501 42.66713 41.21107
# Shear Modulus (GPa) = 7.94395 22.08917 15.01656
#
# Velocity S-wave (km/s) = 1.98526 3.31047 2.72951
# Velocity P-wave (km/s) = 4.99789 5.98172 5.51180
#
# Compressibility (1/GPa) = 0.02515406
#
# Stress axis : x y z
#
# Youngs Moduli (GPa) = 57.59598 60.61342 71.04938
#
# Poissons Ratio (x) = 0.13692 0.17649
# Poissons Ratio (y) = 0.13011 0.47230
# Poissons Ratio (z) = 0.14307 0.40293
#
# Static dielectric constant tensor:
#      x y z
#    x 1.778710 0.000000 0.000000 
#    y 0.000000 1.779260 0.000000 
#    z 0.000000 0.000000 1.729370 
# 
# From -- ./inp_files/18944.got.cif
#   From: 2010.05.17/outbox.cif.g08.bks.cpg/sg50_10_cif.got.tgz:18944.got - 2010.06.03 11:33:33.
