data_PCOD9395956
_publ_section_title
;
Structure prediction by ZEFSAII (Michael W. Deem and Ramdas Pophale) SiO2 
 PCOD9395956
Probable space group: P B A N
;
_chemical_formula_sum "Si O2"
_cell_formula_units_Z 32
_cell_length_a 34.428147
_cell_length_b 5.320246
_cell_length_c 7.505282
_cell_angle_alpha 90.000000
_cell_angle_beta 90.000000
_cell_angle_gamma 90.000000
_cell_volume 1374.714069
_symmetry_space_group_name_H-M "P B A N"
_symmetry_group_IT_number 50
_space_group.IT_coordinate_system_code '2'
_symmetry_cell_setting 'orthorhombic'
loop_
_space_group_symop_operation_xyz
x,y,z
1/2-x,1/2-y,z
x,1/2-y,-z
1/2-x,y,-z
-x,-y,-z
1/2+x,1/2+y,-z
-x,1/2+y,z
1/2+x,-y,z
loop_
_atom_site_type_symbol
_atom_site_label
_atom_site_fract_x
_atom_site_fract_y
_atom_site_fract_z
Si Si1 0.398271 0.134013 0.805568
Si Si2 0.642950 0.360885 0.303821
Si Si3 0.483468 0.004938 0.702504
Si Si4 0.733014 0.496374 0.294658
O O1 0.381335 0.382438 0.711341
O O2 0.370507 0.884969 0.811549
O O3 0.437722 0.045034 0.711957
O O4 0.406664 0.250000 0.000000
O O5 0.639104 0.250000 0.500000
O O6 0.687103 0.458609 0.285078
O O7 0.495454 0.742932 0.787565
O O8 0.500000 0.000000 0.500000
O O9 0.750000 0.250000 0.207129
O O10 0.750000 0.497476 0.500000
O O11 0.750000 0.750000 0.215452
#
# Coordination Sequence:
#
# PCOD9395956 Si02
#       4
#     8   8   8   8
#     4  12  28  46  68 103 152 188 228 294 377 435
#     4  12  25  42  75 107 134 188 245 295 349 422
#     4  10  23  42  67 100 134 179 243 299 345 417
#     4  10  19  36  61 105 135 163 228 301 341 381
#
# _framework density 23.277569
#
# number of rings (size 3 to 8) (size 9 to 14) (size 15 to 20)
#    0.000    1.000    2.500    4.500   14.000    1.000 
#    0.000    0.000    0.000   11.250    0.000    0.000 
#    0.000    0.000    0.000    0.000    0.000    0.000 
#
# Total GULP energy -178720.305443 kJ/mol
# GULP energy per Si atom -5585.009545 kJ/mol
# Density = 2.322459 g / cm^3
# Si number density = 23.277569 Si / 1000 Ang^3
#
#
#
# Elastic Constant Matrix: (Units=GPa)
#
#
# Indices 1 2 3 4 5 6 
#
# 1 189.5796 98.3907 34.5838 0.0000 0.0000 0.0000
# 2 98.3907 274.2726 26.9514 0.0000 0.0000 0.0000
# 3 34.5838 26.9514 79.4296 0.0000 0.0000 0.0000
# 4 0.0000 0.0000 0.0000 19.0655 0.0000 0.0000
# 5 0.0000 0.0000 0.0000 0.0000 -34.9208 0.0000
# 6 0.0000 0.0000 0.0000 0.0000 0.0000 54.8305
#
#
#
# Elastic Compliance Matrix: (Units=1/GPa)
#
#
# Indices 1 2 3 4 5 6 
#
# 1 0.006840 -0.002236 -0.002220 0.000000 0.000000 0.000000
# 2 -0.002236 0.004502 -0.000554 0.000000 0.000000 0.000000
# 3 -0.002220 -0.000554 0.013744 0.000000 0.000000 0.000000
# 4 0.000000 0.000000 0.000000 0.052451 0.000000 0.000000
# 5 0.000000 0.000000 0.000000 0.000000 -0.028636 0.000000
# 6 0.000000 0.000000 0.000000 0.000000 0.000000 0.018238
#
#
# Mechanical properties :
#
#
# Convention : Reuss Voigt Hill
#
# Bulk Modulus (GPa) = 66.36736 95.90371 81.13554
# Shear Modulus (GPa) = 60.84140 33.35212 47.09676
#
# Velocity S-wave (km/s) = 5.11802 3.78934 4.50295
# Velocity P-wave (km/s) = 7.96860 7.77399 7.87190
#
# Compressibility (1/GPa) = 0.01506765
#
# Stress axis : x y z
#
# Youngs Moduli (GPa) = 146.19860 222.10002 72.75762
#
# Poissons Ratio (x) = 0.49653 0.16149
# Poissons Ratio (y) = 0.32685 0.04033
# Poissons Ratio (z) = 0.32450 0.12312
#
# Static dielectric constant tensor:
#      x y z
#    x 1.897190 0.000000 0.000000 
#    y 0.000000 1.909210 0.000000 
#    z 0.000000 0.000000 1.860320 
# 
# From -- ./inp_files/16702.got.cif
#   From: 2010.05.17/outbox.cif.g08.bks.cpg/sg50_9_cif.got.tgz:16702.got - 2010.06.03 11:33:33.
