data_PCOD9395453
_publ_section_title
;
Structure prediction by ZEFSAII (Michael W. Deem and Ramdas Pophale) SiO2 
 PCOD9395453
Probable space group: P B A N
;
_chemical_formula_sum "Si O2"
_cell_formula_units_Z 64
_cell_length_a 30.723631
_cell_length_b 11.192834
_cell_length_c 10.982693
_cell_angle_alpha 90.000000
_cell_angle_beta 90.000000
_cell_angle_gamma 90.000000
_cell_volume 3776.777909
_symmetry_space_group_name_H-M "P B A N"
_symmetry_group_IT_number 50
_space_group.IT_coordinate_system_code '2'
_symmetry_cell_setting 'orthorhombic'
loop_
_space_group_symop_operation_xyz
x,y,z
1/2-x,1/2-y,z
x,1/2-y,-z
1/2-x,y,-z
-x,-y,-z
1/2+x,1/2+y,-z
-x,1/2+y,z
1/2+x,-y,z
loop_
_atom_site_type_symbol
_atom_site_label
_atom_site_fract_x
_atom_site_fract_y
_atom_site_fract_z
Si Si1 0.538057 0.404364 0.647625
Si Si2 0.387930 0.318535 0.733167
Si Si3 0.443882 0.477156 0.589556
Si Si4 0.701949 0.954063 0.005667
Si Si5 0.550943 0.612838 0.842403
Si Si6 0.391920 0.985477 0.051583
Si Si7 0.297288 0.246865 0.796947
Si Si8 0.545543 0.332444 0.193878
O O1 0.489142 0.402571 0.591308
O O2 0.564677 0.441456 0.527789
O O3 0.543737 0.513249 0.740088
O O4 0.548292 0.288383 0.727549
O O5 0.406541 0.382189 0.614683
O O6 0.420430 0.218555 0.785244
O O7 0.387456 0.420772 0.837268
O O8 0.339839 0.267546 0.718151
O O9 0.450226 0.564414 0.704187
O O10 0.697742 0.876020 0.128362
O O11 0.750000 0.012900 0.000000
O O12 0.657877 0.030322 0.992817
O O13 0.703224 0.853114 0.898624
O O14 0.501998 0.659278 0.869739
O O15 0.577398 0.552468 0.952904
O O16 0.416846 0.867523 0.098380
O O17 0.250000 0.250000 0.736133
#
# Coordination Sequence:
#
# PCOD9395453 Si02
#       8
#     8   8   8   8   8   8   8   8
#     4  10  20  33  46  66  89 123 172 208 237 276
#     4  10  17  30  47  69 100 127 161 190 241 297
#     4   9  19  33  50  64  87 125 167 210 241 274
#     4   8  13  23  41  66  95 123 156 186 227 285
#     4  11  20  30  45  69  96 133 159 194 245 291
#     4  10  19  30  45  68 102 132 156 192 240 298
#     4   8  13  22  41  67  97 122 149 186 230 290
#     4  10  20  33  46  65  94 130 169 198 241 290
#
# _framework density 16.945661000000001
#
# number of rings (size 3 to 8) (size 9 to 14) (size 15 to 20)
#    0.000    2.500    2.500    1.875    0.000    1.000 
#    2.250    0.000    0.000    0.000    0.000    3.500 
#    0.000    0.000    4.250    0.000    0.000    0.000 
#
# Total GULP energy -356293.535423 kJ/mol
# GULP energy per Si atom -5567.086491 kJ/mol
# Density = 1.690709 g / cm^3
# Si number density = 16.945661 Si / 1000 Ang^3
#
#
#
# Elastic Constant Matrix: (Units=GPa)
#
#
# Indices 1 2 3 4 5 6 
#
# 1 158.9741 43.9324 36.2636 0.0000 0.0000 0.0000
# 2 43.9324 36.4218 10.1143 0.0000 0.0000 0.0000
# 3 36.2636 10.1143 38.7137 0.0000 0.0000 0.0000
# 4 0.0000 0.0000 0.0000 -35.8276 0.0000 0.0000
# 5 0.0000 0.0000 0.0000 0.0000 14.3332 0.0000
# 6 0.0000 0.0000 0.0000 0.0000 0.0000 18.0588
#
#
#
# Elastic Compliance Matrix: (Units=1/GPa)
#
#
# Indices 1 2 3 4 5 6 
#
# 1 0.011129 -0.011353 -0.007459 0.000000 0.000000 0.000000
# 2 -0.011353 0.041185 -0.000126 0.000000 0.000000 0.000000
# 3 -0.007459 -0.000126 0.032850 0.000000 0.000000 0.000000
# 4 0.000000 0.000000 0.000000 -0.027911 0.000000 0.000000
# 5 0.000000 0.000000 0.000000 0.000000 0.069768 0.000000
# 6 0.000000 0.000000 0.000000 0.000000 0.000000 0.055375
#
#
# Mechanical properties :
#
#
# Convention : Reuss Voigt Hill
#
# Bulk Modulus (GPa) = 21.14623 46.08114 33.61368
# Shear Modulus (GPa) = 21.18351 8.89951 15.04151
#
# Velocity S-wave (km/s) = 3.53949 2.29417 2.98255
# Velocity P-wave (km/s) = 5.40462 5.85407 5.63383
#
# Compressibility (1/GPa) = 0.04728976
#
# Stress axis : x y z
#
# Youngs Moduli (GPa) = 89.85481 24.28083 30.44129
#
# Poissons Ratio (x) = 0.27565 0.22705
# Poissons Ratio (y) = 1.02010 0.00382
# Poissons Ratio (z) = 0.67020 0.00305
#
# Static dielectric constant tensor:
#      x y z
#    x 1.608440 0.000000 0.000000 
#    y 0.000000 1.569580 0.000000 
#    z 0.000000 0.000000 1.589960 
# 
# From -- ./inp_files/23190.got.cif
#   From: 2010.05.17/outbox.cif.g08.bks.cpg/sg50_12_cif.got.tgz:23190.got - 2010.06.03 11:33:33.
