data_PCOD9395607
_publ_section_title
;
Structure prediction by ZEFSAII (Michael W. Deem and Ramdas Pophale) SiO2 
 PCOD9395607
Probable space group: P B A N
;
_chemical_formula_sum "Si O2"
_cell_formula_units_Z 48
_cell_length_a 7.853506
_cell_length_b 14.758122
_cell_length_c 18.603762
_cell_angle_alpha 90.000000
_cell_angle_beta 90.000000
_cell_angle_gamma 90.000000
_cell_volume 2156.231821
_symmetry_space_group_name_H-M "P B A N"
_symmetry_group_IT_number 50
_space_group.IT_coordinate_system_code '2'
_symmetry_cell_setting 'orthorhombic'
loop_
_space_group_symop_operation_xyz
x,y,z
1/2-x,1/2-y,z
x,1/2-y,-z
1/2-x,y,-z
-x,-y,-z
1/2+x,1/2+y,-z
-x,1/2+y,z
1/2+x,-y,z
loop_
_atom_site_type_symbol
_atom_site_label
_atom_site_fract_x
_atom_site_fract_y
_atom_site_fract_z
Si Si1 0.412086 0.632203 0.854512
Si Si2 0.735510 0.526732 0.915944
Si Si3 0.555879 0.610369 0.302074
Si Si4 0.535799 0.901378 0.304168
Si Si5 0.572764 0.808497 0.849092
Si Si6 0.042022 0.254114 0.581782
O O1 0.561738 0.574501 0.892648
O O2 0.255700 0.567767 0.873774
O O3 0.446087 0.631530 0.768942
O O4 0.440231 0.735159 0.879659
O O5 0.873801 0.603744 0.894284
O O6 0.750000 0.509241 0.000000
O O7 0.761472 0.611834 0.297267
O O8 0.499325 0.507509 0.309542
O O9 0.505492 0.657260 0.227664
O O10 0.492845 0.668902 0.369142
O O11 0.486363 0.842890 0.373839
O O12 0.750000 0.750000 0.839474
O O13 0.250000 0.250000 0.579661
O O14 0.981282 0.250000 0.500000
#
# Coordination Sequence:
#
# PCOD9395607 Si02
#       6
#     8   8   8   8   8   8
#     4  11  20  37  61  84 115 155 197 239 292 353
#     4  11  23  38  59  88 118 150 192 247 298 348
#     4  11  19  35  59  85 118 148 205 243 289 354
#     4  11  19  34  61  86 113 158 199 241 292 352
#     4  10  18  34  60  82 109 156 200 233 282 359
#     4   9  19  35  58  86 118 157 202 246 289 353
#
# _framework density 22.261056
#
# number of rings (size 3 to 8) (size 9 to 14) (size 15 to 20)
#    0.000    1.500    6.667    1.000    0.000    3.667 
#    0.000    1.667    0.000    2.000    0.000    0.000 
#    0.000    0.000    0.000    0.000    0.000    0.000 
#
# Total GULP energy -268430.994661 kJ/mol
# GULP energy per Si atom -5592.312389 kJ/mol
# Density = 2.221039 g / cm^3
# Si number density = 22.261056 Si / 1000 Ang^3
#
#
#
# Elastic Constant Matrix: (Units=GPa)
#
#
# Indices 1 2 3 4 5 6 
#
# 1 54.0695 3.9200 13.7649 0.0000 0.0000 0.0000
# 2 3.9200 155.6817 52.3802 0.0000 0.0000 0.0000
# 3 13.7649 52.3802 151.2982 0.0000 0.0000 0.0000
# 4 0.0000 0.0000 0.0000 34.7277 0.0000 0.0000
# 5 0.0000 0.0000 0.0000 0.0000 4.9663 0.0000
# 6 0.0000 0.0000 0.0000 0.0000 0.0000 37.3434
#
#
#
# Elastic Compliance Matrix: (Units=1/GPa)
#
#
# Indices 1 2 3 4 5 6 
#
# 1 0.018935 0.000116 -0.001763 0.000000 0.000000 0.000000
# 2 0.000116 0.007271 -0.002528 0.000000 0.000000 0.000000
# 3 -0.001763 -0.002528 0.007645 0.000000 0.000000 0.000000
# 4 0.000000 0.000000 0.000000 0.028795 0.000000 0.000000
# 5 0.000000 0.000000 0.000000 0.000000 0.201355 0.000000
# 6 0.000000 0.000000 0.000000 0.000000 0.000000 0.026778
#
#
# Mechanical properties :
#
#
# Convention : Reuss Voigt Hill
#
# Bulk Modulus (GPa) = 39.21233 55.68665 47.44949
# Shear Modulus (GPa) = 16.25329 34.80643 25.52986
#
# Velocity S-wave (km/s) = 2.70501 3.95847 3.39018
# Velocity P-wave (km/s) = 5.23537 6.77955 6.05687
#
# Compressibility (1/GPa) = 0.02550218
#
# Stress axis : x y z
#
# Youngs Moduli (GPa) = 52.81201 137.53382 130.80434
#
# Poissons Ratio (x) = -0.01601 0.23061
# Poissons Ratio (y) = -0.00615 0.33065
# Poissons Ratio (z) = 0.09311 0.34766
#
# Static dielectric constant tensor:
#      x y z
#    x 1.938520 0.000000 0.000000 
#    y 0.000000 1.798470 0.000000 
#    z 0.000000 0.000000 1.712660 
# 
# From -- ./inp_files/28709.got.cif
#   From: 2010.05.17/outbox.cif.g08.bks.cpg/sg50_15_cif.got.tgz:28709.got - 2010.06.03 11:33:33.
