data_PCOD9395511
_publ_section_title
;
Structure prediction by ZEFSAII (Michael W. Deem and Ramdas Pophale) SiO2 
 PCOD9395511
Probable space group: P B A N
;
_chemical_formula_sum "Si O2"
_cell_formula_units_Z 52
_cell_length_a 14.106350
_cell_length_b 26.816613
_cell_length_c 5.664241
_cell_angle_alpha 90.000000
_cell_angle_beta 90.000000
_cell_angle_gamma 90.000000
_cell_volume 2142.694738
_symmetry_space_group_name_H-M "P B A N"
_symmetry_group_IT_number 50
_space_group.IT_coordinate_system_code '2'
_symmetry_cell_setting 'orthorhombic'
loop_
_space_group_symop_operation_xyz
x,y,z
1/2-x,1/2-y,z
x,1/2-y,-z
1/2-x,y,-z
-x,-y,-z
1/2+x,1/2+y,-z
-x,1/2+y,z
1/2+x,-y,z
loop_
_atom_site_type_symbol
_atom_site_label
_atom_site_fract_x
_atom_site_fract_y
_atom_site_fract_z
Si Si1 0.391843 0.978989 0.980825
Si Si2 0.389643 0.483136 0.521177
Si Si3 0.442635 0.629511 0.938080
Si Si4 0.250000 0.167403 0.000000
Si Si5 0.107618 0.729136 0.249901
Si Si6 0.122679 0.124234 0.380170
Si Si7 0.934788 0.701122 0.755004
O O1 0.351995 0.001404 0.737739
O O2 0.351905 0.992754 0.238271
O O3 0.391285 0.919092 0.968834
O O4 0.500000 0.000000 0.000000
O O5 0.500000 0.500000 0.500000
O O6 0.375065 0.423952 0.544860
O O7 0.387704 0.669579 0.775645
O O8 0.533434 0.612613 0.787868
O O9 0.486843 0.662124 0.148285
O O10 0.287200 0.133815 0.784483
O O11 0.158637 0.198584 0.916730
O O12 0.144361 0.750000 0.500000
O O13 0.997048 0.748697 0.250622
O O14 0.145956 0.750000 0.000000
O O15 0.102457 0.175478 0.517039
#
# Coordination Sequence:
#
# PCOD9395511 Si02
#       7
#     8   8   8   4   8   8   8
#     4  10  18  29  45  75  91 112 141 187 259 294
#     4  10  19  29  49  73  91 113 144 194 254 301
#     4  10  19  30  50  67  93 115 152 205 254 296
#     4  10  24  34  49  68  88 130 166 216 261 296
#     4  10  20  33  50  67  86 121 161 201 250 289
#     4  11  19  33  50  65  93 120 158 207 257 298
#     4  10  20  35  49  64  88 124 168 207 255 287
#
# _framework density 24.268502999999999
#
# number of rings (size 3 to 8) (size 9 to 14) (size 15 to 20)
#    0.000    1.846    4.615    2.308    2.154    0.000 
#    0.000    9.615    0.000    0.000    0.000    0.000 
#    0.000    0.000    0.000    0.000    0.000    0.000 
#
# Total GULP energy -290378.658084 kJ/mol
# GULP energy per Si atom -5584.204963 kJ/mol
# Density = 2.421327 g / cm^3
# Si number density = 24.268503 Si / 1000 Ang^3
#
#
#
# Elastic Constant Matrix: (Units=GPa)
#
#
# Indices 1 2 3 4 5 6 
#
# 1 89.6739 12.0192 13.2565 0.0000 0.0000 0.0000
# 2 12.0192 136.5117 22.4372 0.0000 0.0000 0.0000
# 3 13.2565 22.4372 154.6872 0.0000 0.0000 0.0000
# 4 0.0000 0.0000 0.0000 24.8038 0.0000 0.0000
# 5 0.0000 0.0000 0.0000 0.0000 -33.3387 0.0000
# 6 0.0000 0.0000 0.0000 0.0000 0.0000 -1.6480
#
#
#
# Elastic Compliance Matrix: (Units=1/GPa)
#
#
# Indices 1 2 3 4 5 6 
#
# 1 0.011393 -0.000863 -0.000851 0.000000 0.000000 0.000000
# 2 -0.000863 0.007570 -0.001024 0.000000 0.000000 0.000000
# 3 -0.000851 -0.001024 0.006686 0.000000 0.000000 0.000000
# 4 0.000000 0.000000 0.000000 0.040316 0.000000 0.000000
# 5 0.000000 0.000000 0.000000 0.000000 -0.029995 0.000000
# 6 0.000000 0.000000 0.000000 0.000000 0.000000 -0.606812
#
#
# Mechanical properties :
#
#
# Convention : Reuss Voigt Hill
#
# Bulk Modulus (GPa) = 49.57337 52.92207 51.24772
# Shear Modulus (GPa) = -8.95029 20.17409 5.61190
#
# Velocity S-wave (km/s) = -1.92251 2.88633 1.52231
# Velocity P-wave (km/s) = 3.94250 5.74127 4.92471
#
# Compressibility (1/GPa) = 0.02017212
#
# Stress axis : x y z
#
# Youngs Moduli (GPa) = 87.77291 132.10589 149.56329
#
# Poissons Ratio (x) = 0.11403 0.12730
# Poissons Ratio (y) = 0.07577 0.15315
# Poissons Ratio (z) = 0.07471 0.13528
#
# Static dielectric constant tensor:
#      x y z
#    x 1.931050 0.000000 0.000000 
#    y 0.000000 1.912040 0.000000 
#    z 0.000000 0.000000 2.021340 
# 
# From -- ./inp_files/4639.got.cif
#   From: 2010.05.17/outbox.cif.g08.bks.cpg/sg50_3_cif.got.tgz:4639.got - 2010.06.03 11:33:33.
