data_PCOD9395296
_publ_section_title
;
Structure prediction by ZEFSAII (Michael W. Deem and Ramdas Pophale) SiO2 
 PCOD9395296
Probable space group: P C C M
;
_chemical_formula_sum "Si O2"
_cell_formula_units_Z 32
_cell_length_a 21.000000
_cell_length_b 9.000000
_cell_length_c 9.000000
_cell_angle_alpha 90.000000
_cell_angle_beta 90.000000
_cell_angle_gamma 90.000000
_cell_volume 1701.000000
_symmetry_space_group_name_H-M "P C C M"
_symmetry_group_IT_number 49
_symmetry_cell_setting 'orthorhombic'
loop_
_space_group_symop_operation_xyz
x,y,z
-x,-y,z
x,-y,1/2-z
-x,y,1/2-z
-x,-y,-z
x,y,-z
-x,y,1/2+z
x,-y,1/2+z
loop_
_atom_site_type_symbol
_atom_site_label
_atom_site_fract_x
_atom_site_fract_y
_atom_site_fract_z
Si Si1 0.935337 0.835460 0.680055
Si Si2 0.561733 0.160429 0.825240
Si Si3 0.182533 0.664628 0.679291
Si Si4 0.308988 0.660678 0.176519
O O1 0.937406 0.839058 0.500000
O O2 0.875374 0.749127 0.744419
O O3 0.000000 0.768599 0.750000
O O4 0.931441 0.000000 0.750000
O O5 0.500000 0.233928 0.750000
O O6 0.626488 0.249205 0.804836
O O7 0.568722 0.000000 0.750000
O O8 0.550015 0.143710 0.000000
O O9 0.181772 0.500000 0.750000
O O10 0.178546 0.662241 0.500000
O O11 0.249449 0.731500 0.736329
O O12 0.318494 0.500000 0.250000
O O13 0.294549 0.647230 0.000000
#
# Coordination Sequence:
#
# PCOD9395296 Si02
#       4
#     8   8   8   8
#     4  11  22  39  60  85 115 148 186 229 276 329
#     4  10  21  36  56  80 109 142 181 224 272 325
#     4  11  22  38  59  84 113 148 186 230 278 329
#     4  10  21  37  56  81 110 144 183 227 274 327
#
# _framework density 18.812463000000001
#
# number of rings (size 3 to 8) (size 9 to 14) (size 15 to 20)
#    0.000    1.500    0.000    9.000    0.000    6.000 
#    0.000    7.500    0.000    0.000    0.000    0.000 
#    0.000    0.000    0.000    0.000    0.000    0.000 
#
# Total GULP energy -178622.163221 kJ/mol
# GULP energy per Si atom -5581.942601 kJ/mol
# Density = 1.876965 g / cm^3
# Si number density = 18.812463 Si / 1000 Ang^3
#
#
#
# Elastic Constant Matrix: (Units=GPa)
#
#
# Indices 1 2 3 4 5 6 
#
# 1 181.5932 56.0631 106.9166 0.0000 0.0000 0.0000
# 2 56.0631 33.1187 40.7519 0.0000 0.0000 0.0000
# 3 106.9166 40.7519 216.7167 0.0000 0.0000 0.0000
# 4 0.0000 0.0000 0.0000 20.2403 0.0000 0.0000
# 5 0.0000 0.0000 0.0000 0.0000 42.1449 0.0000
# 6 0.0000 0.0000 0.0000 0.0000 0.0000 31.7810
#
#
#
# Elastic Compliance Matrix: (Units=1/GPa)
#
#
# Indices 1 2 3 4 5 6 
#
# 1 0.012812 -0.018098 -0.002918 0.000000 0.000000 0.000000
# 2 -0.018098 0.064849 -0.003266 0.000000 0.000000 0.000000
# 3 -0.002918 -0.003266 0.006668 0.000000 0.000000 0.000000
# 4 0.000000 0.000000 0.000000 0.049406 0.000000 0.000000
# 5 0.000000 0.000000 0.000000 0.000000 0.023728 0.000000
# 6 0.000000 0.000000 0.000000 0.000000 0.000000 0.031465
#
#
# Mechanical properties :
#
#
# Convention : Reuss Voigt Hill
#
# Bulk Modulus (GPa) = 27.95934 93.21020 60.58477
# Shear Modulus (GPa) = 20.04706 34.01304 27.03005
#
# Velocity S-wave (km/s) = 3.26794 4.25668 3.79465
# Velocity P-wave (km/s) = 5.39756 8.59149 7.17451
#
# Compressibility (1/GPa) = 0.03576622
#
# Stress axis : x y z
#
# Youngs Moduli (GPa) = 78.05198 15.42039 149.97467
#
# Poissons Ratio (x) = 0.27908 0.43756
# Poissons Ratio (y) = 1.41259 0.48978
# Poissons Ratio (z) = 0.22772 0.05036
#
# Static dielectric constant tensor:
#      x y z
#    x 1.724860 0.000000 0.000000 
#    y 0.000000 1.692660 0.000000 
#    z 0.000000 0.000000 1.617820 
# 
# From -- ./inp_files/1387.got.cif
#   From: 2010.05.17/outbox.ucp.g08.bks.cvg/sg49_1_cif.got.tgz:1387.got - 2010.06.11 16:40:14.
