data_PCOD9395797
_publ_section_title
;
Structure prediction by ZEFSAII (Michael W. Deem and Ramdas Pophale) SiO2 
 PCOD9395797
Probable space group: P B A N
;
_chemical_formula_sum "Si O2"
_cell_formula_units_Z 54
_cell_length_a 5.255148
_cell_length_b 17.001706
_cell_length_c 31.057930
_cell_angle_alpha 90.000000
_cell_angle_beta 90.000000
_cell_angle_gamma 90.000000
_cell_volume 2774.916761
_symmetry_space_group_name_H-M "P B A N"
_symmetry_group_IT_number 50
_space_group.IT_coordinate_system_code '2'
_symmetry_cell_setting 'orthorhombic'
loop_
_space_group_symop_operation_xyz
x,y,z
1/2-x,1/2-y,z
x,1/2-y,-z
1/2-x,y,-z
-x,-y,-z
1/2+x,1/2+y,-z
-x,1/2+y,z
1/2+x,-y,z
loop_
_atom_site_type_symbol
_atom_site_label
_atom_site_fract_x
_atom_site_fract_y
_atom_site_fract_z
Si Si1 0.015850 0.051784 0.674087
Si Si2 0.605588 0.829642 0.931042
Si Si3 0.500222 0.283880 0.548320
Si Si4 0.750000 0.250000 0.000000
Si Si5 0.572312 0.445451 0.859420
Si Si6 0.888245 0.448140 0.236942
Si Si7 0.750000 0.553594 0.000000
Si Si8 0.440605 0.948675 0.578505
O O1 0.303983 0.018831 0.674985
O O2 0.951664 0.096656 0.718512
O O3 0.970032 0.086763 0.626907
O O4 0.750000 0.750000 0.916987
O O5 0.416749 0.802355 0.968529
O O6 0.465011 0.875520 0.893113
O O7 0.774207 0.892656 0.957175
O O8 0.750000 0.250000 0.570365
O O9 0.499601 0.250000 0.500000
O O10 0.511500 0.377209 0.546632
O O11 0.250000 0.250000 0.570125
O O12 0.832908 0.494839 0.864677
O O13 0.571320 0.412785 0.810312
O O14 0.601126 0.481811 0.238279
O O15 0.500000 0.500000 0.000000
O O16 0.663392 0.013050 0.573797
#
# Coordination Sequence:
#
# PCOD9395797 Si02
#       8
#     8   8   8   2   8   8   4   8
#     4   8  14  25  47  78 107 133 166 222 276 311
#     4  12  25  41  59  82 110 148 178 222 271 330
#     4  10  21  38  53  72 107 149 184 223 286 346
#     4  12  24  44  60  76 112 146 194 206 274 326
#     4  10  22  38  59  87 111 141 182 222 262 314
#     4   8  14  28  49  77 110 136 166 212 268 320
#     4  12  24  40  61  83 106 132 178 230 266 304
#     4  10  19  33  55  83 106 136 190 241 272 318
#
# _framework density 19.460042000000001
#
# number of rings (size 3 to 8) (size 9 to 14) (size 15 to 20)
#    0.000    2.074    1.481    2.222    2.074    0.000 
#    0.000    8.889    0.000    0.889    1.926    0.000 
#    0.000    0.000    0.000    0.000    0.000    0.000 
#
# Total GULP energy -300893.281575 kJ/mol
# GULP energy per Si atom -5572.097807 kJ/mol
# Density = 1.941575 g / cm^3
# Si number density = 19.460042 Si / 1000 Ang^3
#
#
#
# Elastic Constant Matrix: (Units=GPa)
#
#
# Indices 1 2 3 4 5 6 
#
# 1 118.8853 12.8925 -4.1791 0.0000 0.0000 0.0000
# 2 12.8925 57.6910 31.9557 0.0000 0.0000 0.0000
# 3 -4.1791 31.9557 96.8717 0.0000 0.0000 0.0000
# 4 0.0000 0.0000 0.0000 3.4630 0.0000 0.0000
# 5 0.0000 0.0000 0.0000 0.0000 -61.1721 0.0000
# 6 0.0000 0.0000 0.0000 0.0000 0.0000 13.9198
#
#
#
# Elastic Compliance Matrix: (Units=1/GPa)
#
#
# Indices 1 2 3 4 5 6 
#
# 1 0.008742 -0.002646 0.001250 0.000000 0.000000 0.000000
# 2 -0.002646 0.022010 -0.007375 0.000000 0.000000 0.000000
# 3 0.001250 -0.007375 0.012810 0.000000 0.000000 0.000000
# 4 0.000000 0.000000 0.000000 0.288766 0.000000 0.000000
# 5 0.000000 0.000000 0.000000 0.000000 -0.016347 0.000000
# 6 0.000000 0.000000 0.000000 0.000000 0.000000 0.071840
#
#
# Mechanical properties :
#
#
# Convention : Reuss Voigt Hill
#
# Bulk Modulus (GPa) = 38.43143 39.42068 38.92606
# Shear Modulus (GPa) = 12.07625 6.76073 9.41849
#
# Velocity S-wave (km/s) = 2.49382 1.86593 2.20237
# Velocity P-wave (km/s) = 5.29943 4.99435 5.14915
#
# Compressibility (1/GPa) = 0.02602037
#
# Stress axis : x y z
#
# Youngs Moduli (GPa) = 114.38541 45.43388 78.06638
#
# Poissons Ratio (x) = 0.12022 -0.09759
# Poissons Ratio (y) = 0.30268 0.57572
# Poissons Ratio (z) = -0.14299 0.33506
#
# Static dielectric constant tensor:
#      x y z
#    x 1.682900 0.000000 0.000000 
#    y 0.000000 1.650490 0.000000 
#    z 0.000000 0.000000 1.763610 
# 
# From -- ./inp_files/32402.got.cif
#   From: 2010.05.17/outbox.cif.g08.bks.cpg/sg50_17_cif.got.tgz:32402.got - 2010.06.03 11:33:33.
