data_PCOD9395288
_publ_section_title
;
Structure prediction by ZEFSAII (Michael W. Deem and Ramdas Pophale) SiO2 
 PCOD9395288
Probable space group: P C C M
;
_chemical_formula_sum "Si O2"
_cell_formula_units_Z 64
_cell_length_a 15.000000
_cell_length_b 12.000000
_cell_length_c 18.000000
_cell_angle_alpha 90.000000
_cell_angle_beta 90.000000
_cell_angle_gamma 90.000000
_cell_volume 3240.000000
_symmetry_space_group_name_H-M "P C C M"
_symmetry_group_IT_number 49
_symmetry_cell_setting 'orthorhombic'
loop_
_space_group_symop_operation_xyz
x,y,z
-x,-y,z
x,-y,1/2-z
-x,y,1/2-z
-x,-y,-z
x,y,-z
-x,y,1/2+z
x,-y,1/2+z
loop_
_atom_site_type_symbol
_atom_site_label
_atom_site_fract_x
_atom_site_fract_y
_atom_site_fract_z
Si Si1 0.035193 0.700057 0.836863
Si Si2 0.368807 0.044307 0.330415
Si Si3 0.484896 0.258834 0.662314
Si Si4 0.324155 0.409691 0.316517
Si Si5 0.153199 0.744867 0.371920
Si Si6 0.346834 0.185453 0.916510
Si Si7 0.841390 0.511863 0.409562
Si Si8 0.208457 0.806130 0.214028
O O1 0.080194 0.590270 0.874690
O O2 0.120485 0.781269 0.832956
O O3 0.000000 0.680434 0.750000
O O4 0.953936 0.755468 0.883099
O O5 0.433425 0.143354 0.358926
O O6 0.271722 0.098117 0.315867
O O7 0.399988 0.000000 0.250000
O O8 0.358132 0.936774 0.381300
O O9 0.500000 0.252019 0.750000
O O10 0.417503 0.362561 0.651893
O O11 0.582893 0.264088 0.626704
O O12 0.334528 0.500000 0.250000
O O13 0.255575 0.446433 0.381273
O O14 0.272582 0.302430 0.282853
O O15 0.243129 0.777074 0.416078
O O16 0.153619 0.609970 0.372205
O O17 0.172517 0.814135 0.297182
O O18 0.378782 0.182559 0.000000
O O19 0.847993 0.507010 0.500000
#
# Coordination Sequence:
#
# PCOD9395288 Si02
#       8
#     8   8   8   8   8   8   8   8
#     4   9  21  37  64  94 124 164 213 260 306 367
#     4  11  20  39  67  86 118 156 205 260 309 377
#     4  11  23  39  63  95 118 158 212 261 306 374
#     4  10  20  38  62  88 125 162 208 253 307 365
#     4  11  20  38  60  85 130 163 207 258 307 368
#     4  12  26  41  62  93 126 165 207 264 332 377
#     4  11  23  37  59  92 128 169 206 249 314 375
#     4   9  18  36  63  96 113 156 212 258 298 368
#
# _framework density 19.753086
#
# number of rings (size 3 to 8) (size 9 to 14) (size 15 to 20)
#    0.000    1.500    3.750    1.875    0.000    4.750 
#    0.000    5.625    0.000    2.250    0.000    0.000 
#    0.000    0.000    0.000    0.000    0.000    0.000 
#
# Total GULP energy -356670.143147 kJ/mol
# GULP energy per Si atom -5572.970987 kJ/mol
# Density = 1.970813 g / cm^3
# Si number density = 19.753086 Si / 1000 Ang^3
#
#
#
# Elastic Constant Matrix: (Units=GPa)
#
#
# Indices 1 2 3 4 5 6 
#
# 1 149.5513 42.0762 36.9324 0.0000 0.0000 0.0000
# 2 42.0762 36.9513 4.7023 0.0000 0.0000 0.0000
# 3 36.9324 4.7023 67.1914 0.0000 0.0000 0.0000
# 4 0.0000 0.0000 0.0000 2.9491 0.0000 0.0000
# 5 0.0000 0.0000 0.0000 0.0000 14.5273 0.0000
# 6 0.0000 0.0000 0.0000 0.0000 0.0000 47.8329
#
#
#
# Elastic Compliance Matrix: (Units=1/GPa)
#
#
# Indices 1 2 3 4 5 6 
#
# 1 0.011539 -0.012443 -0.005472 0.000000 0.000000 0.000000
# 2 -0.012443 0.040723 0.003989 0.000000 0.000000 0.000000
# 3 -0.005472 0.003989 0.017611 0.000000 0.000000 0.000000
# 4 0.000000 0.000000 0.000000 0.339083 0.000000 0.000000
# 5 0.000000 0.000000 0.000000 0.000000 0.068836 0.000000
# 6 0.000000 0.000000 0.000000 0.000000 0.000000 0.020906
#
#
# Mechanical properties :
#
#
# Convention : Reuss Voigt Hill
#
# Bulk Modulus (GPa) = 23.79635 46.79063 35.29349
# Shear Modulus (GPa) = 9.24974 24.39407 16.82191
#
# Velocity S-wave (km/s) = 2.16630 3.51800 2.92140
# Velocity P-wave (km/s) = 4.28138 6.34357 5.41161
#
# Compressibility (1/GPa) = 0.04202325
#
# Stress axis : x y z
#
# Youngs Moduli (GPa) = 86.66541 24.55593 56.78218
#
# Poissons Ratio (x) = 0.30554 0.31069
# Poissons Ratio (y) = 1.07835 -0.22652
# Poissons Ratio (z) = 0.47419 -0.09796
#
# Static dielectric constant tensor:
#      x y z
#    x 1.747720 0.000000 0.000000 
#    y 0.000000 1.709640 0.000000 
#    z 0.000000 0.000000 1.702820 
# 
# From -- ./inp_files/17940.got.cif
#   From: 2010.05.17/outbox.ucp.g08.bks.cvg/sg49_9_cif.got.tgz:17940.got - 2010.06.11 16:40:14.
