data_PCOD9395898
_publ_section_title
;
Structure prediction by ZEFSAII (Michael W. Deem and Ramdas Pophale) SiO2 
 PCOD9395898
Probable space group: P B A N
;
_chemical_formula_sum "Si O2"
_cell_formula_units_Z 36
_cell_length_a 17.540804
_cell_length_b 15.681150
_cell_length_c 6.870231
_cell_angle_alpha 90.000000
_cell_angle_beta 90.000000
_cell_angle_gamma 90.000000
_cell_volume 1889.725592
_symmetry_space_group_name_H-M "P B A N"
_symmetry_group_IT_number 50
_space_group.IT_coordinate_system_code '2'
_symmetry_cell_setting 'orthorhombic'
loop_
_space_group_symop_operation_xyz
x,y,z
1/2-x,1/2-y,z
x,1/2-y,-z
1/2-x,y,-z
-x,-y,-z
1/2+x,1/2+y,-z
-x,1/2+y,z
1/2+x,-y,z
loop_
_atom_site_type_symbol
_atom_site_label
_atom_site_fract_x
_atom_site_fract_y
_atom_site_fract_z
Si Si1 0.575506 0.486300 0.214451
Si Si2 0.446263 0.881675 0.857191
Si Si3 0.169476 0.957653 0.401637
Si Si4 0.944777 0.750000 0.000000
Si Si5 0.668732 0.603819 0.917955
O O1 0.495833 0.536994 0.216429
O O2 0.610809 0.472323 0.423034
O O3 0.566459 0.401296 0.085905
O O4 0.631931 0.544555 0.085609
O O5 0.367980 0.886454 0.739295
O O6 0.500445 0.800214 0.850628
O O7 0.250000 0.935918 0.500000
O O8 0.177793 0.043255 0.270133
O O9 0.889889 0.818429 0.895243
O O10 0.750000 0.633426 0.000000
#
# Coordination Sequence:
#
# PCOD9395898 Si02
#       5
#     8   8   8   4   8
#     4   9  18  36  57  83 111 144 204 241 277 332
#     4   9  20  35  57  82 111 158 192 238 288 346
#     4  11  20  34  63  89 110 145 205 252 280 333
#     4  10  21  38  56  79 126 164 182 232 302 363
#     4  10  19  35  58  87 117 152 188 240 300 353
#
# _framework density 19.050386
#
# number of rings (size 3 to 8) (size 9 to 14) (size 15 to 20)
#    0.000    2.222    2.222    2.333    0.000    0.000 
#    0.000   10.000    0.000    4.000    0.000    0.000 
#    0.000    0.000    0.000    0.000    0.000    0.000 
#
# Total GULP energy -200730.099625 kJ/mol
# GULP energy per Si atom -5575.836101 kJ/mol
# Density = 1.900703 g / cm^3
# Si number density = 19.050386 Si / 1000 Ang^3
#
#
#
# Elastic Constant Matrix: (Units=GPa)
#
#
# Indices 1 2 3 4 5 6 
#
# 1 124.6732 47.3225 49.1651 0.0000 0.0000 0.0000
# 2 47.3225 60.5563 16.5422 0.0000 0.0000 0.0000
# 3 49.1651 16.5422 97.9236 0.0000 0.0000 0.0000
# 4 0.0000 0.0000 0.0000 9.2002 0.0000 0.0000
# 5 0.0000 0.0000 0.0000 0.0000 40.1917 0.0000
# 6 0.0000 0.0000 0.0000 0.0000 0.0000 29.0158
#
#
#
# Elastic Compliance Matrix: (Units=1/GPa)
#
#
# Indices 1 2 3 4 5 6 
#
# 1 0.013581 -0.009174 -0.005269 0.000000 0.000000 0.000000
# 2 -0.009174 0.023509 0.000634 0.000000 0.000000 0.000000
# 3 -0.005269 0.000634 0.012750 0.000000 0.000000 0.000000
# 4 0.000000 0.000000 0.000000 0.108693 0.000000 0.000000
# 5 0.000000 0.000000 0.000000 0.000000 0.024881 0.000000
# 6 0.000000 0.000000 0.000000 0.000000 0.000000 0.034464
#
#
# Mechanical properties :
#
#
# Convention : Reuss Voigt Hill
#
# Bulk Modulus (GPa) = 44.99630 56.57918 50.78774
# Shear Modulus (GPa) = 19.77050 27.02309 23.39680
#
# Velocity S-wave (km/s) = 3.22499 3.77039 3.50830
# Velocity P-wave (km/s) = 6.12685 6.97988 6.56723
#
# Compressibility (1/GPa) = 0.02222405
#
# Stress axis : x y z
#
# Youngs Moduli (GPa) = 73.63339 42.53684 78.42982
#
# Poissons Ratio (x) = 0.39021 0.41324
# Poissons Ratio (y) = 0.67548 -0.04976
# Poissons Ratio (z) = 0.38797 -0.02699
#
# Static dielectric constant tensor:
#      x y z
#    x 1.719870 0.000000 0.000000 
#    y 0.000000 1.675580 0.000000 
#    z 0.000000 0.000000 1.652650 
# 
# From -- ./inp_files/4317.got.cif
#   From: 2010.05.17/outbox.cif.g08.bks.cpg/sg50_3_cif.got.tgz:4317.got - 2010.06.03 11:33:33.
