data_PCOD9395867
_publ_section_title
;
Structure prediction by ZEFSAII (Michael W. Deem and Ramdas Pophale) SiO2 
 PCOD9395867
Probable space group: P B A N
;
_chemical_formula_sum "Si O2"
_cell_formula_units_Z 32
_cell_length_a 13.942960
_cell_length_b 9.360070
_cell_length_c 9.465383
_cell_angle_alpha 90.000000
_cell_angle_beta 90.000000
_cell_angle_gamma 90.000000
_cell_volume 1235.299512
_symmetry_space_group_name_H-M "P B A N"
_symmetry_group_IT_number 50
_space_group.IT_coordinate_system_code '2'
_symmetry_cell_setting 'orthorhombic'
loop_
_space_group_symop_operation_xyz
x,y,z
1/2-x,1/2-y,z
x,1/2-y,-z
1/2-x,y,-z
-x,-y,-z
1/2+x,1/2+y,-z
-x,1/2+y,z
1/2+x,-y,z
loop_
_atom_site_type_symbol
_atom_site_label
_atom_site_fract_x
_atom_site_fract_y
_atom_site_fract_z
Si Si1 0.340859 0.521853 0.930727
Si Si2 0.513299 0.157492 0.373540
Si Si3 0.951926 0.597131 0.167678
Si Si4 0.193377 0.096727 0.622776
O O1 0.443269 0.596139 0.906503
O O2 0.310683 0.469925 0.776578
O O3 0.250000 0.597489 0.000000
O O4 0.371525 0.404545 0.048014
O O5 0.561065 0.250000 0.500000
O O6 0.460470 0.268339 0.267606
O O7 0.415802 0.089923 0.436030
O O8 0.561077 0.042765 0.268435
O O9 0.250000 0.250000 0.635646
O O10 0.250000 0.015631 0.500000
#
# Coordination Sequence:
#
# PCOD9395867 Si02
#       4
#     8   8   8   8
#     4  10  22  39  63  95 133 174 218 284 324 409
#     4  11  21  40  65  93 135 173 218 282 330 402
#     4  10  24  40  64 100 127 178 224 265 344 394
#     4  10  19  34  61 100 125 162 219 289 345 387
#
# _framework density 25.904648000000002
#
# number of rings (size 3 to 8) (size 9 to 14) (size 15 to 20)
#    0.000    1.750    2.500    2.250    0.000   13.500 
#    0.000    2.500    0.000    1.500    0.000    0.000 
#    0.000    0.000    0.000    0.000    0.000    0.000 
#
# Total GULP energy -178699.966135 kJ/mol
# GULP energy per Si atom -5584.373942 kJ/mol
# Density = 2.584569 g / cm^3
# Si number density = 25.904648 Si / 1000 Ang^3
#
#
#
# Elastic Constant Matrix: (Units=GPa)
#
#
# Indices 1 2 3 4 5 6 
#
# 1 111.6407 -6.3549 36.8652 0.0000 0.0000 0.0000
# 2 -6.3549 81.9060 45.5120 0.0000 0.0000 0.0000
# 3 36.8652 45.5120 195.0626 0.0000 0.0000 0.0000
# 4 0.0000 0.0000 0.0000 12.3593 0.0000 0.0000
# 5 0.0000 0.0000 0.0000 0.0000 52.4324 0.0000
# 6 0.0000 0.0000 0.0000 0.0000 0.0000 5.1155
#
#
#
# Elastic Compliance Matrix: (Units=1/GPa)
#
#
# Indices 1 2 3 4 5 6 
#
# 1 0.009849 0.002066 -0.002343 0.000000 0.000000 0.000000
# 2 0.002066 0.014461 -0.003765 0.000000 0.000000 0.000000
# 3 -0.002343 -0.003765 0.006448 0.000000 0.000000 0.000000
# 4 0.000000 0.000000 0.000000 0.080911 0.000000 0.000000
# 5 0.000000 0.000000 0.000000 0.000000 0.019072 0.000000
# 6 0.000000 0.000000 0.000000 0.000000 0.000000 0.195484
#
#
# Mechanical properties :
#
#
# Convention : Reuss Voigt Hill
#
# Bulk Modulus (GPa) = 44.10271 60.07267 52.08769
# Shear Modulus (GPa) = 14.62561 34.82058 24.72309
#
# Velocity S-wave (km/s) = 2.37870 3.67029 3.09267
# Velocity P-wave (km/s) = 4.96047 6.41885 5.73619
#
# Compressibility (1/GPa) = 0.02267435
#
# Stress axis : x y z
#
# Youngs Moduli (GPa) = 101.53562 69.15005 155.09128
#
# Poissons Ratio (x) = -0.14289 0.36345
# Poissons Ratio (y) = -0.20980 0.58386
# Poissons Ratio (z) = 0.23794 0.26032
#
# Static dielectric constant tensor:
#      x y z
#    x 2.159160 0.000000 0.000000 
#    y 0.000000 2.199500 0.000000 
#    z 0.000000 0.000000 2.113510 
# 
# From -- ./inp_files/10554.got.cif
#   From: 2010.05.17/outbox.cif.g08.bks.cpg/sg50_6_cif.got.tgz:10554.got - 2010.06.03 11:33:33.
