data_PCOD9395870
_publ_section_title
;
Structure prediction by ZEFSAII (Michael W. Deem and Ramdas Pophale) SiO2 
 PCOD9395870
Probable space group: P B A N
;
_chemical_formula_sum "Si O2"
_cell_formula_units_Z 40
_cell_length_a 21.299877
_cell_length_b 9.914602
_cell_length_c 9.002064
_cell_angle_alpha 90.000000
_cell_angle_beta 90.000000
_cell_angle_gamma 90.000000
_cell_volume 1901.054103
_symmetry_space_group_name_H-M "P B A N"
_symmetry_group_IT_number 50
_space_group.IT_coordinate_system_code '2'
_symmetry_cell_setting 'orthorhombic'
loop_
_space_group_symop_operation_xyz
x,y,z
1/2-x,1/2-y,z
x,1/2-y,-z
1/2-x,y,-z
-x,-y,-z
1/2+x,1/2+y,-z
-x,1/2+y,z
1/2+x,-y,z
loop_
_atom_site_type_symbol
_atom_site_label
_atom_site_fract_x
_atom_site_fract_y
_atom_site_fract_z
Si Si1 0.638405 0.492396 0.344077
Si Si2 0.073923 0.871796 0.207802
Si Si3 0.593709 0.750000 0.500000
Si Si4 0.141801 0.750000 0.500000
Si Si5 0.507748 0.381036 0.276090
Si Si6 0.178950 0.586225 0.016499
O O1 0.636786 0.637767 0.419324
O O2 0.677870 0.373839 0.423109
O O3 0.566606 0.440884 0.366361
O O4 0.653467 0.475037 0.170522
O O5 0.103723 0.825138 0.366008
O O6 0.038522 0.731196 0.168428
O O7 0.022146 0.986671 0.207948
O O8 0.129506 0.938091 0.113435
O O9 0.545875 0.686418 0.621723
O O10 0.181407 0.750000 0.000000
O O11 0.250000 0.536873 0.000000
#
# Coordination Sequence:
#
# PCOD9395870 Si02
#       6
#     8   8   4   4   8   8
#     4  11  22  38  62  97 127 173 211 261 340 392
#     4  11  22  38  61  96 134 168 212 266 340 403
#     4  12  21  36  62 102 138 168 198 273 340 408
#     4  10  19  34  61  95 129 160 215 255 320 402
#     4  11  20  33  61  96 136 159 205 262 335 402
#     4  11  24  45  65  89 132 177 229 282 324 385
#
# _framework density 21.040956999999999
#
# number of rings (size 3 to 8) (size 9 to 14) (size 15 to 20)
#    0.000    1.000    8.000    3.000    0.000    0.800 
#    3.600    2.000    0.000    3.600    0.000    0.000 
#    0.000    0.000    0.000    0.000    0.000    0.000 
#
# Total GULP energy -222689.397324 kJ/mol
# GULP energy per Si atom -5567.234933 kJ/mol
# Density = 2.099307 g / cm^3
# Si number density = 21.040957 Si / 1000 Ang^3
#
#
#
# Elastic Constant Matrix: (Units=GPa)
#
#
# Indices 1 2 3 4 5 6 
#
# 1 53.6546 36.0238 40.7631 0.0000 0.0000 0.0000
# 2 36.0238 132.6797 53.9344 0.0000 0.0000 0.0000
# 3 40.7631 53.9344 130.1816 0.0000 0.0000 0.0000
# 4 0.0000 0.0000 0.0000 20.4004 0.0000 0.0000
# 5 0.0000 0.0000 0.0000 0.0000 2.5886 0.0000
# 6 0.0000 0.0000 0.0000 0.0000 0.0000 16.6344
#
#
#
# Elastic Compliance Matrix: (Units=1/GPa)
#
#
# Indices 1 2 3 4 5 6 
#
# 1 0.026616 -0.004616 -0.006422 0.000000 0.000000 0.000000
# 2 -0.004616 0.009864 -0.002641 0.000000 0.000000 0.000000
# 3 -0.006422 -0.002641 0.010787 0.000000 0.000000 0.000000
# 4 0.000000 0.000000 0.000000 0.049019 0.000000 0.000000
# 5 0.000000 0.000000 0.000000 0.000000 0.386315 0.000000
# 6 0.000000 0.000000 0.000000 0.000000 0.000000 0.060116
#
#
# Mechanical properties :
#
#
# Convention : Reuss Voigt Hill
#
# Bulk Modulus (GPa) = 50.22996 64.21762 57.22379
# Shear Modulus (GPa) = 8.66987 20.31097 14.49042
#
# Velocity S-wave (km/s) = 2.03210 3.11031 2.62711
# Velocity P-wave (km/s) = 5.42496 6.59433 6.03802
#
# Compressibility (1/GPa) = 0.01990844
#
# Stress axis : x y z
#
# Youngs Moduli (GPa) = 37.57194 101.37971 92.70756
#
# Poissons Ratio (x) = 0.46797 0.59533
# Poissons Ratio (y) = 0.17343 0.24486
# Poissons Ratio (z) = 0.24127 0.26777
#
# Static dielectric constant tensor:
#      x y z
#    x 1.790950 0.000000 0.000000 
#    y 0.000000 1.874330 0.000000 
#    z 0.000000 0.000000 1.907110 
# 
# From -- ./inp_files/15142.got.cif
#   From: 2010.05.17/outbox.cif.g08.bks.cpg/sg50_8_cif.got.tgz:15142.got - 2010.06.03 11:33:33.
