data_PCOD9395617
_publ_section_title
;
Structure prediction by ZEFSAII (Michael W. Deem and Ramdas Pophale) SiO2 
 PCOD9395617
Probable space group: P B A N
;
_chemical_formula_sum "Si O2"
_cell_formula_units_Z 56
_cell_length_a 20.379538
_cell_length_b 8.713656
_cell_length_c 12.771601
_cell_angle_alpha 90.000000
_cell_angle_beta 90.000000
_cell_angle_gamma 90.000000
_cell_volume 2267.984527
_symmetry_space_group_name_H-M "P B A N"
_symmetry_group_IT_number 50
_space_group.IT_coordinate_system_code '2'
_symmetry_cell_setting 'orthorhombic'
loop_
_space_group_symop_operation_xyz
x,y,z
1/2-x,1/2-y,z
x,1/2-y,-z
1/2-x,y,-z
-x,-y,-z
1/2+x,1/2+y,-z
-x,1/2+y,z
1/2+x,-y,z
loop_
_atom_site_type_symbol
_atom_site_label
_atom_site_fract_x
_atom_site_fract_y
_atom_site_fract_z
Si Si1 0.050057 0.368625 0.831795
Si Si2 0.871040 0.077210 0.352716
Si Si3 0.722367 0.424040 0.106551
Si Si4 0.116848 0.585843 0.701020
Si Si5 0.082797 0.465429 0.138189
Si Si6 0.495230 0.735111 0.607842
Si Si7 0.244021 0.430924 0.666944
O O1 0.984387 0.442304 0.878620
O O2 0.031242 0.318486 0.712315
O O3 0.102191 0.503783 0.811320
O O4 0.074431 0.213989 0.886154
O O5 0.828937 0.512751 0.358095
O O6 0.803882 0.010193 0.395445
O O7 0.899486 0.969483 0.262295
O O8 0.934107 0.120157 0.420861
O O9 0.750000 0.250000 0.113307
O O10 0.644220 0.444664 0.091730
O O11 0.742800 0.512742 0.212802
O O12 0.750000 0.494870 0.000000
O O13 0.046659 0.617627 0.646892
O O14 0.144590 0.759152 0.703672
O O15 0.534285 0.750000 0.500000
O O16 0.250000 0.250000 0.659043
#
# Coordination Sequence:
#
# PCOD9395617 Si02
#       7
#     8   8   8   8   8   8   8
#     4  11  19  35  57  90 120 158 202 247 294 367
#     4   8  18  34  51  82 112 151 200 245 290 353
#     4  10  22  39  64  91 121 155 197 250 302 358
#     4  10  19  33  56  83 112 160 202 245 300 358
#     4  10  18  35  58  88 121 155 203 243 288 366
#     4   9  20  34  55  87 117 158 198 257 309 358
#     4  11  20  35  61  85 115 153 205 254 289 362
#
# _framework density 24.691528000000002
#
# number of rings (size 3 to 8) (size 9 to 14) (size 15 to 20)
#    0.857    1.286    1.429    3.857    0.000    0.857 
#    0.000    1.429    0.000    8.571    0.000    0.000 
#    0.000    3.429    0.000    0.000    0.000    0.000 
#
# Total GULP energy -312470.819086 kJ/mol
# GULP energy per Si atom -5579.836055 kJ/mol
# Density = 2.463533 g / cm^3
# Si number density = 24.691528 Si / 1000 Ang^3
#
#
#
# Elastic Constant Matrix: (Units=GPa)
#
#
# Indices 1 2 3 4 5 6 
#
# 1 101.1530 54.5207 -12.4091 0.0000 0.0000 0.0000
# 2 54.5207 171.8565 2.2481 0.0000 0.0000 0.0000
# 3 -12.4091 2.2481 74.4327 0.0000 0.0000 0.0000
# 4 0.0000 0.0000 0.0000 1.4455 0.0000 0.0000
# 5 0.0000 0.0000 0.0000 0.0000 11.6275 0.0000
# 6 0.0000 0.0000 0.0000 0.0000 0.0000 31.4291
#
#
#
# Elastic Compliance Matrix: (Units=1/GPa)
#
#
# Indices 1 2 3 4 5 6 
#
# 1 0.012264 -0.003919 0.002163 0.000000 0.000000 0.000000
# 2 -0.003919 0.007073 -0.000867 0.000000 0.000000 0.000000
# 3 0.002163 -0.000867 0.013822 0.000000 0.000000 0.000000
# 4 0.000000 0.000000 0.000000 0.691787 0.000000 0.000000
# 5 0.000000 0.000000 0.000000 0.000000 0.086003 0.000000
# 6 0.000000 0.000000 0.000000 0.000000 0.000000 0.031818
#
#
# Mechanical properties :
#
#
# Convention : Reuss Voigt Hill
#
# Bulk Modulus (GPa) = 35.82580 48.46238 42.14409
# Shear Modulus (GPa) = 5.83216 29.10593 17.46904
#
# Velocity S-wave (km/s) = 1.53855 3.43706 2.66276
# Velocity P-wave (km/s) = 4.20678 5.95155 5.15354
#
# Compressibility (1/GPa) = 0.02791284
#
# Stress axis : x y z
#
# Youngs Moduli (GPa) = 81.54226 141.37496 72.34980
#
# Poissons Ratio (x) = 0.55403 -0.15649
# Poissons Ratio (y) = 0.31955 0.06273
# Poissons Ratio (z) = -0.17637 0.12257
#
# Static dielectric constant tensor:
#      x y z
#    x 1.998330 0.000000 0.000000 
#    y 0.000000 2.028320 0.000000 
#    z 0.000000 0.000000 1.985090 
# 
# From -- ./inp_files/27225.got.cif
#   From: 2010.05.17/outbox.cif.g08.bks.cpg/sg50_14_cif.got.tgz:27225.got - 2010.06.03 11:33:33.
