data_PCOD9395552
_publ_section_title
;
Structure prediction by ZEFSAII (Michael W. Deem and Ramdas Pophale) SiO2 
 PCOD9395552
Probable space group: P B A N
;
_chemical_formula_sum "Si O2"
_cell_formula_units_Z 54
_cell_length_a 5.684884
_cell_length_b 33.402289
_cell_length_c 13.887221
_cell_angle_alpha 90.000000
_cell_angle_beta 90.000000
_cell_angle_gamma 90.000000
_cell_volume 2637.018542
_symmetry_space_group_name_H-M "P B A N"
_symmetry_group_IT_number 50
_space_group.IT_coordinate_system_code '2'
_symmetry_cell_setting 'orthorhombic'
loop_
_space_group_symop_operation_xyz
x,y,z
1/2-x,1/2-y,z
x,1/2-y,-z
1/2-x,y,-z
-x,-y,-z
1/2+x,1/2+y,-z
-x,1/2+y,z
1/2+x,-y,z
loop_
_atom_site_type_symbol
_atom_site_label
_atom_site_fract_x
_atom_site_fract_y
_atom_site_fract_z
Si Si1 0.999688 0.877573 0.009387
Si Si2 0.138724 0.463405 0.404163
Si Si3 0.387815 0.984528 0.217213
Si Si4 0.750000 0.250000 0.000000
Si Si5 0.968333 0.192537 0.846872
Si Si6 0.534064 0.827325 0.185722
Si Si7 0.750000 0.091501 0.500000
Si Si8 0.986059 0.095727 0.310454
O O1 0.989925 0.843694 0.924715
O O2 0.250000 0.899571 0.000000
O O3 0.010572 0.852350 0.107875
O O4 0.750000 0.899792 0.000000
O O5 0.250000 0.482128 0.500000
O O6 0.079906 0.495233 0.323175
O O7 0.305225 0.431041 0.352988
O O8 0.932299 0.437038 0.446552
O O9 0.357581 0.937110 0.240514
O O10 0.646132 0.996462 0.173388
O O11 0.915529 0.223509 0.932086
O O12 0.719553 0.192312 0.790101
O O13 0.228691 0.198598 0.804324
O O14 0.562911 0.867090 0.248041
O O15 0.860688 0.112590 0.406956
#
# Coordination Sequence:
#
# PCOD9395552 Si02
#       8
#     8   8   8   2   8   8   4   8
#     4   8  14  30  45  69  96 131 159 194 224 302
#     4   9  19  30  44  68  96 134 184 242 287 332
#     4  10  19  30  44  66  92 131 181 233 281 327
#     4  12  20  38  64  94 116 152 160 190 260 342
#     4  10  21  33  56  81 113 141 168 194 246 328
#     4  10  20  34  47  75 112 150 171 210 249 314
#     4  10  18  32  46  70  92 153 186 240 276 335
#     4  10  21  30  48  66 106 146 188 225 278 322
#
# _framework density 20.47767
#
# number of rings (size 3 to 8) (size 9 to 14) (size 15 to 20)
#    0.000    2.370    3.704    0.000    3.111    2.963 
#    0.000    0.000    0.000    0.000    0.000    0.000 
#    0.000  128.593    2.074    0.000    0.000    0.000 
#
# Total GULP energy -300643.221528 kJ/mol
# GULP energy per Si atom -5567.467065 kJ/mol
# Density = 2.043106 g / cm^3
# Si number density = 20.477670 Si / 1000 Ang^3
#
#
#
# Elastic Constant Matrix: (Units=GPa)
#
#
# Indices 1 2 3 4 5 6 
#
# 1 179.7344 23.5410 10.8191 0.0000 0.0000 0.0000
# 2 23.5410 59.1673 21.7032 0.0000 0.0000 0.0000
# 3 10.8191 21.7032 24.1637 0.0000 0.0000 0.0000
# 4 0.0000 0.0000 0.0000 21.3172 0.0000 0.0000
# 5 0.0000 0.0000 0.0000 0.0000 10.3647 0.0000
# 6 0.0000 0.0000 0.0000 0.0000 0.0000 10.3566
#
#
#
# Elastic Compliance Matrix: (Units=1/GPa)
#
#
# Indices 1 2 3 4 5 6 
#
# 1 0.005880 -0.002049 -0.000793 0.000000 0.000000 0.000000
# 2 -0.002049 0.025919 -0.022363 0.000000 0.000000 0.000000
# 3 -0.000793 -0.022363 0.061825 0.000000 0.000000 0.000000
# 4 0.000000 0.000000 0.000000 0.046910 0.000000 0.000000
# 5 0.000000 0.000000 0.000000 0.000000 0.096482 0.000000
# 6 0.000000 0.000000 0.000000 0.000000 0.000000 0.096557
#
#
# Mechanical properties :
#
#
# Convention : Reuss Voigt Hill
#
# Bulk Modulus (GPa) = 23.13955 41.68801 32.41378
# Shear Modulus (GPa) = 12.55063 22.20783 17.37923
#
# Velocity S-wave (km/s) = 2.47835 3.29673 2.91639
# Velocity P-wave (km/s) = 4.41747 5.90705 5.21571
#
# Compressibility (1/GPa) = 0.04321606
#
# Stress axis : x y z
#
# Youngs Moduli (GPa) = 170.07371 38.58138 16.17469
#
# Poissons Ratio (x) = 0.07904 0.01282
# Poissons Ratio (y) = 0.34843 0.36171
# Poissons Ratio (z) = 0.13479 0.86279
#
# Static dielectric constant tensor:
#      x y z
#    x 1.963120 0.000000 0.000000 
#    y 0.000000 1.704620 0.000000 
#    z 0.000000 0.000000 1.731260 
# 
# From -- ./inp_files/24237.got.cif
#   From: 2010.05.17/outbox.cif.g08.bks.cpg/sg50_13_cif.got.tgz:24237.got - 2010.06.03 11:33:33.
