data_PCOD9395761
_publ_section_title
;
Structure prediction by ZEFSAII (Michael W. Deem and Ramdas Pophale) SiO2 
 PCOD9395761
Probable space group: P B A N
;
_chemical_formula_sum "Si O2"
_cell_formula_units_Z 58
_cell_length_a 5.182104
_cell_length_b 18.550419
_cell_length_c 29.723560
_cell_angle_alpha 90.000000
_cell_angle_beta 90.000000
_cell_angle_gamma 90.000000
_cell_volume 2857.331782
_symmetry_space_group_name_H-M "P B A N"
_symmetry_group_IT_number 50
_space_group.IT_coordinate_system_code '2'
_symmetry_cell_setting 'orthorhombic'
loop_
_space_group_symop_operation_xyz
x,y,z
1/2-x,1/2-y,z
x,1/2-y,-z
1/2-x,y,-z
-x,-y,-z
1/2+x,1/2+y,-z
-x,1/2+y,z
1/2+x,-y,z
loop_
_atom_site_type_symbol
_atom_site_label
_atom_site_fract_x
_atom_site_fract_y
_atom_site_fract_z
Si Si1 0.566193 0.544111 0.781977
Si Si2 0.738608 0.663510 0.391789
Si Si3 0.598835 0.542695 0.673636
Si Si4 0.750000 0.750000 0.000000
Si Si5 0.263946 0.837205 0.448998
Si Si6 0.804789 0.041677 0.947107
Si Si7 0.054488 0.684201 0.080068
Si Si8 0.484391 0.296736 0.179911
O O1 0.339935 0.489261 0.796881
O O2 0.586095 0.546888 0.727691
O O3 0.501133 0.624534 0.798128
O O4 0.750000 0.750000 0.383404
O O5 0.806397 0.617247 0.347936
O O6 0.469429 0.643327 0.415579
O O7 0.963510 0.645089 0.427116
O O8 0.314819 0.516142 0.659773
O O9 0.605205 0.696778 0.965445
O O10 0.250000 0.750000 0.451823
O O11 0.250000 0.865281 0.500000
O O12 0.714376 0.111333 0.921193
O O13 0.599166 0.978273 0.937347
O O14 0.750000 0.055737 0.000000
O O15 0.250000 0.750000 0.079380
O O16 0.913501 0.687887 0.127563
O O17 0.750000 0.250000 0.182323
O O18 0.250000 0.250000 0.199848
#
# Coordination Sequence:
#
# PCOD9395761 Si02
#       8
#     8   8   8   2   8   8   8   8
#     4  10  22  42  68  92 121 163 206 243 305 385
#     4  10  19  32  54  83 112 148 201 254 297 348
#     4  10  21  38  59  85 117 155 192 238 303 371
#     4  12  22  40  64  86 120 164 208 232 282 360
#     4   9  17  30  50  78 113 154 200 250 299 349
#     4  10  23  38  57  83 116 149 191 241 285 325
#     4  11  25  40  63  89 121 161 203 236 291 354
#     4  11  24  43  64  95 127 156 199 256 306 354
#
# _framework density 20.298656999999999
#
# number of rings (size 3 to 8) (size 9 to 14) (size 15 to 20)
#    0.000    1.793    0.690    3.103    4.828    3.310 
#    0.000    2.069    0.000    8.276    0.000    0.000 
#    0.000    0.000    0.000    0.000    0.000    0.000 
#
# Total GULP energy -323758.645203 kJ/mol
# GULP energy per Si atom -5582.045607 kJ/mol
# Density = 2.025246 g / cm^3
# Si number density = 20.298657 Si / 1000 Ang^3
#
#
#
# Elastic Constant Matrix: (Units=GPa)
#
#
# Indices 1 2 3 4 5 6 
#
# 1 92.3650 22.6635 24.9591 0.0000 0.0000 0.0000
# 2 22.6635 89.3349 29.5998 0.0000 0.0000 0.0000
# 3 24.9591 29.5998 40.6054 0.0000 0.0000 0.0000
# 4 0.0000 0.0000 0.0000 11.7292 0.0000 0.0000
# 5 0.0000 0.0000 0.0000 0.0000 14.8540 0.0000
# 6 0.0000 0.0000 0.0000 0.0000 0.0000 29.1963
#
#
#
# Elastic Compliance Matrix: (Units=1/GPa)
#
#
# Indices 1 2 3 4 5 6 
#
# 1 0.013033 -0.000860 -0.007384 0.000000 0.000000 0.000000
# 2 -0.000860 0.014815 -0.010271 0.000000 0.000000 0.000000
# 3 -0.007384 -0.010271 0.036654 0.000000 0.000000 0.000000
# 4 0.000000 0.000000 0.000000 0.085258 0.000000 0.000000
# 5 0.000000 0.000000 0.000000 0.000000 0.067322 0.000000
# 6 0.000000 0.000000 0.000000 0.000000 0.000000 0.034251
#
#
# Mechanical properties :
#
#
# Convention : Reuss Voigt Hill
#
# Bulk Modulus (GPa) = 36.40187 41.86113 39.13150
# Shear Modulus (GPa) = 16.80559 20.82808 18.81684
#
# Velocity S-wave (km/s) = 2.88048 3.20673 3.04797
# Velocity P-wave (km/s) = 5.38841 5.86329 5.63086
#
# Compressibility (1/GPa) = 0.02747112
#
# Stress axis : x y z
#
# Youngs Moduli (GPa) = 76.72849 67.49843 27.28244
#
# Poissons Ratio (x) = 0.05802 0.20146
# Poissons Ratio (y) = 0.06596 0.28023
# Poissons Ratio (z) = 0.56659 0.69330
#
# Static dielectric constant tensor:
#      x y z
#    x 1.692830 0.000000 0.000000 
#    y 0.000000 1.716410 0.000000 
#    z 0.000000 0.000000 1.736050 
# 
# From -- ./inp_files/32105.got.cif
#   From: 2010.05.17/outbox.cif.g08.bks.cpg/sg50_17_cif.got.tgz:32105.got - 2010.06.03 11:33:33.
