data_PCOD9395575
_publ_section_title
;
Structure prediction by ZEFSAII (Michael W. Deem and Ramdas Pophale) SiO2 
 PCOD9395575
Probable space group: P B A N
;
_chemical_formula_sum "Si O2"
_cell_formula_units_Z 48
_cell_length_a 10.478703
_cell_length_b 15.096539
_cell_length_c 14.317412
_cell_angle_alpha 90.000000
_cell_angle_beta 90.000000
_cell_angle_gamma 90.000000
_cell_volume 2264.902165
_symmetry_space_group_name_H-M "P B A N"
_symmetry_group_IT_number 50
_space_group.IT_coordinate_system_code '2'
_symmetry_cell_setting 'orthorhombic'
loop_
_space_group_symop_operation_xyz
x,y,z
1/2-x,1/2-y,z
x,1/2-y,-z
1/2-x,y,-z
-x,-y,-z
1/2+x,1/2+y,-z
-x,1/2+y,z
1/2+x,-y,z
loop_
_atom_site_type_symbol
_atom_site_label
_atom_site_fract_x
_atom_site_fract_y
_atom_site_fract_z
Si Si1 0.205013 0.086629 0.093539
Si Si2 0.446070 0.514928 0.845308
Si Si3 0.217878 0.939602 0.398294
Si Si4 0.507698 0.859257 0.694692
Si Si5 0.287655 0.376357 0.303855
Si Si6 0.433554 0.833533 0.306733
O O1 0.316328 0.013575 0.105263
O O2 0.204303 0.139162 0.191944
O O3 0.066227 0.041759 0.091279
O O4 0.250000 0.136262 0.000000
O O5 0.484451 0.431544 0.778111
O O6 0.422043 0.600087 0.780320
O O7 0.250000 0.975426 0.500000
O O8 0.075583 0.902638 0.387116
O O9 0.320705 0.863408 0.374985
O O10 0.229609 0.019049 0.324197
O O11 0.652730 0.836723 0.665792
O O12 0.435972 0.768952 0.721426
O O13 0.424109 0.352478 0.346798
#
# Coordination Sequence:
#
# PCOD9395575 Si02
#       6
#     8   8   8   8   8   8
#     4  10  18  32  61  87 114 155 198 235 285 349
#     4  10  19  38  57  86 118 154 195 232 299 342
#     4  12  23  40  62  86 120 156 194 247 298 348
#     4  11  21  38  63  86 116 155 197 242 288 350
#     4  10  21  41  59  89 117 159 198 237 300 347
#     4  11  21  38  63  86 116 155 197 242 288 350
#
# _framework density 21.192968
#
# number of rings (size 3 to 8) (size 9 to 14) (size 15 to 20)
#    0.000    1.333    6.667    1.500    0.000    4.000 
#    0.000    0.000    0.000   45.000    0.000    0.000 
#    0.000    0.000    0.000    0.000    0.000    0.000 
#
# Total GULP energy -267684.582460 kJ/mol
# GULP energy per Si atom -5576.762135 kJ/mol
# Density = 2.114473 g / cm^3
# Si number density = 21.192968 Si / 1000 Ang^3
#
#
#
# Elastic Constant Matrix: (Units=GPa)
#
#
# Indices 1 2 3 4 5 6 
#
# 1 102.7995 -36.3580 7.3726 0.0000 0.0000 0.0000
# 2 -36.3580 66.6234 -5.4663 0.0000 0.0000 0.0000
# 3 7.3726 -5.4663 52.2094 0.0000 0.0000 0.0000
# 4 0.0000 0.0000 0.0000 0.0871 0.0000 0.0000
# 5 0.0000 0.0000 0.0000 0.0000 14.0112 0.0000
# 6 0.0000 0.0000 0.0000 0.0000 0.0000 19.1706
#
#
#
# Elastic Compliance Matrix: (Units=1/GPa)
#
#
# Indices 1 2 3 4 5 6 
#
# 1 0.012109 0.006524 -0.001027 0.000000 0.000000 0.000000
# 2 0.006524 0.018655 0.001032 0.000000 0.000000 0.000000
# 3 -0.001027 0.001032 0.019407 0.000000 0.000000 0.000000
# 4 0.000000 0.000000 0.000000 11.477857 0.000000 0.000000
# 5 0.000000 0.000000 0.000000 0.000000 0.071371 0.000000
# 6 0.000000 0.000000 0.000000 0.000000 0.000000 0.052163
#
#
# Mechanical properties :
#
#
# Convention : Reuss Voigt Hill
#
# Bulk Modulus (GPa) = 15.81593 16.96987 16.39290
# Shear Modulus (GPa) = 0.42883 23.72606 12.07744
#
# Velocity S-wave (km/s) = 0.45032 3.34956 2.38981
# Velocity P-wave (km/s) = 2.78377 4.79417 3.92004
#
# Compressibility (1/GPa) = 0.06322739
#
# Stress axis : x y z
#
# Youngs Moduli (GPa) = 82.58580 53.60620 51.52861
#
# Poissons Ratio (x) = -0.34971 0.05291
# Poissons Ratio (y) = -0.53877 -0.05317
# Poissons Ratio (z) = 0.08480 -0.05532
#
# Static dielectric constant tensor:
#      x y z
#    x 1.811100 0.000000 0.000000 
#    y 0.000000 1.785980 0.000000 
#    z 0.000000 0.000000 1.782460 
# 
# From -- ./inp_files/25866.got.cif
#   From: 2010.05.17/outbox.cif.g08.bks.cpg/sg50_13_cif.got.tgz:25866.got - 2010.06.03 11:33:33.
