data_PCOD9395399
_publ_section_title
;
Structure prediction by ZEFSAII (Michael W. Deem and Ramdas Pophale) SiO2 
 PCOD9395399
Probable space group: P B A N
;
_chemical_formula_sum "Si O2"
_cell_formula_units_Z 30
_cell_length_a 13.872271
_cell_length_b 11.805262
_cell_length_c 8.040804
_cell_angle_alpha 90.000000
_cell_angle_beta 90.000000
_cell_angle_gamma 90.000000
_cell_volume 1316.808649
_symmetry_space_group_name_H-M "P B A N"
_symmetry_group_IT_number 50
_space_group.IT_coordinate_system_code '2'
_symmetry_cell_setting 'orthorhombic'
loop_
_space_group_symop_operation_xyz
x,y,z
1/2-x,1/2-y,z
x,1/2-y,-z
1/2-x,y,-z
-x,-y,-z
1/2+x,1/2+y,-z
-x,1/2+y,z
1/2+x,-y,z
loop_
_atom_site_type_symbol
_atom_site_label
_atom_site_fract_x
_atom_site_fract_y
_atom_site_fract_z
Si Si1 0.090220 0.750000 0.500000
Si Si2 0.569989 0.634488 0.679216
Si Si3 0.750000 0.750000 0.500000
Si Si4 0.750000 0.545817 0.000000
Si Si5 0.901635 0.750000 0.000000
Si Si6 0.192191 0.927941 0.325762
O O1 0.155137 0.801106 0.354405
O O2 0.017729 0.847990 0.556243
O O3 0.674097 0.682210 0.614406
O O4 0.543080 0.713022 0.835645
O O5 0.596676 0.505036 0.703135
O O6 0.749886 0.466219 0.162800
O O7 0.836919 0.636671 0.976208
O O8 0.250000 0.953141 0.500000
#
# Coordination Sequence:
#
# PCOD9395399 Si02
#       6
#     4   8   2   4   4   8
#     4  11  25  39  59  96 134 166 213 271 331 381
#     4  10  20  37  62  92 127 164 211 273 319 381
#     4  10  16  30  62  90 110 162 214 252 320 370
#     4   9  20  38  67  94 122 162 227 269 312 384
#     4   9  18  36  62 100 121 158 218 276 317 382
#     4  11  22  43  65  91 126 177 221 262 323 397
#
# _framework density 22.782351999999999
#
# number of rings (size 3 to 8) (size 9 to 14) (size 15 to 20)
#    0.000    1.867    1.333    4.400    3.733    0.000 
#    4.800    4.000    0.000    0.000    0.000    0.000 
#    0.000    0.000    0.000    0.000    0.000    0.000 
#
# Total GULP energy -167065.464621 kJ/mol
# GULP energy per Si atom -5568.848821 kJ/mol
# Density = 2.273050 g / cm^3
# Si number density = 22.782352 Si / 1000 Ang^3
#
#
#
# Elastic Constant Matrix: (Units=GPa)
#
#
# Indices 1 2 3 4 5 6 
#
# 1 65.4785 24.9000 24.8978 0.0000 0.0000 0.0000
# 2 24.9000 57.0978 17.1029 0.0000 0.0000 0.0000
# 3 24.8978 17.1029 122.3545 0.0000 0.0000 0.0000
# 4 0.0000 0.0000 0.0000 46.1514 0.0000 0.0000
# 5 0.0000 0.0000 0.0000 0.0000 26.4639 0.0000
# 6 0.0000 0.0000 0.0000 0.0000 0.0000 13.7254
#
#
#
# Elastic Compliance Matrix: (Units=1/GPa)
#
#
# Indices 1 2 3 4 5 6 
#
# 1 0.019221 -0.007526 -0.002859 0.000000 0.000000 0.000000
# 2 -0.007526 0.021226 -0.001436 0.000000 0.000000 0.000000
# 3 -0.002859 -0.001436 0.008955 0.000000 0.000000 0.000000
# 4 0.000000 0.000000 0.000000 0.021668 0.000000 0.000000
# 5 0.000000 0.000000 0.000000 0.000000 0.037787 0.000000
# 6 0.000000 0.000000 0.000000 0.000000 0.000000 0.072858
#
#
# Mechanical properties :
#
#
# Convention : Reuss Voigt Hill
#
# Bulk Modulus (GPa) = 38.81817 42.08136 40.44976
# Shear Modulus (GPa) = 23.37062 29.13681 26.25372
#
# Velocity S-wave (km/s) = 3.20632 3.58008 3.39834
# Velocity P-wave (km/s) = 5.54824 5.96661 5.76122
#
# Compressibility (1/GPa) = 0.02576113
#
# Stress axis : x y z
#
# Youngs Moduli (GPa) = 52.02546 47.11251 111.66343
#
# Poissons Ratio (x) = 0.35456 0.31929
# Poissons Ratio (y) = 0.39154 0.16030
# Poissons Ratio (z) = 0.14876 0.06763
#
# Static dielectric constant tensor:
#      x y z
#    x 1.849230 0.000000 0.000000 
#    y 0.000000 1.899680 0.000000 
#    z 0.000000 0.000000 1.617420 
# 
# From -- ./inp_files/12158.got.cif
#   From: 2010.05.17/outbox.cif.g08.bks.cpg/sg50_7_cif.got.tgz:12158.got - 2010.06.03 11:33:33.
