data_PCOD9395209
_publ_section_title
;
Structure prediction by ZEFSAII (Michael W. Deem and Ramdas Pophale) SiO2 
 PCOD9395209
Probable space group: P C C M
;
_chemical_formula_sum "Si O2"
_cell_formula_units_Z 64
_cell_length_a 21.000000
_cell_length_b 18.000000
_cell_length_c 9.000000
_cell_angle_alpha 90.000000
_cell_angle_beta 90.000000
_cell_angle_gamma 90.000000
_cell_volume 3402.000000
_symmetry_space_group_name_H-M "P C C M"
_symmetry_group_IT_number 49
_symmetry_cell_setting 'orthorhombic'
loop_
_space_group_symop_operation_xyz
x,y,z
-x,-y,z
x,-y,1/2-z
-x,y,1/2-z
-x,-y,-z
x,y,-z
-x,y,1/2+z
x,-y,1/2+z
loop_
_atom_site_type_symbol
_atom_site_label
_atom_site_fract_x
_atom_site_fract_y
_atom_site_fract_z
Si Si1 0.660829 0.186968 0.832114
Si Si2 0.796528 0.426841 0.827638
Si Si3 0.059506 0.615980 0.830298
Si Si4 0.756547 0.720917 0.825164
Si Si5 0.568991 0.923242 0.177198
Si Si6 0.228688 0.932735 0.169272
Si Si7 0.102424 0.766223 0.678497
Si Si8 0.093437 0.074434 0.823603
O O1 0.692389 0.258498 0.760066
O O2 0.611387 0.145640 0.727601
O O3 0.722532 0.133752 0.837654
O O4 0.636713 0.196585 0.000000
O O5 0.772071 0.500000 0.750000
O O6 0.873561 0.425972 0.825118
O O7 0.774379 0.360940 0.723357
O O8 0.777896 0.417324 0.000000
O O9 0.072233 0.695261 0.754092
O O10 0.000000 0.580121 0.750000
O O11 0.042207 0.628209 0.000000
O O12 0.822000 0.764386 0.783311
O O13 0.747656 0.731433 0.000000
O O14 0.500000 0.912573 0.250000
O O15 0.593078 0.000000 0.250000
O O16 0.565764 0.930798 0.000000
O O17 0.167244 0.923103 0.272278
O O18 0.264123 0.000000 0.250000
O O19 0.208418 0.949517 0.000000
O O20 0.098217 0.759978 0.500000
O O21 0.071587 0.844074 0.725828
O O22 0.067397 0.000000 0.750000
O O23 0.087403 0.069356 0.000000
#
# Coordination Sequence:
#
# PCOD9395209 Si02
#       8
#     8   8   8   8   8   8   8   8
#     4  11  21  32  48  72 101 135 175 220 263 310
#     4  10  21  37  56  80 108 140 170 202 247 304
#     4  10  21  35  54  77 101 129 167 207 248 298
#     4  10  19  33  52  75 103 135 169 209 255 308
#     4  11  22  37  54  72 100 141 189 236 280 323
#     4  10  19  27  39  60  90 124 159 201 246 294
#     4   9  18  32  49  68  96 129 163 204 254 306
#     4  10  18  28  42  63  90 121 156 197 245 298
#
# _framework density 18.812463000000001
#
# number of rings (size 3 to 8) (size 9 to 14) (size 15 to 20)
#    0.000    1.875    1.250    4.875    0.000    5.750 
#    0.000    1.250    0.000    0.375    0.000    2.625 
#    0.000    0.500    0.000    5.000    0.000    3.000 
#
# Total GULP energy -356632.373211 kJ/mol
# GULP energy per Si atom -5572.380831 kJ/mol
# Density = 1.876965 g / cm^3
# Si number density = 18.812463 Si / 1000 Ang^3
#
#
#
# Elastic Constant Matrix: (Units=GPa)
#
#
# Indices 1 2 3 4 5 6 
#
# 1 66.5054 11.9061 22.7679 0.0000 0.0000 0.0000
# 2 11.9061 88.5494 19.5960 0.0000 0.0000 0.0000
# 3 22.7679 19.5960 38.7881 0.0000 0.0000 0.0000
# 4 0.0000 0.0000 0.0000 -14.6825 0.0000 0.0000
# 5 0.0000 0.0000 0.0000 0.0000 76.9197 0.0000
# 6 0.0000 0.0000 0.0000 0.0000 0.0000 -456.2354
#
#
#
# Elastic Compliance Matrix: (Units=1/GPa)
#
#
# Indices 1 2 3 4 5 6 
#
# 1 0.018819 -0.000097 -0.010997 0.000000 0.000000 0.000000
# 2 -0.000097 0.012715 -0.006367 0.000000 0.000000 0.000000
# 3 -0.010997 -0.006367 0.035453 0.000000 0.000000 0.000000
# 4 0.000000 0.000000 0.000000 -0.068108 0.000000 0.000000
# 5 0.000000 0.000000 0.000000 0.000000 0.013001 0.000000
# 6 0.000000 0.000000 0.000000 0.000000 0.000000 -0.002192
#
#
# Mechanical properties :
#
#
# Convention : Reuss Voigt Hill
#
# Bulk Modulus (GPa) = 31.18693 33.59811 32.39252
# Shear Modulus (GPa) = 90.42016 -69.49477 10.46269
#
# Velocity S-wave (km/s) = 6.94034 -6.08449 2.36086
# Velocity P-wave (km/s) = 8.99101 5.60920 4.96866
#
# Compressibility (1/GPa) = 0.03206471
#
# Stress axis : x y z
#
# Youngs Moduli (GPa) = 53.13905 78.64631 28.20634
#
# Poissons Ratio (x) = 0.00760 0.31019
# Poissons Ratio (y) = 0.00513 0.17959
# Poissons Ratio (z) = 0.58439 0.50075
#
# Static dielectric constant tensor:
#      x y z
#    x 1.663120 0.000000 0.000000 
#    y 0.000000 1.767340 0.000000 
#    z 0.000000 0.000000 1.662160 
# 
# From -- ./inp_files/5945.got.cif
#   From: 2010.05.17/outbox.ucp.g08.bks.cvg/sg49_3_cif.got.tgz:5945.got - 2010.06.11 16:40:14.
