data_PCOD9395737
_publ_section_title
;
Structure prediction by ZEFSAII (Michael W. Deem and Ramdas Pophale) SiO2 
 PCOD9395737
Probable space group: P B A N
;
_chemical_formula_sum "Si O2"
_cell_formula_units_Z 56
_cell_length_a 18.711472
_cell_length_b 20.816955
_cell_length_c 9.138088
_cell_angle_alpha 90.000000
_cell_angle_beta 90.000000
_cell_angle_gamma 90.000000
_cell_volume 3559.430303
_symmetry_space_group_name_H-M "P B A N"
_symmetry_group_IT_number 50
_space_group.IT_coordinate_system_code '2'
_symmetry_cell_setting 'orthorhombic'
loop_
_space_group_symop_operation_xyz
x,y,z
1/2-x,1/2-y,z
x,1/2-y,-z
1/2-x,y,-z
-x,-y,-z
1/2+x,1/2+y,-z
-x,1/2+y,z
1/2+x,-y,z
loop_
_atom_site_type_symbol
_atom_site_label
_atom_site_fract_x
_atom_site_fract_y
_atom_site_fract_z
Si Si1 0.905551 0.127248 0.174423
Si Si2 0.667086 0.989353 0.174641
Si Si3 0.164888 0.750000 0.674010
Si Si4 0.905551 0.372752 0.174423
Si Si5 0.167086 0.489353 0.174642
Si Si6 0.462452 0.070350 0.331901
Si Si7 0.962452 0.929650 0.668099
O O1 0.869127 0.187131 0.252935
O O2 0.984457 0.114674 0.238805
O O3 0.859898 0.062217 0.203196
O O4 0.908191 0.136632 1.000000
O O5 0.750000 0.982812 0.215071
O O6 0.614331 0.941600 0.259286
O O7 0.640101 0.062217 0.203196
O O8 0.659845 0.979152 1.000000
O O9 0.250000 0.750000 0.698448
O O10 0.151857 0.750000 0.500000
O O11 0.130874 0.687131 0.747065
O O12 0.984457 0.385326 0.238805
O O13 0.114331 0.441600 0.259286
O O14 0.457318 0.091673 0.500000
O O15 0.500000 0.000000 0.331168
#
# Coordination Sequence:
#
# PCOD9395737 Si02
#       7
#     8   8   8   8   8   8   8
#     4  10  19  32  49  67  91 125 162 195 228 271
#     4   9  17  29  46  69  95 122 154 193 234 275
#     4  11  23  35  47  67  96 127 158 193 231 271
#     4  10  19  32  49  67  91 125 162 195 228 271
#     4   9  17  29  46  69  95 122 154 193 234 275
#     4   9  17  29  45  66  92 121 153 190 234 280
#     4   9  17  29  45  66  92 121 153 190 234 280
#
# _framework density 15.732855000000001
#
# number of rings (size 3 to 8) (size 9 to 14) (size 15 to 20)
#    0.000    2.429    0.000    3.000    0.000    7.429 
#    0.000    0.000    0.000    0.000    0.000    1.000 
#    0.000    8.000    0.000    0.000    0.000    0.000 
#
# Total GULP energy -312309.327383 kJ/mol
# GULP energy per Si atom -5576.952275 kJ/mol
# Density = 1.569705 g / cm^3
# Si number density = 15.732855 Si / 1000 Ang^3
#
#
#
# Elastic Constant Matrix: (Units=GPa)
#
#
# Indices 1 2 3 4 5 6 
#
# 1 157.6986 53.7171 85.1141 0.0000 0.0000 0.0000
# 2 53.7171 61.8129 58.2825 0.0000 0.0000 0.0000
# 3 85.1141 58.2825 100.8396 0.0000 0.0000 0.0000
# 4 0.0000 0.0000 0.0000 23.7098 0.0000 0.0000
# 5 0.0000 0.0000 0.0000 0.0000 29.1215 0.0000
# 6 0.0000 0.0000 0.0000 0.0000 0.0000 24.4737
#
#
#
# Elastic Compliance Matrix: (Units=1/GPa)
#
#
# Indices 1 2 3 4 5 6 
#
# 1 0.011747 -0.001889 -0.008823 0.000000 0.000000 0.000000
# 2 -0.001889 0.035857 -0.019130 0.000000 0.000000 0.000000
# 3 -0.008823 -0.019130 0.028420 0.000000 0.000000 0.000000
# 4 0.000000 0.000000 0.000000 0.042177 0.000000 0.000000
# 5 0.000000 0.000000 0.000000 0.000000 0.034339 0.000000
# 6 0.000000 0.000000 0.000000 0.000000 0.000000 0.040860
#
#
# Mechanical properties :
#
#
# Convention : Reuss Voigt Hill
#
# Bulk Modulus (GPa) = 61.19928 79.39760 70.29844
# Shear Modulus (GPa) = 19.34018 23.67684 21.50851
#
# Velocity S-wave (km/s) = 3.50992 3.88355 3.70145
# Velocity P-wave (km/s) = 7.44376 8.40743 7.94023
#
# Compressibility (1/GPa) = 0.01634006
#
# Stress axis : x y z
#
# Youngs Moduli (GPa) = 85.13024 27.88890 35.18632
#
# Poissons Ratio (x) = 0.05269 0.31045
# Poissons Ratio (y) = 0.16083 0.67310
# Poissons Ratio (z) = 0.75110 0.53350
#
# Static dielectric constant tensor:
#      x y z
#    x 1.514090 0.000000 0.000000 
#    y 0.000000 1.496910 0.000000 
#    z 0.000000 0.000000 1.526160 
# 
# From -- ./inp_files/14572.got.cif
#   From: 2010.05.17/outbox.cif.g08.bks.cpg/sg50_8_cif.got.tgz:14572.got - 2010.06.03 11:33:33.
