data_PCOD9395478
_publ_section_title
;
Structure prediction by ZEFSAII (Michael W. Deem and Ramdas Pophale) SiO2 
 PCOD9395478
Probable space group: P B A N
;
_chemical_formula_sum "Si O2"
_cell_formula_units_Z 44
_cell_length_a 14.615715
_cell_length_b 14.954182
_cell_length_c 7.917318
_cell_angle_alpha 90.000000
_cell_angle_beta 90.000000
_cell_angle_gamma 90.000000
_cell_volume 1730.457018
_symmetry_space_group_name_H-M "P B A N"
_symmetry_group_IT_number 50
_space_group.IT_coordinate_system_code '2'
_symmetry_cell_setting 'orthorhombic'
loop_
_space_group_symop_operation_xyz
x,y,z
1/2-x,1/2-y,z
x,1/2-y,-z
1/2-x,y,-z
-x,-y,-z
1/2+x,1/2+y,-z
-x,1/2+y,z
1/2+x,-y,z
loop_
_atom_site_type_symbol
_atom_site_label
_atom_site_fract_x
_atom_site_fract_y
_atom_site_fract_z
Si Si1 0.343496 0.208642 0.765634
Si Si2 0.086256 0.578681 0.832370
Si Si3 0.108162 0.524790 0.187600
Si Si4 0.878469 0.617522 0.549693
Si Si5 0.088864 0.643724 0.481984
Si Si6 0.996728 0.750000 0.000000
O O1 0.250000 0.250000 0.833000
O O2 0.326855 0.132911 0.626434
O O3 0.379945 0.291614 0.656509
O O4 0.424162 0.189274 0.894653
O O5 0.130948 0.594062 0.647891
O O6 0.995329 0.516554 0.817784
O O7 0.138457 0.537675 0.994378
O O8 0.053552 0.678360 0.892442
O O9 0.153104 0.456332 0.318901
O O10 0.116753 0.615994 0.293546
O O11 0.984066 0.609379 0.494519
O O12 0.095568 0.750000 0.500000
#
# Coordination Sequence:
#
# PCOD9395478 Si02
#       6
#     8   8   8   8   8   4
#     4  11  21  32  50  70  96 138 181 217 253 301
#     4  10  19  30  46  71  97 134 171 207 251 308
#     4  10  20  30  47  71  96 130 174 206 253 315
#     4  10  17  34  45  65  95 132 169 211 252 296
#     4  11  18  31  49  71  97 132 169 202 257 314
#     4  12  19  34  48  68 108 136 172 217 260 306
#
# _framework density 25.426808000000001
#
# number of rings (size 3 to 8) (size 9 to 14) (size 15 to 20)
#    0.000    1.455    5.455    5.727    0.000    1.455 
#    0.000    0.000    0.000    0.000    0.000    0.000 
#    0.000    2.909    0.000    2.909    0.000    3.636 
#
# Total GULP energy -245633.639909 kJ/mol
# GULP energy per Si atom -5582.582725 kJ/mol
# Density = 2.536894 g / cm^3
# Si number density = 25.426808 Si / 1000 Ang^3
#
#
#
# Elastic Constant Matrix: (Units=GPa)
#
#
# Indices 1 2 3 4 5 6 
#
# 1 22.2134 -1.4256 8.0865 0.0000 0.0000 0.0000
# 2 -1.4256 113.1150 27.5926 0.0000 0.0000 0.0000
# 3 8.0865 27.5926 177.8118 0.0000 0.0000 0.0000
# 4 0.0000 0.0000 0.0000 10.0506 0.0000 0.0000
# 5 0.0000 0.0000 0.0000 0.0000 -0.4048 0.0000
# 6 0.0000 0.0000 0.0000 0.0000 0.0000 10.7522
#
#
#
# Elastic Compliance Matrix: (Units=1/GPa)
#
#
# Indices 1 2 3 4 5 6 
#
# 1 0.045915 0.001131 -0.002264 0.000000 0.000000 0.000000
# 2 0.001131 0.009216 -0.001482 0.000000 0.000000 0.000000
# 3 -0.002264 -0.001482 0.005957 0.000000 0.000000 0.000000
# 4 0.000000 0.000000 0.000000 0.099497 0.000000 0.000000
# 5 0.000000 0.000000 0.000000 0.000000 -2.470482 0.000000
# 6 0.000000 0.000000 0.000000 0.000000 0.000000 0.093004
#
#
# Mechanical properties :
#
#
# Convention : Reuss Voigt Hill
#
# Bulk Modulus (GPa) = 17.90226 42.40525 30.15376
# Shear Modulus (GPa) = -2.27993 22.67204 10.19605
#
# Velocity S-wave (km/s) = -0.94795 2.98931 2.00466
# Velocity P-wave (km/s) = 2.42030 5.35053 4.15247
#
# Compressibility (1/GPa) = 0.05585887
#
# Stress axis : x y z
#
# Youngs Moduli (GPa) = 21.77959 108.50427 167.87600
#
# Poissons Ratio (x) = -0.12270 0.38000
# Poissons Ratio (y) = -0.02463 0.24872
# Poissons Ratio (z) = 0.04930 0.16076
#
# Static dielectric constant tensor:
#      x y z
#    x 2.174190 0.000000 0.000000 
#    y 0.000000 2.215860 0.000000 
#    z 0.000000 0.000000 2.223320 
# 
# From -- ./inp_files/14153.got.cif
#   From: 2010.05.17/outbox.cif.g08.bks.cpg/sg50_8_cif.got.tgz:14153.got - 2010.06.03 11:33:33.
