data_PCOD9395568
_publ_section_title
;
Structure prediction by ZEFSAII (Michael W. Deem and Ramdas Pophale) SiO2 
 PCOD9395568
Probable space group: P B A N
;
_chemical_formula_sum "Si O2"
_cell_formula_units_Z 30
_cell_length_a 10.020726
_cell_length_b 9.666758
_cell_length_c 11.800151
_cell_angle_alpha 90.000000
_cell_angle_beta 90.000000
_cell_angle_gamma 90.000000
_cell_volume 1143.056239
_symmetry_space_group_name_H-M "P B A N"
_symmetry_group_IT_number 50
_space_group.IT_coordinate_system_code '2'
_symmetry_cell_setting 'orthorhombic'
loop_
_space_group_symop_operation_xyz
x,y,z
1/2-x,1/2-y,z
x,1/2-y,-z
1/2-x,y,-z
-x,-y,-z
1/2+x,1/2+y,-z
-x,1/2+y,z
1/2+x,-y,z
loop_
_atom_site_type_symbol
_atom_site_label
_atom_site_fract_x
_atom_site_fract_y
_atom_site_fract_z
Si Si1 0.750000 0.750000 0.000000
Si Si2 0.429522 0.382047 0.298526
Si Si3 0.305686 0.542377 0.618653
Si Si4 0.984132 0.869752 0.150990
Si Si5 0.250000 0.750000 0.176026
O O1 0.852784 0.655110 0.925842
O O2 0.285157 0.410092 0.351039
O O3 0.536101 0.442815 0.386425
O O4 0.468364 0.476913 0.187431
O O5 0.453985 0.224792 0.262169
O O6 0.250000 0.595512 0.500000
O O7 0.278431 0.629035 0.733351
O O8 0.120740 0.799408 0.109325
#
# Coordination Sequence:
#
# PCOD9395568 Si02
#       5
#     2   8   8   8   4
#     4  12  24  38  64  90 110 134 192 242 292 342
#     4  10  21  39  58  82 120 150 184 231 287 322
#     4  10  18  32  56  86 115 154 193 226 266 333
#     4  10  22  40  60  83 111 151 185 235 285 335
#     4   8  19  37  56  78 118 154 186 225 281 332
#
# _framework density 26.245429000000001
#
# number of rings (size 3 to 8) (size 9 to 14) (size 15 to 20)
#    0.000    2.133    0.000    2.800    0.000    1.600 
#    0.000    5.333    0.000    0.000    0.000    0.000 
#    0.000    0.000    0.000    0.000    0.000    0.000 
#
# Total GULP energy -167257.227341 kJ/mol
# GULP energy per Si atom -5575.240911 kJ/mol
# Density = 2.618569 g / cm^3
# Si number density = 26.245429 Si / 1000 Ang^3
#
#
#
# Elastic Constant Matrix: (Units=GPa)
#
#
# Indices 1 2 3 4 5 6 
#
# 1 192.2172 12.0838 36.5909 0.0000 0.0000 0.0000
# 2 12.0838 65.9915 0.2576 0.0000 0.0000 0.0000
# 3 36.5909 0.2576 104.0633 0.0000 0.0000 0.0000
# 4 0.0000 0.0000 0.0000 50.3500 0.0000 0.0000
# 5 0.0000 0.0000 0.0000 0.0000 28.6896 0.0000
# 6 0.0000 0.0000 0.0000 0.0000 0.0000 38.6183
#
#
#
# Elastic Compliance Matrix: (Units=1/GPa)
#
#
# Indices 1 2 3 4 5 6 
#
# 1 0.005644 -0.001026 -0.001982 0.000000 0.000000 0.000000
# 2 -0.001026 0.015340 0.000323 0.000000 0.000000 0.000000
# 3 -0.001982 0.000323 0.010306 0.000000 0.000000 0.000000
# 4 0.000000 0.000000 0.000000 0.019861 0.000000 0.000000
# 5 0.000000 0.000000 0.000000 0.000000 0.034856 0.000000
# 6 0.000000 0.000000 0.000000 0.000000 0.000000 0.025894
#
#
# Mechanical properties :
#
#
# Convention : Reuss Voigt Hill
#
# Bulk Modulus (GPa) = 38.58081 51.12628 44.85355
# Shear Modulus (GPa) = 39.71043 44.42089 42.06566
#
# Velocity S-wave (km/s) = 3.89400 4.11849 4.00782
# Velocity P-wave (km/s) = 5.91182 6.49140 6.20838
#
# Compressibility (1/GPa) = 0.02591962
#
# Stress axis : x y z
#
# Youngs Moduli (GPa) = 177.17139 65.18889 97.03386
#
# Poissons Ratio (x) = 0.06687 0.19233
# Poissons Ratio (y) = 0.18174 -0.03131
# Poissons Ratio (z) = 0.35117 -0.02104
#
# Static dielectric constant tensor:
#      x y z
#    x 2.180970 0.000000 0.000000 
#    y 0.000000 2.082270 0.000000 
#    z 0.000000 0.000000 2.053790 
# 
# From -- ./inp_files/19706.got.cif
#   From: 2010.05.17/outbox.cif.g08.bks.cpg/sg50_10_cif.got.tgz:19706.got - 2010.06.03 11:33:33.
