data_PCOD9395396
_publ_section_title
;
Structure prediction by ZEFSAII (Michael W. Deem and Ramdas Pophale) SiO2 
 PCOD9395396
Probable space group: P B A N
;
_chemical_formula_sum "Si O2"
_cell_formula_units_Z 44
_cell_length_a 17.219744
_cell_length_b 4.998356
_cell_length_c 27.341196
_cell_angle_alpha 90.000000
_cell_angle_beta 90.000000
_cell_angle_gamma 90.000000
_cell_volume 2353.267970
_symmetry_space_group_name_H-M "P B A N"
_symmetry_group_IT_number 50
_space_group.IT_coordinate_system_code '2'
_symmetry_cell_setting 'orthorhombic'
loop_
_space_group_symop_operation_xyz
x,y,z
1/2-x,1/2-y,z
x,1/2-y,-z
1/2-x,y,-z
-x,-y,-z
1/2+x,1/2+y,-z
-x,1/2+y,z
1/2+x,-y,z
loop_
_atom_site_type_symbol
_atom_site_label
_atom_site_fract_x
_atom_site_fract_y
_atom_site_fract_z
Si Si1 0.445527 0.067201 0.661488
Si Si2 0.250000 0.750000 0.000000
Si Si3 0.250000 0.250000 0.500000
Si Si4 0.556600 0.250000 0.500000
Si Si5 0.669886 0.113899 0.420586
Si Si6 0.197919 0.016542 0.160058
Si Si7 0.053173 0.561142 0.771071
Si Si8 0.250000 0.250000 0.933497
O O1 0.516842 0.858362 0.655479
O O2 0.377828 0.017905 0.622895
O O3 0.416355 0.005152 0.716491
O O4 0.217883 0.512400 0.036963
O O5 0.197358 0.417921 0.536449
O O6 0.500000 0.500000 0.500000
O O7 0.609250 0.289796 0.451543
O O8 0.750000 0.250000 0.403496
O O9 0.250000 0.250000 0.184180
O O10 0.187495 0.125349 0.104396
O O11 0.250000 0.750000 0.158629
O O12 0.119118 0.980579 0.189019
O O13 0.981003 0.357759 0.775843
#
# Coordination Sequence:
#
# PCOD9395396 Si02
#       8
#     8   2   2   4   8   8   8   4
#     4  10  24  44  63  88 116 153 197 232 289 362
#     4  10  16  30  52  82 128 158 200 258 310 324
#     4  12  24  44  58  88 122 138 190 230 298 352
#     4  12  24  40  63  85 110 148 188 230 286 344
#     4  12  25  42  62  87 118 148 188 244 291 355
#     4  10  19  34  55  88 125 150 206 254 294 352
#     4  10  21  39  61  87 121 159 196 242 299 365
#     4   9  18  30  51  88 119 158 204 255 298 348
#
# _framework density 18.697402
#
# number of rings (size 3 to 8) (size 9 to 14) (size 15 to 20)
#    0.545    0.909    2.727    2.727    2.545    0.727 
#    1.636    0.000    0.000    0.000    0.000   12.727 
#    0.000    0.000    0.000    0.000    0.000    0.000 
#
# Total GULP energy -244964.357811 kJ/mol
# GULP energy per Si atom -5567.371768 kJ/mol
# Density = 1.865485 g / cm^3
# Si number density = 18.697402 Si / 1000 Ang^3
#
#
#
# Elastic Constant Matrix: (Units=GPa)
#
#
# Indices 1 2 3 4 5 6 
#
# 1 58.2987 8.7300 44.8000 0.0000 0.0000 0.0000
# 2 8.7300 87.7580 17.6808 0.0000 0.0000 0.0000
# 3 44.8000 17.6808 113.8577 0.0000 0.0000 0.0000
# 4 0.0000 0.0000 0.0000 12.2347 0.0000 0.0000
# 5 0.0000 0.0000 0.0000 0.0000 -3.2431 0.0000
# 6 0.0000 0.0000 0.0000 0.0000 0.0000 14.1802
#
#
#
# Elastic Compliance Matrix: (Units=1/GPa)
#
#
# Indices 1 2 3 4 5 6 
#
# 1 0.024610 -0.000513 -0.009604 0.000000 0.000000 0.000000
# 2 -0.000513 0.011774 -0.001626 0.000000 0.000000 0.000000
# 3 -0.009604 -0.001626 0.012814 0.000000 0.000000 0.000000
# 4 0.000000 0.000000 0.000000 0.081735 0.000000 0.000000
# 5 0.000000 0.000000 0.000000 0.000000 -0.308348 0.000000
# 6 0.000000 0.000000 0.000000 0.000000 0.000000 0.070521
#
#
# Mechanical properties :
#
#
# Convention : Reuss Voigt Hill
#
# Bulk Modulus (GPa) = 38.89347 44.70400 41.79874
# Shear Modulus (GPa) = -66.81163 17.21459 -24.79852
#
# Velocity S-wave (km/s) = -5.98420 3.03759 -3.64580
# Velocity P-wave (km/s) = 5.18661 6.02193 2.16366
#
# Compressibility (1/GPa) = 0.02571125
#
# Stress axis : x y z
#
# Youngs Moduli (GPa) = 40.63410 84.93507 78.03821
#
# Poissons Ratio (x) = 0.04360 0.74945
# Poissons Ratio (y) = 0.02086 0.12692
# Poissons Ratio (z) = 0.39024 0.13814
#
# Static dielectric constant tensor:
#      x y z
#    x 1.640800 0.000000 0.000000 
#    y 0.000000 1.675780 0.000000 
#    z 0.000000 0.000000 1.686890 
# 
# From -- ./inp_files/32486.got.cif
#   From: 2010.05.17/outbox.cif.g08.bks.cpg/sg50_17_cif.got.tgz:32486.got - 2010.06.03 11:33:33.
