data_PCOD9395431
_publ_section_title
;
Structure prediction by ZEFSAII (Michael W. Deem and Ramdas Pophale) SiO2 
 PCOD9395431
Probable space group: P B A N
;
_chemical_formula_sum "Si O2"
_cell_formula_units_Z 32
_cell_length_a 14.405589
_cell_length_b 5.315913
_cell_length_c 18.053406
_cell_angle_alpha 90.000000
_cell_angle_beta 90.000000
_cell_angle_gamma 90.000000
_cell_volume 1382.509212
_symmetry_space_group_name_H-M "P B A N"
_symmetry_group_IT_number 50
_space_group.IT_coordinate_system_code '2'
_symmetry_cell_setting 'orthorhombic'
loop_
_space_group_symop_operation_xyz
x,y,z
1/2-x,1/2-y,z
x,1/2-y,-z
1/2-x,y,-z
-x,-y,-z
1/2+x,1/2+y,-z
-x,1/2+y,z
1/2+x,-y,z
loop_
_atom_site_type_symbol
_atom_site_label
_atom_site_fract_x
_atom_site_fract_y
_atom_site_fract_z
Si Si1 0.360082 0.216822 0.265169
Si Si2 0.857838 0.293103 0.199004
Si Si3 0.855865 0.493324 0.032684
Si Si4 0.937586 0.838040 0.425131
O O1 0.250000 0.250000 0.251328
O O2 0.401475 0.494408 0.250807
O O3 0.378520 0.160438 0.350446
O O4 0.394952 0.990280 0.211322
O O5 0.750000 0.250000 0.218766
O O6 0.856107 0.432551 0.119426
O O7 0.894213 0.750000 0.000000
O O8 0.750000 0.493814 0.000000
O O9 0.903964 0.250000 0.000000
O O10 0.884326 0.750000 0.500000
O O11 0.015131 0.614152 0.425185
#
# Coordination Sequence:
#
# PCOD9395431 Si02
#       4
#     8   8   8   8
#     4  10  21  33  53  80 115 148 172 229 282 338
#     4  10  18  30  44  72 113 150 173 216 282 329
#     4  10  17  24  41  64 100 151 177 214 257 331
#     4  10  21  39  61  82 107 143 190 233 269 327
#
# _framework density 23.146318999999998
#
# number of rings (size 3 to 8) (size 9 to 14) (size 15 to 20)
#    0.000    2.000    2.500    3.000    7.000    0.500 
#    0.000    0.000    0.000    9.000    0.000    0.000 
#    0.000   70.000    0.000    0.000    0.000    0.000 
#
# Total GULP energy -178205.852925 kJ/mol
# GULP energy per Si atom -5568.932904 kJ/mol
# Density = 2.309364 g / cm^3
# Si number density = 23.146319 Si / 1000 Ang^3
#
#
#
# Elastic Constant Matrix: (Units=GPa)
#
#
# Indices 1 2 3 4 5 6 
#
# 1 69.6659 11.0923 -5.6966 0.0000 0.0000 0.0000
# 2 11.0923 239.4153 50.4097 0.0000 0.0000 0.0000
# 3 -5.6966 50.4097 109.6035 0.0000 0.0000 0.0000
# 4 0.0000 0.0000 0.0000 42.1944 0.0000 0.0000
# 5 0.0000 0.0000 0.0000 0.0000********** 0.0000
# 6 0.0000 0.0000 0.0000 0.0000 0.0000 -10.7824
#
#
#
# Elastic Compliance Matrix: (Units=1/GPa)
#
#
# Indices 1 2 3 4 5 6 
#
# 1 0.014598 -0.000926 0.001185 0.000000 0.000000 0.000000
# 2 -0.000926 0.004683 -0.002202 0.000000 0.000000 0.000000
# 3 0.001185 -0.002202 0.010198 0.000000 0.000000 0.000000
# 4 0.000000 0.000000 0.000000 0.023700 0.000000 0.000000
# 5 0.000000 0.000000 0.000000 0.000000 0.000005 0.000000
# 6 0.000000 0.000000 0.000000 0.000000 0.000000 -0.092744
#
#
# Mechanical properties :
#
#
# Convention : Reuss Voigt Hill
#
# Bulk Modulus (GPa) = 39.07271 58.92175 48.99723
# Shear Modulus (GPa) = -184.22385 37286.08327 18550.92971
#
# Velocity S-wave (km/s) = -8.93106 127.05838 89.62162
# Velocity P-wave (km/s) = 9.45697 146.80130 103.58858
#
# Compressibility (1/GPa) = 0.02559331
#
# Stress axis : x y z
#
# Youngs Moduli (GPa) = 68.50028 213.52000 98.05668
#
# Poissons Ratio (x) = 0.19767 -0.11615
# Poissons Ratio (y) = 0.06342 0.21593
# Poissons Ratio (z) = -0.08114 0.47020
#
# Static dielectric constant tensor:
#      x y z
#    x 1.833320 0.000000 0.000000 
#    y 0.000000 1.935880 0.000000 
#    z 0.000000 0.000000 2.023160 
# 
# From -- ./inp_files/23664.got.cif
#   From: 2010.05.17/outbox.cif.g08.bks.cpg/sg50_12_cif.got.tgz:23664.got - 2010.06.03 11:33:33.
