data_PCOD9395736
_publ_section_title
;
Structure prediction by ZEFSAII (Michael W. Deem and Ramdas Pophale) SiO2 
 PCOD9395736
Probable space group: P B A N
;
_chemical_formula_sum "Si O2"
_cell_formula_units_Z 64
_cell_length_a 26.070861
_cell_length_b 7.634635
_cell_length_c 19.458390
_cell_angle_alpha 90.000000
_cell_angle_beta 90.000000
_cell_angle_gamma 90.000000
_cell_volume 3873.027286
_symmetry_space_group_name_H-M "P B A N"
_symmetry_group_IT_number 50
_space_group.IT_coordinate_system_code '2'
_symmetry_cell_setting 'orthorhombic'
loop_
_space_group_symop_operation_xyz
x,y,z
1/2-x,1/2-y,z
x,1/2-y,-z
1/2-x,y,-z
-x,-y,-z
1/2+x,1/2+y,-z
-x,1/2+y,z
1/2+x,-y,z
loop_
_atom_site_type_symbol
_atom_site_label
_atom_site_fract_x
_atom_site_fract_y
_atom_site_fract_z
Si Si1 0.655993 0.456991 0.165390
Si Si2 0.553093 0.056302 0.082459
Si Si3 0.188304 0.545165 0.685411
Si Si4 0.353706 0.541138 0.168593
Si Si5 0.687712 0.748925 0.578313
Si Si6 0.755525 0.541283 0.077971
Si Si7 0.811794 0.042164 0.314073
Si Si8 0.062864 0.524266 0.073100
O O1 0.644937 0.251424 0.174054
O O2 0.709328 0.471604 0.124683
O O3 0.663438 0.523919 0.242804
O O4 0.610414 0.536940 0.119383
O O5 0.591757 0.982195 0.139007
O O6 0.563042 0.263967 0.075507
O O7 0.493250 0.032688 0.098111
O O8 0.565368 0.974549 0.007500
O O9 0.162513 0.479414 0.755951
O O10 0.173191 0.423468 0.621612
O O11 0.176878 0.751561 0.674766
O O12 0.249970 0.530092 0.694705
O O13 0.309529 0.499975 0.113330
O O14 0.750000 0.750000 0.575679
O O15 0.668966 0.750000 0.500000
O O16 0.672923 0.919518 0.622558
O O17 0.750000 0.750000 0.076019
O O18 0.750000 0.473905 0.000000
#
# Coordination Sequence:
#
# PCOD9395736 Si02
#       8
#     8   8   8   8   8   8   8   8
#     4  10  19  32  49  66  89 127 163 197 243 290
#     4   9  18  32  48  65  88 122 162 204 247 287
#     4   9  17  29  46  69  95 126 160 193 236 285
#     4  10  19  32  49  66  89 127 163 197 243 290
#     4   9  18  30  46  68  96 132 160 186 230 285
#     4  11  23  31  41  67  95 122 161 204 242 284
#     4   9  17  29  46  69  95 126 160 193 236 285
#     4   9  18  32  48  65  88 122 162 204 247 287
#
# _framework density 16.524542
#
# number of rings (size 3 to 8) (size 9 to 14) (size 15 to 20)
#    0.000    2.500    1.250    1.125    1.750    3.500 
#    0.000    5.000    0.000    0.000    0.000    0.000 
#    0.000    1.000    0.500    0.000    0.000    0.000 
#
# Total GULP energy -356844.077757 kJ/mol
# GULP energy per Si atom -5575.688715 kJ/mol
# Density = 1.648693 g / cm^3
# Si number density = 16.524542 Si / 1000 Ang^3
#
#
#
# Elastic Constant Matrix: (Units=GPa)
#
#
# Indices 1 2 3 4 5 6 
#
# 1 43.8239 -2.7717 19.2214 0.0000 0.0000 0.0000
# 2 -2.7717 39.3554 19.8827 0.0000 0.0000 0.0000
# 3 19.2214 19.8827 109.8557 0.0000 0.0000 0.0000
# 4 0.0000 0.0000 0.0000 29.5298 0.0000 0.0000
# 5 0.0000 0.0000 0.0000 0.0000 18.1751 0.0000
# 6 0.0000 0.0000 0.0000 0.0000 0.0000 14.3466
#
#
#
# Elastic Compliance Matrix: (Units=1/GPa)
#
#
# Indices 1 2 3 4 5 6 
#
# 1 0.025401 0.004440 -0.005248 0.000000 0.000000 0.000000
# 2 0.004440 0.028743 -0.005979 0.000000 0.000000 0.000000
# 3 -0.005248 -0.005979 0.011103 0.000000 0.000000 0.000000
# 4 0.000000 0.000000 0.000000 0.033864 0.000000 0.000000
# 5 0.000000 0.000000 0.000000 0.000000 0.055020 0.000000
# 6 0.000000 0.000000 0.000000 0.000000 0.000000 0.069703
#
#
# Mechanical properties :
#
#
# Convention : Reuss Voigt Hill
#
# Bulk Modulus (GPa) = 19.35220 29.52219 24.43719
# Shear Modulus (GPa) = 19.63610 22.85714 21.24662
#
# Velocity S-wave (km/s) = 3.45091 3.72321 3.58964
# Velocity P-wave (km/s) = 5.25500 6.03220 5.65696
#
# Compressibility (1/GPa) = 0.05167372
#
# Stress axis : x y z
#
# Youngs Moduli (GPa) = 39.36808 34.79129 90.06376
#
# Poissons Ratio (x) = -0.15448 0.47266
# Poissons Ratio (y) = -0.17481 0.53850
# Poissons Ratio (z) = 0.20661 0.20802
#
# Static dielectric constant tensor:
#      x y z
#    x 1.514120 0.000000 0.000000 
#    y 0.000000 1.595940 0.000000 
#    z 0.000000 0.000000 1.541390 
# 
# From -- ./inp_files/29970.got.cif
#   From: 2010.05.17/outbox.cif.g08.bks.cpg/sg50_15_cif.got.tgz:29970.got - 2010.06.03 11:33:33.
