data_PCOD9395928
_publ_section_title
;
Structure prediction by ZEFSAII (Michael W. Deem and Ramdas Pophale) SiO2 
 PCOD9395928
Probable space group: P B A N
;
_chemical_formula_sum "Si O2"
_cell_formula_units_Z 56
_cell_length_a 15.353249
_cell_length_b 21.748907
_cell_length_c 8.678980
_cell_angle_alpha 90.000000
_cell_angle_beta 90.000000
_cell_angle_gamma 90.000000
_cell_volume 2898.053624
_symmetry_space_group_name_H-M "P B A N"
_symmetry_group_IT_number 50
_space_group.IT_coordinate_system_code '2'
_symmetry_cell_setting 'orthorhombic'
loop_
_space_group_symop_operation_xyz
x,y,z
1/2-x,1/2-y,z
x,1/2-y,-z
1/2-x,y,-z
-x,-y,-z
1/2+x,1/2+y,-z
-x,1/2+y,z
1/2+x,-y,z
loop_
_atom_site_type_symbol
_atom_site_label
_atom_site_fract_x
_atom_site_fract_y
_atom_site_fract_z
Si Si1 0.832289 0.626131 0.108773
Si Si2 0.406025 0.890686 0.704523
Si Si3 0.117735 0.282069 0.659465
Si Si4 0.468794 0.303735 0.898410
Si Si5 0.455491 0.479063 0.160328
Si Si6 0.549781 0.370732 0.347827
Si Si7 0.235098 0.819839 0.686323
O O1 0.819538 0.667640 0.261436
O O2 0.864973 0.557788 0.140935
O O3 0.750000 0.628542 0.000000
O O4 0.914021 0.655296 0.016698
O O5 0.466288 0.843360 0.798085
O O6 0.425333 0.885928 0.523174
O O7 0.307701 0.868664 0.739291
O O8 0.432765 0.958712 0.752193
O O9 0.142484 0.250000 0.500000
O O10 0.098956 0.229397 0.784264
O O11 0.026932 0.319956 0.642319
O O12 0.512203 0.250000 0.000000
O O13 0.515846 0.430499 0.254906
O O14 0.500000 0.500000 0.000000
O O15 0.637597 0.341917 0.277442
O O16 0.250000 0.750000 0.742370
O O17 0.250000 0.817376 0.500000
#
# Coordination Sequence:
#
# PCOD9395928 Si02
#       7
#     8   8   8   8   8   8   8
#     4  10  23  42  60  84 123 164 204 263 319 363
#     4  11  20  38  62  88 124 166 210 253 306 380
#     4  10  19  35  66  92 116 159 202 250 314 390
#     4  10  20  35  61  88 122 161 199 249 318 375
#     4  11  23  40  63  83 117 169 220 251 310 378
#     4  10  21  37  62  92 124 158 210 260 309 373
#     4   9  19  34  60  96 127 157 189 254 322 373
#
# _framework density 19.323312000000001
#
# number of rings (size 3 to 8) (size 9 to 14) (size 15 to 20)
#    0.000    1.857    2.857    1.286    2.000    3.714 
#    0.000    1.429    0.000    0.000    0.000    0.000 
#    0.000    0.000    0.000    0.000    0.000    0.000 
#
# Total GULP energy -312571.830441 kJ/mol
# GULP energy per Si atom -5581.639829 kJ/mol
# Density = 1.927933 g / cm^3
# Si number density = 19.323312 Si / 1000 Ang^3
#
#
#
# Elastic Constant Matrix: (Units=GPa)
#
#
# Indices 1 2 3 4 5 6 
#
# 1 97.1478 39.9943 18.7281 0.0000 0.0000 0.0000
# 2 39.9943 111.4172 35.4826 0.0000 0.0000 0.0000
# 3 18.7281 35.4826 86.9723 0.0000 0.0000 0.0000
# 4 0.0000 0.0000 0.0000 35.1204 0.0000 0.0000
# 5 0.0000 0.0000 0.0000 0.0000 22.9352 0.0000
# 6 0.0000 0.0000 0.0000 0.0000 0.0000 12.1754
#
#
#
# Elastic Compliance Matrix: (Units=1/GPa)
#
#
# Indices 1 2 3 4 5 6 
#
# 1 0.012148 -0.004054 -0.000962 0.000000 0.000000 0.000000
# 2 -0.004054 0.011669 -0.003887 0.000000 0.000000 0.000000
# 3 -0.000962 -0.003887 0.013291 0.000000 0.000000 0.000000
# 4 0.000000 0.000000 0.000000 0.028473 0.000000 0.000000
# 5 0.000000 0.000000 0.000000 0.000000 0.043601 0.000000
# 6 0.000000 0.000000 0.000000 0.000000 0.000000 0.082133
#
#
# Mechanical properties :
#
#
# Convention : Reuss Voigt Hill
#
# Bulk Modulus (GPa) = 51.81226 53.77192 52.79209
# Shear Modulus (GPa) = 23.19579 27.46835 25.33207
#
# Velocity S-wave (km/s) = 3.46844 3.77439 3.62464
# Velocity P-wave (km/s) = 6.55070 6.84708 6.70053
#
# Compressibility (1/GPa) = 0.01930045
#
# Stress axis : x y z
#
# Youngs Moduli (GPa) = 82.31715 85.69954 75.23871
#
# Poissons Ratio (x) = 0.34746 0.07237
# Poissons Ratio (y) = 0.33375 0.29249
# Poissons Ratio (z) = 0.07917 0.33316
#
# Static dielectric constant tensor:
#      x y z
#    x 1.676480 0.000000 0.000000 
#    y 0.000000 1.674670 0.000000 
#    z 0.000000 0.000000 1.702910 
# 
# From -- ./inp_files/13297.got.cif
#   From: 2010.05.17/outbox.cif.g08.bks.cpg/sg50_7_cif.got.tgz:13297.got - 2010.06.03 11:33:33.
