data_PCOD9395612
_publ_section_title
;
Structure prediction by ZEFSAII (Michael W. Deem and Ramdas Pophale) SiO2 
 PCOD9395612
Probable space group: P B A N
;
_chemical_formula_sum "Si O2"
_cell_formula_units_Z 56
_cell_length_a 22.119727
_cell_length_b 7.999289
_cell_length_c 13.159493
_cell_angle_alpha 90.000000
_cell_angle_beta 90.000000
_cell_angle_gamma 90.000000
_cell_volume 2328.468180
_symmetry_space_group_name_H-M "P B A N"
_symmetry_group_IT_number 50
_space_group.IT_coordinate_system_code '2'
_symmetry_cell_setting 'orthorhombic'
loop_
_space_group_symop_operation_xyz
x,y,z
1/2-x,1/2-y,z
x,1/2-y,-z
1/2-x,y,-z
-x,-y,-z
1/2+x,1/2+y,-z
-x,1/2+y,z
1/2+x,-y,z
loop_
_atom_site_type_symbol
_atom_site_label
_atom_site_fract_x
_atom_site_fract_y
_atom_site_fract_z
Si Si1 0.028509 0.412343 0.803115
Si Si2 0.883327 0.867921 0.377817
Si Si3 0.718412 0.564213 0.095208
Si Si4 0.124450 0.516102 0.647364
Si Si5 0.087098 0.383399 0.136457
Si Si6 0.461035 0.686537 0.599552
Si Si7 0.259625 0.451828 0.678811
O O1 0.085847 0.506762 0.753122
O O2 0.058543 0.294957 0.885967
O O3 0.970836 0.498820 0.852985
O O4 0.999668 0.316023 0.703760
O O5 0.883658 0.669414 0.403658
O O6 0.888318 0.863908 0.253510
O O7 0.818175 0.958517 0.393634
O O8 0.934198 0.001094 0.408279
O O9 0.750000 0.750000 0.101637
O O10 0.646785 0.573099 0.075723
O O11 0.727391 0.487690 0.206435
O O12 0.750000 0.478370 0.000000
O O13 0.092192 0.677098 0.602147
O O14 0.196166 0.534239 0.651147
O O15 0.495758 0.750000 0.500000
O O16 0.250000 0.250000 0.682807
#
# Coordination Sequence:
#
# PCOD9395612 Si02
#       7
#     8   8   8   8   8   8   8
#     4  10  18  35  52  81 112 148 198 227 280 351
#     4   8  18  35  53  79 109 142 199 244 277 348
#     4   9  16  29  55  90 115 140 187 238 283 331
#     4  10  19  35  55  75 107 153 194 239 286 340
#     4   9  17  31  55  81 113 146 191 235 268 349
#     4  11  23  35  51  82 112 149 194 243 301 341
#     4   8  15  32  57  79 104 144 194 235 281 345
#
# _framework density 24.050145000000001
#
# number of rings (size 3 to 8) (size 9 to 14) (size 15 to 20)
#    0.000    2.714    1.429    2.571    0.000    1.714 
#    0.000    1.429    0.000   10.286    0.000   18.000 
#    0.000    0.000    0.000    0.000    0.000    0.000 
#
# Total GULP energy -312179.419845 kJ/mol
# GULP energy per Si atom -5574.632497 kJ/mol
# Density = 2.399541 g / cm^3
# Si number density = 24.050145 Si / 1000 Ang^3
#
#
#
# Elastic Constant Matrix: (Units=GPa)
#
#
# Indices 1 2 3 4 5 6 
#
# 1 187.5385 40.4829 20.4381 0.0000 0.0000 0.0000
# 2 40.4829 63.9400 25.1972 0.0000 0.0000 0.0000
# 3 20.4381 25.1972 50.5839 0.0000 0.0000 0.0000
# 4 0.0000 0.0000 0.0000 6.3020 0.0000 0.0000
# 5 0.0000 0.0000 0.0000 0.0000 20.6385 0.0000
# 6 0.0000 0.0000 0.0000 0.0000 0.0000 33.8938
#
#
#
# Elastic Compliance Matrix: (Units=1/GPa)
#
#
# Indices 1 2 3 4 5 6 
#
# 1 0.006195 -0.003653 -0.000683 0.000000 0.000000 0.000000
# 2 -0.003653 0.021614 -0.009290 0.000000 0.000000 0.000000
# 3 -0.000683 -0.009290 0.024673 0.000000 0.000000 0.000000
# 4 0.000000 0.000000 0.000000 0.158679 0.000000 0.000000
# 5 0.000000 0.000000 0.000000 0.000000 0.048453 0.000000
# 6 0.000000 0.000000 0.000000 0.000000 0.000000 0.029504
#
#
# Mechanical properties :
#
#
# Convention : Reuss Voigt Hill
#
# Bulk Modulus (GPa) = 39.63821 52.69988 46.16905
# Shear Modulus (GPa) = 15.39497 26.56315 20.97906
#
# Velocity S-wave (km/s) = 2.53280 3.32699 2.95668
# Velocity P-wave (km/s) = 5.00707 6.05959 5.55830
#
# Compressibility (1/GPa) = 0.02522818
#
# Stress axis : x y z
#
# Youngs Moduli (GPa) = 161.41239 46.26688 40.53002
#
# Poissons Ratio (x) = 0.16902 0.02770
# Poissons Ratio (y) = 0.58967 0.37654
# Poissons Ratio (z) = 0.11031 0.42984
#
# Static dielectric constant tensor:
#      x y z
#    x 1.958980 0.000000 0.000000 
#    y 0.000000 1.933660 0.000000 
#    z 0.000000 0.000000 2.031460 
# 
# From -- ./inp_files/27224.got.cif
#   From: 2010.05.17/outbox.cif.g08.bks.cpg/sg50_14_cif.got.tgz:27224.got - 2010.06.03 11:33:33.
