data_PCOD9395225
_publ_section_title
;
Structure prediction by ZEFSAII (Michael W. Deem and Ramdas Pophale) SiO2 
 PCOD9395225
Probable space group: P C C M
;
_chemical_formula_sum "Si O2"
_cell_formula_units_Z 64
_cell_length_a 15.000000
_cell_length_b 30.000000
_cell_length_c 9.000000
_cell_angle_alpha 90.000000
_cell_angle_beta 90.000000
_cell_angle_gamma 90.000000
_cell_volume 4050.000000
_symmetry_space_group_name_H-M "P C C M"
_symmetry_group_IT_number 49
_symmetry_cell_setting 'orthorhombic'
loop_
_space_group_symop_operation_xyz
x,y,z
-x,-y,z
x,-y,1/2-z
-x,y,1/2-z
-x,-y,-z
x,y,-z
-x,y,1/2+z
x,-y,1/2+z
loop_
_atom_site_type_symbol
_atom_site_label
_atom_site_fract_x
_atom_site_fract_y
_atom_site_fract_z
Si Si1 0.231663 0.047063 0.820779
Si Si2 0.401140 0.544782 0.678733
Si Si3 0.403600 0.193875 0.677031
Si Si4 0.596613 0.910778 0.322343
Si Si5 0.903648 0.229276 0.321168
Si Si6 0.903942 0.873467 0.178537
Si Si7 0.281765 0.730727 0.320318
Si Si8 0.401340 0.354364 0.178670
O O1 0.328091 0.059667 0.754817
O O2 0.166232 0.088203 0.779773
O O3 0.202579 0.000000 0.750000
O O4 0.234914 0.043714 0.000000
O O5 0.358217 0.500000 0.750000
O O6 0.500000 0.546097 0.750000
O O7 0.405429 0.539534 0.500000
O O8 0.366766 0.595087 0.711597
O O9 0.500000 0.202006 0.750000
O O10 0.408253 0.200708 0.500000
O O11 0.381487 0.141748 0.703755
O O12 0.335130 0.228024 0.750042
O O13 0.500000 0.919017 0.250000
O O14 0.593872 0.918090 0.500000
O O15 0.912664 0.230777 0.500000
O O16 0.879100 0.177720 0.280304
O O17 0.822137 0.261910 0.278588
O O18 0.000000 0.239159 0.250000
O O19 0.000000 0.882549 0.250000
O O20 0.911786 0.874401 0.000000
O O21 0.286407 0.733743 0.500000
O O22 0.332214 0.684743 0.277057
O O23 0.500000 0.348195 0.250000
O O24 0.412525 0.351994 0.000000
#
# Coordination Sequence:
#
# PCOD9395225 Si02
#       8
#     8   8   8   8   8   8   8   8
#     4  11  23  38  55  76 100 124 152 186 227 273
#     4   9  15  24  38  56  80 114 157 198 235 272
#     4  10  20  32  48  71  97 125 157 191 226 268
#     4  10  21  37  55  74  96 124 158 194 229 266
#     4   9  18  33  52  72  93 119 152 188 227 272
#     4   9  19  35  55  76  97 122 150 183 223 270
#     4  10  19  31  47  67  95 128 158 191 233 278
#     4   9  18  29  41  61  91 126 161 196 233 275
#
# _framework density 15.802469
#
# number of rings (size 3 to 8) (size 9 to 14) (size 15 to 20)
#    0.000    2.375    0.000    3.000    0.000    6.500 
#    0.000    5.000    0.000    0.000    0.000    0.000 
#    0.000    0.500    0.000    6.250    0.000    0.000 
#
# Total GULP energy -356828.209019 kJ/mol
# GULP energy per Si atom -5575.440766 kJ/mol
# Density = 1.576650 g / cm^3
# Si number density = 15.802469 Si / 1000 Ang^3
#
#
#
# Elastic Constant Matrix: (Units=GPa)
#
#
# Indices 1 2 3 4 5 6 
#
# 1 84.5513 62.4801 23.2784 0.0000 0.0000 0.0000
# 2 62.4801 95.2483 32.1529 0.0000 0.0000 0.0000
# 3 23.2784 32.1529 38.5894 0.0000 0.0000 0.0000
# 4 0.0000 0.0000 0.0000 -35.2730 0.0000 0.0000
# 5 0.0000 0.0000 0.0000 0.0000 25.2506 0.0000
# 6 0.0000 0.0000 0.0000 0.0000 0.0000 19.5198
#
#
#
# Elastic Compliance Matrix: (Units=1/GPa)
#
#
# Indices 1 2 3 4 5 6 
#
# 1 0.023045 -0.014503 -0.001817 0.000000 0.000000 0.000000
# 2 -0.014503 0.023735 -0.011027 0.000000 0.000000 0.000000
# 3 -0.001817 -0.011027 0.036198 0.000000 0.000000 0.000000
# 4 0.000000 0.000000 0.000000 -0.028350 0.000000 0.000000
# 5 0.000000 0.000000 0.000000 0.000000 0.039603 0.000000
# 6 0.000000 0.000000 0.000000 0.000000 0.000000 0.051230
#
#
# Mechanical properties :
#
#
# Convention : Reuss Voigt Hill
#
# Bulk Modulus (GPa) = 35.35775 50.46796 42.91285
# Shear Modulus (GPa) = 23.85683 8.59799 16.22741
#
# Velocity S-wave (km/s) = 3.88969 2.33511 3.20799
# Velocity P-wave (km/s) = 6.52658 6.26709 6.39815
#
# Compressibility (1/GPa) = 0.02828235
#
# Stress axis : x y z
#
# Youngs Moduli (GPa) = 43.39375 42.13175 27.62585
#
# Poissons Ratio (x) = 0.61105 0.05020
# Poissons Ratio (y) = 0.62935 0.30464
# Poissons Ratio (z) = 0.07885 0.46460
#
# Static dielectric constant tensor:
#      x y z
#    x 1.507430 0.000000 0.000000 
#    y 0.000000 1.557690 0.000000 
#    z 0.000000 0.000000 1.527930 
# 
# From -- ./inp_files/4545.got.cif
#   From: 2010.05.17/outbox.ucp.g08.bks.cvg/sg49_3_cif.got.tgz:4545.got - 2010.06.11 16:40:14.
