data_PCOD9395420
_publ_section_title
;
Structure prediction by ZEFSAII (Michael W. Deem and Ramdas Pophale) SiO2 
 PCOD9395420
Probable space group: P B A N
;
_chemical_formula_sum "Si O2"
_cell_formula_units_Z 38
_cell_length_a 9.850564
_cell_length_b 19.493660
_cell_length_c 7.233393
_cell_angle_alpha 90.000000
_cell_angle_beta 90.000000
_cell_angle_gamma 90.000000
_cell_volume 1388.981769
_symmetry_space_group_name_H-M "P B A N"
_symmetry_group_IT_number 50
_space_group.IT_coordinate_system_code '2'
_symmetry_cell_setting 'orthorhombic'
loop_
_space_group_symop_operation_xyz
x,y,z
1/2-x,1/2-y,z
x,1/2-y,-z
1/2-x,y,-z
-x,-y,-z
1/2+x,1/2+y,-z
-x,1/2+y,z
1/2+x,-y,z
loop_
_atom_site_type_symbol
_atom_site_label
_atom_site_fract_x
_atom_site_fract_y
_atom_site_fract_z
Si Si1 0.046877 0.826703 0.092063
Si Si2 0.735137 0.831424 0.719963
Si Si3 0.831106 0.135971 0.268628
Si Si4 0.750000 0.250000 0.500000
Si Si5 0.250000 0.981916 0.500000
Si Si6 0.379409 0.461269 0.123662
O O1 0.086484 0.871211 0.915143
O O2 0.915750 0.846810 0.206981
O O3 0.044437 0.750000 0.000000
O O4 0.176985 0.843346 0.217371
O O5 0.750000 0.750000 0.756034
O O6 0.750000 0.842904 0.500000
O O7 0.838853 0.879630 0.831208
O O8 0.843537 0.987189 0.664991
O O9 0.857480 0.202815 0.389096
O O10 0.847659 0.068898 0.386830
O O11 0.250000 0.482826 0.000000
O O12 0.500000 0.500000 0.000000
#
# Coordination Sequence:
#
# PCOD9395420 Si02
#       6
#     8   8   8   2   4   8
#     4  11  23  45  85 125 185 238 311 390 473 574
#     4  11  29  58  88 131 184 251 314 400 486 577
#     4  10  22  43  81 134 178 240 297 388 474 559
#     4  10  16  38  64 124 180 238 294 376 466 552
#     4  11  28  53  85 128 185 236 320 378 475 590
#     4  12  32  59  94 133 185 254 322 402 487 587
#
# _framework density 27.358169
#
# number of rings (size 3 to 8) (size 9 to 14) (size 15 to 20)
#    0.000    1.053    3.158    0.632    8.842    4.211 
#    0.000    0.000    0.000    0.000    0.000    0.000 
#    0.000    0.000    0.000    0.000    0.000    0.000 
#
# Total GULP energy -212029.248417 kJ/mol
# GULP energy per Si atom -5579.717064 kJ/mol
# Density = 2.729590 g / cm^3
# Si number density = 27.358169 Si / 1000 Ang^3
#
#
#
# Elastic Constant Matrix: (Units=GPa)
#
#
# Indices 1 2 3 4 5 6 
#
# 1 169.4884 46.8302 84.2817 0.0000 0.0000 0.0000
# 2 46.8302 173.7007 77.6724 0.0000 0.0000 0.0000
# 3 84.2817 77.6724 231.3925 0.0000 0.0000 0.0000
# 4 0.0000 0.0000 0.0000 40.1116 0.0000 0.0000
# 5 0.0000 0.0000 0.0000 0.0000 3935.0730 0.0000
# 6 0.0000 0.0000 0.0000 0.0000 0.0000 142.7446
#
#
#
# Elastic Compliance Matrix: (Units=1/GPa)
#
#
# Indices 1 2 3 4 5 6 
#
# 1 0.007328 -0.000920 -0.002360 0.000000 0.000000 0.000000
# 2 -0.000920 0.006889 -0.001977 0.000000 0.000000 0.000000
# 3 -0.002360 -0.001977 0.005845 0.000000 0.000000 0.000000
# 4 0.000000 0.000000 0.000000 0.024930 0.000000 0.000000
# 5 0.000000 0.000000 0.000000 0.000000 0.000254 0.000000
# 6 0.000000 0.000000 0.000000 0.000000 0.000000 0.007006
#
#
# Mechanical properties :
#
#
# Convention : Reuss Voigt Hill
#
# Bulk Modulus (GPa) = 104.74774 110.23894 107.49334
# Shear Modulus (GPa) = 75.81433 847.97234 461.89334
#
# Velocity S-wave (km/s) = 5.26991 17.62456 13.00763
# Velocity P-wave (km/s) = 8.68331 21.32015 16.27803
#
# Compressibility (1/GPa) = 0.00954674
#
# Stress axis : x y z
#
# Youngs Moduli (GPa) = 136.46181 145.15173 171.08333
#
# Poissons Ratio (x) = 0.13358 0.40380
# Poissons Ratio (y) = 0.12558 0.33830
# Poissons Ratio (z) = 0.32208 0.28702
#
# Static dielectric constant tensor:
#      x y z
#    x 2.630960 0.000000 0.000000 
#    y 0.000000 3.485140 0.000000 
#    z 0.000000 0.000000 1.595330 
# 
# From -- ./inp_files/11096.got.cif
#   From: 2010.05.17/outbox.cif.g08.bks.cpg/sg50_6_cif.got.tgz:11096.got - 2010.06.03 11:33:33.
