data_PCOD9395273
_publ_section_title
;
Structure prediction by ZEFSAII (Michael W. Deem and Ramdas Pophale) SiO2 
 PCOD9395273
Probable space group: P C C M
;
_chemical_formula_sum "Si O2"
_cell_formula_units_Z 64
_cell_length_a 12.000000
_cell_length_b 18.000000
_cell_length_c 15.000000
_cell_angle_alpha 90.000000
_cell_angle_beta 90.000000
_cell_angle_gamma 90.000000
_cell_volume 3240.000000
_symmetry_space_group_name_H-M "P C C M"
_symmetry_group_IT_number 49
_symmetry_cell_setting 'orthorhombic'
loop_
_space_group_symop_operation_xyz
x,y,z
-x,-y,z
x,-y,1/2-z
-x,y,1/2-z
-x,-y,-z
x,y,-z
-x,y,1/2+z
x,-y,1/2+z
loop_
_atom_site_type_symbol
_atom_site_label
_atom_site_fract_x
_atom_site_fract_y
_atom_site_fract_z
Si Si1 0.802200 0.085408 0.101461
Si Si2 0.175933 0.707165 0.404804
Si Si3 0.624410 0.803115 0.148998
Si Si4 0.132920 0.583714 0.257127
Si Si5 0.628140 0.786232 0.362097
Si Si6 0.200454 0.324483 0.406301
Si Si7 0.024327 0.800034 0.148153
Si Si8 0.624430 0.026805 0.607646
O O1 0.706909 0.149018 0.101581
O O2 0.914025 0.120716 0.142563
O O3 0.730101 0.019499 0.143215
O O4 0.832302 0.066429 0.000000
O O5 0.155135 0.672746 0.500000
O O6 0.295273 0.744655 0.396046
O O7 0.160321 0.641433 0.335090
O O8 0.091724 0.777396 0.395562
O O9 0.635266 0.789130 0.254840
O O10 0.499181 0.795215 0.115332
O O11 0.649032 0.888826 0.131490
O O12 0.173859 0.500000 0.250000
O O13 0.182562 0.620587 0.171237
O O14 0.000000 0.582433 0.250000
O O15 0.678868 0.711184 0.398811
O O16 0.178459 0.360407 0.500000
O O17 0.113660 0.257067 0.392130
O O18 0.000000 0.782260 0.250000
O O19 0.623078 0.017884 0.500000
O O20 0.500000 0.000000 0.638502
#
# Coordination Sequence:
#
# PCOD9395273 Si02
#       8
#     8   8   8   8   8   8   8   8
#     4  10  20  35  57  83 115 156 206 253 301 365
#     4  12  22  37  61  89 126 163 202 246 301 365
#     4  11  22  36  57  87 122 163 207 254 310 358
#     4  11  23  41  63  93 131 156 190 245 299 364
#     4  10  20  35  57  86 117 152 205 259 296 357
#     4  11  20  37  65  90 119 156 199 245 297 365
#     4  11  19  36  59  83 119 159 205 251 296 354
#     4  10  20  36  55  82 122 157 201 262 316 360
#
# _framework density 19.753086
#
# number of rings (size 3 to 8) (size 9 to 14) (size 15 to 20)
#    0.000    1.250    5.000    3.375    0.000    2.500 
#    0.000    1.875    0.000    6.750    0.000    1.750 
#    0.000    0.000    0.000    0.000    0.000    0.000 
#
# Total GULP energy -356516.811376 kJ/mol
# GULP energy per Si atom -5570.575178 kJ/mol
# Density = 1.970813 g / cm^3
# Si number density = 19.753086 Si / 1000 Ang^3
#
#
#
# Elastic Constant Matrix: (Units=GPa)
#
#
# Indices 1 2 3 4 5 6 
#
# 1 29.5189 28.9559 16.7314 0.0000 0.0000 0.0000
# 2 28.9559 53.0260 36.3220 0.0000 0.0000 0.0000
# 3 16.7314 36.3220 118.8815 0.0000 0.0000 0.0000
# 4 0.0000 0.0000 0.0000 12.4421 0.0000 0.0000
# 5 0.0000 0.0000 0.0000 0.0000 21.3591 0.0000
# 6 0.0000 0.0000 0.0000 0.0000 0.0000 34.9626
#
#
#
# Elastic Compliance Matrix: (Units=1/GPa)
#
#
# Indices 1 2 3 4 5 6 
#
# 1 0.073505 -0.041801 0.002426 0.000000 0.000000 0.000000
# 2 -0.041801 0.047621 -0.008667 0.000000 0.000000 0.000000
# 3 0.002426 -0.008667 0.010718 0.000000 0.000000 0.000000
# 4 0.000000 0.000000 0.000000 0.080372 0.000000 0.000000
# 5 0.000000 0.000000 0.000000 0.000000 0.046818 0.000000
# 6 0.000000 0.000000 0.000000 0.000000 0.000000 0.028602
#
#
# Mechanical properties :
#
#
# Convention : Reuss Voigt Hill
#
# Bulk Modulus (GPa) = 27.96261 40.60500 34.28380
# Shear Modulus (GPa) = 12.63777 21.71390 17.17584
#
# Velocity S-wave (km/s) = 2.53214 3.31912 2.95197
# Velocity P-wave (km/s) = 4.76821 5.94051 5.38634
#
# Compressibility (1/GPa) = 0.03576205
#
# Stress axis : x y z
#
# Youngs Moduli (GPa) = 13.60459 20.99901 93.29906
#
# Poissons Ratio (x) = 0.87777 -0.22638
# Poissons Ratio (y) = 0.56868 0.80860
# Poissons Ratio (z) = -0.03301 0.18199
#
# Static dielectric constant tensor:
#      x y z
#    x 1.686840 0.000000 0.000000 
#    y 0.000000 1.564200 0.000000 
#    z 0.000000 0.000000 1.741670 
# 
# From -- ./inp_files/13112.got.cif
#   From: 2010.05.17/outbox.ucp.g08.bks.cvg/sg49_7_cif.got.tgz:13112.got - 2010.06.11 16:40:14.
