data_PCOD9395863
_publ_section_title
;
Structure prediction by ZEFSAII (Michael W. Deem and Ramdas Pophale) SiO2 
 PCOD9395863
Probable space group: P B A N
;
_chemical_formula_sum "Si O2"
_cell_formula_units_Z 56
_cell_length_a 10.991581
_cell_length_b 17.936985
_cell_length_c 11.467202
_cell_angle_alpha 90.000000
_cell_angle_beta 90.000000
_cell_angle_gamma 90.000000
_cell_volume 2260.825654
_symmetry_space_group_name_H-M "P B A N"
_symmetry_group_IT_number 50
_space_group.IT_coordinate_system_code '2'
_symmetry_cell_setting 'orthorhombic'
loop_
_space_group_symop_operation_xyz
x,y,z
1/2-x,1/2-y,z
x,1/2-y,-z
1/2-x,y,-z
-x,-y,-z
1/2+x,1/2+y,-z
-x,1/2+y,z
1/2+x,-y,z
loop_
_atom_site_type_symbol
_atom_site_label
_atom_site_fract_x
_atom_site_fract_y
_atom_site_fract_z
Si Si1 0.367913 0.346057 0.075952
Si Si2 0.914284 0.301031 0.360117
Si Si3 0.673588 0.019418 0.121201
Si Si4 0.261973 0.170987 0.701114
Si Si5 0.981435 0.862599 0.572449
Si Si6 0.978946 0.640692 0.850518
Si Si7 0.720422 0.072137 0.629598
O O1 0.357701 0.432723 0.108162
O O2 0.357969 0.304760 0.196476
O O3 0.250000 0.328535 0.000000
O O4 0.469418 0.332164 0.982392
O O5 0.957362 0.218144 0.393842
O O6 0.005148 0.356265 0.433037
O O7 0.786467 0.344865 0.378287
O O8 0.933636 0.308253 0.224005
O O9 0.545519 0.061966 0.134732
O O10 0.739349 0.036850 0.246299
O O11 0.750000 0.038368 0.000000
O O12 0.250000 0.250000 0.636799
O O13 0.345844 0.123126 0.616256
O O14 0.147868 0.139400 0.775016
O O15 0.075116 0.920292 0.627331
O O16 0.750000 0.038937 0.500000
#
# Coordination Sequence:
#
# PCOD9395863 Si02
#       7
#     8   8   8   8   8   8   8
#     4   9  21  38  60  83 115 160 203 242 311 368
#     4   9  18  35  58  88 120 160 201 254 301 361
#     4  10  21  39  65  89 113 157 210 257 307 366
#     4  11  22  38  57  86 123 162 200 244 304 372
#     4  10  19  34  59  87 121 162 204 242 307 376
#     4  10  20  37  58  86 119 152 199 257 302 361
#     4   9  19  36  63  89 122 156 203 260 311 359
#
# _framework density 24.76971
#
# number of rings (size 3 to 8) (size 9 to 14) (size 15 to 20)
#    0.000    2.286    1.429    0.857    2.000    4.857 
#    0.000    0.000    9.429    3.429    0.000    0.000 
#    0.000    0.000    0.000    0.000    0.000    0.000 
#
# Total GULP energy -311803.554740 kJ/mol
# GULP energy per Si atom -5567.920620 kJ/mol
# Density = 2.471333 g / cm^3
# Si number density = 24.769710 Si / 1000 Ang^3
#
#
#
# Elastic Constant Matrix: (Units=GPa)
#
#
# Indices 1 2 3 4 5 6 
#
# 1 96.0167 31.1017 46.1073 0.0000 0.0000 0.0000
# 2 31.1017 93.0162 32.7080 0.0000 0.0000 0.0000
# 3 46.1073 32.7080 168.9120 0.0000 0.0000 0.0000
# 4 0.0000 0.0000 0.0000 24.0752 0.0000 0.0000
# 5 0.0000 0.0000 0.0000 0.0000 204.5345 0.0000
# 6 0.0000 0.0000 0.0000 0.0000 0.0000 5.3893
#
#
#
# Elastic Compliance Matrix: (Units=1/GPa)
#
#
# Indices 1 2 3 4 5 6 
#
# 1 0.012860 -0.003290 -0.002873 0.000000 0.000000 0.000000
# 2 -0.003290 0.012378 -0.001499 0.000000 0.000000 0.000000
# 3 -0.002873 -0.001499 0.006995 0.000000 0.000000 0.000000
# 4 0.000000 0.000000 0.000000 0.041536 0.000000 0.000000
# 5 0.000000 0.000000 0.000000 0.000000 0.004889 0.000000
# 6 0.000000 0.000000 0.000000 0.000000 0.000000 0.185551
#
#
# Mechanical properties :
#
#
# Convention : Reuss Voigt Hill
#
# Bulk Modulus (GPa) = 59.13998 64.19765 61.66882
# Shear Modulus (GPa) = 17.53340 63.33501 40.43421
#
# Velocity S-wave (km/s) = 2.66344 5.06212 4.04469
# Velocity P-wave (km/s) = 5.77809 7.75505 6.83839
#
# Compressibility (1/GPa) = 0.01690903
#
# Stress axis : x y z
#
# Youngs Moduli (GPa) = 77.75890 80.78953 142.96278
#
# Poissons Ratio (x) = 0.26577 0.41079
# Poissons Ratio (y) = 0.25580 0.21428
# Poissons Ratio (z) = 0.22343 0.12109
#
# Static dielectric constant tensor:
#      x y z
#    x 2.072460 0.000000 0.000000 
#    y 0.000000 2.028790 0.000000 
#    z 0.000000 0.000000 2.117420 
# 
# From -- ./inp_files/20500.got.cif
#   From: 2010.05.17/outbox.cif.g08.bks.cpg/sg50_11_cif.got.tgz:20500.got - 2010.06.03 11:33:33.
