data_PCOD9395557
_publ_section_title
;
Structure prediction by ZEFSAII (Michael W. Deem and Ramdas Pophale) SiO2 
 PCOD9395557
Probable space group: P B A N
;
_chemical_formula_sum "Si O2"
_cell_formula_units_Z 54
_cell_length_a 30.433259
_cell_length_b 14.829180
_cell_length_c 6.213559
_cell_angle_alpha 90.000000
_cell_angle_beta 90.000000
_cell_angle_gamma 90.000000
_cell_volume 2804.180890
_symmetry_space_group_name_H-M "P B A N"
_symmetry_group_IT_number 50
_space_group.IT_coordinate_system_code '2'
_symmetry_cell_setting 'orthorhombic'
loop_
_space_group_symop_operation_xyz
x,y,z
1/2-x,1/2-y,z
x,1/2-y,-z
1/2-x,y,-z
-x,-y,-z
1/2+x,1/2+y,-z
-x,1/2+y,z
1/2+x,-y,z
loop_
_atom_site_type_symbol
_atom_site_label
_atom_site_fract_x
_atom_site_fract_y
_atom_site_fract_z
Si Si1 0.018356 0.629209 0.137800
Si Si2 0.633979 0.964551 0.098519
Si Si3 0.750000 0.750000 0.500000
Si Si4 0.607733 0.336534 0.874763
Si Si5 0.682745 0.832323 0.830295
Si Si6 0.446975 0.750000 0.500000
Si Si7 0.102106 0.150591 0.502771
Si Si8 0.545407 0.564345 0.179195
O O1 0.022487 0.691597 0.343510
O O2 0.015999 0.524435 0.201639
O O3 0.065117 0.642917 0.021607
O O4 0.981063 0.639196 0.956574
O O5 0.624434 0.898839 0.301044
O O6 0.635841 0.071615 0.146394
O O7 0.675764 0.923307 0.970359
O O8 0.589762 0.954404 0.955932
O O9 0.721769 0.812865 0.662121
O O10 0.585919 0.309239 0.647729
O O11 0.628798 0.250000 0.000000
O O12 0.640000 0.833540 0.679700
O O13 0.682452 0.750000 0.000000
O O14 0.082331 0.250000 0.500000
O O15 0.063214 0.089100 0.588834
#
# Coordination Sequence:
#
# PCOD9395557 Si02
#       8
#     8   8   2   8   8   4   8   8
#     4   9  18  36  47  70  97 139 190 249 297 346
#     4  10  20  36  56  77 113 149 185 235 282 334
#     4  12  22  36  64  92 124 158 178 208 260 326
#     4   9  19  35  54  78 105 144 192 249 297 337
#     4  11  21  38  57  85 122 151 178 215 255 327
#     4  10  18  32  52  71 100 136 200 252 302 348
#     4  11  20  35  51  79 108 147 189 221 277 334
#     4   9  20  33  51  67 102 140 190 240 294 342
#
# _framework density 19.256961
#
# number of rings (size 3 to 8) (size 9 to 14) (size 15 to 20)
#    0.000    2.074    2.222    1.111    0.000    2.370 
#   10.667    4.444    0.000    0.000    0.000    0.000 
#    0.000   16.593    0.000    0.000    0.000    0.000 
#
# Total GULP energy -300847.715468 kJ/mol
# GULP energy per Si atom -5571.253990 kJ/mol
# Density = 1.921313 g / cm^3
# Si number density = 19.256961 Si / 1000 Ang^3
#
#
#
# Elastic Constant Matrix: (Units=GPa)
#
#
# Indices 1 2 3 4 5 6 
#
# 1 52.0331 28.7605 32.0357 0.0000 0.0000 0.0000
# 2 28.7605 120.3750 52.0579 0.0000 0.0000 0.0000
# 3 32.0357 52.0579 101.8539 0.0000 0.0000 0.0000
# 4 0.0000 0.0000 0.0000 13.4781 0.0000 0.0000
# 5 0.0000 0.0000 0.0000 0.0000 2986.8074 0.0000
# 6 0.0000 0.0000 0.0000 0.0000 0.0000 13.3005
#
#
#
# Elastic Compliance Matrix: (Units=1/GPa)
#
#
# Indices 1 2 3 4 5 6 
#
# 1 0.024801 -0.003276 -0.006126 0.000000 0.000000 0.000000
# 2 -0.003276 0.011097 -0.004641 0.000000 0.000000 0.000000
# 3 -0.006126 -0.004641 0.014117 0.000000 0.000000 0.000000
# 4 0.000000 0.000000 0.000000 0.074194 0.000000 0.000000
# 5 0.000000 0.000000 0.000000 0.000000 0.000335 0.000000
# 6 0.000000 0.000000 0.000000 0.000000 0.000000 0.075185
#
#
# Mechanical properties :
#
#
# Convention : Reuss Voigt Hill
#
# Bulk Modulus (GPa) = 45.60378 55.55223 50.57801
# Shear Modulus (GPa) = 21.26512 613.47773 317.37142
#
# Velocity S-wave (km/s) = 3.32668 17.86802 12.85171
# Velocity P-wave (km/s) = 6.20394 21.32132 15.70171
#
# Compressibility (1/GPa) = 0.02192800
#
# Stress axis : x y z
#
# Youngs Moduli (GPa) = 40.32069 90.11101 70.83624
#
# Poissons Ratio (x) = 0.29523 0.43395
# Poissons Ratio (y) = 0.13210 0.32878
# Poissons Ratio (z) = 0.24701 0.41825
#
# Static dielectric constant tensor:
#      x y z
#    x 1.644580 0.000000 0.000000 
#    y 0.000000 1.867840 0.000000 
#    z 0.000000 0.000000 1.745120 
# 
# From -- ./inp_files/7219.got.cif
#   From: 2010.05.17/outbox.cif.g08.bks.cpg/sg50_4_cif.got.tgz:7219.got - 2010.06.03 11:33:33.
