data_PCOD9395828
_publ_section_title
;
Structure prediction by ZEFSAII (Michael W. Deem and Ramdas Pophale) SiO2 
 PCOD9395828
Probable space group: P B A N
;
_chemical_formula_sum "Si O2"
_cell_formula_units_Z 58
_cell_length_a 16.027829
_cell_length_b 15.232175
_cell_length_c 11.989237
_cell_angle_alpha 90.000000
_cell_angle_beta 90.000000
_cell_angle_gamma 90.000000
_cell_volume 2927.036690
_symmetry_space_group_name_H-M "P B A N"
_symmetry_group_IT_number 50
_space_group.IT_coordinate_system_code '2'
_symmetry_cell_setting 'orthorhombic'
loop_
_space_group_symop_operation_xyz
x,y,z
1/2-x,1/2-y,z
x,1/2-y,-z
1/2-x,y,-z
-x,-y,-z
1/2+x,1/2+y,-z
-x,1/2+y,z
1/2+x,-y,z
loop_
_atom_site_type_symbol
_atom_site_label
_atom_site_fract_x
_atom_site_fract_y
_atom_site_fract_z
Si Si1 0.046049 0.970574 0.737166
Si Si2 0.844522 0.572799 0.034760
Si Si3 0.205464 0.042875 0.619593
Si Si4 0.250000 0.750000 0.000000
Si Si5 0.392060 0.876851 0.045162
Si Si6 0.629724 0.582405 0.706986
Si Si7 0.159018 0.232499 0.713114
Si Si8 0.030980 0.153044 0.869394
O O1 0.064446 0.900493 0.836666
O O2 0.960953 0.949702 0.672222
O O3 0.127294 0.983930 0.659004
O O4 0.026049 0.062164 0.800307
O O5 0.869374 0.592986 0.160207
O O6 0.750000 0.585749 0.000000
O O7 0.866914 0.472386 0.003371
O O8 0.898187 0.636320 0.959552
O O9 0.250000 0.034937 0.500000
O O10 0.287417 0.024227 0.693809
O O11 0.173593 0.142261 0.646094
O O12 0.312069 0.684429 0.935194
O O13 0.448910 0.835930 0.945159
O O14 0.646083 0.676234 0.648783
O O15 0.250000 0.250000 0.772137
O O16 0.074956 0.220844 0.785749
#
# Coordination Sequence:
#
# PCOD9395828 Si02
#       8
#     8   8   8   2   8   8   8   8
#     4  10  20  38  61  87 115 157 205 246 297 353
#     4  11  18  32  54  79 115 156 190 231 280 339
#     4  10  23  41  62  85 112 150 201 264 318 363
#     4  12  28  32  52  84 124 178 192 216 280 352
#     4  11  21  37  51  82 122 160 198 228 274 352
#     4  11  20  34  58  86 117 154 193 254 300 358
#     4   9  20  35  53  87 118 150 192 242 310 360
#     4  10  19  34  55  79 120 160 192 235 275 346
#
# _framework density 19.815261
#
# number of rings (size 3 to 8) (size 9 to 14) (size 15 to 20)
#    0.000    1.655    3.448    4.138    1.931    3.586 
#    0.000    2.759    0.000    0.000    0.000    0.000 
#    0.000    0.000    0.000    0.000    0.000    0.000 
#
# Total GULP energy -322897.790734 kJ/mol
# GULP energy per Si atom -5567.203289 kJ/mol
# Density = 1.977016 g / cm^3
# Si number density = 19.815261 Si / 1000 Ang^3
#
#
#
# Elastic Constant Matrix: (Units=GPa)
#
#
# Indices 1 2 3 4 5 6 
#
# 1 165.8335 28.0985 25.0283 0.0000 0.0000 0.0000
# 2 28.0985 32.4862 9.1380 0.0000 0.0000 0.0000
# 3 25.0283 9.1380 42.8718 0.0000 0.0000 0.0000
# 4 0.0000 0.0000 0.0000 26.6418 0.0000 0.0000
# 5 0.0000 0.0000 0.0000 0.0000 19.8975 0.0000
# 6 0.0000 0.0000 0.0000 0.0000 0.0000 28.8041
#
#
#
# Elastic Compliance Matrix: (Units=1/GPa)
#
#
# Indices 1 2 3 4 5 6 
#
# 1 0.007449 -0.005552 -0.003165 0.000000 0.000000 0.000000
# 2 -0.005552 0.036884 -0.004620 0.000000 0.000000 0.000000
# 3 -0.003165 -0.004620 0.026158 0.000000 0.000000 0.000000
# 4 0.000000 0.000000 0.000000 0.037535 0.000000 0.000000
# 5 0.000000 0.000000 0.000000 0.000000 0.050258 0.000000
# 6 0.000000 0.000000 0.000000 0.000000 0.000000 0.034717
#
#
# Mechanical properties :
#
#
# Convention : Reuss Voigt Hill
#
# Bulk Modulus (GPa) = 22.82301 40.63567 31.72934
# Shear Modulus (GPa) = 21.34186 26.99711 24.16949
#
# Velocity S-wave (km/s) = 3.28539 3.69513 3.49627
# Velocity P-wave (km/s) = 5.09261 6.22552 5.68734
#
# Compressibility (1/GPa) = 0.04381544
#
# Stress axis : x y z
#
# Youngs Moduli (GPa) = 134.25374 27.11174 38.22942
#
# Poissons Ratio (x) = 0.15053 0.12100
# Poissons Ratio (y) = 0.74541 0.17664
# Poissons Ratio (z) = 0.42491 0.12527
#
# Static dielectric constant tensor:
#      x y z
#    x 1.772690 0.000000 0.000000 
#    y 0.000000 1.736650 0.000000 
#    z 0.000000 0.000000 1.724160 
# 
# From -- ./inp_files/21293.got.cif
#   From: 2010.05.17/outbox.cif.g08.bks.cpg/sg50_11_cif.got.tgz:21293.got - 2010.06.03 11:33:33.
