data_PCOD9395257
_publ_section_title
;
Structure prediction by ZEFSAII (Michael W. Deem and Ramdas Pophale) SiO2 
 PCOD9395257
Probable space group: P C C M
;
_chemical_formula_sum "Si O2"
_cell_formula_units_Z 56
_cell_length_a 9.000000
_cell_length_b 21.000000
_cell_length_c 15.000000
_cell_angle_alpha 90.000000
_cell_angle_beta 90.000000
_cell_angle_gamma 90.000000
_cell_volume 2835.000000
_symmetry_space_group_name_H-M "P C C M"
_symmetry_group_IT_number 49
_symmetry_cell_setting 'orthorhombic'
loop_
_space_group_symop_operation_xyz
x,y,z
-x,-y,z
x,-y,1/2-z
-x,y,1/2-z
-x,-y,-z
x,y,-z
-x,y,1/2+z
x,-y,1/2+z
loop_
_atom_site_type_symbol
_atom_site_label
_atom_site_fract_x
_atom_site_fract_y
_atom_site_fract_z
Si Si1 0.235536 0.325254 0.607318
Si Si2 0.680586 0.993054 0.397708
Si Si3 0.577359 0.561277 0.598326
Si Si4 0.174856 0.232587 0.241693
Si Si5 0.678475 0.099205 0.256089
Si Si6 0.831965 0.516946 0.147551
Si Si7 0.887418 0.342768 0.605086
O O1 0.248151 0.317607 0.500000
O O2 0.372267 0.371170 0.637191
O O3 0.237009 0.262218 0.666431
O O4 0.065414 0.349790 0.625603
O O5 0.732737 0.992821 0.500000
O O6 0.727707 0.052051 0.335490
O O7 0.500000 0.000000 0.400433
O O8 0.724316 0.931111 0.339460
O O9 0.500000 0.500000 0.644102
O O10 0.507711 0.570717 0.500000
O O11 0.737724 0.529734 0.588562
O O12 0.261441 0.168487 0.223521
O O13 0.179077 0.286944 0.165658
O O14 0.000000 0.217752 0.250000
O O15 0.500000 0.099808 0.250000
O O16 0.801229 0.500000 0.250000
O O17 0.808301 0.590976 0.128821
O O18 0.000000 0.500000 0.129557
O O19 0.874096 0.329890 0.500000
#
# Coordination Sequence:
#
# PCOD9395257 Si02
#       7
#     8   8   8   8   8   8   8
#     4   9  18  34  54  73  99 140 180 217 269 332
#     4   8  15  31  58  85 111 144 182 218 259 317
#     4  10  20  34  51  72 100 130 165 220 286 336
#     4  10  21  36  54  74 110 149 183 220 262 326
#     4   9  18  34  55  83 112 142 180 224 266 308
#     4  11  21  32  55  77  95 125 176 232 278 328
#     4  10  20  34  54  76  99 136 182 223 267 322
#
# _framework density 19.753086
#
# number of rings (size 3 to 8) (size 9 to 14) (size 15 to 20)
#    0.000    2.429    1.429    2.143    4.000    2.000 
#    2.571    1.429    0.000    0.857    0.000    0.000 
#    0.000    0.000    0.000    0.000    0.000    0.000 
#
# Total GULP energy -311816.905153 kJ/mol
# GULP energy per Si atom -5568.159021 kJ/mol
# Density = 1.970813 g / cm^3
# Si number density = 19.753086 Si / 1000 Ang^3
#
#
#
# Elastic Constant Matrix: (Units=GPa)
#
#
# Indices 1 2 3 4 5 6 
#
# 1 14.2921 15.6807 25.2003 0.0000 0.0000 0.0000
# 2 15.6807 105.7734 19.0284 0.0000 0.0000 0.0000
# 3 25.2003 19.0284 36.6824 0.0000 0.0000 0.0000
# 4 0.0000 0.0000 0.0000 24.3783 0.0000 0.0000
# 5 0.0000 0.0000 0.0000 0.0000 24.3977 0.0000
# 6 0.0000 0.0000 0.0000 0.0000 0.0000 32.2104
#
#
#
# Elastic Compliance Matrix: (Units=1/GPa)
#
#
# Indices 1 2 3 4 5 6 
#
# 1 -0.323499 0.008799 0.217675 0.000000 0.000000 0.000000
# 2 0.008799 0.010188 -0.011329 0.000000 0.000000 0.000000
# 3 0.217675 -0.011329 -0.116402 0.000000 0.000000 0.000000
# 4 0.000000 0.000000 0.000000 0.041020 0.000000 0.000000
# 5 0.000000 0.000000 0.000000 0.000000 0.040988 0.000000
# 6 0.000000 0.000000 0.000000 0.000000 0.000000 0.031046
#
#
# Mechanical properties :
#
#
# Convention : Reuss Voigt Hill
#
# Bulk Modulus (GPa) = 1735.34239 30.72962 883.03601
# Shear Modulus (GPa) = -6.69562 22.65317 7.97877
#
# Velocity S-wave (km/s) = -1.84310 3.39014 2.01197
# Velocity P-wave (km/s) = 29.59552 5.56010 21.29330
#
# Compressibility (1/GPa) = 0.00057626
#
# Stress axis : x y z
#
# Youngs Moduli (GPa) = -3.09120 98.15539 -8.59090
#
# Poissons Ratio (x) = -0.86363 1.87003
# Poissons Ratio (y) = 0.02720 -0.09733
# Poissons Ratio (z) = 0.67288 1.11204
#
# Static dielectric constant tensor:
#      x y z
#    x 1.837220 0.000000 0.000000 
#    y 0.000000 1.686660 0.000000 
#    z 0.000000 0.000000 1.768770 
# 
# From -- ./inp_files/12030.got.cif
#   From: 2010.05.17/outbox.ucp.g08.bks.cvg/sg49_7_cif.got.tgz:12030.got - 2010.06.11 16:40:14.
