data_PCOD9395038
_publ_section_title
;
Structure prediction by ZEFSAII (Michael W. Deem and Ramdas Pophale) SiO2 
 PCOD9395038
Probable space group: P C C M
;
_chemical_formula_sum "Si O2"
_cell_formula_units_Z 40
_cell_length_a 25.177755
_cell_length_b 8.556199
_cell_length_c 9.341263
_cell_angle_alpha 90.000000
_cell_angle_beta 90.000000
_cell_angle_gamma 90.000000
_cell_volume 2012.349822
_symmetry_space_group_name_H-M "P C C M"
_symmetry_group_IT_number 49
_symmetry_cell_setting 'orthorhombic'
loop_
_space_group_symop_operation_xyz
x,y,z
-x,-y,z
x,-y,1/2-z
-x,y,1/2-z
-x,-y,-z
x,y,-z
-x,y,1/2+z
x,-y,1/2+z
loop_
_atom_site_type_symbol
_atom_site_label
_atom_site_fract_x
_atom_site_fract_y
_atom_site_fract_z
Si Si1 0.550501 0.329693 0.672227
Si Si2 0.667988 0.670484 0.171853
Si Si3 0.233084 0.338272 0.335373
Si Si4 0.123517 0.182822 0.270655
Si Si5 0.955211 0.713865 0.500000
Si Si6 0.078085 0.649278 0.500000
O O1 0.553461 0.500000 0.750000
O O2 0.500000 0.251176 0.750000
O O3 0.542367 0.345506 0.500000
O O4 0.609237 0.258249 0.694526
O O5 0.666358 0.500000 0.250000
O O6 0.719030 0.745793 0.248761
O O7 0.675219 0.657423 0.000000
O O8 0.223662 0.500000 0.250000
O O9 0.248922 0.366901 0.500000
O O10 0.177885 0.247279 0.335708
O O11 0.071307 0.204687 0.365742
O O12 0.130669 0.000000 0.250000
O O13 0.110753 0.287702 0.133452
O O14 0.932793 0.535813 0.500000
O O15 0.018338 0.717520 0.500000
#
# Coordination Sequence:
#
# PCOD9395038 Si02
#       6
#     8   8   8   8   4   4
#     4   9  15  22  35  58  93 135 179 229 285 344
#     4   9  17  28  44  70 100 138 190 239 288 343
#     4  11  22  37  58  81 110 149 197 243 289 350
#     4  12  26  41  61  91 123 154 191 240 295 346
#     4  11  23  47  63  97 117 151 202 229 282 351
#     4  11  25  41  73  87 121 157 188 241 280 341
#
# _framework density 19.877258000000001
#
# number of rings (size 3 to 8) (size 9 to 14) (size 15 to 20)
#    0.000    1.600    1.000    6.600    2.800    6.400 
#    0.000    0.000    0.000    0.000    0.000    0.000 
#    0.000    0.800    0.000    6.200    0.000    4.000 
#
# Total GULP energy -222960.384853 kJ/mol
# GULP energy per Si atom -5574.009621 kJ/mol
# Density = 1.983202 g / cm^3
# Si number density = 19.877258 Si / 1000 Ang^3
#
#
#
# Elastic Constant Matrix: (Units=GPa)
#
#
# Indices 1 2 3 4 5 6 
#
# 1 148.2073 27.2629 41.4629 0.0000 0.0000 0.0000
# 2 27.2629 31.2590 8.6965 0.0000 0.0000 0.0000
# 3 41.4629 8.6965 137.0408 0.0000 0.0000 0.0000
# 4 0.0000 0.0000 0.0000 9.6264 0.0000 0.0000
# 5 0.0000 0.0000 0.0000 0.0000 33.4630 0.0000
# 6 0.0000 0.0000 0.0000 0.0000 0.0000 -18.8250
#
#
#
# Elastic Compliance Matrix: (Units=1/GPa)
#
#
# Indices 1 2 3 4 5 6 
#
# 1 0.008628 -0.006921 -0.002171 0.000000 0.000000 0.000000
# 2 -0.006921 0.038117 -0.000325 0.000000 0.000000 0.000000
# 3 -0.002171 -0.000325 0.007975 0.000000 0.000000 0.000000
# 4 0.000000 0.000000 0.000000 0.103881 0.000000 0.000000
# 5 0.000000 0.000000 0.000000 0.000000 0.029884 0.000000
# 6 0.000000 0.000000 0.000000 0.000000 0.000000 -0.053121
#
#
# Mechanical properties :
#
#
# Convention : Reuss Voigt Hill
#
# Bulk Modulus (GPa) = 27.86622 52.37241 40.11931
# Shear Modulus (GPa) = 30.09160 20.79187 25.44174
#
# Velocity S-wave (km/s) = 3.89507 3.23772 3.58151
# Velocity P-wave (km/s) = 5.85477 6.35470 6.10985
#
# Compressibility (1/GPa) = 0.03588575
#
# Stress axis : x y z
#
# Youngs Moduli (GPa) = 115.90405 26.23485 125.39746
#
# Poissons Ratio (x) = 0.18157 0.27227
# Poissons Ratio (y) = 0.80215 0.04075
# Poissons Ratio (z) = 0.25165 0.00852
#
# Static dielectric constant tensor:
#      x y z
#    x 1.753930 0.000000 0.000000 
#    y 0.000000 1.676470 0.000000 
#    z 0.000000 0.000000 1.638430 
# 
# From -- ./inp_files/6680.got.cif
#   From: 2010.05.17/outbox.cif.g08.bks.cpg/sg49_4_cif.got.tgz:6680.got - 2010.06.03 21:02:19.
