data_PCOD9395322
_publ_section_title
;
Structure prediction by ZEFSAII (Michael W. Deem and Ramdas Pophale) SiO2 
 PCOD9395322
Probable space group: P C C M
;
_chemical_formula_sum "Si O2"
_cell_formula_units_Z 64
_cell_length_a 15.000000
_cell_length_b 12.000000
_cell_length_c 18.000000
_cell_angle_alpha 90.000000
_cell_angle_beta 90.000000
_cell_angle_gamma 90.000000
_cell_volume 3240.000000
_symmetry_space_group_name_H-M "P C C M"
_symmetry_group_IT_number 49
_symmetry_cell_setting 'orthorhombic'
loop_
_space_group_symop_operation_xyz
x,y,z
-x,-y,z
x,-y,1/2-z
-x,y,1/2-z
-x,-y,-z
x,y,-z
-x,y,1/2+z
x,-y,1/2+z
loop_
_atom_site_type_symbol
_atom_site_label
_atom_site_fract_x
_atom_site_fract_y
_atom_site_fract_z
Si Si1 0.400808 0.045818 0.589609
Si Si2 0.874823 0.531903 0.831759
Si Si3 0.324597 0.272706 0.645146
Si Si4 0.751894 0.864166 0.910802
Si Si5 0.690745 0.656568 0.813973
Si Si6 0.869457 0.705871 0.588709
Si Si7 0.063234 0.758017 0.588980
Si Si8 0.604325 0.500974 0.920561
O O1 0.400924 0.057516 0.500000
O O2 0.383033 0.165608 0.625638
O O3 0.500000 0.000000 0.610223
O O4 0.314414 0.967375 0.608113
O O5 0.908539 0.500000 0.750000
O O6 0.774317 0.572922 0.818375
O O7 0.880234 0.421188 0.881671
O O8 0.916941 0.640699 0.870050
O O9 0.328341 0.304821 0.731329
O O10 0.221284 0.249366 0.624657
O O11 0.356255 0.380317 0.598831
O O12 0.711793 0.760947 0.866069
O O13 0.859309 0.849801 0.893601
O O14 0.744952 0.851236 0.000000
O O15 0.616219 0.585276 0.853287
O O16 0.859157 0.704142 0.500000
O O17 0.958643 0.777292 0.606552
O O18 0.068423 0.739695 0.500000
O O19 0.500000 0.500000 0.929927
O O20 0.646002 0.538622 0.000000
#
# Coordination Sequence:
#
# PCOD9395322 Si02
#       8
#     8   8   8   8   8   8   8   8
#     4  10  23  44  70  95 119 160 219 270 320 385
#     4  11  19  34  52  86 125 165 202 249 304 372
#     4  12  24  41  61  92 131 164 204 264 325 376
#     4   9  20  41  64  86 120 164 212 269 316 369
#     4  11  22  39  60  90 128 164 205 254 318 386
#     4  11  21  35  56  86 124 168 211 253 305 372
#     4   9  20  35  56  86 121 164 215 261 308 368
#     4  11  24  40  62  90 124 169 212 253 315 387
#
# _framework density 19.753086
#
# number of rings (size 3 to 8) (size 9 to 14) (size 15 to 20)
#    0.000    1.500    2.500    2.625    1.750    4.500 
#    0.000    1.250    0.000    3.000    0.000    1.750 
#    0.000    0.000    0.000    0.000    0.000    0.250 
#
# Total GULP energy -356873.532410 kJ/mol
# GULP energy per Si atom -5576.148944 kJ/mol
# Density = 1.970813 g / cm^3
# Si number density = 19.753086 Si / 1000 Ang^3
#
#
#
# Elastic Constant Matrix: (Units=GPa)
#
#
# Indices 1 2 3 4 5 6 
#
# 1 120.7019 37.9570 49.8123 0.0000 0.0000 0.0000
# 2 37.9570 47.3290 40.0609 0.0000 0.0000 0.0000
# 3 49.8123 40.0609 67.7185 0.0000 0.0000 0.0000
# 4 0.0000 0.0000 0.0000 19.7323 0.0000 0.0000
# 5 0.0000 0.0000 0.0000 0.0000 58.7586 0.0000
# 6 0.0000 0.0000 0.0000 0.0000 0.0000 5.1945
#
#
#
# Elastic Compliance Matrix: (Units=1/GPa)
#
#
# Indices 1 2 3 4 5 6 
#
# 1 0.012344 -0.004435 -0.006457 0.000000 0.000000 0.000000
# 2 -0.004435 0.043913 -0.022716 0.000000 0.000000 0.000000
# 3 -0.006457 -0.022716 0.032955 0.000000 0.000000 0.000000
# 4 0.000000 0.000000 0.000000 0.050678 0.000000 0.000000
# 5 0.000000 0.000000 0.000000 0.000000 0.017019 0.000000
# 6 0.000000 0.000000 0.000000 0.000000 0.000000 0.192512
#
#
# Mechanical properties :
#
#
# Convention : Reuss Voigt Hill
#
# Bulk Modulus (GPa) = 45.46034 54.60109 50.03071
# Shear Modulus (GPa) = 11.79338 23.93171 17.86254
#
# Velocity S-wave (km/s) = 2.44609 3.48450 3.01041
# Velocity P-wave (km/s) = 5.57154 6.62501 6.12098
#
# Compressibility (1/GPa) = 0.02199719
#
# Stress axis : x y z
#
# Youngs Moduli (GPa) = 81.01142 22.77246 30.34482
#
# Poissons Ratio (x) = 0.10099 0.19592
# Poissons Ratio (y) = 0.35925 0.68931
# Poissons Ratio (z) = 0.52305 0.51730
#
# Static dielectric constant tensor:
#      x y z
#    x 1.377200 0.000000 0.000000 
#    y 0.000000 1.702640 0.000000 
#    z 0.000000 0.000000 1.692400 
# 
# From -- ./inp_files/17971.got.cif
#   From: 2010.05.17/outbox.ucp.g08.bks.cvg/sg49_9_cif.got.tgz:17971.got - 2010.06.11 16:40:14.
