data_PCOD9395960
_publ_section_title
;
Structure prediction by ZEFSAII (Michael W. Deem and Ramdas Pophale) SiO2 
 PCOD9395960
Probable space group: P B A N
;
_chemical_formula_sum "Si O2"
_cell_formula_units_Z 30
_cell_length_a 12.629966
_cell_length_b 4.939606
_cell_length_c 19.490059
_cell_angle_alpha 90.000000
_cell_angle_beta 90.000000
_cell_angle_gamma 90.000000
_cell_volume 1215.927399
_symmetry_space_group_name_H-M "P B A N"
_symmetry_group_IT_number 50
_space_group.IT_coordinate_system_code '2'
_symmetry_cell_setting 'orthorhombic'
loop_
_space_group_symop_operation_xyz
x,y,z
1/2-x,1/2-y,z
x,1/2-y,-z
1/2-x,y,-z
-x,-y,-z
1/2+x,1/2+y,-z
-x,1/2+y,z
1/2+x,-y,z
loop_
_atom_site_type_symbol
_atom_site_label
_atom_site_fract_x
_atom_site_fract_y
_atom_site_fract_z
Si Si1 0.921075 0.750000 0.500000
Si Si2 0.072273 0.270346 0.351087
Si Si3 0.568974 0.435236 0.917905
Si Si4 0.180217 0.015124 0.219171
Si Si5 0.250000 0.250000 0.000000
O O1 0.870299 0.762838 0.575214
O O2 0.000000 0.500000 0.500000
O O3 0.136934 0.158642 0.287303
O O4 0.033012 0.579770 0.348297
O O5 0.530170 0.132633 0.933002
O O6 0.591895 0.440737 0.836235
O O7 0.672555 0.555715 0.955114
O O8 0.250000 0.250000 0.184965
O O9 0.250000 0.750000 0.233878
#
# Coordination Sequence:
#
# PCOD9395960 Si02
#       5
#     4   8   8   8   2
#     4   8  16  30  55  86 119 160 214 272 326 397
#     4  10  19  36  61  90 123 169 224 277 338 414
#     4  12  27  48  74 104 139 189 234 286 360 427
#     4  12  24  42  65  96 137 179 227 295 347 409
#     4  12  28  50  76 108 148 176 240 298 352 432
#
# _framework density 24.672523999999999
#
# number of rings (size 3 to 8) (size 9 to 14) (size 15 to 20)
#    0.000    1.067    1.333    5.600    0.000    1.067 
#    0.000    0.667    0.000    1.600    0.000    0.000 
#    0.000    0.000    0.000    0.000    0.000    0.000 
#
# Total GULP energy -167851.871315 kJ/mol
# GULP energy per Si atom -5595.062377 kJ/mol
# Density = 2.461637 g / cm^3
# Si number density = 24.672524 Si / 1000 Ang^3
#
#
#
# Elastic Constant Matrix: (Units=GPa)
#
#
# Indices 1 2 3 4 5 6 
#
# 1 89.2562 17.3827 43.6849 0.0000 0.0000 0.0000
# 2 17.3827 122.5862 1.7403 0.0000 0.0000 0.0000
# 3 43.6849 1.7403 166.6131 0.0000 0.0000 0.0000
# 4 0.0000 0.0000 0.0000 29.9252 0.0000 0.0000
# 5 0.0000 0.0000 0.0000 0.0000 -23.0788 0.0000
# 6 0.0000 0.0000 0.0000 0.0000 0.0000 36.5588
#
#
#
# Elastic Compliance Matrix: (Units=1/GPa)
#
#
# Indices 1 2 3 4 5 6 
#
# 1 0.013251 -0.001830 -0.003455 0.000000 0.000000 0.000000
# 2 -0.001830 0.008411 0.000392 0.000000 0.000000 0.000000
# 3 -0.003455 0.000392 0.006904 0.000000 0.000000 0.000000
# 4 0.000000 0.000000 0.000000 0.033417 0.000000 0.000000
# 5 0.000000 0.000000 0.000000 0.000000 -0.043330 0.000000
# 6 0.000000 0.000000 0.000000 0.000000 0.000000 0.027353
#
#
# Mechanical properties :
#
#
# Convention : Reuss Voigt Hill
#
# Bulk Modulus (GPa) = 53.24852 56.00793 54.62822
# Shear Modulus (GPa) = 80.57636 29.72422 55.15029
#
# Velocity S-wave (km/s) = 5.72095 3.47472 4.73302
# Velocity P-wave (km/s) = 8.07886 6.23282 7.21512
#
# Compressibility (1/GPa) = 0.01877987
#
# Stress axis : x y z
#
# Youngs Moduli (GPa) = 75.46479 118.88552 144.84812
#
# Poissons Ratio (x) = 0.21756 0.50049
# Poissons Ratio (y) = 0.13810 -0.05677
# Poissons Ratio (z) = 0.26075 -0.04660
#
# Static dielectric constant tensor:
#      x y z
#    x 1.983050 0.000000 0.000000 
#    y 0.000000 1.856170 0.000000 
#    z 0.000000 0.000000 2.044750 
# 
# From -- ./inp_files/30784.got.cif
#   From: 2010.05.17/outbox.cif.g08.bks.cpg/sg50_16_cif.got.tgz:30784.got - 2010.06.03 11:33:33.
