data_PCOD9395657
_publ_section_title
;
Structure prediction by ZEFSAII (Michael W. Deem and Ramdas Pophale) SiO2 
 PCOD9395657
Probable space group: P B A N
;
_chemical_formula_sum "Si O2"
_cell_formula_units_Z 48
_cell_length_a 13.133709
_cell_length_b 13.505258
_cell_length_c 13.413927
_cell_angle_alpha 90.000000
_cell_angle_beta 90.000000
_cell_angle_gamma 90.000000
_cell_volume 2379.283612
_symmetry_space_group_name_H-M "P B A N"
_symmetry_group_IT_number 50
_space_group.IT_coordinate_system_code '2'
_symmetry_cell_setting 'orthorhombic'
loop_
_space_group_symop_operation_xyz
x,y,z
1/2-x,1/2-y,z
x,1/2-y,-z
1/2-x,y,-z
-x,-y,-z
1/2+x,1/2+y,-z
-x,1/2+y,z
1/2+x,-y,z
loop_
_atom_site_type_symbol
_atom_site_label
_atom_site_fract_x
_atom_site_fract_y
_atom_site_fract_z
Si Si1 0.250000 0.250000 0.500000
Si Si2 0.640440 0.913049 0.129193
Si Si3 0.902151 0.192823 0.312655
Si Si4 0.700219 0.114544 0.392346
Si Si5 0.442261 0.823011 0.087800
Si Si6 0.250000 0.925709 0.000000
Si Si7 0.882482 0.603111 0.361540
Si Si8 0.750000 0.750000 0.000000
O O1 0.180338 0.320925 0.569492
O O2 0.520978 0.913141 0.102670
O O3 0.652736 0.895095 0.246098
O O4 0.684669 0.819683 0.070821
O O5 0.696497 0.007010 0.083831
O O6 0.798504 0.127060 0.318806
O O7 0.874788 0.294879 0.367926
O O8 0.930560 0.220509 0.198718
O O9 0.998502 0.135068 0.359465
O O10 0.750000 0.127939 0.500000
O O11 0.642408 0.009973 0.391429
O O12 0.334255 0.861121 0.052832
O O13 0.477655 0.750000 0.000000
#
# Coordination Sequence:
#
# PCOD9395657 Si02
#       8
#     2   8   8   8   8   4   8   2
#     4  12  26  44  68 106 132 168 234 288 336 406
#     4  10  22  41  62  92 129 175 220 257 336 397
#     4  10  25  43  69  98 137 177 220 278 341 397
#     4  11  24  46  70  98 130 177 228 271 342 412
#     4  11  23  39  62  98 131 174 217 272 326 389
#     4  11  23  37  67  94 136 170 223 275 319 393
#     4  11  25  44  67  99 134 174 223 284 335 400
#     4  10  18  40  62  84 126 176 204 264 316 402
#
# _framework density 20.174139
#
# number of rings (size 3 to 8) (size 9 to 14) (size 15 to 20)
#    0.000    1.333    1.667    3.250    9.333    2.000 
#    0.000    0.000    0.000    0.000    0.000    0.000 
#    0.000    0.000    0.000    0.000    0.000    0.000 
#
# Total GULP energy -268080.839233 kJ/mol
# GULP energy per Si atom -5585.017484 kJ/mol
# Density = 2.012822 g / cm^3
# Si number density = 20.174139 Si / 1000 Ang^3
#
#
#
# Elastic Constant Matrix: (Units=GPa)
#
#
# Indices 1 2 3 4 5 6 
#
# 1 115.3176 64.5839 42.0816 0.0000 0.0000 0.0000
# 2 64.5839 134.8021 45.8719 0.0000 0.0000 0.0000
# 3 42.0816 45.8719 122.7226 0.0000 0.0000 0.0000
# 4 0.0000 0.0000 0.0000 -12.6358 0.0000 0.0000
# 5 0.0000 0.0000 0.0000 0.0000 36.7295 0.0000
# 6 0.0000 0.0000 0.0000 0.0000 0.0000 44.6506
#
#
#
# Elastic Compliance Matrix: (Units=1/GPa)
#
#
# Indices 1 2 3 4 5 6 
#
# 1 0.012407 -0.005152 -0.002329 0.000000 0.000000 0.000000
# 2 -0.005152 0.010638 -0.002210 0.000000 0.000000 0.000000
# 3 -0.002329 -0.002210 0.009773 0.000000 0.000000 0.000000
# 4 0.000000 0.000000 0.000000 -0.079140 0.000000 0.000000
# 5 0.000000 0.000000 0.000000 0.000000 0.027226 0.000000
# 6 0.000000 0.000000 0.000000 0.000000 0.000000 0.022396
#
#
# Mechanical properties :
#
#
# Convention : Reuss Voigt Hill
#
# Bulk Modulus (GPa) = 74.41813 75.32413 74.87113
# Shear Modulus (GPa) = 184.09341 28.43585 106.26463
#
# Velocity S-wave (km/s) = 9.56296 3.75843 7.26554
# Velocity P-wave (km/s) = 12.60562 7.50016 10.37194
#
# Compressibility (1/GPa) = 0.01343759
#
# Stress axis : x y z
#
# Youngs Moduli (GPa) = 80.60190 93.99829 102.32248
#
# Poissons Ratio (x) = 0.48425 0.23827
# Poissons Ratio (y) = 0.41523 0.22613
# Poissons Ratio (z) = 0.18769 0.20774
#
# Static dielectric constant tensor:
#      x y z
#    x 1.713430 0.000000 0.000000 
#    y 0.000000 1.694220 0.000000 
#    z 0.000000 0.000000 1.634770 
# 
# From -- ./inp_files/21121.got.cif
#   From: 2010.05.17/outbox.cif.g08.bks.cpg/sg50_11_cif.got.tgz:21121.got - 2010.06.03 11:33:33.
