data_PCOD9395275
_publ_section_title
;
Structure prediction by ZEFSAII (Michael W. Deem and Ramdas Pophale) SiO2 
 PCOD9395275
Probable space group: P C C M
;
_chemical_formula_sum "Si O2"
_cell_formula_units_Z 48
_cell_length_a 9.000000
_cell_length_b 30.000000
_cell_length_c 9.000000
_cell_angle_alpha 90.000000
_cell_angle_beta 90.000000
_cell_angle_gamma 90.000000
_cell_volume 2430.000000
_symmetry_space_group_name_H-M "P C C M"
_symmetry_group_IT_number 49
_symmetry_cell_setting 'orthorhombic'
loop_
_space_group_symop_operation_xyz
x,y,z
-x,-y,z
x,-y,1/2-z
-x,y,1/2-z
-x,-y,-z
x,y,-z
-x,y,1/2+z
x,-y,1/2+z
loop_
_atom_site_type_symbol
_atom_site_label
_atom_site_fract_x
_atom_site_fract_y
_atom_site_fract_z
Si Si1 0.348006 0.629388 0.174270
Si Si2 0.660760 0.208042 0.678927
Si Si3 0.159898 0.715099 0.823279
Si Si4 0.335380 0.954932 0.319639
Si Si5 0.156122 0.451753 0.319960
Si Si6 0.161635 0.872657 0.820152
O O1 0.500000 0.643285 0.250000
O O2 0.216703 0.664838 0.194039
O O3 0.286294 0.581839 0.224207
O O4 0.378456 0.626762 0.000000
O O5 0.500000 0.201166 0.750000
O O6 0.658900 0.204038 0.500000
O O7 0.723597 0.255038 0.733590
O O8 0.765982 0.172033 0.756602
O O9 0.000000 0.721776 0.750000
O O10 0.158273 0.726098 0.000000
O O11 0.500000 0.952553 0.250000
O O12 0.338564 0.955748 0.500000
O O13 0.251416 0.913137 0.252291
O O14 0.267520 0.000000 0.250000
O O15 0.182752 0.500000 0.250000
O O16 0.144612 0.453665 0.500000
O O17 0.000000 0.435963 0.250000
O O18 0.000000 0.875370 0.750000
O O19 0.162174 0.873864 0.000000
#
# Coordination Sequence:
#
# PCOD9395275 Si02
#       6
#     8   8   8   8   8   8
#     4  10  23  39  58  84 117 153 195 240 292 349
#     4  12  25  43  65  92 123 159 199 246 297 354
#     4  11  23  41  63  90 120 156 197 243 295 353
#     4  11  22  40  64  93 125 163 206 253 304 360
#     4  10  20  36  57  84 113 149 192 239 290 348
#     4  12  25  43  64  91 124 162 204 251 302 358
#
# _framework density 19.753086
#
# number of rings (size 3 to 8) (size 9 to 14) (size 15 to 20)
#    0.000    1.000    0.000    8.500    0.000    4.667 
#    0.000    3.333    0.000    0.000    0.000    0.000 
#    0.000    0.000    0.000    0.000    0.000    0.000 
#
# Total GULP energy -268208.430944 kJ/mol
# GULP energy per Si atom -5587.675645 kJ/mol
# Density = 1.970813 g / cm^3
# Si number density = 19.753086 Si / 1000 Ang^3
#
#
#
# Elastic Constant Matrix: (Units=GPa)
#
#
# Indices 1 2 3 4 5 6 
#
# 1 18.2604 12.1115 16.5839 0.0000 0.0000 0.0000
# 2 12.1115 51.0049 35.9000 0.0000 0.0000 0.0000
# 3 16.5839 35.9000 167.0614 0.0000 0.0000 0.0000
# 4 0.0000 0.0000 0.0000 33.2614 0.0000 0.0000
# 5 0.0000 0.0000 0.0000 0.0000 31.4702 0.0000
# 6 0.0000 0.0000 0.0000 0.0000 0.0000 28.1076
#
#
#
# Elastic Compliance Matrix: (Units=1/GPa)
#
#
# Indices 1 2 3 4 5 6 
#
# 1 0.066996 -0.013228 -0.003808 0.000000 0.000000 0.000000
# 2 -0.013228 0.025712 -0.004212 0.000000 0.000000 0.000000
# 3 -0.003808 -0.004212 0.007269 0.000000 0.000000 0.000000
# 4 0.000000 0.000000 0.000000 0.030065 0.000000 0.000000
# 5 0.000000 0.000000 0.000000 0.000000 0.031776 0.000000
# 6 0.000000 0.000000 0.000000 0.000000 0.000000 0.035578
#
#
# Mechanical properties :
#
#
# Convention : Reuss Voigt Hill
#
# Bulk Modulus (GPa) = 17.39746 40.61305 29.00525
# Shear Modulus (GPa) = 19.30117 30.01657 24.65887
#
# Velocity S-wave (km/s) = 3.12929 3.90242 3.53704
# Velocity P-wave (km/s) = 4.67794 6.39611 5.60327
#
# Compressibility (1/GPa) = 0.05747965
#
# Stress axis : x y z
#
# Youngs Moduli (GPa) = 14.92636 38.89260 137.57124
#
# Poissons Ratio (x) = 0.51449 0.52385
# Poissons Ratio (y) = 0.19745 0.57946
# Poissons Ratio (z) = 0.05684 0.16382
#
# Static dielectric constant tensor:
#      x y z
#    x 2.248890 0.000000 0.000000 
#    y 0.000000 1.778840 0.000000 
#    z 0.000000 0.000000 1.645280 
# 
# From -- ./inp_files/2021.got.cif
#   From: 2010.05.17/outbox.ucp.g08.bks.cvg/sg49_2_cif.got.tgz:2021.got - 2010.06.11 16:40:14.
