data_PCOD9395861
_publ_section_title
;
Structure prediction by ZEFSAII (Michael W. Deem and Ramdas Pophale) SiO2 
 PCOD9395861
Probable space group: P B A N
;
_chemical_formula_sum "Si O2"
_cell_formula_units_Z 64
_cell_length_a 19.531382
_cell_length_b 19.053740
_cell_length_c 9.473145
_cell_angle_alpha 90.000000
_cell_angle_beta 90.000000
_cell_angle_gamma 90.000000
_cell_volume 3525.391830
_symmetry_space_group_name_H-M "P B A N"
_symmetry_group_IT_number 50
_space_group.IT_coordinate_system_code '2'
_symmetry_cell_setting 'orthorhombic'
loop_
_space_group_symop_operation_xyz
x,y,z
1/2-x,1/2-y,z
x,1/2-y,-z
1/2-x,y,-z
-x,-y,-z
1/2+x,1/2+y,-z
-x,1/2+y,z
1/2+x,-y,z
loop_
_atom_site_type_symbol
_atom_site_label
_atom_site_fract_x
_atom_site_fract_y
_atom_site_fract_z
Si Si1 0.535891 0.075960 0.480060
Si Si2 0.071218 0.206470 0.869088
Si Si3 0.181096 0.409023 0.235845
Si Si4 0.103625 0.485601 0.020482
Si Si5 0.975230 0.086816 0.854687
Si Si6 0.172820 0.992208 0.498916
Si Si7 0.941951 0.693700 0.378913
Si Si8 0.338792 0.408023 0.241862
O O1 0.534214 0.092944 0.312871
O O2 0.613560 0.063208 0.529465
O O3 0.495560 0.135714 0.565674
O O4 0.500000 0.000000 0.500000
O O5 0.128312 0.154235 0.799681
O O6 0.008543 0.157087 0.915011
O O7 0.039798 0.259993 0.756452
O O8 0.100647 0.250000 0.000000
O O9 0.164871 0.472966 0.128469
O O10 0.170050 0.442573 0.390450
O O11 0.259951 0.388975 0.214651
O O12 0.036038 0.469522 0.113895
O O13 0.118633 0.428238 0.897610
O O14 0.089647 0.557579 0.939105
O O15 0.250000 0.964240 0.500000
O O16 0.159961 0.024569 0.344401
O O17 0.928247 0.750000 0.500000
O O18 0.874902 0.652880 0.328508
#
# Coordination Sequence:
#
# PCOD9395861 Si02
#       8
#     8   8   8   8   8   8   8   8
#     4  12  20  37  65  86 116 155 204 254 305 350
#     4  11  23  38  54  81 124 159 203 247 291 362
#     4  10  22  38  56  83 123 158 201 243 286 364
#     4  10  19  34  59  82 110 151 205 248 300 335
#     4  10  20  35  55  83 111 147 199 262 293 338
#     4  10  21  37  60  89 120 146 193 257 312 353
#     4  12  23  36  59  85 118 162 208 236 300 364
#     4  11  21  37  56  84 119 163 198 241 290 354
#
# _framework density 18.154012000000002
#
# number of rings (size 3 to 8) (size 9 to 14) (size 15 to 20)
#    0.000    1.250    3.750    4.125    0.000    3.500 
#    0.000    2.500    0.000    0.375    0.000    0.000 
#    0.000    0.000    0.000    0.000    0.000    0.000 
#
# Total GULP energy -356942.997031 kJ/mol
# GULP energy per Si atom -5577.234329 kJ/mol
# Density = 1.811269 g / cm^3
# Si number density = 18.154012 Si / 1000 Ang^3
#
#
#
# Elastic Constant Matrix: (Units=GPa)
#
#
# Indices 1 2 3 4 5 6 
#
# 1 97.4186 53.9688 32.1214 0.0000 0.0000 0.0000
# 2 53.9688 68.5137 18.5467 0.0000 0.0000 0.0000
# 3 32.1214 18.5467 79.1534 0.0000 0.0000 0.0000
# 4 0.0000 0.0000 0.0000 29.2291 0.0000 0.0000
# 5 0.0000 0.0000 0.0000 0.0000 24.4794 0.0000
# 6 0.0000 0.0000 0.0000 0.0000 0.0000 9.8670
#
#
#
# Elastic Compliance Matrix: (Units=1/GPa)
#
#
# Indices 1 2 3 4 5 6 
#
# 1 0.019697 -0.014256 -0.004653 0.000000 0.000000 0.000000
# 2 -0.014256 0.025902 -0.000284 0.000000 0.000000 0.000000
# 3 -0.004653 -0.000284 0.014588 0.000000 0.000000 0.000000
# 4 0.000000 0.000000 0.000000 0.034213 0.000000 0.000000
# 5 0.000000 0.000000 0.000000 0.000000 0.040851 0.000000
# 6 0.000000 0.000000 0.000000 0.000000 0.000000 0.101348
#
#
# Mechanical properties :
#
#
# Convention : Reuss Voigt Hill
#
# Bulk Modulus (GPa) = 45.86773 50.48438 48.17606
# Shear Modulus (GPa) = 17.71480 22.07835 19.89657
#
# Velocity S-wave (km/s) = 3.12718 3.49115 3.31416
# Velocity P-wave (km/s) = 6.19352 6.64230 6.42183
#
# Compressibility (1/GPa) = 0.02180182
#
# Stress axis : x y z
#
# Youngs Moduli (GPa) = 50.77027 38.60746 68.54749
#
# Poissons Ratio (x) = 0.55037 0.31894
# Poissons Ratio (y) = 0.72376 0.01947
# Poissons Ratio (z) = 0.23623 0.01097
#
# Static dielectric constant tensor:
#      x y z
#    x 1.660530 0.000000 0.000000 
#    y 0.000000 1.662830 0.000000 
#    z 0.000000 0.000000 1.672600 
# 
# From -- ./inp_files/15484.got.cif
#   From: 2010.05.17/outbox.cif.g08.bks.cpg/sg50_8_cif.got.tgz:15484.got - 2010.06.03 11:33:33.
