data_PCOD9395918
_publ_section_title
;
Structure prediction by ZEFSAII (Michael W. Deem and Ramdas Pophale) SiO2 
 PCOD9395918
Probable space group: P B A N
;
_chemical_formula_sum "Si O2"
_cell_formula_units_Z 48
_cell_length_a 5.763201
_cell_length_b 27.106338
_cell_length_c 13.518490
_cell_angle_alpha 90.000000
_cell_angle_beta 90.000000
_cell_angle_gamma 90.000000
_cell_volume 2111.848697
_symmetry_space_group_name_H-M "P B A N"
_symmetry_group_IT_number 50
_space_group.IT_coordinate_system_code '2'
_symmetry_cell_setting 'orthorhombic'
loop_
_space_group_symop_operation_xyz
x,y,z
1/2-x,1/2-y,z
x,1/2-y,-z
1/2-x,y,-z
-x,-y,-z
1/2+x,1/2+y,-z
-x,1/2+y,z
1/2+x,-y,z
loop_
_atom_site_type_symbol
_atom_site_label
_atom_site_fract_x
_atom_site_fract_y
_atom_site_fract_z
Si Si1 0.330529 0.197122 0.386873
Si Si2 0.110730 0.377010 0.099811
Si Si3 0.550715 0.988509 0.345405
Si Si4 0.389639 0.976992 0.880509
Si Si5 0.057894 0.116316 0.268833
Si Si6 0.325812 0.805362 0.771607
O O1 0.250000 0.250000 0.343679
O O2 0.250000 0.197834 0.500000
O O3 0.589813 0.194321 0.343707
O O4 0.209187 0.150278 0.339981
O O5 0.918337 0.419549 0.091028
O O6 0.288657 0.401496 0.177380
O O7 0.017635 0.327506 0.153366
O O8 0.250000 0.367107 0.000000
O O9 0.482445 0.931619 0.326984
O O10 0.813200 0.988984 0.390629
O O11 0.594179 0.015497 0.239220
O O12 0.132807 0.996110 0.911564
O O13 0.871387 0.153666 0.225261
O O14 0.250000 0.750000 0.796947
#
# Coordination Sequence:
#
# PCOD9395918 Si02
#       6
#     8   8   8   8   8   8
#     4  10  22  42  68 103 131 155 205 279 353 418
#     4  11  25  40  61  93 136 180 236 283 330 396
#     4  10  19  35  61  93 128 181 226 276 334 403
#     4  10  19  37  59  95 132 177 229 297 345 394
#     4  11  22  40  65  94 132 174 219 272 340 405
#     4  11  23  43  68  92 127 174 218 275 341 413
#
# _framework density 22.728902999999999
#
# number of rings (size 3 to 8) (size 9 to 14) (size 15 to 20)
#    0.000    1.500    5.000    2.000    2.333    2.000 
#    0.000    2.500    0.000    1.000    0.000    0.000 
#    0.000    0.000    0.000    0.000    0.000    0.000 
#
# Total GULP energy -267752.259925 kJ/mol
# GULP energy per Si atom -5578.172082 kJ/mol
# Density = 2.267717 g / cm^3
# Si number density = 22.728903 Si / 1000 Ang^3
#
#
#
# Elastic Constant Matrix: (Units=GPa)
#
#
# Indices 1 2 3 4 5 6 
#
# 1 130.8930 43.1911 23.0729 0.0000 0.0000 0.0000
# 2 43.1911 147.8124 24.5589 0.0000 0.0000 0.0000
# 3 23.0729 24.5589 69.8848 0.0000 0.0000 0.0000
# 4 0.0000 0.0000 0.0000 -6.4867 0.0000 0.0000
# 5 0.0000 0.0000 0.0000 0.0000 -2.4768 0.0000
# 6 0.0000 0.0000 0.0000 0.0000 0.0000 40.6414
#
#
#
# Elastic Compliance Matrix: (Units=1/GPa)
#
#
# Indices 1 2 3 4 5 6 
#
# 1 0.008739 -0.002203 -0.002111 0.000000 0.000000 0.000000
# 2 -0.002203 0.007740 -0.001993 0.000000 0.000000 0.000000
# 3 -0.002111 -0.001993 0.015707 0.000000 0.000000 0.000000
# 4 0.000000 0.000000 0.000000 -0.154161 0.000000 0.000000
# 5 0.000000 0.000000 0.000000 0.000000 -0.403740 0.000000
# 6 0.000000 0.000000 0.000000 0.000000 0.000000 0.024605
#
#
# Mechanical properties :
#
#
# Convention : Reuss Voigt Hill
#
# Bulk Modulus (GPa) = 51.09277 58.91511 55.00394
# Shear Modulus (GPa) = -10.37404 23.52005 6.57300
#
# Velocity S-wave (km/s) = -2.13873 3.22033 1.70241
# Velocity P-wave (km/s) = 4.05329 6.30908 5.30253
#
# Compressibility (1/GPa) = 0.01957224
#
# Stress axis : x y z
#
# Youngs Moduli (GPa) = 114.43221 129.19773 63.66774
#
# Poissons Ratio (x) = 0.28459 0.13441
# Poissons Ratio (y) = 0.25206 0.12688
# Poissons Ratio (z) = 0.24158 0.25746
#
# Static dielectric constant tensor:
#      x y z
#    x 1.808910 0.000000 0.000000 
#    y 0.000000 1.844910 0.000000 
#    z 0.000000 0.000000 1.899810 
# 
# From -- ./inp_files/24090.got.cif
#   From: 2010.05.17/outbox.cif.g08.bks.cpg/sg50_13_cif.got.tgz:24090.got - 2010.06.03 11:33:33.
