data_PCOD9395232
_publ_section_title
;
Structure prediction by ZEFSAII (Michael W. Deem and Ramdas Pophale) SiO2 
 PCOD9395232
Probable space group: P C C M
;
_chemical_formula_sum "Si O2"
_cell_formula_units_Z 64
_cell_length_a 21.000000
_cell_length_b 21.000000
_cell_length_c 9.000000
_cell_angle_alpha 90.000000
_cell_angle_beta 90.000000
_cell_angle_gamma 90.000000
_cell_volume 3969.000000
_symmetry_space_group_name_H-M "P C C M"
_symmetry_group_IT_number 49
_symmetry_cell_setting 'orthorhombic'
loop_
_space_group_symop_operation_xyz
x,y,z
-x,-y,z
x,-y,1/2-z
-x,y,1/2-z
-x,-y,-z
x,y,-z
-x,y,1/2+z
x,-y,1/2+z
loop_
_atom_site_type_symbol
_atom_site_label
_atom_site_fract_x
_atom_site_fract_y
_atom_site_fract_z
Si Si1 0.435294 0.874493 0.821047
Si Si2 0.297750 0.932387 0.821567
Si Si3 0.292378 0.433072 0.322580
Si Si4 0.563965 0.389607 0.178789
Si Si5 0.813821 0.164385 0.179521
Si Si6 0.929587 0.069648 0.181659
Si Si7 0.258302 0.710636 0.180657
Si Si8 0.605868 0.258040 0.679209
O O1 0.500000 0.901864 0.750000
O O2 0.370445 0.912815 0.786107
O O3 0.424658 0.805198 0.748149
O O4 0.441033 0.869622 0.000000
O O5 0.247073 0.878469 0.773685
O O6 0.282099 0.000000 0.750000
O O7 0.293119 0.937113 0.000000
O O8 0.271253 0.500000 0.250000
O O9 0.286315 0.439088 0.500000
O O10 0.367990 0.423100 0.288889
O O11 0.257133 0.365618 0.281515
O O12 0.500000 0.418861 0.250000
O O13 0.571895 0.320252 0.253635
O O14 0.557793 0.384894 0.000000
O O15 0.877872 0.124908 0.222527
O O16 0.797973 0.238561 0.220429
O O17 0.815098 0.164582 0.000000
O O18 0.000000 0.083242 0.250000
O O19 0.910995 0.000000 0.250000
O O20 0.932773 0.065191 0.000000
O O21 0.321711 0.736646 0.260666
O O22 0.266963 0.713624 0.000000
O O23 0.603285 0.257660 0.500000
#
# Coordination Sequence:
#
# PCOD9395232 Si02
#       8
#     8   8   8   8   8   8   8   8
#     4  11  22  36  51  65  88 120 156 203 257 309
#     4  10  21  36  53  70  92 123 158 205 250 296
#     4   9  19  32  49  68  93 126 155 196 247 302
#     4  10  20  33  47  65  88 120 156 196 246 303
#     4   9  17  33  56  77  99 133 173 207 244 288
#     4  10  19  32  52  78 112 149 179 209 243 289
#     4   9  17  34  54  72  96 127 165 202 244 293
#     4  11  20  31  48  71  93 117 152 200 253 303
#
# _framework density 16.124969
#
# number of rings (size 3 to 8) (size 9 to 14) (size 15 to 20)
#    0.000    2.125    1.250    4.125    0.000    4.000 
#    0.000    4.375    0.000    0.000    0.000    0.000 
#    0.000    0.500    0.000    6.250    0.000    0.000 
#
# Total GULP energy -356817.475878 kJ/mol
# GULP energy per Si atom -5575.273061 kJ/mol
# Density = 1.608827 g / cm^3
# Si number density = 16.124969 Si / 1000 Ang^3
#
#
#
# Elastic Constant Matrix: (Units=GPa)
#
#
# Indices 1 2 3 4 5 6 
#
# 1 85.5416 46.4613 17.9709 0.0000 0.0000 0.0000
# 2 46.4613 120.9189 20.6806 0.0000 0.0000 0.0000
# 3 17.9709 20.6806 50.0487 0.0000 0.0000 0.0000
# 4 0.0000 0.0000 0.0000 25.4737 0.0000 0.0000
# 5 0.0000 0.0000 0.0000 0.0000 18.5485 0.0000
# 6 0.0000 0.0000 0.0000 0.0000 0.0000 20.2427
#
#
#
# Elastic Compliance Matrix: (Units=1/GPa)
#
#
# Indices 1 2 3 4 5 6 
#
# 1 0.015260 -0.005301 -0.003289 0.000000 0.000000 0.000000
# 2 -0.005301 0.010740 -0.002535 0.000000 0.000000 0.000000
# 3 -0.003289 -0.002535 0.022209 0.000000 0.000000 0.000000
# 4 0.000000 0.000000 0.000000 0.039256 0.000000 0.000000
# 5 0.000000 0.000000 0.000000 0.000000 0.053913 0.000000
# 6 0.000000 0.000000 0.000000 0.000000 0.000000 0.049400
#
#
# Mechanical properties :
#
#
# Convention : Reuss Voigt Hill
#
# Bulk Modulus (GPa) = 38.52053 47.41499 42.96776
# Shear Modulus (GPa) = 22.55485 24.27941 23.41713
#
# Velocity S-wave (km/s) = 3.74405 3.88455 3.81495
# Velocity P-wave (km/s) = 6.52925 7.04189 6.79041
#
# Compressibility (1/GPa) = 0.02596018
#
# Stress axis : x y z
#
# Youngs Moduli (GPa) = 65.52895 93.10685 45.02714
#
# Poissons Ratio (x) = 0.49357 0.14810
# Poissons Ratio (y) = 0.34737 0.11412
# Poissons Ratio (z) = 0.21553 0.23599
#
# Static dielectric constant tensor:
#      x y z
#    x 1.552150 0.000000 0.000000 
#    y 0.000000 1.561090 0.000000 
#    z 0.000000 0.000000 1.535410 
# 
# From -- ./inp_files/6069.got.cif
#   From: 2010.05.17/outbox.ucp.g08.bks.cvg/sg49_4_cif.got.tgz:6069.got - 2010.06.11 16:40:14.
