data_PCOD9395989
_publ_section_title
;
Structure prediction by ZEFSAII (Michael W. Deem and Ramdas Pophale) SiO2 
 PCOD9395989
Probable space group: P B A N
;
_chemical_formula_sum "Si O2"
_cell_formula_units_Z 40
_cell_length_a 14.448655
_cell_length_b 8.851406
_cell_length_c 14.854774
_cell_angle_alpha 90.000000
_cell_angle_beta 90.000000
_cell_angle_gamma 90.000000
_cell_volume 1899.790588
_symmetry_space_group_name_H-M "P B A N"
_symmetry_group_IT_number 50
_space_group.IT_coordinate_system_code '2'
_symmetry_cell_setting 'orthorhombic'
loop_
_space_group_symop_operation_xyz
x,y,z
1/2-x,1/2-y,z
x,1/2-y,-z
1/2-x,y,-z
-x,-y,-z
1/2+x,1/2+y,-z
-x,1/2+y,z
1/2+x,-y,z
loop_
_atom_site_type_symbol
_atom_site_label
_atom_site_fract_x
_atom_site_fract_y
_atom_site_fract_z
Si Si1 0.108699 0.039117 0.098787
Si Si2 0.750000 0.750000 0.500000
Si Si3 0.636435 0.638847 0.339413
Si Si4 0.250000 0.250000 0.000000
Si Si5 0.447734 0.887544 0.567577
Si Si6 0.033951 0.750000 0.000000
Si Si7 0.815398 0.978809 0.710661
O O1 0.193704 0.137603 0.063436
O O2 0.133130 0.979714 0.197945
O O3 0.089613 0.888408 0.042185
O O4 0.026985 0.161682 0.076820
O O5 0.684134 0.650085 0.437858
O O6 0.527566 0.630280 0.355586
O O7 0.702646 0.518484 0.288878
O O8 0.657123 0.802363 0.298368
O O9 0.427013 0.750000 0.500000
O O10 0.500000 0.000000 0.500000
O O11 0.358526 0.941534 0.622927
#
# Coordination Sequence:
#
# PCOD9395989 Si02
#       7
#     8   2   8   2   8   4   8
#     4  10  21  41  65  99 127 171 218 264 339 403
#     4   8  12  30  52  76 114 160 208 232 304 364
#     4  10  19  37  59  92 121 174 209 271 317 377
#     4  10  20  40  72  94 124 174 216 266 342 430
#     4  12  22  39  63  92 128 175 221 264 327 380
#     4   9  22  40  66  93 134 172 206 273 330 410
#     4  10  22  37  66  94 127 168 222 267 317 397
#
# _framework density 21.054950999999999
#
# number of rings (size 3 to 8) (size 9 to 14) (size 15 to 20)
#    0.000    2.000    3.000    2.400    2.800    0.400 
#    3.600    2.000    4.400    0.000    0.000    0.000 
#    0.000    0.000    0.000    0.000    0.000    0.000 
#
# Total GULP energy -222673.862819 kJ/mol
# GULP energy per Si atom -5566.846570 kJ/mol
# Density = 2.100703 g / cm^3
# Si number density = 21.054951 Si / 1000 Ang^3
#
#
#
# Elastic Constant Matrix: (Units=GPa)
#
#
# Indices 1 2 3 4 5 6 
#
# 1 87.6338 33.0365 22.5578 0.0000 0.0000 0.0000
# 2 33.0365 94.5947 25.7479 0.0000 0.0000 0.0000
# 3 22.5578 25.7479 90.8504 0.0000 0.0000 0.0000
# 4 0.0000 0.0000 0.0000 13.4992 0.0000 0.0000
# 5 0.0000 0.0000 0.0000 0.0000 -26.3849 0.0000
# 6 0.0000 0.0000 0.0000 0.0000 0.0000 4.3453
#
#
#
# Elastic Compliance Matrix: (Units=1/GPa)
#
#
# Indices 1 2 3 4 5 6 
#
# 1 0.013532 -0.004130 -0.002189 0.000000 0.000000 0.000000
# 2 -0.004130 0.012716 -0.002578 0.000000 0.000000 0.000000
# 3 -0.002189 -0.002578 0.012281 0.000000 0.000000 0.000000
# 4 0.000000 0.000000 0.000000 0.074079 0.000000 0.000000
# 5 0.000000 0.000000 0.000000 0.000000 -0.037900 0.000000
# 6 0.000000 0.000000 0.000000 0.000000 0.000000 0.230136
#
#
# Mechanical properties :
#
#
# Convention : Reuss Voigt Hill
#
# Bulk Modulus (GPa) = 48.23120 48.41814 48.32467
# Shear Modulus (GPa) = 15.17224 11.07435 13.12330
#
# Velocity S-wave (km/s) = 2.68732 2.29590 2.49928
# Velocity P-wave (km/s) = 5.70841 5.48400 5.59733
#
# Compressibility (1/GPa) = 0.02073347
#
# Stress axis : x y z
#
# Youngs Moduli (GPa) = 73.90113 78.64401 81.42376
#
# Poissons Ratio (x) = 0.32479 0.17827
# Poissons Ratio (y) = 0.30520 0.20993
# Poissons Ratio (z) = 0.16180 0.20277
#
# Static dielectric constant tensor:
#      x y z
#    x 1.912580 0.000000 0.000000 
#    y 0.000000 1.764240 0.000000 
#    z 0.000000 0.000000 1.819950 
# 
# From -- ./inp_files/26337.got.cif
#   From: 2010.05.17/outbox.cif.g08.bks.cpg/sg50_14_cif.got.tgz:26337.got - 2010.06.03 11:33:33.
