data_PCOD9395190
_publ_section_title
;
Structure prediction by ZEFSAII (Michael W. Deem and Ramdas Pophale) SiO2 
 PCOD9395190
Probable space group: P C C M
;
_chemical_formula_sum "Si O2"
_cell_formula_units_Z 40
_cell_length_a 9.431637
_cell_length_b 15.759917
_cell_length_c 11.379399
_cell_angle_alpha 90.000000
_cell_angle_beta 90.000000
_cell_angle_gamma 90.000000
_cell_volume 1691.454536
_symmetry_space_group_name_H-M "P C C M"
_symmetry_group_IT_number 49
_symmetry_cell_setting 'orthorhombic'
loop_
_space_group_symop_operation_xyz
x,y,z
-x,-y,z
x,-y,1/2-z
-x,y,1/2-z
-x,-y,-z
x,y,-z
-x,y,1/2+z
x,-y,1/2+z
loop_
_atom_site_type_symbol
_atom_site_label
_atom_site_fract_x
_atom_site_fract_y
_atom_site_fract_z
Si Si1 0.160631 0.533143 0.372326
Si Si2 0.213223 0.267779 0.872209
Si Si3 0.337135 0.969155 0.126937
Si Si4 0.513537 0.651455 0.625995
Si Si5 0.234544 0.781717 0.126390
O O1 0.224534 0.500000 0.250000
O O2 0.221933 0.506806 0.500000
O O3 0.160494 0.634898 0.368843
O O4 0.000000 0.500000 0.373277
O O5 0.385178 0.279206 0.869053
O O6 0.162652 0.223182 0.753641
O O7 0.178150 0.230630 0.000000
O O8 0.326116 0.867581 0.127921
O O9 0.500000 0.000000 0.127185
O O10 0.271459 0.000000 0.250000
O O11 0.275653 0.997681 0.000000
O O12 0.500000 0.604556 0.750000
O O13 0.494737 0.607740 0.500000
O O14 0.661841 0.700556 0.624268
O O15 0.155945 0.780634 0.000000
#
# Coordination Sequence:
#
# PCOD9395190 Si02
#       5
#     8   8   8   8   8
#     4   9  18  33  51  71  93 114 140 181 239 300
#     4   9  17  27  44  66  85 113 152 191 234 283
#     4   9  18  26  35  54  83 121 166 205 239 269
#     4   8  14  23  37  55  78 108 148 188 222 256
#     4   9  17  28  40  59  88 123 164 205 234 265
#
# _framework density 23.648285999999999
#
# number of rings (size 3 to 8) (size 9 to 14) (size 15 to 20)
#    0.000    3.200    0.000    0.000    8.400    1.600 
#    0.000    0.000    0.000    5.400    0.000   32.200 
#    0.000    0.000    0.000    3.600    0.000   68.400 
#
# Total GULP energy -222746.914211 kJ/mol
# GULP energy per Si atom -5568.672855 kJ/mol
# Density = 2.359446 g / cm^3
# Si number density = 23.648286 Si / 1000 Ang^3
#
#
#
# Elastic Constant Matrix: (Units=GPa)
#
#
# Indices 1 2 3 4 5 6 
#
# 1 57.2999 2.0769 3.7294 0.0000 0.0000 0.0000
# 2 2.0769 46.5725 42.9522 0.0000 0.0000 0.0000
# 3 3.7294 42.9522 371.0358 0.0000 0.0000 0.0000
# 4 0.0000 0.0000 0.0000 9.9099 0.0000 0.0000
# 5 0.0000 0.0000 0.0000 0.0000 -23.8042 0.0000
# 6 0.0000 0.0000 0.0000 0.0000 0.0000 -4.5976
#
#
#
# Elastic Compliance Matrix: (Units=1/GPa)
#
#
# Indices 1 2 3 4 5 6 
#
# 1 0.017483 -0.000691 -0.000096 0.000000 0.000000 0.000000
# 2 -0.000691 0.024066 -0.002779 0.000000 0.000000 0.000000
# 3 -0.000096 -0.002779 0.003018 0.000000 0.000000 0.000000
# 4 0.000000 0.000000 0.000000 0.100909 0.000000 0.000000
# 5 0.000000 0.000000 0.000000 0.000000 -0.042009 0.000000
# 6 0.000000 0.000000 0.000000 0.000000 0.000000 -0.217507
#
#
# Mechanical properties :
#
#
# Convention : Reuss Voigt Hill
#
# Bulk Modulus (GPa) = 26.71320 63.60280 45.15800
# Shear Modulus (GPa) = -52.94946 24.71161 -14.11893
#
# Velocity S-wave (km/s) = -4.73698 3.23610 -2.44609
# Velocity P-wave (km/s) = 4.31255 6.39662 3.34056
#
# Compressibility (1/GPa) = 0.03743467
#
# Stress axis : x y z
#
# Youngs Moduli (GPa) = 57.19730 41.55293 331.36490
#
# Poissons Ratio (x) = 0.02873 0.03171
# Poissons Ratio (y) = 0.03955 0.92085
# Poissons Ratio (z) = 0.00547 0.11547
#
# Static dielectric constant tensor:
#      x y z
#    x 1.860420 0.000000 0.000000 
#    y 0.000000 1.823790 0.000000 
#    z 0.000000 0.000000 2.057020 
# 
# From -- ./inp_files/8732.got.cif
#   From: 2010.05.17/outbox.cif.g08.bks.cpg/sg49_5_cif.got.tgz:8732.got - 2010.06.03 21:02:19.
