data_PCOD9395815
_publ_section_title
;
Structure prediction by ZEFSAII (Michael W. Deem and Ramdas Pophale) SiO2 
 PCOD9395815
Probable space group: P B A N
;
_chemical_formula_sum "Si O2"
_cell_formula_units_Z 52
_cell_length_a 16.382764
_cell_length_b 8.172027
_cell_length_c 18.830393
_cell_angle_alpha 90.000000
_cell_angle_beta 90.000000
_cell_angle_gamma 90.000000
_cell_volume 2521.020354
_symmetry_space_group_name_H-M "P B A N"
_symmetry_group_IT_number 50
_space_group.IT_coordinate_system_code '2'
_symmetry_cell_setting 'orthorhombic'
loop_
_space_group_symop_operation_xyz
x,y,z
1/2-x,1/2-y,z
x,1/2-y,-z
1/2-x,y,-z
-x,-y,-z
1/2+x,1/2+y,-z
-x,1/2+y,z
1/2+x,-y,z
loop_
_atom_site_type_symbol
_atom_site_label
_atom_site_fract_x
_atom_site_fract_y
_atom_site_fract_z
Si Si1 0.250000 0.250000 0.000000
Si Si2 0.023667 0.045593 0.667629
Si Si3 0.374938 0.830373 0.248689
Si Si4 0.216756 0.017855 0.249702
Si Si5 0.010338 0.856164 0.165047
Si Si6 0.750000 0.750000 0.500000
Si Si7 0.873847 0.636115 0.114079
Si Si8 0.372516 0.353631 0.383003
O O1 0.187999 0.353574 0.951051
O O2 0.079343 0.182576 0.630638
O O3 0.004940 0.092454 0.751303
O O4 0.074433 0.878157 0.681379
O O5 0.942959 0.992190 0.624937
O O6 0.310907 0.976342 0.240880
O O7 0.327251 0.659740 0.254785
O O8 0.432666 0.803271 0.180777
O O9 0.181206 0.111853 0.183261
O O10 0.188661 0.113983 0.318266
O O11 0.929765 0.795926 0.125547
O O12 0.063673 0.983308 0.120093
O O13 0.686452 0.649558 0.549154
#
# Coordination Sequence:
#
# PCOD9395815 Si02
#       8
#     2   8   8   8   8   2   8   8
#     4  12  32  42  56 102 148 192 208 262 340 422
#     4  12  19  38  71 100 122 166 227 290 322 382
#     4  10  19  33  63 111 123 153 213 293 346 356
#     4  10  20  38  67  97 133 163 221 292 315 390
#     4  11  19  40  69 102 122 166 226 289 318 385
#     4  12  32  42  56  98 148 188 212 262 344 422
#     4  11  24  43  66  99 134 173 225 266 339 387
#     4  12  23  44  65 101 134 177 224 270 342 391
#
# _framework density 20.626569
#
# number of rings (size 3 to 8) (size 9 to 14) (size 15 to 20)
#    0.000    0.923    7.692    0.923    2.154    1.846 
#    0.000    0.000    0.000   22.154    0.000    0.000 
#    0.000    0.000    0.000    0.000    0.000    0.000 
#
# Total GULP energy -290107.906571 kJ/mol
# GULP energy per Si atom -5578.998203 kJ/mol
# Density = 2.057962 g / cm^3
# Si number density = 20.626569 Si / 1000 Ang^3
#
#
#
# Elastic Constant Matrix: (Units=GPa)
#
#
# Indices 1 2 3 4 5 6 
#
# 1 150.7737 51.8080 65.1505 0.0000 0.0000 0.0000
# 2 51.8080 86.3061 36.9143 0.0000 0.0000 0.0000
# 3 65.1505 36.9143 105.0215 0.0000 0.0000 0.0000
# 4 0.0000 0.0000 0.0000 -41.7489 0.0000 0.0000
# 5 0.0000 0.0000 0.0000 0.0000 45.8567 0.0000
# 6 0.0000 0.0000 0.0000 0.0000 0.0000 82.9495
#
#
#
# Elastic Compliance Matrix: (Units=1/GPa)
#
#
# Indices 1 2 3 4 5 6 
#
# 1 0.010105 -0.003984 -0.004868 0.000000 0.000000 0.000000
# 2 -0.003984 0.015207 -0.002874 0.000000 0.000000 0.000000
# 3 -0.004868 -0.002874 0.013552 0.000000 0.000000 0.000000
# 4 0.000000 0.000000 0.000000 -0.023953 0.000000 0.000000
# 5 0.000000 0.000000 0.000000 0.000000 0.021807 0.000000
# 6 0.000000 0.000000 0.000000 0.000000 0.000000 0.012056
#
#
# Mechanical properties :
#
#
# Convention : Reuss Voigt Hill
#
# Bulk Modulus (GPa) = 64.88309 72.20523 68.54416
# Shear Modulus (GPa) = 64.62980 29.96002 47.29491
#
# Velocity S-wave (km/s) = 5.60369 3.81530 4.79363
# Velocity P-wave (km/s) = 8.56696 7.38177 7.99635
#
# Compressibility (1/GPa) = 0.01541234
#
# Stress axis : x y z
#
# Youngs Moduli (GPa) = 98.96133 65.75851 73.78851
#
# Poissons Ratio (x) = 0.26195 0.35924
# Poissons Ratio (y) = 0.39421 0.21207
# Poissons Ratio (z) = 0.48179 0.18899
#
# Static dielectric constant tensor:
#      x y z
#    x 1.826330 0.000000 0.000000 
#    y 0.000000 1.844090 0.000000 
#    z 0.000000 0.000000 1.698480 
# 
# From -- ./inp_files/29696.got.cif
#   From: 2010.05.17/outbox.cif.g08.bks.cpg/sg50_15_cif.got.tgz:29696.got - 2010.06.03 11:33:33.
