data_PCOD9395102
_publ_section_title
;
Structure prediction by ZEFSAII (Michael W. Deem and Ramdas Pophale) SiO2 
 PCOD9395102
Probable space group: P C C M
;
_chemical_formula_sum "Si O2"
_cell_formula_units_Z 64
_cell_length_a 17.990184
_cell_length_b 5.421509
_cell_length_c 28.876307
_cell_angle_alpha 90.000000
_cell_angle_beta 90.000000
_cell_angle_gamma 90.000000
_cell_volume 2816.420123
_symmetry_space_group_name_H-M "P C C M"
_symmetry_group_IT_number 49
_symmetry_cell_setting 'orthorhombic'
loop_
_space_group_symop_operation_xyz
x,y,z
-x,-y,z
x,-y,1/2-z
-x,y,1/2-z
-x,-y,-z
x,y,-z
-x,y,1/2+z
x,-y,1/2+z
loop_
_atom_site_type_symbol
_atom_site_label
_atom_site_fract_x
_atom_site_fract_y
_atom_site_fract_z
Si Si1 0.579992 0.408829 0.127532
Si Si2 0.703773 0.241398 0.369802
Si Si3 0.397054 0.254385 0.723686
Si Si4 0.769269 0.855736 0.295172
Si Si5 0.328094 0.894442 0.052302
Si Si6 0.851665 0.456801 0.136949
Si Si7 0.849256 0.881707 0.450026
Si Si8 0.046012 0.743252 0.583134
O O1 0.500000 0.500000 0.111916
O O2 0.632108 0.621610 0.149781
O O3 0.571179 0.232602 0.171738
O O4 0.626603 0.288293 0.085777
O O5 0.772554 0.423548 0.375556
O O6 0.738845 0.031270 0.336913
O O7 0.673310 0.146341 0.418746
O O8 0.422432 0.500000 0.750000
O O9 0.306973 0.274257 0.719782
O O10 0.412070 0.000000 0.750000
O O11 0.832933 0.681382 0.315720
O O12 0.795885 0.000000 0.250000
O O13 0.239517 0.851110 0.049135
O O14 0.357396 0.903602 0.000000
O O15 0.869967 0.262171 0.096564
O O16 0.917496 0.655582 0.131933
O O17 0.877838 0.790192 0.500000
O O18 0.880930 0.161304 0.444994
O O19 0.000000 0.500000 0.566262
O O20 0.000000 0.000000 0.583454
#
# Coordination Sequence:
#
# PCOD9395102 Si02
#       8
#     8   8   8   8   8   8   8   8
#     4  12  26  44  67 101 147 199 249 321 384 447
#     4  12  21  44  69 101 143 184 252 310 368 451
#     4  11  23  43  70 104 146 187 237 299 382 464
#     4  11  23  39  71 108 142 176 243 313 372 435
#     4  11  24  44  68 100 139 194 261 318 373 442
#     4  12  22  43  72 102 151 187 249 296 372 446
#     4  11  23  43  71 106 146 195 247 304 368 444
#     4  12  26  45  69 108 155 197 234 296 371 454
#
# _framework density 22.723883000000001
#
# number of rings (size 3 to 8) (size 9 to 14) (size 15 to 20)
#    0.000    0.500    7.500    1.500    0.000    3.000 
#    0.000    3.125    0.000    0.000    0.000   12.250 
#    0.000    0.000    0.000    0.000    0.000    0.000 
#
# Total GULP energy -357095.856299 kJ/mol
# GULP energy per Si atom -5579.622755 kJ/mol
# Density = 2.267216 g / cm^3
# Si number density = 22.723883 Si / 1000 Ang^3
#
#
#
# Elastic Constant Matrix: (Units=GPa)
#
#
# Indices 1 2 3 4 5 6 
#
# 1 79.7927 32.3267 31.5524 0.0000 0.0000 0.0000
# 2 32.3267 109.3656 62.3721 0.0000 0.0000 0.0000
# 3 31.5524 62.3721 144.5301 0.0000 0.0000 0.0000
# 4 0.0000 0.0000 0.0000 -22.9711 0.0000 0.0000
# 5 0.0000 0.0000 0.0000 0.0000 42.7766 0.0000
# 6 0.0000 0.0000 0.0000 0.0000 0.0000 -68.9788
#
#
#
# Elastic Compliance Matrix: (Units=1/GPa)
#
#
# Indices 1 2 3 4 5 6 
#
# 1 0.014565 -0.003305 -0.001753 0.000000 0.000000 0.000000
# 2 -0.003305 0.012879 -0.004836 0.000000 0.000000 0.000000
# 3 -0.001753 -0.004836 0.009389 0.000000 0.000000 0.000000
# 4 0.000000 0.000000 0.000000 -0.043533 0.000000 0.000000
# 5 0.000000 0.000000 0.000000 0.000000 0.023377 0.000000
# 6 0.000000 0.000000 0.000000 0.000000 0.000000 -0.014497
#
#
# Mechanical properties :
#
#
# Convention : Reuss Voigt Hill
#
# Bulk Modulus (GPa) = 58.67554 65.13232 61.90393
# Shear Modulus (GPa) = 180.83088 3.99449 92.41268
#
# Velocity S-wave (km/s) = 8.93030 1.32727 6.38404
# Velocity P-wave (km/s) = 11.49829 5.57437 9.03561
#
# Compressibility (1/GPa) = 0.01704288
#
# Stress axis : x y z
#
# Youngs Moduli (GPa) = 68.65855 77.64700 106.50942
#
# Poissons Ratio (x) = 0.25664 0.18674
# Poissons Ratio (y) = 0.22693 0.51511
# Poissons Ratio (z) = 0.12038 0.37552
#
# Static dielectric constant tensor:
#      x y z
#    x 1.921040 0.000000 0.000000 
#    y 0.000000 1.956660 0.000000 
#    z 0.000000 0.000000 1.901520 
# 
# From -- ./inp_files/26892.got.cif
#   From: 2010.05.17/outbox.cif.g08.bks.cpg/sg49_14_cif.got.tgz:26892.got - 2010.06.03 21:02:19.
