data_PCOD9395855
_publ_section_title
;
Structure prediction by ZEFSAII (Michael W. Deem and Ramdas Pophale) SiO2 
 PCOD9395855
Probable space group: P B A N
;
_chemical_formula_sum "Si O2"
_cell_formula_units_Z 48
_cell_length_a 14.471079
_cell_length_b 10.104226
_cell_length_c 17.553012
_cell_angle_alpha 90.000000
_cell_angle_beta 90.000000
_cell_angle_gamma 90.000000
_cell_volume 2566.584786
_symmetry_space_group_name_H-M "P B A N"
_symmetry_group_IT_number 50
_space_group.IT_coordinate_system_code '2'
_symmetry_cell_setting 'orthorhombic'
loop_
_space_group_symop_operation_xyz
x,y,z
1/2-x,1/2-y,z
x,1/2-y,-z
1/2-x,y,-z
-x,-y,-z
1/2+x,1/2+y,-z
-x,1/2+y,z
1/2+x,-y,z
loop_
_atom_site_type_symbol
_atom_site_label
_atom_site_fract_x
_atom_site_fract_y
_atom_site_fract_z
Si Si1 0.287414 0.076116 0.915353
Si Si2 0.970788 0.854707 0.567185
Si Si3 0.948550 0.384889 0.048541
Si Si4 0.884967 0.837327 0.158337
Si Si5 0.151861 0.971799 0.535899
Si Si6 0.849585 0.688456 0.670419
O O1 0.192794 0.058850 0.869279
O O2 0.344270 0.195672 0.873744
O O3 0.353073 0.949931 0.924018
O O4 0.250000 0.110411 0.000000
O O5 0.958524 0.750000 0.500000
O O6 0.911851 0.978396 0.535139
O O7 0.919843 0.798392 0.639728
O O8 0.080160 0.872969 0.576106
O O9 0.017580 0.356041 0.118058
O O10 0.937621 0.250000 0.000000
O O11 0.000000 0.500000 0.000000
O O12 0.888995 0.855140 0.248674
O O13 0.250000 0.931830 0.500000
O O14 0.164852 0.084625 0.600783
O O15 0.750000 0.750000 0.686375
#
# Coordination Sequence:
#
# PCOD9395855 Si02
#       6
#     8   8   8   8   8   8
#     4  11  21  38  62  82 119 155 211 251 305 376
#     4   9  20  35  55  84 113 152 199 245 293 362
#     4  12  23  40  64  91 117 159 215 262 315 382
#     4  11  22  39  59  89 124 166 197 261 320 384
#     4  10  19  34  58  84 116 150 200 253 298 354
#     4  11  20  35  60  88 118 157 203 246 307 372
#
# _framework density 18.701896999999999
#
# number of rings (size 3 to 8) (size 9 to 14) (size 15 to 20)
#    0.000    1.333    6.667    1.000    0.000    2.000 
#    0.000    0.000    0.000    0.000    0.000    0.000 
#    0.000    0.000    0.000    0.000    0.000    0.000 
#
# Total GULP energy -267357.147278 kJ/mol
# GULP energy per Si atom -5569.940568 kJ/mol
# Density = 1.865933 g / cm^3
# Si number density = 18.701897 Si / 1000 Ang^3
#
#
#
# Elastic Constant Matrix: (Units=GPa)
#
#
# Indices 1 2 3 4 5 6 
#
# 1 145.4776 36.6710 37.9088 0.0000 0.0000 0.0000
# 2 36.6710 55.0366 15.3895 0.0000 0.0000 0.0000
# 3 37.9088 15.3895 96.3997 0.0000 0.0000 0.0000
# 4 0.0000 0.0000 0.0000 4.7295 0.0000 0.0000
# 5 0.0000 0.0000 0.0000 0.0000 20.7335 0.0000
# 6 0.0000 0.0000 0.0000 0.0000 0.0000 35.5560
#
#
#
# Elastic Compliance Matrix: (Units=1/GPa)
#
#
# Indices 1 2 3 4 5 6 
#
# 1 0.008870 -0.005165 -0.002663 0.000000 0.000000 0.000000
# 2 -0.005165 0.022027 -0.001485 0.000000 0.000000 0.000000
# 3 -0.002663 -0.001485 0.011658 0.000000 0.000000 0.000000
# 4 0.000000 0.000000 0.000000 0.211437 0.000000 0.000000
# 5 0.000000 0.000000 0.000000 0.000000 0.048231 0.000000
# 6 0.000000 0.000000 0.000000 0.000000 0.000000 0.028125
#
#
# Mechanical properties :
#
#
# Convention : Reuss Voigt Hill
#
# Bulk Modulus (GPa) = 41.79425 52.98359 47.38892
# Shear Modulus (GPa) = 14.00752 26.00011 20.00382
#
# Velocity S-wave (km/s) = 2.73974 3.73264 3.27404
# Velocity P-wave (km/s) = 5.69248 6.85338 6.29973
#
# Compressibility (1/GPa) = 0.02392674
#
# Stress axis : x y z
#
# Youngs Moduli (GPa) = 112.73950 45.39947 85.77817
#
# Poissons Ratio (x) = 0.23450 0.22847
# Poissons Ratio (y) = 0.58234 0.12739
# Poissons Ratio (z) = 0.30028 0.06742
#
# Static dielectric constant tensor:
#      x y z
#    x 1.665710 0.000000 0.000000 
#    y 0.000000 1.721960 0.000000 
#    z 0.000000 0.000000 1.653680 
# 
# From -- ./inp_files/29155.got.cif
#   From: 2010.05.17/outbox.cif.g08.bks.cpg/sg50_15_cif.got.tgz:29155.got - 2010.06.03 11:33:33.
