data_PCOD9395256
_publ_section_title
;
Structure prediction by ZEFSAII (Michael W. Deem and Ramdas Pophale) SiO2 
 PCOD9395256
Probable space group: P C C M
;
_chemical_formula_sum "Si O2"
_cell_formula_units_Z 56
_cell_length_a 15.000000
_cell_length_b 21.000000
_cell_length_c 9.000000
_cell_angle_alpha 90.000000
_cell_angle_beta 90.000000
_cell_angle_gamma 90.000000
_cell_volume 2835.000000
_symmetry_space_group_name_H-M "P C C M"
_symmetry_group_IT_number 49
_symmetry_cell_setting 'orthorhombic'
loop_
_space_group_symop_operation_xyz
x,y,z
-x,-y,z
x,-y,1/2-z
-x,y,1/2-z
-x,-y,-z
x,y,-z
-x,y,1/2+z
x,-y,1/2+z
loop_
_atom_site_type_symbol
_atom_site_label
_atom_site_fract_x
_atom_site_fract_y
_atom_site_fract_z
Si Si1 0.411120 0.931411 0.675902
Si Si2 0.913020 0.667714 0.324922
Si Si3 0.591344 0.402189 0.323541
Si Si4 0.270632 0.155527 0.326227
Si Si5 0.228807 0.441530 0.673077
Si Si6 0.907787 0.805063 0.178074
Si Si7 0.412283 0.734692 0.174522
O O1 0.500000 0.903690 0.750000
O O2 0.421368 0.935419 0.500000
O O3 0.327554 0.891346 0.726054
O O4 0.401290 0.000000 0.750000
O O5 0.928284 0.682758 0.500000
O O6 0.828951 0.622000 0.315222
O O7 0.898957 0.731759 0.231443
O O8 0.000000 0.636633 0.250000
O O9 0.500000 0.426350 0.250000
O O10 0.585885 0.406249 0.500000
O O11 0.679502 0.433977 0.260789
O O12 0.600306 0.329578 0.266600
O O13 0.268833 0.136998 0.500000
O O14 0.174134 0.160664 0.256078
O O15 0.325153 0.221852 0.318011
O O16 0.178553 0.500000 0.750000
O O17 0.245768 0.453806 0.500000
O O18 0.000000 0.828127 0.250000
O O19 0.907374 0.809724 0.000000
O O20 0.500000 0.764894 0.250000
O O21 0.429450 0.720947 0.000000
#
# Coordination Sequence:
#
# PCOD9395256 Si02
#       7
#     8   8   8   8   8   8   8
#     4  11  22  38  59  85 119 160 202 242 284 330
#     4  10  21  38  60  84 112 144 178 222 275 334
#     4  11  22  37  57  78 105 140 178 221 271 327
#     4  11  22  36  56  84 117 152 191 236 282 332
#     4  11  24  40  57  79 106 137 178 224 271 324
#     4  11  22  37  59  86 115 148 186 230 281 337
#     4  10  20  33  52  79 112 145 179 222 273 328
#
# _framework density 19.753086
#
# number of rings (size 3 to 8) (size 9 to 14) (size 15 to 20)
#    0.000    1.286    0.000    9.000    0.000    9.714 
#    0.000    2.857    0.000    0.429    0.000    3.000 
#    0.000    0.000    0.000    0.000    0.000    0.000 
#
# Total GULP energy -312802.397347 kJ/mol
# GULP energy per Si atom -5585.757095 kJ/mol
# Density = 1.970813 g / cm^3
# Si number density = 19.753086 Si / 1000 Ang^3
#
#
#
# Elastic Constant Matrix: (Units=GPa)
#
#
# Indices 1 2 3 4 5 6 
#
# 1 122.8376 30.8440 65.7788 0.0000 0.0000 0.0000
# 2 30.8440 60.3097 30.4979 0.0000 0.0000 0.0000
# 3 65.7788 30.4979 193.7253 0.0000 0.0000 0.0000
# 4 0.0000 0.0000 0.0000 27.5367 0.0000 0.0000
# 5 0.0000 0.0000 0.0000 0.0000 47.8391 0.0000
# 6 0.0000 0.0000 0.0000 0.0000 0.0000 9.4138
#
#
#
# Elastic Compliance Matrix: (Units=1/GPa)
#
#
# Indices 1 2 3 4 5 6 
#
# 1 0.010760 -0.003971 -0.003028 0.000000 0.000000 0.000000
# 2 -0.003971 0.019481 -0.001718 0.000000 0.000000 0.000000
# 3 -0.003028 -0.001718 0.006461 0.000000 0.000000 0.000000
# 4 0.000000 0.000000 0.000000 0.036315 0.000000 0.000000
# 5 0.000000 0.000000 0.000000 0.000000 0.020903 0.000000
# 6 0.000000 0.000000 0.000000 0.000000 0.000000 0.106227
#
#
# Mechanical properties :
#
#
# Convention : Reuss Voigt Hill
#
# Bulk Modulus (GPa) = 51.90647 70.12377 61.01512
# Shear Modulus (GPa) = 22.32095 33.60804 27.96449
#
# Velocity S-wave (km/s) = 3.36519 4.12929 3.76666
# Velocity P-wave (km/s) = 6.43693 7.63622 7.06208
#
# Compressibility (1/GPa) = 0.01926542
#
# Stress axis : x y z
#
# Youngs Moduli (GPa) = 92.94012 51.33162 154.78250
#
# Poissons Ratio (x) = 0.20386 0.46871
# Poissons Ratio (y) = 0.36911 0.26598
# Poissons Ratio (z) = 0.28144 0.08821
#
# Static dielectric constant tensor:
#      x y z
#    x 1.544230 0.000000 0.000000 
#    y 0.000000 1.846580 0.000000 
#    z 0.000000 0.000000 1.652790 
# 
# From -- ./inp_files/4048.got.cif
#   From: 2010.05.17/outbox.ucp.g08.bks.cvg/sg49_3_cif.got.tgz:4048.got - 2010.06.11 16:40:14.
