data_PCOD9395049
_publ_section_title
;
Structure prediction by ZEFSAII (Michael W. Deem and Ramdas Pophale) SiO2 
 PCOD9395049
Probable space group: P C C M
;
_chemical_formula_sum "Si O2"
_cell_formula_units_Z 48
_cell_length_a 19.207167
_cell_length_b 14.199291
_cell_length_c 9.035880
_cell_angle_alpha 90.000000
_cell_angle_beta 90.000000
_cell_angle_gamma 90.000000
_cell_volume 2464.338868
_symmetry_space_group_name_H-M "P C C M"
_symmetry_group_IT_number 49
_symmetry_cell_setting 'orthorhombic'
loop_
_space_group_symop_operation_xyz
x,y,z
-x,-y,z
x,-y,1/2-z
-x,y,1/2-z
-x,-y,-z
x,y,-z
-x,y,1/2+z
x,-y,1/2+z
loop_
_atom_site_type_symbol
_atom_site_label
_atom_site_fract_x
_atom_site_fract_y
_atom_site_fract_z
Si Si1 0.896428 0.085254 0.500000
Si Si2 0.157653 0.203502 0.267963
Si Si3 0.627807 0.598560 0.819703
Si Si4 0.570630 0.214492 0.180031
Si Si5 0.217062 0.599521 0.181951
Si Si6 0.704515 0.095161 0.165962
Si Si7 0.940334 0.870370 0.500000
O O1 0.857016 0.133550 0.365945
O O2 0.977835 0.114012 0.500000
O O3 0.900870 0.972107 0.500000
O O4 0.171696 0.314148 0.255141
O O5 0.229236 0.163838 0.335866
O O6 0.088903 0.187155 0.363432
O O7 0.602296 0.500000 0.750000
O O8 0.583111 0.684762 0.757676
O O9 0.704995 0.611813 0.748304
O O10 0.630567 0.595711 0.000000
O O11 0.500000 0.174475 0.250000
O O12 0.637256 0.151152 0.222629
O O13 0.567736 0.222794 0.000000
O O14 0.192752 0.500000 0.250000
O O15 0.218031 0.600108 0.000000
O O16 0.720997 0.000000 0.250000
O O17 0.687441 0.066827 0.000000
#
# Coordination Sequence:
#
# PCOD9395049 Si02
#       7
#     4   8   8   8   8   8   4
#     4  11  26  38  69  99 136 172 218 257 313 403
#     4  12  23  40  67  97 132 171 213 270 321 377
#     4  11  22  38  63  93 126 163 209 262 321 383
#     4  11  24  43  63  89 127 168 210 264 322 375
#     4  11  22  39  64  94 130 167 216 272 325 379
#     4  11  24  41  64  91 125 165 213 264 315 377
#     4  11  22  46  63  99 136 176 210 259 327 375
#
# _framework density 19.477841000000002
#
# number of rings (size 3 to 8) (size 9 to 14) (size 15 to 20)
#    0.000    0.833    3.333    5.500    3.500    3.333 
#    0.000    3.333    0.000    3.000    0.000    0.000 
#    0.000    0.000    0.000    0.000    0.000    0.000 
#
# Total GULP energy -267866.900545 kJ/mol
# GULP energy per Si atom -5580.560428 kJ/mol
# Density = 1.943351 g / cm^3
# Si number density = 19.477841 Si / 1000 Ang^3
#
#
#
# Elastic Constant Matrix: (Units=GPa)
#
#
# Indices 1 2 3 4 5 6 
#
# 1 76.1398 34.0037 9.0906 0.0000 0.0000 0.0000
# 2 34.0037 111.9069 10.9086 0.0000 0.0000 0.0000
# 3 9.0906 10.9086 72.5140 0.0000 0.0000 0.0000
# 4 0.0000 0.0000 0.0000 9.3052 0.0000 0.0000
# 5 0.0000 0.0000 0.0000 0.0000 36.2599 0.0000
# 6 0.0000 0.0000 0.0000 0.0000 0.0000 33.3517
#
#
#
# Elastic Compliance Matrix: (Units=1/GPa)
#
#
# Indices 1 2 3 4 5 6 
#
# 1 0.015304 -0.004530 -0.001237 0.000000 0.000000 0.000000
# 2 -0.004530 0.010410 -0.000998 0.000000 0.000000 0.000000
# 3 -0.001237 -0.000998 0.014096 0.000000 0.000000 0.000000
# 4 0.000000 0.000000 0.000000 0.107467 0.000000 0.000000
# 5 0.000000 0.000000 0.000000 0.000000 0.027579 0.000000
# 6 0.000000 0.000000 0.000000 0.000000 0.000000 0.029983
#
#
# Mechanical properties :
#
#
# Convention : Reuss Voigt Hill
#
# Bulk Modulus (GPa) = 38.05217 40.95181 39.50199
# Shear Modulus (GPa) = 22.01395 29.55389 25.78392
#
# Velocity S-wave (km/s) = 3.36550 3.89949 3.64229
# Velocity P-wave (km/s) = 5.88903 6.43002 6.16546
#
# Compressibility (1/GPa) = 0.02627971
#
# Stress axis : x y z
#
# Youngs Moduli (GPa) = 65.34061 96.06437 70.94370
#
# Poissons Ratio (x) = 0.43515 0.08777
# Poissons Ratio (y) = 0.29598 0.07081
# Poissons Ratio (z) = 0.08084 0.09588
#
# Static dielectric constant tensor:
#      x y z
#    x 1.671920 0.000000 0.000000 
#    y 0.000000 1.682700 0.000000 
#    z 0.000000 0.000000 1.640210 
# 
# From -- ./inp_files/3773.got.cif
#   From: 2010.05.17/outbox.cif.g08.bks.cpg/sg49_2_cif.got.tgz:3773.got - 2010.06.03 21:02:19.
