data_PCOD9395169
_publ_section_title
;
Structure prediction by ZEFSAII (Michael W. Deem and Ramdas Pophale) SiO2 
 PCOD9395169
Probable space group: P C C M
;
_chemical_formula_sum "Si O2"
_cell_formula_units_Z 20
_cell_length_a 5.361603
_cell_length_b 5.172861
_cell_length_c 28.802983
_cell_angle_alpha 90.000000
_cell_angle_beta 90.000000
_cell_angle_gamma 90.000000
_cell_volume 798.845752
_symmetry_space_group_name_H-M "P C C M"
_symmetry_group_IT_number 49
_symmetry_cell_setting 'orthorhombic'
loop_
_space_group_symop_operation_xyz
x,y,z
-x,-y,z
x,-y,1/2-z
-x,y,1/2-z
-x,-y,-z
x,y,-z
-x,y,1/2+z
x,-y,1/2+z
loop_
_atom_site_type_symbol
_atom_site_label
_atom_site_fract_x
_atom_site_fract_y
_atom_site_fract_z
Si Si1 0.500000 0.000000 0.750000
Si Si2 0.257512 0.341900 0.568737
Si Si3 0.833110 0.747064 0.673825
Si Si4 0.500000 0.000000 0.000000
O O1 0.654763 0.817164 0.715851
O O2 0.500000 0.500000 0.551045
O O3 0.288068 0.301150 0.623718
O O4 0.000000 0.500000 0.561161
O O5 0.293601 0.079729 0.540610
O O6 0.000000 0.500000 0.684978
O O7 0.000000 0.000000 0.667196
#
# Coordination Sequence:
#
# PCOD9395169 Si02
#       4
#     2   8   8   2
#     4  12  28  50  84 118 152 222 272 354 398 512
#     4  11  28  50  76 115 161 208 265 332 409 485
#     4  11  29  52  77 114 163 209 268 336 411 488
#     4  12  26  46  88 114 154 212 270 340 388 496
#
# _framework density 25.036121000000001
#
# number of rings (size 3 to 8) (size 9 to 14) (size 15 to 20)
#    0.000    0.800    0.000    3.000   22.400    6.400 
#    0.000    0.000    0.000    0.000    0.000    0.000 
#    0.000    0.000    0.000    0.000    0.000    0.000 
#
# Total GULP energy -111640.789370 kJ/mol
# GULP energy per Si atom -5582.039468 kJ/mol
# Density = 2.497914 g / cm^3
# Si number density = 25.036121 Si / 1000 Ang^3
#
#
#
# Elastic Constant Matrix: (Units=GPa)
#
#
# Indices 1 2 3 4 5 6 
#
# 1 150.0817 67.4944 103.6457 0.0000 0.0000 0.0000
# 2 67.4944 133.3246 54.6289 0.0000 0.0000 0.0000
# 3 103.6457 54.6289 256.0219 0.0000 0.0000 0.0000
# 4 0.0000 0.0000 0.0000 160.2631 0.0000 0.0000
# 5 0.0000 0.0000 0.0000 0.0000 -316.4968 0.0000
# 6 0.0000 0.0000 0.0000 0.0000 0.0000 8.2180
#
#
#
# Elastic Compliance Matrix: (Units=1/GPa)
#
#
# Indices 1 2 3 4 5 6 
#
# 1 0.010965 -0.004090 -0.003566 0.000000 0.000000 0.000000
# 2 -0.004090 0.009744 -0.000424 0.000000 0.000000 0.000000
# 3 -0.003566 -0.000424 0.005440 0.000000 0.000000 0.000000
# 4 0.000000 0.000000 0.000000 0.006240 0.000000 0.000000
# 5 0.000000 0.000000 0.000000 0.000000 -0.003160 0.000000
# 6 0.000000 0.000000 0.000000 0.000000 0.000000 0.121684
#
#
# Mechanical properties :
#
#
# Convention : Reuss Voigt Hill
#
# Bulk Modulus (GPa) = 100.09703 110.10736 105.10220
# Shear Modulus (GPa) = 29.34207 -8.69253 10.32477
#
# Velocity S-wave (km/s) = 3.42715 -1.86535 2.03295
# Velocity P-wave (km/s) = 7.46514 6.27977 6.89796
#
# Compressibility (1/GPa) = 0.00999031
#
# Stress axis : x y z
#
# Youngs Moduli (GPa) = 91.19750 102.62262 183.82038
#
# Poissons Ratio (x) = 0.41970 0.65558
# Poissons Ratio (y) = 0.37297 0.07786
# Poissons Ratio (z) = 0.32525 0.04347
#
# Static dielectric constant tensor:
#      x y z
#    x 2.030190 0.000000 0.000000 
#    y 0.000000 2.193150 0.000000 
#    z 0.000000 0.000000 1.982380 
# 
# From -- ./inp_files/23511.got.cif
#   From: 2010.05.17/outbox.cif.g08.bks.cpg/sg49_12_cif.got.tgz:23511.got - 2010.06.03 21:02:19.
