data_PCOD9395983
_publ_section_title
;
Structure prediction by ZEFSAII (Michael W. Deem and Ramdas Pophale) SiO2 
 PCOD9395983
Probable space group: P B A N
;
_chemical_formula_sum "Si O2"
_cell_formula_units_Z 46
_cell_length_a 22.483450
_cell_length_b 9.125411
_cell_length_c 11.708692
_cell_angle_alpha 90.000000
_cell_angle_beta 90.000000
_cell_angle_gamma 90.000000
_cell_volume 2402.280791
_symmetry_space_group_name_H-M "P B A N"
_symmetry_group_IT_number 50
_space_group.IT_coordinate_system_code '2'
_symmetry_cell_setting 'orthorhombic'
loop_
_space_group_symop_operation_xyz
x,y,z
1/2-x,1/2-y,z
x,1/2-y,-z
1/2-x,y,-z
-x,-y,-z
1/2+x,1/2+y,-z
-x,1/2+y,z
1/2+x,-y,z
loop_
_atom_site_type_symbol
_atom_site_label
_atom_site_fract_x
_atom_site_fract_y
_atom_site_fract_z
Si Si1 0.842988 0.750000 0.000000
Si Si2 0.472437 0.750000 0.000000
Si Si3 0.250000 0.750000 0.500000
Si Si4 0.250000 0.250000 0.200981
Si Si5 0.927162 0.939415 0.398449
Si Si6 0.036723 0.385392 0.653265
Si Si7 0.930981 0.534370 0.105491
Si Si8 0.286851 0.034454 0.389313
O O1 0.804863 0.737753 0.885516
O O2 0.882271 0.893254 0.976620
O O3 0.512135 0.862842 0.074149
O O4 0.437593 0.636354 0.078860
O O5 0.215126 0.639736 0.415859
O O6 0.253327 0.107495 0.282382
O O7 0.956379 0.788518 0.355280
O O8 0.937498 0.948563 0.534678
O O9 0.856632 0.928896 0.379272
O O10 0.967657 0.065050 0.341439
O O11 0.074756 0.441649 0.759907
O O12 0.250000 0.090782 0.500000
#
# Coordination Sequence:
#
# PCOD9395983 Si02
#       8
#     4   4   2   4   8   8   8   8
#     4  10  24  39  60  92 118 167 220 278 306 392
#     4   9  20  33  56  86 112 159 214 239 308 392
#     4   8  24  38  60 102 120 166 216 256 340 394
#     4  11  23  42  66  88 121 161 226 268 324 369
#     4  10  22  37  58  95 126 157 214 249 337 401
#     4  10  21  35  58  90 123 166 193 269 324 390
#     4  10  19  37  57  84 123 160 211 258 321 372
#     4  10  23  41  65  94 124 171 213 270 326 394
#
# _framework density 19.14847
#
# number of rings (size 3 to 8) (size 9 to 14) (size 15 to 20)
#    0.522    1.565    0.000    2.348    7.304    5.565 
#    0.000    5.217    0.000    2.087    0.000    0.000 
#    0.000    0.000    0.000    0.000    0.000    0.000 
#
# Total GULP energy -256106.886206 kJ/mol
# GULP energy per Si atom -5567.541004 kJ/mol
# Density = 1.910489 g / cm^3
# Si number density = 19.148470 Si / 1000 Ang^3
#
#
#
# Elastic Constant Matrix: (Units=GPa)
#
#
# Indices 1 2 3 4 5 6 
#
# 1 95.7914 45.2015 36.8046 0.0000 0.0000 0.0000
# 2 45.2015 131.8599 53.3523 0.0000 0.0000 0.0000
# 3 36.8046 53.3523 114.0572 0.0000 0.0000 0.0000
# 4 0.0000 0.0000 0.0000 8.0850 0.0000 0.0000
# 5 0.0000 0.0000 0.0000 0.0000 26.5243 0.0000
# 6 0.0000 0.0000 0.0000 0.0000 0.0000 -43.4483
#
#
#
# Elastic Compliance Matrix: (Units=1/GPa)
#
#
# Indices 1 2 3 4 5 6 
#
# 1 0.013057 -0.003418 -0.002614 0.000000 0.000000 0.000000
# 2 -0.003418 0.010249 -0.003691 0.000000 0.000000 0.000000
# 3 -0.002614 -0.003691 0.011338 0.000000 0.000000 0.000000
# 4 0.000000 0.000000 0.000000 0.123685 0.000000 0.000000
# 5 0.000000 0.000000 0.000000 0.000000 0.037701 0.000000
# 6 0.000000 0.000000 0.000000 0.000000 0.000000 -0.023016
#
#
# Mechanical properties :
#
#
# Convention : Reuss Voigt Hill
#
# Bulk Modulus (GPa) = 65.80553 68.04728 66.92641
# Shear Modulus (GPa) = 25.31302 11.98886 18.65094
#
# Velocity S-wave (km/s) = 3.63979 2.50491 3.12431
# Velocity P-wave (km/s) = 7.21835 6.63174 6.93125
#
# Compressibility (1/GPa) = 0.01519629
#
# Stress axis : x y z
#
# Youngs Moduli (GPa) = 76.58890 97.57025 88.20062
#
# Poissons Ratio (x) = 0.33350 0.23059
# Poissons Ratio (y) = 0.26178 0.32557
# Poissons Ratio (z) = 0.20023 0.36015
#
# Static dielectric constant tensor:
#      x y z
#    x 1.711390 0.000000 0.000000 
#    y 0.000000 1.657920 0.000000 
#    z 0.000000 0.000000 1.693830 
# 
# From -- ./inp_files/22819.got.cif
#   From: 2010.05.17/outbox.cif.g08.bks.cpg/sg50_12_cif.got.tgz:22819.got - 2010.06.03 11:33:33.
