data_PCOD9395843
_publ_section_title
;
Structure prediction by ZEFSAII (Michael W. Deem and Ramdas Pophale) SiO2 
 PCOD9395843
Probable space group: P B A N
;
_chemical_formula_sum "Si O2"
_cell_formula_units_Z 64
_cell_length_a 15.049137
_cell_length_b 19.367986
_cell_length_c 11.984775
_cell_angle_alpha 90.000000
_cell_angle_beta 90.000000
_cell_angle_gamma 90.000000
_cell_volume 3493.220044
_symmetry_space_group_name_H-M "P B A N"
_symmetry_group_IT_number 50
_space_group.IT_coordinate_system_code '2'
_symmetry_cell_setting 'orthorhombic'
loop_
_space_group_symop_operation_xyz
x,y,z
1/2-x,1/2-y,z
x,1/2-y,-z
1/2-x,y,-z
-x,-y,-z
1/2+x,1/2+y,-z
-x,1/2+y,z
1/2+x,-y,z
loop_
_atom_site_type_symbol
_atom_site_label
_atom_site_fract_x
_atom_site_fract_y
_atom_site_fract_z
Si Si1 0.662215 0.289656 0.841752
Si Si2 0.107037 0.250619 0.366765
Si Si3 0.444960 0.821967 0.250586
Si Si4 0.742988 0.639750 0.366141
Si Si5 0.113534 0.557354 0.907992
Si Si6 0.948426 0.028897 0.159599
Si Si7 0.256913 0.852334 0.369254
Si Si8 0.241403 0.994797 0.743222
O O1 0.750000 0.250000 0.882669
O O2 0.588283 0.230742 0.844013
O O3 0.632318 0.360803 0.897815
O O4 0.689240 0.312246 0.713755
O O5 0.099560 0.250000 0.500000
O O6 0.182537 0.195414 0.335127
O O7 0.147699 0.325521 0.336952
O O8 0.017123 0.222051 0.316398
O O9 0.477923 0.895429 0.203860
O O10 0.356435 0.837736 0.323615
O O11 0.750000 0.631184 0.500000
O O12 0.762357 0.568646 0.306534
O O13 0.200408 0.522221 0.853010
O O14 0.028321 0.526231 0.841681
O O15 0.090839 0.538727 0.035006
O O16 0.863329 0.006841 0.231072
O O17 0.250000 0.836284 0.500000
O O18 0.238937 0.932956 0.343485
#
# Coordination Sequence:
#
# PCOD9395843 Si02
#       8
#     8   8   8   8   8   8   8   8
#     4   9  20  34  54  80 107 145 180 222 277 323
#     4   9  19  32  51  77 103 144 178 215 266 324
#     4  10  20  33  52  80 108 139 184 223 265 329
#     4   9  18  34  52  76 108 137 179 219 267 319
#     4  10  21  39  57  78 112 142 183 238 278 334
#     4  10  22  37  56  82 106 145 188 224 286 329
#     4   9  19  33  49  78 114 144 176 216 271 321
#     4  10  19  34  57  78 105 146 181 226 272 329
#
# _framework density 18.321204000000002
#
# number of rings (size 3 to 8) (size 9 to 14) (size 15 to 20)
#    0.000    2.500    0.000    3.000    3.500    2.250 
#    0.000    3.125    0.000    7.500    0.000    1.750 
#    0.000    0.000    0.000    0.000    0.000    0.000 
#
# Total GULP energy -356640.239005 kJ/mol
# GULP energy per Si atom -5572.503734 kJ/mol
# Density = 1.827950 g / cm^3
# Si number density = 18.321204 Si / 1000 Ang^3
#
#
#
# Elastic Constant Matrix: (Units=GPa)
#
#
# Indices 1 2 3 4 5 6 
#
# 1 63.8155 31.6028 -5.5506 0.0000 0.0000 0.0000
# 2 31.6028 136.8593 16.8164 0.0000 0.0000 0.0000
# 3 -5.5506 16.8164 37.5902 0.0000 0.0000 0.0000
# 4 0.0000 0.0000 0.0000 4.4182 0.0000 0.0000
# 5 0.0000 0.0000 0.0000 0.0000 -4.4903 0.0000
# 6 0.0000 0.0000 0.0000 0.0000 0.0000 29.5263
#
#
#
# Elastic Compliance Matrix: (Units=1/GPa)
#
#
# Indices 1 2 3 4 5 6 
#
# 1 0.018514 -0.004879 0.004917 0.000000 0.000000 0.000000
# 2 -0.004879 0.009018 -0.004755 0.000000 0.000000 0.000000
# 3 0.004917 -0.004755 0.029456 0.000000 0.000000 0.000000
# 4 0.000000 0.000000 0.000000 0.226339 0.000000 0.000000
# 5 0.000000 0.000000 0.000000 0.000000 -0.222701 0.000000
# 6 0.000000 0.000000 0.000000 0.000000 0.000000 0.033868
#
#
# Mechanical properties :
#
#
# Convention : Reuss Voigt Hill
#
# Bulk Modulus (GPa) = 21.02923 36.00025 28.51474
# Shear Modulus (GPa) = 41.74375 18.91725 30.33050
#
# Velocity S-wave (km/s) = 4.77848 3.21679 4.07318
# Velocity P-wave (km/s) = 6.47674 5.78698 6.14155
#
# Compressibility (1/GPa) = 0.04755285
#
# Stress axis : x y z
#
# Youngs Moduli (GPa) = 54.01272 110.89302 33.94929
#
# Poissons Ratio (x) = 0.54108 -0.16692
# Poissons Ratio (y) = 0.26354 0.16142
# Poissons Ratio (z) = -0.26556 0.52726
#
# Static dielectric constant tensor:
#      x y z
#    x 1.713070 0.000000 0.000000 
#    y 0.000000 1.643120 0.000000 
#    z 0.000000 0.000000 1.641060 
# 
# From -- ./inp_files/21369.got.cif
#   From: 2010.05.17/outbox.cif.g08.bks.cpg/sg50_11_cif.got.tgz:21369.got - 2010.06.03 11:33:33.
