data_PCOD9395897
_publ_section_title
;
Structure prediction by ZEFSAII (Michael W. Deem and Ramdas Pophale) SiO2 
 PCOD9395897
Probable space group: P B A N
;
_chemical_formula_sum "Si O2"
_cell_formula_units_Z 64
_cell_length_a 32.677803
_cell_length_b 9.675378
_cell_length_c 11.037833
_cell_angle_alpha 90.000000
_cell_angle_beta 90.000000
_cell_angle_gamma 90.000000
_cell_volume 3489.832722
_symmetry_space_group_name_H-M "P B A N"
_symmetry_group_IT_number 50
_space_group.IT_coordinate_system_code '2'
_symmetry_cell_setting 'orthorhombic'
loop_
_space_group_symop_operation_xyz
x,y,z
1/2-x,1/2-y,z
x,1/2-y,-z
1/2-x,y,-z
-x,-y,-z
1/2+x,1/2+y,-z
-x,1/2+y,z
1/2+x,-y,z
loop_
_atom_site_type_symbol
_atom_site_label
_atom_site_fract_x
_atom_site_fract_y
_atom_site_fract_z
Si Si1 0.035066 0.295716 0.637447
Si Si2 0.084046 0.987100 0.254971
Si Si3 0.251876 0.908064 0.646854
Si Si4 0.558633 0.284554 0.357651
Si Si5 0.330876 0.081281 0.634456
Si Si6 0.325369 0.096323 0.348306
Si Si7 0.043093 0.082410 0.004943
Si Si8 0.412137 0.061433 0.244099
O O1 0.037119 0.250000 0.500000
O O2 0.049685 0.452151 0.653174
O O3 0.066810 0.201866 0.709867
O O4 0.988926 0.274800 0.680214
O O5 0.127491 0.048794 0.294801
O O6 0.083876 0.823859 0.277293
O O7 0.067584 0.036286 0.125178
O O8 0.250000 0.750000 0.690021
O O9 0.250000 0.905375 0.500000
O O10 0.294709 0.980629 0.676315
O O11 0.213541 0.002865 0.684370
O O12 0.562728 0.250000 0.500000
O O13 0.572758 0.438366 0.329809
O O14 0.337489 0.063313 0.488967
O O15 0.316958 0.239667 0.652761
O O16 0.363711 0.070545 0.261241
O O17 0.070605 0.040540 0.889915
O O18 0.036923 0.250000 0.000000
O O19 0.000000 0.000000 0.000000
#
# Coordination Sequence:
#
# PCOD9395897 Si02
#       8
#     8   8   8   8   8   8   8   8
#     4  11  20  37  57  82 116 154 196 249 310 366
#     4  12  24  38  60  86 119 161 208 254 300 359
#     4   9  19  33  55  88 123 154 184 236 307 375
#     4  11  24  37  57  88 122 156 196 251 316 372
#     4  10  19  35  58  86 120 156 197 245 304 371
#     4  10  19  35  58  86 120 156 197 245 304 371
#     4  12  26  44  64  85 118 165 219 265 300 351
#     4  12  24  38  60  86 119 161 208 254 300 359
#
# _framework density 18.338989000000002
#
# number of rings (size 3 to 8) (size 9 to 14) (size 15 to 20)
#    0.000    1.125    2.500    4.875    3.500    3.500 
#    0.000    0.000    0.000    0.750    0.000    3.500 
#    0.000    0.000    0.000    0.000    0.000    0.000 
#
# Total GULP energy -357504.126467 kJ/mol
# GULP energy per Si atom -5586.001976 kJ/mol
# Density = 1.829725 g / cm^3
# Si number density = 18.338989 Si / 1000 Ang^3
#
#
#
# Elastic Constant Matrix: (Units=GPa)
#
#
# Indices 1 2 3 4 5 6 
#
# 1 106.9028 70.6617 39.4384 0.0000 0.0000 0.0000
# 2 70.6617 86.3036 29.7814 0.0000 0.0000 0.0000
# 3 39.4384 29.7814 52.3161 0.0000 0.0000 0.0000
# 4 0.0000 0.0000 0.0000 19.7697 0.0000 0.0000
# 5 0.0000 0.0000 0.0000 0.0000 -3.8798 0.0000
# 6 0.0000 0.0000 0.0000 0.0000 0.0000 23.6543
#
#
#
# Elastic Compliance Matrix: (Units=1/GPa)
#
#
# Indices 1 2 3 4 5 6 
#
# 1 0.022906 -0.015924 -0.008203 0.000000 0.000000 0.000000
# 2 -0.015924 0.025489 -0.002506 0.000000 0.000000 0.000000
# 3 -0.008203 -0.002506 0.026725 0.000000 0.000000 0.000000
# 4 0.000000 0.000000 0.000000 0.050583 0.000000 0.000000
# 5 0.000000 0.000000 0.000000 0.000000 -0.257744 0.000000
# 6 0.000000 0.000000 0.000000 0.000000 0.000000 0.042276
#
#
# Mechanical properties :
#
#
# Convention : Reuss Voigt Hill
#
# Bulk Modulus (GPa) = 45.75609 58.36505 52.06057
# Shear Modulus (GPa) = -171.14469 14.95156 -78.09656
#
# Velocity S-wave (km/s) = -9.67086 2.85842 -6.53280
# Velocity P-wave (km/s) = 9.98480 6.54132 5.33420
#
# Compressibility (1/GPa) = 0.02185502
#
# Stress axis : x y z
#
# Youngs Moduli (GPa) = 43.65681 39.23185 37.41834
#
# Poissons Ratio (x) = 0.62472 0.30694
# Poissons Ratio (y) = 0.69518 0.09377
# Poissons Ratio (z) = 0.35811 0.09831
#
# Static dielectric constant tensor:
#      x y z
#    x 1.608010 0.000000 0.000000 
#    y 0.000000 1.637260 0.000000 
#    z 0.000000 0.000000 1.632760 
# 
# From -- ./inp_files/19538.got.cif
#   From: 2010.05.17/outbox.cif.g08.bks.cpg/sg50_10_cif.got.tgz:19538.got - 2010.06.03 11:33:33.
