data_PCOD9395585
_publ_section_title
;
Structure prediction by ZEFSAII (Michael W. Deem and Ramdas Pophale) SiO2 
 PCOD9395585
Probable space group: P B A N
;
_chemical_formula_sum "Si O2"
_cell_formula_units_Z 64
_cell_length_a 10.762470
_cell_length_b 28.436449
_cell_length_c 9.895496
_cell_angle_alpha 90.000000
_cell_angle_beta 90.000000
_cell_angle_gamma 90.000000
_cell_volume 3028.481217
_symmetry_space_group_name_H-M "P B A N"
_symmetry_group_IT_number 50
_space_group.IT_coordinate_system_code '2'
_symmetry_cell_setting 'orthorhombic'
loop_
_space_group_symop_operation_xyz
x,y,z
1/2-x,1/2-y,z
x,1/2-y,-z
1/2-x,y,-z
-x,-y,-z
1/2+x,1/2+y,-z
-x,1/2+y,z
1/2+x,-y,z
loop_
_atom_site_type_symbol
_atom_site_label
_atom_site_fract_x
_atom_site_fract_y
_atom_site_fract_z
Si Si1 0.069706 0.347660 0.131919
Si Si2 0.619112 0.292947 0.426093
Si Si3 0.558776 0.474913 0.239972
Si Si4 0.640531 0.828459 0.152368
Si Si5 0.116930 0.071921 0.666109
Si Si6 0.551099 0.251688 0.847086
Si Si7 0.789818 0.974219 0.857364
Si Si8 0.030561 0.384647 0.604389
O O1 0.211693 0.329149 0.142839
O O2 0.056336 0.393873 0.221913
O O3 0.978071 0.306301 0.179479
O O4 0.066760 0.354787 0.969985
O O5 0.546516 0.250000 0.500000
O O6 0.750000 0.295264 0.500000
O O7 0.624244 0.276356 0.269462
O O8 0.560994 0.343699 0.445191
O O9 0.553209 0.520742 0.336732
O O10 0.691674 0.482529 0.164346
O O11 0.436351 0.481039 0.147371
O O12 0.542816 0.426817 0.321142
O O13 0.579964 0.776851 0.149688
O O14 0.609691 0.855360 0.288525
O O15 0.250561 0.058731 0.731326
O O16 0.105983 0.095654 0.522510
O O17 0.897713 0.250000 0.000000
O O18 0.750000 0.952131 0.000000
#
# Coordination Sequence:
#
# PCOD9395585 Si02
#       8
#     8   8   8   8   8   8   8   8
#     4  10  18  33  56  92 123 168 201 255 309 391
#     4  10  22  41  66  88 123 166 209 263 324 388
#     4  10  24  40  64  89 130 169 220 271 332 387
#     4   9  20  31  59  86 130 161 207 248 323 377
#     4  10  24  36  62  89 125 169 214 265 318 389
#     4   9  18  36  58  90 124 159 205 258 312 383
#     4  10  23  41  64  92 128 173 220 275 331 390
#     4  11  22  42  59  95 125 167 211 271 321 396
#
# _framework density 21.132705000000001
#
# number of rings (size 3 to 8) (size 9 to 14) (size 15 to 20)
#    0.750    1.375    0.000    2.625    3.500    4.500 
#    0.000    1.250    0.000    2.250    0.000    0.000 
#    0.000    0.000    0.000    0.000    0.000    0.000 
#
# Total GULP energy -356658.158840 kJ/mol
# GULP energy per Si atom -5572.783732 kJ/mol
# Density = 2.108461 g / cm^3
# Si number density = 21.132705 Si / 1000 Ang^3
#
#
#
# Elastic Constant Matrix: (Units=GPa)
#
#
# Indices 1 2 3 4 5 6 
#
# 1 59.5096 23.0087 12.2885 0.0000 0.0000 0.0000
# 2 23.0087 100.4947 18.0756 0.0000 0.0000 0.0000
# 3 12.2885 18.0756 115.4542 0.0000 0.0000 0.0000
# 4 0.0000 0.0000 0.0000 28.8922 0.0000 0.0000
# 5 0.0000 0.0000 0.0000 0.0000 17.7485 0.0000
# 6 0.0000 0.0000 0.0000 0.0000 0.0000 43.3568
#
#
#
# Elastic Compliance Matrix: (Units=1/GPa)
#
#
# Indices 1 2 3 4 5 6 
#
# 1 0.018639 -0.004024 -0.001354 0.000000 0.000000 0.000000
# 2 -0.004024 0.011108 -0.001311 0.000000 0.000000 0.000000
# 3 -0.001354 -0.001311 0.009011 0.000000 0.000000 0.000000
# 4 0.000000 0.000000 0.000000 0.034611 0.000000 0.000000
# 5 0.000000 0.000000 0.000000 0.000000 0.056343 0.000000
# 6 0.000000 0.000000 0.000000 0.000000 0.000000 0.023064
#
#
# Mechanical properties :
#
#
# Convention : Reuss Voigt Hill
#
# Bulk Modulus (GPa) = 39.40012 42.46713 40.93362
# Shear Modulus (GPa) = 28.63451 32.80521 30.71986
#
# Velocity S-wave (km/s) = 3.68501 3.94425 3.81683
# Velocity P-wave (km/s) = 6.06550 6.39390 6.23186
#
# Compressibility (1/GPa) = 0.02538063
#
# Stress axis : x y z
#
# Youngs Moduli (GPa) = 53.64962 90.02635 110.97848
#
# Poissons Ratio (x) = 0.36227 0.15025
# Poissons Ratio (y) = 0.21589 0.14546
# Poissons Ratio (z) = 0.07264 0.11800
#
# Static dielectric constant tensor:
#      x y z
#    x 1.818350 0.000000 0.000000 
#    y 0.000000 1.801730 0.000000 
#    z 0.000000 0.000000 1.814950 
# 
# From -- ./inp_files/11855.got.cif
#   From: 2010.05.17/outbox.cif.g08.bks.cpg/sg50_6_cif.got.tgz:11855.got - 2010.06.03 11:33:33.
