data_PCOD9395731
_publ_section_title
;
Structure prediction by ZEFSAII (Michael W. Deem and Ramdas Pophale) SiO2 
 PCOD9395731
Probable space group: P B A N
;
_chemical_formula_sum "Si O2"
_cell_formula_units_Z 56
_cell_length_a 13.984197
_cell_length_b 18.629074
_cell_length_c 10.210890
_cell_angle_alpha 90.000000
_cell_angle_beta 90.000000
_cell_angle_gamma 90.000000
_cell_volume 2660.065918
_symmetry_space_group_name_H-M "P B A N"
_symmetry_group_IT_number 50
_space_group.IT_coordinate_system_code '2'
_symmetry_cell_setting 'orthorhombic'
loop_
_space_group_symop_operation_xyz
x,y,z
1/2-x,1/2-y,z
x,1/2-y,-z
1/2-x,y,-z
-x,-y,-z
1/2+x,1/2+y,-z
-x,1/2+y,z
1/2+x,-y,z
loop_
_atom_site_type_symbol
_atom_site_label
_atom_site_fract_x
_atom_site_fract_y
_atom_site_fract_z
Si Si1 0.028722 0.079309 0.555388
Si Si2 0.485878 0.579820 0.889936
Si Si3 0.433645 0.920954 0.834585
Si Si4 0.733963 0.040309 0.854631
Si Si5 0.780516 0.596869 0.702977
Si Si6 0.584013 0.673960 0.672583
Si Si7 0.143301 0.283236 0.137804
O O1 0.139357 0.079780 0.597254
O O2 0.023944 0.144268 0.450412
O O3 0.971619 0.092030 0.689925
O O4 0.000000 0.000000 0.500000
O O5 0.541875 0.504405 0.871424
O O6 0.375361 0.565862 0.847684
O O7 0.539407 0.632296 0.794390
O O8 0.482151 0.612661 0.036426
O O9 0.320873 0.904144 0.840337
O O10 0.756421 0.979545 0.750055
O O11 0.750000 0.009551 0.000000
O O12 0.693458 0.646533 0.657252
O O13 0.833163 0.633980 0.828592
O O14 0.590093 0.754318 0.730215
O O15 0.250000 0.250000 0.141849
O O16 0.106003 0.250000 0.000000
#
# Coordination Sequence:
#
# PCOD9395731 Si02
#       7
#     8   8   8   8   8   8   8
#     4  12  22  36  52  81 113 155 194 231 296 361
#     4  10  19  34  54  82 113 154 190 239 295 352
#     4  10  20  32  52  82 114 149 194 234 294 350
#     4  10  19  31  54  85 119 152 189 241 294 337
#     4  11  21  34  56  79 116 160 190 238 286 343
#     4  11  22  37  55  80 121 154 196 240 283 346
#     4   9  22  36  55  85 114 156 207 237 281 344
#
# _framework density 21.052108
#
# number of rings (size 3 to 8) (size 9 to 14) (size 15 to 20)
#    0.000    1.571    4.286    0.429    6.000    0.571 
#    0.000    2.857    0.000    0.000    0.000    1.000 
#    0.000   11.714    0.000    0.000    0.000    0.000 
#
# Total GULP energy -311967.096088 kJ/mol
# GULP energy per Si atom -5570.841002 kJ/mol
# Density = 2.100419 g / cm^3
# Si number density = 21.052108 Si / 1000 Ang^3
#
#
#
# Elastic Constant Matrix: (Units=GPa)
#
#
# Indices 1 2 3 4 5 6 
#
# 1 102.2384 5.9477 16.1608 0.0000 0.0000 0.0000
# 2 5.9477 27.6893 13.8330 0.0000 0.0000 0.0000
# 3 16.1608 13.8330 126.1440 0.0000 0.0000 0.0000
# 4 0.0000 0.0000 0.0000 14.8254 0.0000 0.0000
# 5 0.0000 0.0000 0.0000 0.0000 37.4832 0.0000
# 6 0.0000 0.0000 0.0000 0.0000 0.0000 18.3551
#
#
#
# Elastic Compliance Matrix: (Units=1/GPa)
#
#
# Indices 1 2 3 4 5 6 
#
# 1 0.010050 -0.001603 -0.001112 0.000000 0.000000 0.000000
# 2 -0.001603 0.038464 -0.004013 0.000000 0.000000 0.000000
# 3 -0.001112 -0.004013 0.008510 0.000000 0.000000 0.000000
# 4 0.000000 0.000000 0.000000 0.067452 0.000000 0.000000
# 5 0.000000 0.000000 0.000000 0.000000 0.026679 0.000000
# 6 0.000000 0.000000 0.000000 0.000000 0.000000 0.054481
#
#
# Mechanical properties :
#
#
# Convention : Reuss Voigt Hill
#
# Bulk Modulus (GPa) = 22.95226 36.43939 29.69583
# Shear Modulus (GPa) = 21.40288 28.80809 25.10548
#
# Velocity S-wave (km/s) = 3.19197 3.70323 3.45706
# Velocity P-wave (km/s) = 4.95088 5.96925 5.48375
#
# Compressibility (1/GPa) = 0.04356869
#
# Stress axis : x y z
#
# Youngs Moduli (GPa) = 99.50188 25.99832 117.51026
#
# Poissons Ratio (x) = 0.04168 0.13064
# Poissons Ratio (y) = 0.15954 0.47152
# Poissons Ratio (z) = 0.11062 0.10432
#
# Static dielectric constant tensor:
#      x y z
#    x 1.782770 0.000000 0.000000 
#    y 0.000000 1.842470 0.000000 
#    z 0.000000 0.000000 2.298990 
# 
# From -- ./inp_files/13271.got.cif
#   From: 2010.05.17/outbox.cif.g08.bks.cpg/sg50_7_cif.got.tgz:13271.got - 2010.06.03 11:33:33.
