data_PCOD9395938
_publ_section_title
;
Structure prediction by ZEFSAII (Michael W. Deem and Ramdas Pophale) SiO2 
 PCOD9395938
Probable space group: P B A N
;
_chemical_formula_sum "Si O2"
_cell_formula_units_Z 64
_cell_length_a 22.717352
_cell_length_b 9.853052
_cell_length_c 12.627991
_cell_angle_alpha 90.000000
_cell_angle_beta 90.000000
_cell_angle_gamma 90.000000
_cell_volume 2826.589530
_symmetry_space_group_name_H-M "P B A N"
_symmetry_group_IT_number 50
_space_group.IT_coordinate_system_code '2'
_symmetry_cell_setting 'orthorhombic'
loop_
_space_group_symop_operation_xyz
x,y,z
1/2-x,1/2-y,z
x,1/2-y,-z
1/2-x,y,-z
-x,-y,-z
1/2+x,1/2+y,-z
-x,1/2+y,z
1/2+x,-y,z
loop_
_atom_site_type_symbol
_atom_site_label
_atom_site_fract_x
_atom_site_fract_y
_atom_site_fract_z
Si Si1 0.146821 0.971279 0.828617
Si Si2 0.448914 0.790262 0.260504
Si Si3 0.737172 0.908865 0.246683
Si Si4 0.475154 0.117635 0.929402
Si Si5 0.862565 0.867903 0.590646
Si Si6 0.936480 0.838005 0.273866
Si Si7 0.661766 0.902445 0.043233
Si Si8 0.562286 0.449659 0.457450
O O1 0.202156 0.007907 0.754274
O O2 0.101590 0.101291 0.821471
O O3 0.113232 0.833738 0.792353
O O4 0.166693 0.986947 0.949565
O O5 0.492008 0.877891 0.183016
O O6 0.493253 0.662819 0.256620
O O7 0.443333 0.813568 0.387788
O O8 0.750000 0.750000 0.232813
O O9 0.696771 0.910482 0.350346
O O10 0.700624 0.945795 0.142443
O O11 0.405564 0.104503 0.918205
O O12 0.488334 0.250000 0.000000
O O13 0.500000 0.000000 0.000000
O O14 0.853782 0.750000 0.500000
O O15 0.908071 0.797250 0.674398
O O16 0.890739 0.005616 0.544085
O O17 0.923076 0.950263 0.360984
O O18 0.677674 0.750000 0.000000
O O19 0.500000 0.500000 0.500000
#
# Coordination Sequence:
#
# PCOD9395938 Si02
#       8
#     8   8   8   8   8   8   8   8
#     4  11  22  36  54  90 121 166 212 253 322 409
#     4  11  22  37  55  80 126 162 206 256 319 391
#     4  12  22  34  55  84 124 172 207 260 340 404
#     4  11  23  39  62  94 132 168 216 274 335 404
#     4  10  20  37  53  81 121 159 199 254 326 392
#     4  10  19  36  56  81 121 160 195 261 317 386
#     4  11  20  34  55  84 126 163 208 261 335 398
#     4  10  21  34  58  87 117 157 208 251 321 390
#
# _framework density 22.642128
#
# number of rings (size 3 to 8) (size 9 to 14) (size 15 to 20)
#    0.000    1.250    5.000    2.625    1.750    0.250 
#    0.000    0.000    0.000    0.000    0.000    4.375 
#    0.000    8.000    0.000    0.000    0.000    0.000 
#
# Total GULP energy -356799.955764 kJ/mol
# GULP energy per Si atom -5574.999309 kJ/mol
# Density = 2.259059 g / cm^3
# Si number density = 22.642128 Si / 1000 Ang^3
#
#
#
# Elastic Constant Matrix: (Units=GPa)
#
#
# Indices 1 2 3 4 5 6 
#
# 1 138.7493 23.3176 40.2576 0.0000 0.0000 0.0000
# 2 23.3176 34.8638 0.7040 0.0000 0.0000 0.0000
# 3 40.2576 0.7040 97.6796 0.0000 0.0000 0.0000
# 4 0.0000 0.0000 0.0000 12.3963 0.0000 0.0000
# 5 0.0000 0.0000 0.0000 0.0000 46.3008 0.0000
# 6 0.0000 0.0000 0.0000 0.0000 0.0000 29.9021
#
#
#
# Elastic Compliance Matrix: (Units=1/GPa)
#
#
# Indices 1 2 3 4 5 6 
#
# 1 0.009351 -0.006177 -0.003809 0.000000 0.000000 0.000000
# 2 -0.006177 0.032768 0.002310 0.000000 0.000000 0.000000
# 3 -0.003809 0.002310 0.011791 0.000000 0.000000 0.000000
# 4 0.000000 0.000000 0.000000 0.080669 0.000000 0.000000
# 5 0.000000 0.000000 0.000000 0.000000 0.021598 0.000000
# 6 0.000000 0.000000 0.000000 0.000000 0.000000 0.033443
#
#
# Mechanical properties :
#
#
# Convention : Reuss Voigt Hill
#
# Bulk Modulus (GPa) = 25.93637 44.42791 35.18214
# Shear Modulus (GPa) = 22.95434 31.52072 27.23753
#
# Velocity S-wave (km/s) = 3.18746 3.73517 3.47213
# Velocity P-wave (km/s) = 5.00263 6.18598 5.62551
#
# Compressibility (1/GPa) = 0.03855590
#
# Stress axis : x y z
#
# Youngs Moduli (GPa) = 106.94573 30.51794 84.81169
#
# Poissons Ratio (x) = 0.18851 0.32306
# Poissons Ratio (y) = 0.66059 -0.19588
# Poissons Ratio (z) = 0.40738 -0.07048
#
# Static dielectric constant tensor:
#      x y z
#    x 2.181740 0.000000 0.000000 
#    y 0.000000 2.037510 0.000000 
#    z 0.000000 0.000000 2.193500 
# 
# From -- ./inp_files/22878.got.cif
#   From: 2010.05.17/outbox.cif.g08.bks.cpg/sg50_12_cif.got.tgz:22878.got - 2010.06.03 11:33:33.
