data_PCOD9395603
_publ_section_title
;
Structure prediction by ZEFSAII (Michael W. Deem and Ramdas Pophale) SiO2 
 PCOD9395603
Probable space group: P B A N
;
_chemical_formula_sum "Si O2"
_cell_formula_units_Z 56
_cell_length_a 18.299596
_cell_length_b 16.764264
_cell_length_c 8.672338
_cell_angle_alpha 90.000000
_cell_angle_beta 90.000000
_cell_angle_gamma 90.000000
_cell_volume 2660.493421
_symmetry_space_group_name_H-M "P B A N"
_symmetry_group_IT_number 50
_space_group.IT_coordinate_system_code '2'
_symmetry_cell_setting 'orthorhombic'
loop_
_space_group_symop_operation_xyz
x,y,z
1/2-x,1/2-y,z
x,1/2-y,-z
1/2-x,y,-z
-x,-y,-z
1/2+x,1/2+y,-z
-x,1/2+y,z
1/2+x,-y,z
loop_
_atom_site_type_symbol
_atom_site_label
_atom_site_fract_x
_atom_site_fract_y
_atom_site_fract_z
Si Si1 0.418110 0.971351 0.470484
Si Si2 0.571716 0.195999 0.368315
Si Si3 0.470072 0.886654 0.926494
Si Si4 0.386258 0.051083 0.918320
Si Si5 0.199562 0.079589 0.369785
Si Si6 0.684550 0.029189 0.798934
Si Si7 0.847601 0.305119 0.862775
O O1 0.403633 0.885277 0.547594
O O2 0.365619 0.037723 0.540043
O O3 0.392661 0.967574 0.293296
O O4 0.500000 0.000000 0.500000
O O5 0.535284 0.250000 0.500000
O O6 0.523643 0.168374 0.223763
O O7 0.632680 0.251630 0.285689
O O8 0.427855 0.967773 0.870380
O O9 0.548351 0.902730 0.998992
O O10 0.419362 0.845663 0.056481
O O11 0.344131 0.102416 0.787945
O O12 0.329726 0.019391 0.046048
O O13 0.250000 0.124774 0.500000
O O14 0.255130 0.013260 0.303695
O O15 0.704431 0.120994 0.826071
O O16 0.821978 0.250000 0.000000
#
# Coordination Sequence:
#
# PCOD9395603 Si02
#       7
#     8   8   8   8   8   8   8
#     4  11  22  36  57  81 114 156 205 251 310 360
#     4  11  19  33  54  81 120 155 199 261 295 374
#     4   9  19  32  55  83 107 154 203 261 309 350
#     4  10  18  34  58  78 113 150 210 257 307 356
#     4  10  22  36  54  80 119 153 205 257 295 373
#     4  10  20  35  54  80 114 160 191 247 297 359
#     4   9  19  33  52  78 117 154 200 239 285 362
#
# _framework density 21.048728000000001
#
# number of rings (size 3 to 8) (size 9 to 14) (size 15 to 20)
#    0.000    2.000    2.857    1.286    4.000    0.000 
#    0.000    0.714    3.143    0.000    0.000    0.000 
#    0.000  145.714    0.000    0.000    0.000    0.000 
#
# Total GULP energy -312058.810669 kJ/mol
# GULP energy per Si atom -5572.478762 kJ/mol
# Density = 2.100082 g / cm^3
# Si number density = 21.048728 Si / 1000 Ang^3
#
#
#
# Elastic Constant Matrix: (Units=GPa)
#
#
# Indices 1 2 3 4 5 6 
#
# 1 92.2211 -5.2664 20.7986 0.0000 0.0000 0.0000
# 2 -5.2664 11.5546 3.7593 0.0000 0.0000 0.0000
# 3 20.7986 3.7593 112.2920 0.0000 0.0000 0.0000
# 4 0.0000 0.0000 0.0000 24.6916 0.0000 0.0000
# 5 0.0000 0.0000 0.0000 0.0000 26.2171 0.0000
# 6 0.0000 0.0000 0.0000 0.0000 0.0000 4.9803
#
#
#
# Elastic Compliance Matrix: (Units=1/GPa)
#
#
# Indices 1 2 3 4 5 6 
#
# 1 0.011729 0.006119 -0.002377 0.000000 0.000000 0.000000
# 2 0.006119 0.090691 -0.004170 0.000000 0.000000 0.000000
# 3 -0.002377 -0.004170 0.009485 0.000000 0.000000 0.000000
# 4 0.000000 0.000000 0.000000 0.040500 0.000000 0.000000
# 5 0.000000 0.000000 0.000000 0.000000 0.038143 0.000000
# 6 0.000000 0.000000 0.000000 0.000000 0.000000 0.200793
#
#
# Mechanical properties :
#
#
# Convention : Reuss Voigt Hill
#
# Bulk Modulus (GPa) = 9.00491 28.29453 18.64972
# Shear Modulus (GPa) = 11.64922 24.29621 17.97272
#
# Velocity S-wave (km/s) = 2.35508 3.40116 2.92526
# Velocity P-wave (km/s) = 3.41799 5.37545 4.50434
#
# Compressibility (1/GPa) = 0.11105049
#
# Stress axis : x y z
#
# Youngs Moduli (GPa) = 85.25791 11.02644 105.42665
#
# Poissons Ratio (x) = -0.06748 0.25063
# Poissons Ratio (y) = -0.52173 0.43959
# Poissons Ratio (z) = 0.20269 0.04598
#
# Static dielectric constant tensor:
#      x y z
#    x 1.781990 0.000000 0.000000 
#    y 0.000000 1.820240 0.000000 
#    z 0.000000 0.000000 1.857460 
# 
# From -- ./inp_files/14558.got.cif
#   From: 2010.05.17/outbox.cif.g08.bks.cpg/sg50_8_cif.got.tgz:14558.got - 2010.06.03 11:33:33.
