data_PCOD9395211
_publ_section_title
;
Structure prediction by ZEFSAII (Michael W. Deem and Ramdas Pophale) SiO2 
 PCOD9395211
Probable space group: P C C M
;
_chemical_formula_sum "Si O2"
_cell_formula_units_Z 64
_cell_length_a 24.000000
_cell_length_b 18.000000
_cell_length_c 9.000000
_cell_angle_alpha 90.000000
_cell_angle_beta 90.000000
_cell_angle_gamma 90.000000
_cell_volume 3888.000000
_symmetry_space_group_name_H-M "P C C M"
_symmetry_group_IT_number 49
_symmetry_cell_setting 'orthorhombic'
loop_
_space_group_symop_operation_xyz
x,y,z
-x,-y,z
x,-y,1/2-z
-x,y,1/2-z
-x,-y,-z
x,y,-z
-x,y,1/2+z
x,-y,1/2+z
loop_
_atom_site_type_symbol
_atom_site_label
_atom_site_fract_x
_atom_site_fract_y
_atom_site_fract_z
Si Si1 0.560204 0.421927 0.676940
Si Si2 0.662061 0.316323 0.324753
Si Si3 0.251103 0.798771 0.669250
Si Si4 0.740439 0.571511 0.328387
Si Si5 0.818381 0.923764 0.677453
Si Si6 0.057159 0.885286 0.171826
Si Si7 0.943359 0.705601 0.328335
Si Si8 0.831595 0.343746 0.329200
O O1 0.580843 0.500000 0.750000
O O2 0.500000 0.408152 0.750000
O O3 0.554962 0.433945 0.500000
O O4 0.600668 0.350528 0.697403
O O5 0.676165 0.332736 0.500000
O O6 0.686340 0.232971 0.302733
O O7 0.699030 0.362656 0.210939
O O8 0.249278 0.827222 0.500000
O O9 0.223904 0.859026 0.775846
O O10 0.209213 0.728065 0.676585
O O11 0.716428 0.500000 0.250000
O O12 0.746191 0.559070 0.500000
O O13 0.799225 0.592244 0.256545
O O14 0.820820 0.928041 0.500000
O O15 0.882357 0.909547 0.732435
O O16 0.799238 0.000000 0.750000
O O17 0.058106 0.795517 0.177901
O O18 0.000000 0.909985 0.250000
O O19 0.053923 0.908245 0.000000
O O20 0.942626 0.683799 0.500000
O O21 0.889447 0.676097 0.245412
O O22 0.000000 0.681008 0.250000
O O23 0.839112 0.363821 0.500000
#
# Coordination Sequence:
#
# PCOD9395211 Si02
#       8
#     8   8   8   8   8   8   8   8
#     4  10  19  31  48  72 107 145 181 213 242 283
#     4   9  19  34  51  73 100 132 169 208 246 284
#     4   9  18  33  51  70  93 122 158 200 245 288
#     4  11  21  32  48  70  96 125 158 198 240 286
#     4  11  22  35  49  69  95 126 160 199 245 299
#     4   9  19  32  47  66  91 119 154 194 236 290
#     4  10  18  30  47  69  91 115 150 191 236 286
#     4  10  19  32  50  70  92 119 151 192 241 289
#
# _framework density 16.460905
#
# number of rings (size 3 to 8) (size 9 to 14) (size 15 to 20)
#    0.000    2.125    1.250    4.125    0.000    5.750 
#    0.000    1.250    0.000    0.375    0.000    2.625 
#    0.000    0.500    0.000    5.750    0.000    1.750 
#
# Total GULP energy -356507.539278 kJ/mol
# GULP energy per Si atom -5570.430301 kJ/mol
# Density = 1.642344 g / cm^3
# Si number density = 16.460905 Si / 1000 Ang^3
#
#
#
# Elastic Constant Matrix: (Units=GPa)
#
#
# Indices 1 2 3 4 5 6 
#
# 1 98.5057 28.9602 43.4376 0.0000 0.0000 0.0000
# 2 28.9602 36.9118 34.5154 0.0000 0.0000 0.0000
# 3 43.4376 34.5154 98.9049 0.0000 0.0000 0.0000
# 4 0.0000 0.0000 0.0000 15.3051 0.0000 0.0000
# 5 0.0000 0.0000 0.0000 0.0000 462.2502 0.0000
# 6 0.0000 0.0000 0.0000 0.0000 0.0000 12.5438
#
#
#
# Elastic Compliance Matrix: (Units=1/GPa)
#
#
# Indices 1 2 3 4 5 6 
#
# 1 0.013934 -0.007733 -0.003421 0.000000 0.000000 0.000000
# 2 -0.007733 0.044507 -0.012135 0.000000 0.000000 0.000000
# 3 -0.003421 -0.012135 0.015848 0.000000 0.000000 0.000000
# 4 0.000000 0.000000 0.000000 0.065338 0.000000 0.000000
# 5 0.000000 0.000000 0.000000 0.000000 0.002163 0.000000
# 6 0.000000 0.000000 0.000000 0.000000 0.000000 0.079721
#
#
# Mechanical properties :
#
#
# Convention : Reuss Voigt Hill
#
# Bulk Modulus (GPa) = 36.08888 49.79430 42.94159
# Shear Modulus (GPa) = 18.02939 106.51378 62.27158
#
# Velocity S-wave (km/s) = 3.31310 8.05280 6.15728
# Velocity P-wave (km/s) = 6.05038 10.80644 8.75746
#
# Compressibility (1/GPa) = 0.02770936
#
# Stress axis : x y z
#
# Youngs Moduli (GPa) = 71.76834 22.46860 63.09967
#
# Poissons Ratio (x) = 0.17376 0.21584
# Poissons Ratio (y) = 0.55502 0.76573
# Poissons Ratio (z) = 0.24550 0.27266
#
# Static dielectric constant tensor:
#      x y z
#    x 1.552160 0.000000 0.000000 
#    y 0.000000 1.548570 0.000000 
#    z 0.000000 0.000000 1.554960 
# 
# From -- ./inp_files/5395.got.cif
#   From: 2010.05.17/outbox.ucp.g08.bks.cvg/sg49_3_cif.got.tgz:5395.got - 2010.06.11 16:40:14.
