data_PCOD9395902
_publ_section_title
;
Structure prediction by ZEFSAII (Michael W. Deem and Ramdas Pophale) SiO2 
 PCOD9395902
Probable space group: P B A N
;
_chemical_formula_sum "Si O2"
_cell_formula_units_Z 54
_cell_length_a 17.189561
_cell_length_b 5.289386
_cell_length_c 30.904951
_cell_angle_alpha 90.000000
_cell_angle_beta 90.000000
_cell_angle_gamma 90.000000
_cell_volume 2809.946856
_symmetry_space_group_name_H-M "P B A N"
_symmetry_group_IT_number 50
_space_group.IT_coordinate_system_code '2'
_symmetry_cell_setting 'orthorhombic'
loop_
_space_group_symop_operation_xyz
x,y,z
1/2-x,1/2-y,z
x,1/2-y,-z
1/2-x,y,-z
-x,-y,-z
1/2+x,1/2+y,-z
-x,1/2+y,z
1/2+x,-y,z
loop_
_atom_site_type_symbol
_atom_site_label
_atom_site_fract_x
_atom_site_fract_y
_atom_site_fract_z
Si Si1 0.551418 0.532168 0.078148
Si Si2 0.448831 0.750000 0.500000
Si Si3 0.669845 0.098431 0.567591
Si Si4 0.445961 0.015211 0.269287
Si Si5 0.695721 0.501068 0.336327
Si Si6 0.716570 0.499922 0.048587
Si Si7 0.548659 0.445031 0.173222
Si Si8 0.250000 0.250000 0.500000
O O1 0.491310 0.300407 0.073186
O O2 0.624055 0.504672 0.046759
O O3 0.586395 0.504693 0.126943
O O4 0.500000 0.500000 0.500000
O O5 0.396834 0.745766 0.456326
O O6 0.750000 0.250000 0.571143
O O7 0.656215 0.001589 0.615828
O O8 0.692238 0.892231 0.532126
O O9 0.496281 0.273179 0.274577
O O10 0.373734 0.004383 0.301753
O O11 0.414307 0.999796 0.219726
O O12 0.750000 0.750000 0.333101
O O13 0.750000 0.250000 0.331631
O O14 0.750000 0.750000 0.070430
O O15 0.750000 0.250000 0.070376
O O16 0.750000 0.499726 0.000000
O O17 0.522076 0.151874 0.172716
#
# Coordination Sequence:
#
# PCOD9395902 Si02
#       8
#     8   4   8   8   8   8   8   2
#     4  10  19  35  59  84 106 142 201 245 269 328
#     4  12  26  38  57  89 118 134 178 246 288 314
#     4  11  23  39  63  80 108 156 193 222 273 347
#     4  10  20  38  61  84 117 155 183 224 292 351
#     4  11  24  39  59  88 116 149 193 239 272 333
#     4  10  21  38  53  75 115 152 181 231 299 349
#     4   8  16  31  55  83 109 142 186 232 279 335
#     4  12  16  40  68  76 100 146 214 214 262 334
#
# _framework density 19.217445000000001
#
# number of rings (size 3 to 8) (size 9 to 14) (size 15 to 20)
#    0.000    1.778    2.222    2.222    0.000    1.185 
#    0.000   10.370    0.000    0.000    0.000    0.000 
#    0.000    0.000    0.000    0.000    0.000    0.000 
#
# Total GULP energy -300957.999628 kJ/mol
# GULP energy per Si atom -5573.296289 kJ/mol
# Density = 1.917371 g / cm^3
# Si number density = 19.217445 Si / 1000 Ang^3
#
#
#
# Elastic Constant Matrix: (Units=GPa)
#
#
# Indices 1 2 3 4 5 6 
#
# 1 85.6931 31.6481 54.2756 0.0000 0.0000 0.0000
# 2 31.6481 135.0257 10.1820 0.0000 0.0000 0.0000
# 3 54.2756 10.1820 113.4487 0.0000 0.0000 0.0000
# 4 0.0000 0.0000 0.0000 -56.9147 0.0000 0.0000
# 5 0.0000 0.0000 0.0000 0.0000 20.8032 0.0000
# 6 0.0000 0.0000 0.0000 0.0000 0.0000 32.5254
#
#
#
# Elastic Compliance Matrix: (Units=1/GPa)
#
#
# Indices 1 2 3 4 5 6 
#
# 1 0.018389 -0.003672 -0.008468 0.000000 0.000000 0.000000
# 2 -0.003672 0.008190 0.001022 0.000000 0.000000 0.000000
# 3 -0.008468 0.001022 0.012774 0.000000 0.000000 0.000000
# 4 0.000000 0.000000 0.000000 -0.017570 0.000000 0.000000
# 5 0.000000 0.000000 0.000000 0.000000 0.048070 0.000000
# 6 0.000000 0.000000 0.000000 0.000000 0.000000 0.030745
#
#
# Mechanical properties :
#
#
# Convention : Reuss Voigt Hill
#
# Bulk Modulus (GPa) = 58.42332 58.48654 58.45493
# Shear Modulus (GPa) = 38.89873 15.15354 27.02613
#
# Velocity S-wave (km/s) = 4.50392 2.81113 3.75418
# Velocity P-wave (km/s) = 7.58382 6.40599 7.01965
#
# Compressibility (1/GPa) = 0.01711645
#
# Stress axis : x y z
#
# Youngs Moduli (GPa) = 54.38048 122.10715 78.28329
#
# Poissons Ratio (x) = 0.44832 0.66291
# Poissons Ratio (y) = 0.19966 -0.07997
# Poissons Ratio (z) = 0.46050 -0.12473
#
# Static dielectric constant tensor:
#      x y z
#    x 1.964280 0.000000 0.000000 
#    y 0.000000 1.727030 0.000000 
#    z 0.000000 0.000000 1.745660 
# 
# From -- ./inp_files/32525.got.cif
#   From: 2010.05.17/outbox.cif.g08.bks.cpg/sg50_17_cif.got.tgz:32525.got - 2010.06.03 11:33:33.
