data_PCOD9395299
_publ_section_title
;
Structure prediction by ZEFSAII (Michael W. Deem and Ramdas Pophale) SiO2 
 PCOD9395299
Probable space group: P C C M
;
_chemical_formula_sum "Si O2"
_cell_formula_units_Z 48
_cell_length_a 30.000000
_cell_length_b 9.000000
_cell_length_c 9.000000
_cell_angle_alpha 90.000000
_cell_angle_beta 90.000000
_cell_angle_gamma 90.000000
_cell_volume 2430.000000
_symmetry_space_group_name_H-M "P C C M"
_symmetry_group_IT_number 49
_symmetry_cell_setting 'orthorhombic'
loop_
_space_group_symop_operation_xyz
x,y,z
-x,-y,z
x,-y,1/2-z
-x,y,1/2-z
-x,-y,-z
x,y,-z
-x,y,1/2+z
x,-y,1/2+z
loop_
_atom_site_type_symbol
_atom_site_label
_atom_site_fract_x
_atom_site_fract_y
_atom_site_fract_z
Si Si1 0.547120 0.852899 0.826658
Si Si2 0.131818 0.340900 0.325490
Si Si3 0.628982 0.342880 0.674445
Si Si4 0.782371 0.662620 0.822503
Si Si5 0.957853 0.841145 0.327343
Si Si6 0.296851 0.158268 0.322990
O O1 0.500000 0.827591 0.750000
O O2 0.578363 0.710940 0.813532
O O3 0.567224 0.000000 0.750000
O O4 0.541430 0.885386 0.000000
O O5 0.124182 0.500000 0.250000
O O6 0.143712 0.358074 0.500000
O O7 0.171917 0.264688 0.235342
O O8 0.087036 0.249409 0.313056
O O9 0.636460 0.500000 0.750000
O O10 0.641680 0.344140 0.500000
O O11 0.657048 0.224420 0.765837
O O12 0.783755 0.500000 0.750000
O O13 0.740770 0.739844 0.748315
O O14 0.779647 0.658424 0.000000
O O15 0.967640 0.861475 0.500000
O O16 0.000000 0.764687 0.250000
O O17 0.952285 0.000000 0.250000
O O18 0.294367 0.154099 0.500000
O O19 0.290702 0.000000 0.250000
#
# Coordination Sequence:
#
# PCOD9395299 Si02
#       6
#     8   8   8   8   8   8
#     4  10  21  37  60  87 118 154 195 240 290 344
#     4  10  21  37  57  84 114 148 189 234 282 337
#     4  11  24  41  61  88 119 156 197 241 291 344
#     4  11  22  39  62  87 117 153 190 234 285 341
#     4  10  21  36  56  80 110 146 187 232 281 336
#     4  12  25  42  63  88 118 152 192 239 287 343
#
# _framework density 19.753086
#
# number of rings (size 3 to 8) (size 9 to 14) (size 15 to 20)
#    0.000    1.333    0.000    8.000    0.000    8.000 
#    0.000    5.000    0.000    0.000    0.000    0.000 
#    0.000    0.000    0.000    0.000    0.000    0.000 
#
# Total GULP energy -267970.900718 kJ/mol
# GULP energy per Si atom -5582.727098 kJ/mol
# Density = 1.970813 g / cm^3
# Si number density = 19.753086 Si / 1000 Ang^3
#
#
#
# Elastic Constant Matrix: (Units=GPa)
#
#
# Indices 1 2 3 4 5 6 
#
# 1 84.2028 23.8403 61.3203 0.0000 0.0000 0.0000
# 2 23.8403 19.3154 29.8104 0.0000 0.0000 0.0000
# 3 61.3203 29.8104 193.6269 0.0000 0.0000 0.0000
# 4 0.0000 0.0000 0.0000 234.1761 0.0000 0.0000
# 5 0.0000 0.0000 0.0000 0.0000 28.0596 0.0000
# 6 0.0000 0.0000 0.0000 0.0000 0.0000 37.8762
#
#
#
# Elastic Compliance Matrix: (Units=1/GPa)
#
#
# Indices 1 2 3 4 5 6 
#
# 1 0.019723 -0.019286 -0.003277 0.000000 0.000000 0.000000
# 2 -0.019286 0.086766 -0.007251 0.000000 0.000000 0.000000
# 3 -0.003277 -0.007251 0.007319 0.000000 0.000000 0.000000
# 4 0.000000 0.000000 0.000000 0.004270 0.000000 0.000000
# 5 0.000000 0.000000 0.000000 0.000000 0.035638 0.000000
# 6 0.000000 0.000000 0.000000 0.000000 0.000000 0.026402
#
#
# Mechanical properties :
#
#
# Convention : Reuss Voigt Hill
#
# Bulk Modulus (GPa) = 18.45666 58.56525 38.51096
# Shear Modulus (GPa) = 19.39449 72.16731 45.78090
#
# Velocity S-wave (km/s) = 3.13684 6.05095 4.81943
# Velocity P-wave (km/s) = 4.74169 8.86181 7.10688
#
# Compressibility (1/GPa) = 0.05418098
#
# Stress axis : x y z
#
# Youngs Moduli (GPa) = 50.70265 11.52523 136.63737
#
# Poissons Ratio (x) = 0.22227 0.44775
# Poissons Ratio (y) = 0.97784 0.99072
# Poissons Ratio (z) = 0.16615 0.08357
#
# Static dielectric constant tensor:
#      x y z
#    x 1.776770 0.000000 0.000000 
#    y 0.000000 1.636130 0.000000 
#    z 0.000000 0.000000 1.649660 
# 
# From -- ./inp_files/6860.got.cif
#   From: 2010.05.17/outbox.ucp.g08.bks.cvg/sg49_4_cif.got.tgz:6860.got - 2010.06.11 16:40:14.
