data_PCOD9395352
_publ_section_title
;
Structure prediction by ZEFSAII (Michael W. Deem and Ramdas Pophale) SiO2 
 PCOD9395352
Probable space group: P B A N
;
_chemical_formula_sum "Si O2"
_cell_formula_units_Z 40
_cell_length_a 5.535281
_cell_length_b 13.798770
_cell_length_c 20.791684
_cell_angle_alpha 90.000000
_cell_angle_beta 90.000000
_cell_angle_gamma 90.000000
_cell_volume 1588.070267
_symmetry_space_group_name_H-M "P B A N"
_symmetry_group_IT_number 50
_space_group.IT_coordinate_system_code '2'
_symmetry_cell_setting 'orthorhombic'
loop_
_space_group_symop_operation_xyz
x,y,z
1/2-x,1/2-y,z
x,1/2-y,-z
1/2-x,y,-z
-x,-y,-z
1/2+x,1/2+y,-z
-x,1/2+y,z
1/2+x,-y,z
loop_
_atom_site_type_symbol
_atom_site_label
_atom_site_fract_x
_atom_site_fract_y
_atom_site_fract_z
Si Si1 0.618880 0.617330 0.323807
Si Si2 0.350631 0.116889 0.071721
Si Si3 0.505203 0.859507 0.526782
Si Si4 0.638760 0.102620 0.878364
Si Si5 0.872043 0.102521 0.273337
O O1 0.547022 0.637696 0.397141
O O2 0.634295 0.501270 0.310060
O O3 0.383949 0.652786 0.285753
O O4 0.882552 0.651264 0.299804
O O5 0.617252 0.150832 0.093522
O O6 0.120070 0.152425 0.111827
O O7 0.372505 0.000953 0.085011
O O8 0.250000 0.133237 0.000000
O O9 0.505857 0.750000 0.500000
O O10 0.750000 0.905416 0.500000
O O11 0.250000 0.897179 0.500000
O O12 0.638925 0.082150 0.802542
#
# Coordination Sequence:
#
# PCOD9395352 Si02
#       5
#     8   8   8   8   8
#     4  10  18  32  48  67  90 114 148 188 232 286
#     4  10  16  22  33  51  75 112 159 202 224 247
#     4  10  21  37  54  70  89 115 146 185 229 286
#     4  10  16  25  36  51  80 114 149 195 231 261
#     4  10  19  30  45  67  92 121 152 194 240 278
#
# _framework density 25.187802999999999
#
# number of rings (size 3 to 8) (size 9 to 14) (size 15 to 20)
#    0.000    2.000    0.000   10.200    0.000    0.000 
#    0.000   12.000    0.000    0.000    0.000    0.000 
#    0.000    0.000    0.000    0.000    0.000    0.000 
#
# Total GULP energy -223326.289776 kJ/mol
# GULP energy per Si atom -5583.157244 kJ/mol
# Density = 2.513047 g / cm^3
# Si number density = 25.187803 Si / 1000 Ang^3
#
#
#
# Elastic Constant Matrix: (Units=GPa)
#
#
# Indices 1 2 3 4 5 6 
#
# 1 306.7430 42.5507 31.1953 0.0000 0.0000 0.0000
# 2 42.5507 109.6642 12.7421 0.0000 0.0000 0.0000
# 3 31.1953 12.7421 162.5032 0.0000 0.0000 0.0000
# 4 0.0000 0.0000 0.0000 548.4364 0.0000 0.0000
# 5 0.0000 0.0000 0.0000 0.0000 52.6188 0.0000
# 6 0.0000 0.0000 0.0000 0.0000 0.0000 19.1405
#
#
#
# Elastic Compliance Matrix: (Units=1/GPa)
#
#
# Indices 1 2 3 4 5 6 
#
# 1 0.003497 -0.001291 -0.000570 0.000000 0.000000 0.000000
# 2 -0.001291 0.009679 -0.000511 0.000000 0.000000 0.000000
# 3 -0.000570 -0.000511 0.006303 0.000000 0.000000 0.000000
# 4 0.000000 0.000000 0.000000 0.001823 0.000000 0.000000
# 5 0.000000 0.000000 0.000000 0.000000 0.019005 0.000000
# 6 0.000000 0.000000 0.000000 0.000000 0.000000 0.052245
#
#
# Mechanical properties :
#
#
# Convention : Reuss Voigt Hill
#
# Bulk Modulus (GPa) = 67.86400 83.54296 75.70348
# Shear Modulus (GPa) = 48.91975 156.86730 102.89352
#
# Velocity S-wave (km/s) = 4.41182 7.90027 6.39838
# Velocity P-wave (km/s) = 7.27694 10.79162 9.20361
#
# Compressibility (1/GPa) = 0.01473535
#
# Stress axis : x y z
#
# Youngs Moduli (GPa) = 285.95324 103.31725 158.64825
#
# Poissons Ratio (x) = 0.13335 0.09045
# Poissons Ratio (y) = 0.36907 0.08110
# Poissons Ratio (z) = 0.16303 0.05281
#
# Static dielectric constant tensor:
#      x y z
#    x 2.039480 0.000000 0.000000 
#    y 0.000000 2.011840 0.000000 
#    z 0.000000 0.000000 2.317890 
# 
# From -- ./inp_files/28190.got.cif
#   From: 2010.05.17/outbox.cif.g08.bks.cpg/sg50_15_cif.got.tgz:28190.got - 2010.06.03 11:33:33.
