data_PCOD9395694
_publ_section_title
;
Structure prediction by ZEFSAII (Michael W. Deem and Ramdas Pophale) SiO2 
 PCOD9395694
Probable space group: P B A N
;
_chemical_formula_sum "Si O2"
_cell_formula_units_Z 28
_cell_length_a 5.257349
_cell_length_b 28.570770
_cell_length_c 8.988026
_cell_angle_alpha 90.000000
_cell_angle_beta 90.000000
_cell_angle_gamma 90.000000
_cell_volume 1350.060009
_symmetry_space_group_name_H-M "P B A N"
_symmetry_group_IT_number 50
_space_group.IT_coordinate_system_code '2'
_symmetry_cell_setting 'orthorhombic'
loop_
_space_group_symop_operation_xyz
x,y,z
1/2-x,1/2-y,z
x,1/2-y,-z
1/2-x,y,-z
-x,-y,-z
1/2+x,1/2+y,-z
-x,1/2+y,z
1/2+x,-y,z
loop_
_atom_site_type_symbol
_atom_site_label
_atom_site_fract_x
_atom_site_fract_y
_atom_site_fract_z
Si Si1 0.138340 0.629657 0.334059
Si Si2 0.390592 0.317803 0.747311
Si Si3 0.250000 0.250000 0.000000
Si Si4 0.750000 0.750000 0.500000
Si Si5 0.516043 0.020165 0.670250
O O1 0.250000 0.638117 0.500000
O O2 0.382368 0.645287 0.239365
O O3 0.615555 0.657932 0.714244
O O4 0.070013 0.574974 0.329770
O O5 0.417529 0.282544 0.607373
O O6 0.396995 0.284716 0.890450
O O7 0.500000 0.000000 0.500000
O O8 0.748851 0.992577 0.741647
#
# Coordination Sequence:
#
# PCOD9395694 Si02
#       5
#     8   8   2   2   8
#     4  12  21  36  60  97 128 154 204 251 317 356
#     4  11  25  39  64  85 125 160 209 264 305 376
#     4  10  28  52  60  88 120 176 220 252 320 364
#     4  10  20  36  56  88 108 148 188 264 324 340
#     4  10  19  30  52  87 138 160 181 238 314 375
#
# _framework density 20.739818
#
# number of rings (size 3 to 8) (size 9 to 14) (size 15 to 20)
#    0.000    1.143    5.714    1.714    4.000    8.000 
#    0.000    0.000    0.000    0.000    0.000   20.000 
#    0.000    0.000    0.000    0.000    0.000    0.000 
#
# Total GULP energy -156167.267305 kJ/mol
# GULP energy per Si atom -5577.402404 kJ/mol
# Density = 2.069261 g / cm^3
# Si number density = 20.739818 Si / 1000 Ang^3
#
#
#
# Elastic Constant Matrix: (Units=GPa)
#
#
# Indices 1 2 3 4 5 6 
#
# 1 186.0847 74.7103 21.5158 0.0000 0.0000 0.0000
# 2 74.7103 158.6159 48.2974 0.0000 0.0000 0.0000
# 3 21.5158 48.2974 68.0839 0.0000 0.0000 0.0000
# 4 0.0000 0.0000 0.0000 23.6680 0.0000 0.0000
# 5 0.0000 0.0000 0.0000 0.0000 3.0330 0.0000
# 6 0.0000 0.0000 0.0000 0.0000 0.0000 -103.4606
#
#
#
# Elastic Compliance Matrix: (Units=1/GPa)
#
#
# Indices 1 2 3 4 5 6 
#
# 1 0.006628 -0.003169 0.000153 0.000000 0.000000 0.000000
# 2 -0.003169 0.009556 -0.005778 0.000000 0.000000 0.000000
# 3 0.000153 -0.005778 0.018738 0.000000 0.000000 0.000000
# 4 0.000000 0.000000 0.000000 0.042251 0.000000 0.000000
# 5 0.000000 0.000000 0.000000 0.000000 0.329706 0.000000
# 6 0.000000 0.000000 0.000000 0.000000 0.000000 -0.009666
#
#
# Mechanical properties :
#
#
# Convention : Reuss Voigt Hill
#
# Bulk Modulus (GPa) = 57.68305 77.98126 67.83216
# Shear Modulus (GPa) = 11.88836 2.53215 7.21026
#
# Velocity S-wave (km/s) = 2.39679 1.10615 1.86657
# Velocity P-wave (km/s) = 5.96092 6.26999 6.11741
#
# Compressibility (1/GPa) = 0.01733611
#
# Stress axis : x y z
#
# Youngs Moduli (GPa) = 150.86666 104.64309 53.36759
#
# Poissons Ratio (x) = 0.33158 -0.00817
# Poissons Ratio (y) = 0.47805 0.30834
# Poissons Ratio (z) = -0.02310 0.60460
#
# Static dielectric constant tensor:
#      x y z
#    x 1.822570 0.000000 0.000000 
#    y 0.000000 1.752530 0.000000 
#    z 0.000000 0.000000 1.777670 
# 
# From -- ./inp_files/7829.got.cif
#   From: 2010.05.17/outbox.cif.g08.bks.cpg/sg50_4_cif.got.tgz:7829.got - 2010.06.03 11:33:33.
