data_PCOD9395802
_publ_section_title
;
Structure prediction by ZEFSAII (Michael W. Deem and Ramdas Pophale) SiO2 
 PCOD9395802
Probable space group: P B A N
;
_chemical_formula_sum "Si O2"
_cell_formula_units_Z 26
_cell_length_a 5.214671
_cell_length_b 28.933072
_cell_length_c 8.289703
_cell_angle_alpha 90.000000
_cell_angle_beta 90.000000
_cell_angle_gamma 90.000000
_cell_volume 1250.720973
_symmetry_space_group_name_H-M "P B A N"
_symmetry_group_IT_number 50
_space_group.IT_coordinate_system_code '2'
_symmetry_cell_setting 'orthorhombic'
loop_
_space_group_symop_operation_xyz
x,y,z
1/2-x,1/2-y,z
x,1/2-y,-z
1/2-x,y,-z
-x,-y,-z
1/2+x,1/2+y,-z
-x,1/2+y,z
1/2+x,-y,z
loop_
_atom_site_type_symbol
_atom_site_label
_atom_site_fract_x
_atom_site_fract_y
_atom_site_fract_z
Si Si1 0.380061 0.870996 0.170475
Si Si2 0.122958 0.160563 0.660567
Si Si3 0.250000 0.250000 0.500000
Si Si4 0.985743 0.020246 0.183347
O O1 0.650106 0.846112 0.208563
O O2 0.438923 0.925548 0.172874
O O3 0.151469 0.859525 0.294625
O O4 0.250000 0.858696 0.000000
O O5 0.250000 0.138377 0.500000
O O6 0.093419 0.214454 0.611497
O O7 0.751596 0.993442 0.262866
O O8 0.000000 0.000000 0.000000
#
# Coordination Sequence:
#
# PCOD9395802 Si02
#       4
#     8   8   2   8
#     4  12  22  37  67 106 124 158 227 275 310 358
#     4  10  24  43  68  87 130 175 211 258 330 414
#     4   8  24  50  70  82 124 194 206 234 364 418
#     4  10  19  33  56  91 129 177 195 251 311 401
#
# _framework density 20.788008999999999
#
# number of rings (size 3 to 8) (size 9 to 14) (size 15 to 20)
#    0.923    0.615    3.077    3.692    4.308    2.462 
#    0.000    4.615    0.000   18.462    0.000    0.000 
#    0.000    0.000    0.000    0.000    0.000    0.000 
#
# Total GULP energy -144908.492599 kJ/mol
# GULP energy per Si atom -5573.403561 kJ/mol
# Density = 2.074069 g / cm^3
# Si number density = 20.788009 Si / 1000 Ang^3
#
#
#
# Elastic Constant Matrix: (Units=GPa)
#
#
# Indices 1 2 3 4 5 6 
#
# 1 157.6788 50.3047 11.0513 0.0000 0.0000 0.0000
# 2 50.3047 130.6277 28.2439 0.0000 0.0000 0.0000
# 3 11.0513 28.2439 41.4991 0.0000 0.0000 0.0000
# 4 0.0000 0.0000 0.0000 48.9547 0.0000 0.0000
# 5 0.0000 0.0000 0.0000 0.0000 22.8562 0.0000
# 6 0.0000 0.0000 0.0000 0.0000 0.0000 1461.9249
#
#
#
# Elastic Compliance Matrix: (Units=1/GPa)
#
#
# Indices 1 2 3 4 5 6 
#
# 1 0.007230 -0.002777 -0.000036 0.000000 0.000000 0.000000
# 2 -0.002777 0.010043 -0.006095 0.000000 0.000000 0.000000
# 3 -0.000036 -0.006095 0.028255 0.000000 0.000000 0.000000
# 4 0.000000 0.000000 0.000000 0.020427 0.000000 0.000000
# 5 0.000000 0.000000 0.000000 0.000000 0.043752 0.000000
# 6 0.000000 0.000000 0.000000 0.000000 0.000000 0.000684
#
#
# Mechanical properties :
#
#
# Convention : Reuss Voigt Hill
#
# Bulk Modulus (GPa) = 36.08516 56.55614 46.32065
# Shear Modulus (GPa) = 36.37850 322.76087 179.56968
#
# Velocity S-wave (km/s) = 4.18781 12.47398 9.30424
# Velocity P-wave (km/s) = 6.38592 15.32096 11.73695
#
# Compressibility (1/GPa) = 0.02771222
#
# Stress axis : x y z
#
# Youngs Moduli (GPa) = 138.30560 99.57592 35.39212
#
# Poissons Ratio (x) = 0.27649 0.00126
# Poissons Ratio (y) = 0.38403 0.21573
# Poissons Ratio (z) = 0.00493 0.60696
#
# Static dielectric constant tensor:
#      x y z
#    x 1.694510 0.000000 0.000000 
#    y 0.000000 1.711680 0.000000 
#    z 0.000000 0.000000 1.795750 
# 
# From -- ./inp_files/7678.got.cif
#   From: 2010.05.17/outbox.cif.g08.bks.cpg/sg50_4_cif.got.tgz:7678.got - 2010.06.03 11:33:33.
