data_PCOD9395140
_publ_section_title
;
Structure prediction by ZEFSAII (Michael W. Deem and Ramdas Pophale) SiO2 
 PCOD9395140
Probable space group: P C C M
;
_chemical_formula_sum "Si O2"
_cell_formula_units_Z 26
_cell_length_a 7.100406
_cell_length_b 18.645429
_cell_length_c 7.822666
_cell_angle_alpha 90.000000
_cell_angle_beta 90.000000
_cell_angle_gamma 90.000000
_cell_volume 1035.643659
_symmetry_space_group_name_H-M "P C C M"
_symmetry_group_IT_number 49
_symmetry_cell_setting 'orthorhombic'
loop_
_space_group_symop_operation_xyz
x,y,z
-x,-y,z
x,-y,1/2-z
-x,y,1/2-z
-x,-y,-z
x,y,-z
-x,y,1/2+z
x,-y,1/2+z
loop_
_atom_site_type_symbol
_atom_site_label
_atom_site_fract_x
_atom_site_fract_y
_atom_site_fract_z
Si Si1 0.277951 0.231135 0.705137
Si Si2 0.278846 0.077882 0.702257
Si Si3 0.719926 0.388121 0.698489
Si Si4 0.000000 0.500000 0.250000
O O1 0.500000 0.229231 0.750000
O O2 0.255999 0.235799 0.500000
O O3 0.204889 0.154065 0.772733
O O4 0.213311 0.305861 0.783792
O O5 0.500000 0.075833 0.750000
O O6 0.264343 0.083026 0.500000
O O7 0.201369 0.000000 0.750000
O O8 0.500000 0.391746 0.750000
O O9 0.740511 0.409844 0.500000
O O10 0.846498 0.440984 0.811090
#
# Coordination Sequence:
#
# PCOD9395140 Si02
#       4
#     8   8   8   2
#     4   9  17  30  49  75 110 151 193 238 290 346
#     4   9  15  22  37  65 102 144 188 234 281 332
#     4  11  24  42  65  91 121 158 199 246 300 359
#     4  12  28  44  64  92 120 152 198 246 302 366
#
# _framework density 25.105157999999999
#
# number of rings (size 3 to 8) (size 9 to 14) (size 15 to 20)
#    0.000    2.154    0.000    6.462    0.000    9.846 
#    0.000    0.000    0.000    0.000    0.000    1.077 
#    0.000    7.385    0.000    0.000    0.000    0.308 
#
# Total GULP energy -144956.989013 kJ/mol
# GULP energy per Si atom -5575.268808 kJ/mol
# Density = 2.504802 g / cm^3
# Si number density = 25.105158 Si / 1000 Ang^3
#
#
#
# Elastic Constant Matrix: (Units=GPa)
#
#
# Indices 1 2 3 4 5 6 
#
# 1 146.3372 51.0057 -2.1840 0.0000 0.0000 0.0000
# 2 51.0057 288.6236 29.4977 0.0000 0.0000 0.0000
# 3 -2.1840 29.4977 115.6712 0.0000 0.0000 0.0000
# 4 0.0000 0.0000 0.0000 19.4027 0.0000 0.0000
# 5 0.0000 0.0000 0.0000 0.0000 -13.9938 0.0000
# 6 0.0000 0.0000 0.0000 0.0000 0.0000 -394.0250
#
#
#
# Elastic Compliance Matrix: (Units=1/GPa)
#
#
# Indices 1 2 3 4 5 6 
#
# 1 0.007308 -0.001340 0.000480 0.000000 0.000000 0.000000
# 2 -0.001340 0.003803 -0.000995 0.000000 0.000000 0.000000
# 3 0.000480 -0.000995 0.008908 0.000000 0.000000 0.000000
# 4 0.000000 0.000000 0.000000 0.051539 0.000000 0.000000
# 5 0.000000 0.000000 0.000000 0.000000 -0.071460 0.000000
# 6 0.000000 0.000000 0.000000 0.000000 0.000000 -0.002538
#
#
# Mechanical properties :
#
#
# Convention : Reuss Voigt Hill
#
# Bulk Modulus (GPa) = 61.32132 78.58563 69.95348
# Shear Modulus (GPa) = 745.34710 -46.23573 349.55569
#
# Velocity S-wave (km/s) = 17.24919 -4.29614 11.81266
# Velocity P-wave (km/s) = 20.52295 2.60028 14.62794
#
# Compressibility (1/GPa) = 0.01630754
#
# Stress axis : x y z
#
# Youngs Moduli (GPa) = 136.83776 262.92775 112.25802
#
# Poissons Ratio (x) = 0.35245 -0.05386
# Poissons Ratio (y) = 0.18343 0.11172
# Poissons Ratio (z) = -0.06566 0.26167
#
# Static dielectric constant tensor:
#      x y z
#    x 1.853070 0.000000 0.000000 
#    y 0.000000 2.045180 0.000000 
#    z 0.000000 0.000000 1.702350 
# 
# From -- ./inp_files/1244.got.cif
#   From: 2010.05.17/outbox.cif.g08.bks.cpg/sg49_1_cif.got.tgz:1244.got - 2010.06.03 21:02:19.
