data_PCOD9395658
_publ_section_title
;
Structure prediction by ZEFSAII (Michael W. Deem and Ramdas Pophale) SiO2 
 PCOD9395658
Probable space group: P B A N
;
_chemical_formula_sum "Si O2"
_cell_formula_units_Z 48
_cell_length_a 9.382827
_cell_length_b 15.023743
_cell_length_c 16.812141
_cell_angle_alpha 90.000000
_cell_angle_beta 90.000000
_cell_angle_gamma 90.000000
_cell_volume 2369.926507
_symmetry_space_group_name_H-M "P B A N"
_symmetry_group_IT_number 50
_space_group.IT_coordinate_system_code '2'
_symmetry_cell_setting 'orthorhombic'
loop_
_space_group_symop_operation_xyz
x,y,z
1/2-x,1/2-y,z
x,1/2-y,-z
1/2-x,y,-z
-x,-y,-z
1/2+x,1/2+y,-z
-x,1/2+y,z
1/2+x,-y,z
loop_
_atom_site_type_symbol
_atom_site_label
_atom_site_fract_x
_atom_site_fract_y
_atom_site_fract_z
Si Si1 0.628790 0.621351 0.163600
Si Si2 0.500491 0.604081 0.337725
Si Si3 0.411043 0.290448 0.338871
Si Si4 0.788064 0.967414 0.591798
Si Si5 0.453613 0.310771 0.161017
Si Si6 0.614899 0.048529 0.944749
O O1 0.536721 0.609023 0.243939
O O2 0.555665 0.709995 0.127465
O O3 0.793526 0.650640 0.168716
O O4 0.642150 0.529020 0.118841
O O5 0.507256 0.704465 0.372581
O O6 0.636915 0.551920 0.369519
O O7 0.364318 0.549523 0.365263
O O8 0.250000 0.250000 0.322718
O O9 0.383718 0.378224 0.391143
O O10 0.490261 0.311129 0.255336
O O11 0.750000 0.981588 0.500000
O O12 0.549893 0.369530 0.103920
O O13 0.750000 0.070407 0.000000
O O14 0.500000 0.000000 0.000000
#
# Coordination Sequence:
#
# PCOD9395658 Si02
#       6
#     8   8   8   8   8   8
#     4  10  20  39  67  87 118 169 217 258 309 387
#     4  10  21  37  63  91 121 164 217 257 305 378
#     4   9  17  36  62  92 117 164 223 254 300 385
#     4  11  21  36  59  94 130 163 202 258 320 373
#     4  10  18  40  64  89 117 168 218 254 310 385
#     4  12  25  39  60  94 127 159 206 267 329 384
#
# _framework density 20.253793000000002
#
# number of rings (size 3 to 8) (size 9 to 14) (size 15 to 20)
#    0.000    1.667    6.667    1.500    0.000    3.667 
#    0.000    2.500    0.000    5.000    0.000    0.000 
#    0.000    0.000    0.000    0.000    0.000    0.000 
#
# Total GULP energy -267435.806868 kJ/mol
# GULP energy per Si atom -5571.579310 kJ/mol
# Density = 2.020769 g / cm^3
# Si number density = 20.253793 Si / 1000 Ang^3
#
#
#
# Elastic Constant Matrix: (Units=GPa)
#
#
# Indices 1 2 3 4 5 6 
#
# 1 45.7165 21.6949 32.8664 0.0000 0.0000 0.0000
# 2 21.6949 72.8272 45.2091 0.0000 0.0000 0.0000
# 3 32.8664 45.2091 75.6302 0.0000 0.0000 0.0000
# 4 0.0000 0.0000 0.0000 14.3327 0.0000 0.0000
# 5 0.0000 0.0000 0.0000 0.0000 44.8975 0.0000
# 6 0.0000 0.0000 0.0000 0.0000 0.0000 -11.2967
#
#
#
# Elastic Compliance Matrix: (Units=1/GPa)
#
#
# Indices 1 2 3 4 5 6 
#
# 1 0.031906 -0.001427 -0.013012 0.000000 0.000000 0.000000
# 2 -0.001427 0.021897 -0.012469 0.000000 0.000000 0.000000
# 3 -0.013012 -0.012469 0.026330 0.000000 0.000000 0.000000
# 4 0.000000 0.000000 0.000000 0.069770 0.000000 0.000000
# 5 0.000000 0.000000 0.000000 0.000000 0.022273 0.000000
# 6 0.000000 0.000000 0.000000 0.000000 0.000000 -0.088522
#
#
# Mechanical properties :
#
#
# Convention : Reuss Voigt Hill
#
# Bulk Modulus (GPa) = 37.99883 43.74607 40.87245
# Shear Modulus (GPa) = 34.18968 15.88027 25.03497
#
# Velocity S-wave (km/s) = 4.11306 2.80315 3.51958
# Velocity P-wave (km/s) = 6.43105 5.66769 6.06140
#
# Compressibility (1/GPa) = 0.02631660
#
# Stress axis : x y z
#
# Youngs Moduli (GPa) = 31.34221 45.66931 37.97890
#
# Poissons Ratio (x) = 0.06517 0.49419
# Poissons Ratio (y) = 0.04472 0.47355
# Poissons Ratio (z) = 0.40783 0.56945
#
# Static dielectric constant tensor:
#      x y z
#    x 1.908890 0.000000 0.000000 
#    y 0.000000 1.735280 0.000000 
#    z 0.000000 0.000000 1.660780 
# 
# From -- ./inp_files/28740.got.cif
#   From: 2010.05.17/outbox.cif.g08.bks.cpg/sg50_15_cif.got.tgz:28740.got - 2010.06.03 11:33:33.
