data_PCOD9395193
_publ_section_title
;
Structure prediction by ZEFSAII (Michael W. Deem and Ramdas Pophale) SiO2 
 PCOD9395193
Probable space group: P C C M
;
_chemical_formula_sum "Si O2"
_cell_formula_units_Z 48
_cell_length_a 14.086560
_cell_length_b 25.187982
_cell_length_c 8.280686
_cell_angle_alpha 90.000000
_cell_angle_beta 90.000000
_cell_angle_gamma 90.000000
_cell_volume 2938.086924
_symmetry_space_group_name_H-M "P C C M"
_symmetry_group_IT_number 49
_symmetry_cell_setting 'orthorhombic'
loop_
_space_group_symop_operation_xyz
x,y,z
-x,-y,z
x,-y,1/2-z
-x,y,1/2-z
-x,-y,-z
x,y,-z
-x,y,1/2+z
x,-y,1/2+z
loop_
_atom_site_type_symbol
_atom_site_label
_atom_site_fract_x
_atom_site_fract_y
_atom_site_fract_z
Si Si1 0.297441 0.441697 0.805502
Si Si2 0.604601 0.665561 0.194486
Si Si3 0.109217 0.171518 0.195504
Si Si4 0.203947 0.279486 0.802834
Si Si5 0.890406 0.055594 0.307400
Si Si6 0.104990 0.387671 0.805684
O O1 0.324746 0.500000 0.750000
O O2 0.365704 0.393843 0.750452
O O3 0.190497 0.426074 0.750809
O O4 0.297250 0.440889 0.000000
O O5 0.500000 0.679982 0.250000
O O6 0.689917 0.704217 0.247975
O O7 0.605995 0.665270 0.000000
O O8 0.167605 0.222474 0.253860
O O9 0.146865 0.113290 0.247838
O O10 0.000000 0.176531 0.250000
O O11 0.110263 0.172099 0.000000
O O12 0.134878 0.327980 0.753307
O O13 0.203217 0.278919 0.000000
O O14 0.889718 0.054666 0.500000
O O15 0.000000 0.055382 0.250000
O O16 0.846256 0.000000 0.250000
O O17 0.000000 0.401827 0.750000
O O18 0.105882 0.388000 0.000000
#
# Coordination Sequence:
#
# PCOD9395193 Si02
#       6
#     8   8   8   8   8   8
#     4   9  19  33  46  62  84 108 133 162 197 238
#     4   9  18  33  50  65  82 104 129 161 204 249
#     4   9  16  25  39  59  82 111 143 170 198 233
#     4   8  15  29  45  60  82 108 133 164 202 244
#     4   9  15  22  33  50  75 108 143 172 197 226
#     4   9  17  29  44  61  82 109 137 164 197 234
#
# _framework density 16.337160999999998
#
# number of rings (size 3 to 8) (size 9 to 14) (size 15 to 20)
#    0.000    3.167    0.000    3.500    0.000    2.667 
#    0.000    6.667    0.000    0.000    0.000    0.000 
#    0.000    0.667    0.000    8.333    0.000    0.000 
#
# Total GULP energy -267226.470820 kJ/mol
# GULP energy per Si atom -5567.218142 kJ/mol
# Density = 1.629998 g / cm^3
# Si number density = 16.337161 Si / 1000 Ang^3
#
#
#
# Elastic Constant Matrix: (Units=GPa)
#
#
# Indices 1 2 3 4 5 6 
#
# 1 60.5017 21.6572 1.9402 0.0000 0.0000 0.0000
# 2 21.6572 121.9653 9.8268 0.0000 0.0000 0.0000
# 3 1.9402 9.8268 6.0515 0.0000 0.0000 0.0000
# 4 0.0000 0.0000 0.0000 23.1388 0.0000 0.0000
# 5 0.0000 0.0000 0.0000 0.0000 19.6237 0.0000
# 6 0.0000 0.0000 0.0000 0.0000 0.0000 12.4331
#
#
#
# Elastic Compliance Matrix: (Units=1/GPa)
#
#
# Indices 1 2 3 4 5 6 
#
# 1 0.017653 -0.003082 -0.000655 0.000000 0.000000 0.000000
# 2 -0.003082 0.009971 -0.015204 0.000000 0.000000 0.000000
# 3 -0.000655 -0.015204 0.190148 0.000000 0.000000 0.000000
# 4 0.000000 0.000000 0.000000 0.043217 0.000000 0.000000
# 5 0.000000 0.000000 0.000000 0.000000 0.050959 0.000000
# 6 0.000000 0.000000 0.000000 0.000000 0.000000 0.080431
#
#
# Mechanical properties :
#
#
# Convention : Reuss Voigt Hill
#
# Bulk Modulus (GPa) = 5.55895 28.37410 16.96653
# Shear Modulus (GPa) = 10.19940 21.37872 15.78906
#
# Velocity S-wave (km/s) = 2.50132 3.62137 3.11215
# Velocity P-wave (km/s) = 3.42815 5.90689 4.82926
#
# Compressibility (1/GPa) = 0.17989011
#
# Stress axis : x y z
#
# Youngs Moduli (GPa) = 56.64880 100.28824 5.25905
#
# Poissons Ratio (x) = 0.30906 0.00345
# Poissons Ratio (y) = 0.17458 0.07996
# Poissons Ratio (z) = 0.03713 1.52477
#
# Static dielectric constant tensor:
#      x y z
#    x 1.523340 0.000000 0.000000 
#    y 0.000000 1.594150 0.000000 
#    z 0.000000 0.000000 1.598520 
# 
# From -- ./inp_files/4140.got.cif
#   From: 2010.05.17/outbox.cif.g08.bks.cpg/sg49_3_cif.got.tgz:4140.got - 2010.06.03 21:02:19.
