data_PCOD9395107
_publ_section_title
;
Structure prediction by ZEFSAII (Michael W. Deem and Ramdas Pophale) SiO2 
 PCOD9395107
Probable space group: P C C M
;
_chemical_formula_sum "Si O2"
_cell_formula_units_Z 64
_cell_length_a 17.766551
_cell_length_b 11.272628
_cell_length_c 15.271230
_cell_angle_alpha 90.000000
_cell_angle_beta 90.000000
_cell_angle_gamma 90.000000
_cell_volume 3058.456588
_symmetry_space_group_name_H-M "P C C M"
_symmetry_group_IT_number 49
_symmetry_cell_setting 'orthorhombic'
loop_
_space_group_symop_operation_xyz
x,y,z
-x,-y,z
x,-y,1/2-z
-x,y,1/2-z
-x,-y,-z
x,y,-z
-x,y,1/2+z
x,-y,1/2+z
loop_
_atom_site_type_symbol
_atom_site_label
_atom_site_fract_x
_atom_site_fract_y
_atom_site_fract_z
Si Si1 0.951898 0.886321 0.893927
Si Si2 0.947335 0.388981 0.392769
Si Si3 0.222503 0.393037 0.099681
Si Si4 0.649020 0.119345 0.268073
Si Si5 0.550147 0.256035 0.595730
Si Si6 0.374327 0.244743 0.596654
Si Si7 0.221717 0.108457 0.901405
Si Si8 0.620321 0.512666 0.150767
O O1 0.966849 0.748076 0.864857
O O2 0.864478 0.916287 0.876855
O O3 0.960530 0.882083 0.000000
O O4 0.000000 0.000000 0.862179
O O5 0.947055 0.385727 0.500000
O O6 0.861251 0.418313 0.365956
O O7 0.000000 0.500000 0.366380
O O8 0.226520 0.251197 0.094031
O O9 0.294996 0.435007 0.151910
O O10 0.229154 0.440389 0.000000
O O11 0.599257 0.204656 0.326846
O O12 0.667593 0.184969 0.177786
O O13 0.718657 0.076771 0.327594
O O14 0.603457 0.000000 0.250000
O O15 0.577609 0.215315 0.500000
O O16 0.463689 0.219598 0.604848
O O17 0.565296 0.396510 0.601888
O O18 0.348578 0.207876 0.500000
O O19 0.371839 0.385987 0.606159
O O20 0.236975 0.062416 0.000000
O O21 0.593204 0.500000 0.250000
#
# Coordination Sequence:
#
# PCOD9395107 Si02
#       8
#     8   8   8   8   8   8   8   8
#     4   8  14  26  50  83 118 155 201 253 304 366
#     4   8  14  25  44  75 114 152 193 242 297 360
#     4   9  16  29  53  82 113 154 199 240 288 367
#     4  12  25  41  61  85 118 160 210 258 305 371
#     4  11  23  41  65  88 116 158 204 250 312 384
#     4  11  25  41  59  90 126 156 197 260 321 370
#     4   9  17  34  59  87 117 157 210 255 298 366
#     4  12  21  35  62  91 121 156 197 252 314 377
#
# _framework density 20.925587
#
# number of rings (size 3 to 8) (size 9 to 14) (size 15 to 20)
#    0.000    2.000    2.500    3.750    0.000    3.500 
#    0.000    2.500    0.000    3.750    0.000    3.500 
#    0.000    0.500    0.000    0.000    0.000    1.250 
#
# Total GULP energy -357024.173502 kJ/mol
# GULP energy per Si atom -5578.502711 kJ/mol
# Density = 2.087796 g / cm^3
# Si number density = 20.925587 Si / 1000 Ang^3
#
#
#
# Elastic Constant Matrix: (Units=GPa)
#
#
# Indices 1 2 3 4 5 6 
#
# 1 74.1559 27.4069 28.7933 0.0000 0.0000 0.0000
# 2 27.4069 78.1990 21.5289 0.0000 0.0000 0.0000
# 3 28.7933 21.5289 100.4401 0.0000 0.0000 0.0000
# 4 0.0000 0.0000 0.0000 -19.6161 0.0000 0.0000
# 5 0.0000 0.0000 0.0000 0.0000 -17.6930 0.0000
# 6 0.0000 0.0000 0.0000 0.0000 0.0000 14.1860
#
#
#
# Elastic Compliance Matrix: (Units=1/GPa)
#
#
# Indices 1 2 3 4 5 6 
#
# 1 0.016730 -0.004828 -0.003761 0.000000 0.000000 0.000000
# 2 -0.004828 0.014983 -0.001828 0.000000 0.000000 0.000000
# 3 -0.003761 -0.001828 0.011426 0.000000 0.000000 0.000000
# 4 0.000000 0.000000 0.000000 -0.050978 0.000000 0.000000
# 5 0.000000 0.000000 0.000000 0.000000 -0.056519 0.000000
# 6 0.000000 0.000000 0.000000 0.000000 0.000000 0.070492
#
#
# Mechanical properties :
#
#
# Convention : Reuss Voigt Hill
#
# Bulk Modulus (GPa) = 44.83128 45.36148 45.09638
# Shear Modulus (GPa) = 145.34137 7.04641 76.19389
#
# Velocity S-wave (km/s) = 8.34309 1.83703 6.04077
# Velocity P-wave (km/s) = 10.69019 5.12095 8.38165
#
# Compressibility (1/GPa) = 0.02230586
#
# Stress axis : x y z
#
# Youngs Moduli (GPa) = 59.77354 66.74187 87.51878
#
# Poissons Ratio (x) = 0.32223 0.32917
# Poissons Ratio (y) = 0.28858 0.15994
# Poissons Ratio (z) = 0.22482 0.12197
#
# Static dielectric constant tensor:
#      x y z
#    x 1.767150 0.000000 0.000000 
#    y 0.000000 1.794800 0.000000 
#    z 0.000000 0.000000 1.787890 
# 
# From -- ./inp_files/14222.got.cif
#   From: 2010.05.17/outbox.cif.g08.bks.cpg/sg49_8_cif.got.tgz:14222.got - 2010.06.03 21:02:19.
