data_PCOD9395700
_publ_section_title
;
Structure prediction by ZEFSAII (Michael W. Deem and Ramdas Pophale) SiO2 
 PCOD9395700
Probable space group: P B A N
;
_chemical_formula_sum "Si O2"
_cell_formula_units_Z 56
_cell_length_a 5.299663
_cell_length_b 24.060524
_cell_length_c 26.582033
_cell_angle_alpha 90.000000
_cell_angle_beta 90.000000
_cell_angle_gamma 90.000000
_cell_volume 3389.545970
_symmetry_space_group_name_H-M "P B A N"
_symmetry_group_IT_number 50
_space_group.IT_coordinate_system_code '2'
_symmetry_cell_setting 'orthorhombic'
loop_
_space_group_symop_operation_xyz
x,y,z
1/2-x,1/2-y,z
x,1/2-y,-z
1/2-x,y,-z
-x,-y,-z
1/2+x,1/2+y,-z
-x,1/2+y,z
1/2+x,-y,z
loop_
_atom_site_type_symbol
_atom_site_label
_atom_site_fract_x
_atom_site_fract_y
_atom_site_fract_z
Si Si1 0.678042 0.685612 0.945774
Si Si2 0.754800 0.182360 0.204127
Si Si3 0.245882 0.316986 0.266930
Si Si4 0.671073 0.140459 0.095080
Si Si5 0.749844 0.317712 0.558045
Si Si6 0.249888 0.182129 0.382174
Si Si7 0.453489 0.520719 0.057665
O O1 0.750000 0.750000 0.947174
O O2 0.385821 0.675909 0.933933
O O3 0.882174 0.660928 0.907628
O O4 0.750000 0.660349 0.000000
O O5 0.750000 0.250000 0.193183
O O6 0.750120 0.147537 0.152811
O O7 0.004504 0.168717 0.235741
O O8 0.250000 0.250000 0.270172
O O9 0.991754 0.331048 0.237081
O O10 0.248904 0.337339 0.324411
O O11 0.664422 0.080876 0.067834
O O12 0.750000 0.250000 0.557477
O O13 0.750000 0.335804 0.500000
O O14 0.499567 0.335091 0.587785
O O15 0.999630 0.335090 0.587974
O O16 0.250000 0.250000 0.381356
O O17 0.235736 0.480966 0.079788
O O18 0.500000 0.500000 0.000000
#
# Coordination Sequence:
#
# PCOD9395700 Si02
#       7
#     8   8   8   8   8   8   8
#     4  11  24  37  53  78 104 128 153 178 219 288
#     4  10  19  31  47  68  91 115 146 182 229 287
#     4   9  17  28  42  60  84 113 146 184 225 278
#     4  12  23  37  59  74 100 129 153 191 240 277
#     4   9  15  21  30  46  69  99 140 188 233 271
#     4   9  15  23  34  48  70 103 140 180 230 272
#     4  10  23  39  58  79  97 121 159 196 231 278
#
# _framework density 16.521386
#
# number of rings (size 3 to 8) (size 9 to 14) (size 15 to 20)
#    0.000    2.000    0.000    4.714    6.000    7.429 
#    0.000    0.000    0.000    0.000    0.000    0.000 
#    0.000    0.000    0.000    0.000    0.000    0.000 
#
# Total GULP energy -311943.153367 kJ/mol
# GULP energy per Si atom -5570.413453 kJ/mol
# Density = 1.648378 g / cm^3
# Si number density = 16.521386 Si / 1000 Ang^3
#
#
#
# Elastic Constant Matrix: (Units=GPa)
#
#
# Indices 1 2 3 4 5 6 
#
# 1 137.6641 17.8746 52.2912 0.0000 0.0000 0.0000
# 2 17.8746 38.4531 19.2857 0.0000 0.0000 0.0000
# 3 52.2912 19.2857 130.7384 0.0000 0.0000 0.0000
# 4 0.0000 0.0000 0.0000 6.2309 0.0000 0.0000
# 5 0.0000 0.0000 0.0000 0.0000 24.7601 0.0000
# 6 0.0000 0.0000 0.0000 0.0000 0.0000 12.1277
#
#
#
# Elastic Compliance Matrix: (Units=1/GPa)
#
#
# Indices 1 2 3 4 5 6 
#
# 1 0.008784 -0.002506 -0.003143 0.000000 0.000000 0.000000
# 2 -0.002506 0.028799 -0.003246 0.000000 0.000000 0.000000
# 3 -0.003143 -0.003246 0.009385 0.000000 0.000000 0.000000
# 4 0.000000 0.000000 0.000000 0.160490 0.000000 0.000000
# 5 0.000000 0.000000 0.000000 0.000000 0.040388 0.000000
# 6 0.000000 0.000000 0.000000 0.000000 0.000000 0.082456
#
#
# Mechanical properties :
#
#
# Convention : Reuss Voigt Hill
#
# Bulk Modulus (GPa) = 34.27469 53.97317 44.12393
# Shear Modulus (GPa) = 13.97365 23.11735 18.54550
#
# Velocity S-wave (km/s) = 2.91140 3.74470 3.35403
# Velocity P-wave (km/s) = 5.66501 7.17193 6.46255
#
# Compressibility (1/GPa) = 0.02917605
#
# Stress axis : x y z
#
# Youngs Moduli (GPa) = 113.84983 34.72383 106.55402
#
# Poissons Ratio (x) = 0.08703 0.33494
# Poissons Ratio (y) = 0.28535 0.34585
# Poissons Ratio (z) = 0.35787 0.11270
#
# Static dielectric constant tensor:
#      x y z
#    x 1.485560 0.000000 0.000000 
#    y 0.000000 1.576200 0.000000 
#    z 0.000000 0.000000 1.580970 
# 
# From -- ./inp_files/31552.got.cif
#   From: 2010.05.17/outbox.cif.g08.bks.cpg/sg50_16_cif.got.tgz:31552.got - 2010.06.03 11:33:33.
