data_PCOD9395838
_publ_section_title
;
Structure prediction by ZEFSAII (Michael W. Deem and Ramdas Pophale) SiO2 
 PCOD9395838
Probable space group: P B A N
;
_chemical_formula_sum "Si O2"
_cell_formula_units_Z 48
_cell_length_a 14.485236
_cell_length_b 18.882520
_cell_length_c 7.935327
_cell_angle_alpha 90.000000
_cell_angle_beta 90.000000
_cell_angle_gamma 90.000000
_cell_volume 2170.452854
_symmetry_space_group_name_H-M "P B A N"
_symmetry_group_IT_number 50
_space_group.IT_coordinate_system_code '2'
_symmetry_cell_setting 'orthorhombic'
loop_
_space_group_symop_operation_xyz
x,y,z
1/2-x,1/2-y,z
x,1/2-y,-z
1/2-x,y,-z
-x,-y,-z
1/2+x,1/2+y,-z
-x,1/2+y,z
1/2+x,-y,z
loop_
_atom_site_type_symbol
_atom_site_label
_atom_site_fract_x
_atom_site_fract_y
_atom_site_fract_z
Si Si1 0.446367 0.171935 0.452454
Si Si2 0.395656 0.023212 0.456552
Si Si3 0.354108 0.878043 0.049942
Si Si4 0.144821 0.037006 0.946281
Si Si5 0.348075 0.627801 0.547529
Si Si6 0.457623 0.325873 0.942565
O O1 0.414529 0.250000 0.500000
O O2 0.391066 0.103759 0.525332
O O3 0.555981 0.162889 0.490248
O O4 0.438682 0.168186 0.253243
O O5 0.371250 0.029680 0.256783
O O6 0.500000 0.000000 0.500000
O O7 0.344723 0.953225 0.524149
O O8 0.356933 0.875895 0.251435
O O9 0.376532 0.958120 0.987300
O O10 0.250000 0.860052 0.000000
O O11 0.433490 0.829252 0.976781
O O12 0.085576 0.102171 0.018049
O O13 0.250000 0.050567 0.000000
O O14 0.250000 0.661796 0.500000
O O15 0.420542 0.250000 0.000000
#
# Coordination Sequence:
#
# PCOD9395838 Si02
#       6
#     8   8   8   8   8   8
#     4  10  20  36  54  77 109 146 186 227 280 346
#     4   8  17  34  56  80 109 143 186 235 287 346
#     4  10  20  36  57  86 115 144 188 241 293 351
#     4   9  19  36  59  86 115 149 193 242 295 355
#     4  10  19  34  56  81 108 143 181 228 284 343
#     4  11  22  36  56  83 115 154 191 238 293 348
#
# _framework density 22.115200000000002
#
# number of rings (size 3 to 8) (size 9 to 14) (size 15 to 20)
#    0.000    2.333    0.000    2.500    0.000    1.000 
#    0.000   20.000    0.000    2.500    0.000    0.000 
#    0.000    0.000    0.000    0.000    0.000    0.000 
#
# Total GULP energy -267575.991752 kJ/mol
# GULP energy per Si atom -5574.499828 kJ/mol
# Density = 2.206487 g / cm^3
# Si number density = 22.115200 Si / 1000 Ang^3
#
#
#
# Elastic Constant Matrix: (Units=GPa)
#
#
# Indices 1 2 3 4 5 6 
#
# 1 51.7582 10.9237 -5.4014 0.0000 0.0000 0.0000
# 2 10.9237 106.5124 5.9301 0.0000 0.0000 0.0000
# 3 -5.4014 5.9301 41.9143 0.0000 0.0000 0.0000
# 4 0.0000 0.0000 0.0000 28.8186 0.0000 0.0000
# 5 0.0000 0.0000 0.0000 0.0000 15.3721 0.0000
# 6 0.0000 0.0000 0.0000 0.0000 0.0000 11.3387
#
#
#
# Elastic Compliance Matrix: (Units=1/GPa)
#
#
# Indices 1 2 3 4 5 6 
#
# 1 0.020093 -0.002222 0.002904 0.000000 0.000000 0.000000
# 2 -0.002222 0.009709 -0.001660 0.000000 0.000000 0.000000
# 3 0.002904 -0.001660 0.024467 0.000000 0.000000 0.000000
# 4 0.000000 0.000000 0.000000 0.034700 0.000000 0.000000
# 5 0.000000 0.000000 0.000000 0.000000 0.065053 0.000000
# 6 0.000000 0.000000 0.000000 0.000000 0.000000 0.088194
#
#
# Mechanical properties :
#
#
# Convention : Reuss Voigt Hill
#
# Bulk Modulus (GPa) = 19.11621 24.78772 21.95197
# Shear Modulus (GPa) = 19.11244 23.68806 21.40025
#
# Velocity S-wave (km/s) = 2.94295 3.27635 3.11412
# Velocity P-wave (km/s) = 4.49563 5.05425 4.78310
#
# Compressibility (1/GPa) = 0.05231162
#
# Stress axis : x y z
#
# Youngs Moduli (GPa) = 49.76936 102.99811 40.87098
#
# Poissons Ratio (x) = 0.22890 -0.11868
# Poissons Ratio (y) = 0.11060 0.06785
# Poissons Ratio (z) = -0.14452 0.17098
#
# Static dielectric constant tensor:
#      x y z
#    x 1.784130 0.000000 0.000000 
#    y 0.000000 1.906460 0.000000 
#    z 0.000000 0.000000 1.794960 
# 
# From -- ./inp_files/12969.got.cif
#   From: 2010.05.17/outbox.cif.g08.bks.cpg/sg50_7_cif.got.tgz:12969.got - 2010.06.03 11:33:33.
