data_PCOD9395147
_publ_section_title
;
Structure prediction by ZEFSAII (Michael W. Deem and Ramdas Pophale) SiO2 
 PCOD9395147
Probable space group: P C C M
;
_chemical_formula_sum "Si O2"
_cell_formula_units_Z 34
_cell_length_a 6.004984
_cell_length_b 10.956376
_cell_length_c 22.977308
_cell_angle_alpha 90.000000
_cell_angle_beta 90.000000
_cell_angle_gamma 90.000000
_cell_volume 1511.742868
_symmetry_space_group_name_H-M "P C C M"
_symmetry_group_IT_number 49
_symmetry_cell_setting 'orthorhombic'
loop_
_space_group_symop_operation_xyz
x,y,z
-x,-y,z
x,-y,1/2-z
-x,y,1/2-z
-x,-y,-z
x,y,-z
-x,y,1/2+z
x,-y,1/2+z
loop_
_atom_site_type_symbol
_atom_site_label
_atom_site_fract_x
_atom_site_fract_y
_atom_site_fract_z
Si Si1 0.860299 0.331915 0.190452
Si Si2 0.517001 0.864103 0.319544
Si Si3 0.493135 0.350684 0.500000
Si Si4 0.500000 0.500000 0.750000
Si Si5 0.815732 0.722320 0.102135
Si Si6 0.071791 0.852604 0.000000
O O1 0.747099 0.205667 0.170203
O O2 0.658190 0.419615 0.208717
O O3 0.000000 0.320030 0.250000
O O4 0.019969 0.366662 0.137248
O O5 0.500000 0.867241 0.250000
O O6 0.313473 0.792090 0.347042
O O7 0.500000 0.000000 0.343431
O O8 0.500000 0.500000 0.500000
O O9 0.628641 0.328451 0.440595
O O10 0.299445 0.240096 0.500000
O O11 0.955685 0.806545 0.058791
O O12 0.000000 0.000000 0.000000
#
# Coordination Sequence:
#
# PCOD9395147 Si02
#       6
#     8   8   4   2   8   4
#     4  12  24  49  69 113 152 205 248 311 390 466
#     4  11  24  45  71 112 157 195 245 311 385 474
#     4  11  28  59  76 113 153 203 273 335 388 463
#     4  12  26  48  70 108 168 200 266 306 392 500
#     4  11  26  48  80 107 150 204 259 322 395 463
#     4  11  28  51  80 110 149 207 273 326 401 469
#
# _framework density 22.490600000000001
#
# number of rings (size 3 to 8) (size 9 to 14) (size 15 to 20)
#    0.000    0.706    3.529    1.765    6.588    2.824 
#   31.765    0.000    0.000    0.000    0.000    0.000 
#    0.000    0.000    0.000    0.000    0.000    0.000 
#
# Total GULP energy -189438.244671 kJ/mol
# GULP energy per Si atom -5571.713079 kJ/mol
# Density = 2.243941 g / cm^3
# Si number density = 22.490600 Si / 1000 Ang^3
#
#
#
# Elastic Constant Matrix: (Units=GPa)
#
#
# Indices 1 2 3 4 5 6 
#
# 1 144.5460 88.3464 67.1566 0.0000 0.0000 0.0000
# 2 88.3464 169.9655 54.3822 0.0000 0.0000 0.0000
# 3 67.1566 54.3822 136.9895 0.0000 0.0000 0.0000
# 4 0.0000 0.0000 0.0000 -4.9968 0.0000 0.0000
# 5 0.0000 0.0000 0.0000 0.0000 68.0197 0.0000
# 6 0.0000 0.0000 0.0000 0.0000 0.0000 11.5972
#
#
#
# Elastic Compliance Matrix: (Units=1/GPa)
#
#
# Indices 1 2 3 4 5 6 
#
# 1 0.011631 -0.004835 -0.003782 0.000000 0.000000 0.000000
# 2 -0.004835 0.008750 -0.001103 0.000000 0.000000 0.000000
# 3 -0.003782 -0.001103 0.009592 0.000000 0.000000 0.000000
# 4 0.000000 0.000000 0.000000 -0.200129 0.000000 0.000000
# 5 0.000000 0.000000 0.000000 0.000000 0.014702 0.000000
# 6 0.000000 0.000000 0.000000 0.000000 0.000000 0.086228
#
#
# Mechanical properties :
#
#
# Convention : Reuss Voigt Hill
#
# Bulk Modulus (GPa) = 94.95609 96.80792 95.88201
# Shear Modulus (GPa) = -108.05052 31.03175 -38.50938
#
# Velocity S-wave (km/s) = -6.93879 3.71855 -4.14242
# Velocity P-wave (km/s) = 4.67801 7.84691 4.45479
#
# Compressibility (1/GPa) = 0.01053118
#
# Stress axis : x y z
#
# Youngs Moduli (GPa) = 85.97807 114.28709 104.25471
#
# Poissons Ratio (x) = 0.55263 0.39432
# Poissons Ratio (y) = 0.41574 0.11500
# Poissons Ratio (z) = 0.32519 0.12606
#
# Static dielectric constant tensor:
#      x y z
#    x 1.893840 0.000000 0.000000 
#    y 0.000000 1.972760 0.000000 
#    z 0.000000 0.000000 1.771450 
# 
# From -- ./inp_files/21655.got.cif
#   From: 2010.05.17/outbox.cif.g08.bks.cpg/sg49_11_cif.got.tgz:21655.got - 2010.06.03 21:02:19.
