data_PCOD9395572
_publ_section_title
;
Structure prediction by ZEFSAII (Michael W. Deem and Ramdas Pophale) SiO2 
 PCOD9395572
Probable space group: P B A N
;
_chemical_formula_sum "Si O2"
_cell_formula_units_Z 32
_cell_length_a 9.854421
_cell_length_b 20.012510
_cell_length_c 7.677456
_cell_angle_alpha 90.000000
_cell_angle_beta 90.000000
_cell_angle_gamma 90.000000
_cell_volume 1514.084140
_symmetry_space_group_name_H-M "P B A N"
_symmetry_group_IT_number 50
_space_group.IT_coordinate_system_code '2'
_symmetry_cell_setting 'orthorhombic'
loop_
_space_group_symop_operation_xyz
x,y,z
1/2-x,1/2-y,z
x,1/2-y,-z
1/2-x,y,-z
-x,-y,-z
1/2+x,1/2+y,-z
-x,1/2+y,z
1/2+x,-y,z
loop_
_atom_site_type_symbol
_atom_site_label
_atom_site_fract_x
_atom_site_fract_y
_atom_site_fract_z
Si Si1 0.833291 0.192175 0.320669
Si Si2 0.594091 0.734719 0.207498
Si Si3 0.386403 0.410006 0.889197
Si Si4 0.868115 0.053283 0.140325
O O1 0.750000 0.250000 0.216752
O O2 0.750000 0.187674 0.500000
O O3 0.833363 0.117491 0.251805
O O4 0.986265 0.220944 0.312822
O O5 0.750000 0.750000 0.254244
O O6 0.572640 0.654949 0.220211
O O7 0.576629 0.750000 0.000000
O O8 0.377394 0.478892 0.779720
O O9 0.250000 0.394296 0.000000
O O10 0.496849 0.427050 0.036017
O O11 0.750000 0.045187 0.000000
#
# Coordination Sequence:
#
# PCOD9395572 Si02
#       4
#     8   8   8   8
#     4  11  24  39  58  91 134 171 212 254 318 394
#     4  11  19  35  66  96 120 160 215 275 315 362
#     4  10  18  32  57  96 124 147 209 272 315 358
#     4  10  20  33  58  89 125 162 203 262 315 374
#
# _framework density 21.134889999999999
#
# number of rings (size 3 to 8) (size 9 to 14) (size 15 to 20)
#    0.000    1.500    5.000    1.500    0.000    0.000 
#    0.000    2.500    0.000   54.000    0.000    0.000 
#    0.000    0.000    0.000    0.000    0.000    0.000 
#
# Total GULP energy -178462.724495 kJ/mol
# GULP energy per Si atom -5576.960140 kJ/mol
# Density = 2.108679 g / cm^3
# Si number density = 21.134890 Si / 1000 Ang^3
#
#
#
# Elastic Constant Matrix: (Units=GPa)
#
#
# Indices 1 2 3 4 5 6 
#
# 1 106.7809 3.9336 19.7122 0.0000 0.0000 0.0000
# 2 3.9336 242.0621 40.2309 0.0000 0.0000 0.0000
# 3 19.7122 40.2309 43.3082 0.0000 0.0000 0.0000
# 4 0.0000 0.0000 0.0000 26.7837 0.0000 0.0000
# 5 0.0000 0.0000 0.0000 0.0000 18.5135 0.0000
# 6 0.0000 0.0000 0.0000 0.0000 0.0000 30.0194
#
#
#
# Elastic Compliance Matrix: (Units=1/GPa)
#
#
# Indices 1 2 3 4 5 6 
#
# 1 0.010331 0.000726 -0.005376 0.000000 0.000000 0.000000
# 2 0.000726 0.004936 -0.004916 0.000000 0.000000 0.000000
# 3 -0.005376 -0.004916 0.030104 0.000000 0.000000 0.000000
# 4 0.000000 0.000000 0.000000 0.037336 0.000000 0.000000
# 5 0.000000 0.000000 0.000000 0.000000 0.054015 0.000000
# 6 0.000000 0.000000 0.000000 0.000000 0.000000 0.033312
#
#
# Mechanical properties :
#
#
# Convention : Reuss Voigt Hill
#
# Bulk Modulus (GPa) = 38.11255 57.76717 47.93986
# Shear Modulus (GPa) = 25.26368 36.94831 31.10599
#
# Velocity S-wave (km/s) = 3.46114 4.18570 3.84055
# Velocity P-wave (km/s) = 5.83479 7.12405 6.51141
#
# Compressibility (1/GPa) = 0.02623808
#
# Stress axis : x y z
#
# Youngs Moduli (GPa) = 96.79877 202.57641 33.21823
#
# Poissons Ratio (x) = -0.14700 0.17859
# Poissons Ratio (y) = -0.07024 0.16330
# Poissons Ratio (z) = 0.52041 0.99585
#
# Static dielectric constant tensor:
#      x y z
#    x 1.775490 0.000000 0.000000 
#    y 0.000000 1.932290 0.000000 
#    z 0.000000 0.000000 1.804740 
# 
# From -- ./inp_files/9066.got.cif
#   From: 2010.05.17/outbox.cif.g08.bks.cpg/sg50_5_cif.got.tgz:9066.got - 2010.06.03 11:33:33.
