data_PCOD9395811
_publ_section_title
;
Structure prediction by ZEFSAII (Michael W. Deem and Ramdas Pophale) SiO2 
 PCOD9395811
Probable space group: P B A N
;
_chemical_formula_sum "Si O2"
_cell_formula_units_Z 36
_cell_length_a 15.517340
_cell_length_b 9.266652
_cell_length_c 13.122490
_cell_angle_alpha 90.000000
_cell_angle_beta 90.000000
_cell_angle_gamma 90.000000
_cell_volume 1886.932568
_symmetry_space_group_name_H-M "P B A N"
_symmetry_group_IT_number 50
_space_group.IT_coordinate_system_code '2'
_symmetry_cell_setting 'orthorhombic'
loop_
_space_group_symop_operation_xyz
x,y,z
1/2-x,1/2-y,z
x,1/2-y,-z
1/2-x,y,-z
-x,-y,-z
1/2+x,1/2+y,-z
-x,1/2+y,z
1/2+x,-y,z
loop_
_atom_site_type_symbol
_atom_site_label
_atom_site_fract_x
_atom_site_fract_y
_atom_site_fract_z
Si Si1 0.408892 0.922186 0.509699
Si Si2 0.006659 0.250000 0.000000
Si Si3 0.354252 0.581345 0.263001
Si Si4 0.973782 0.506694 0.854972
Si Si5 0.835530 0.426206 0.704755
O O1 0.422645 0.750000 0.500000
O O2 0.376014 0.963210 0.621399
O O3 0.343564 0.952733 0.416236
O O4 0.500000 0.000000 0.500000
O O5 0.960663 0.361963 0.922267
O O6 0.053698 0.139480 0.925833
O O7 0.427279 0.529097 0.183606
O O8 0.255949 0.532380 0.246512
O O9 0.350373 0.756091 0.271112
O O10 0.914963 0.505325 0.756496
#
# Coordination Sequence:
#
# PCOD9395811 Si02
#       5
#     8   4   8   8   8
#     4  10  19  33  59  90 120 150 187 227 277 340
#     4  10  24  38  62  82 114 148 196 252 296 324
#     4  10  20  36  61  89 118 154 191 228 279 351
#     4  11  20  41  60  86 112 153 192 245 290 340
#     4  10  20  36  61  89 118 154 191 228 279 351
#
# _framework density 19.078582999999998
#
# number of rings (size 3 to 8) (size 9 to 14) (size 15 to 20)
#    0.000    1.778    4.444    0.667    0.000    2.667 
#    0.000    7.778    0.000    1.333    0.000    0.000 
#    0.000    0.000    0.000    0.000    0.000    0.000 
#
# Total GULP energy -200435.668078 kJ/mol
# GULP energy per Si atom -5567.657447 kJ/mol
# Density = 1.903516 g / cm^3
# Si number density = 19.078583 Si / 1000 Ang^3
#
#
#
# Elastic Constant Matrix: (Units=GPa)
#
#
# Indices 1 2 3 4 5 6 
#
# 1 111.1612 10.7566 23.2895 0.0000 0.0000 0.0000
# 2 10.7566 48.8056 24.5498 0.0000 0.0000 0.0000
# 3 23.2895 24.5498 85.7303 0.0000 0.0000 0.0000
# 4 0.0000 0.0000 0.0000 26.5519 0.0000 0.0000
# 5 0.0000 0.0000 0.0000 0.0000 3.9415 0.0000
# 6 0.0000 0.0000 0.0000 0.0000 0.0000 18.3479
#
#
#
# Elastic Compliance Matrix: (Units=1/GPa)
#
#
# Indices 1 2 3 4 5 6 
#
# 1 0.009575 -0.000937 -0.002333 0.000000 0.000000 0.000000
# 2 -0.000937 0.024029 -0.006627 0.000000 0.000000 0.000000
# 3 -0.002333 -0.006627 0.014196 0.000000 0.000000 0.000000
# 4 0.000000 0.000000 0.000000 0.037662 0.000000 0.000000
# 5 0.000000 0.000000 0.000000 0.000000 0.253712 0.000000
# 6 0.000000 0.000000 0.000000 0.000000 0.000000 0.054502
#
#
# Mechanical properties :
#
#
# Convention : Reuss Voigt Hill
#
# Bulk Modulus (GPa) = 35.70446 40.32097 38.01271
# Shear Modulus (GPa) = 11.82578 22.24168 17.03373
#
# Velocity S-wave (km/s) = 2.49237 3.41808 2.99125
# Velocity P-wave (km/s) = 5.19977 6.06281 5.64780
#
# Compressibility (1/GPa) = 0.02800771
#
# Stress axis : x y z
#
# Youngs Moduli (GPa) = 104.43452 41.61608 70.44316
#
# Poissons Ratio (x) = 0.03899 0.16434
# Poissons Ratio (y) = 0.09784 0.46679
# Poissons Ratio (z) = 0.24364 0.27577
#
# Static dielectric constant tensor:
#      x y z
#    x 1.670070 0.000000 0.000000 
#    y 0.000000 1.684130 0.000000 
#    z 0.000000 0.000000 1.774320 
# 
# From -- ./inp_files/26228.got.cif
#   From: 2010.05.17/outbox.cif.g08.bks.cpg/sg50_14_cif.got.tgz:26228.got - 2010.06.03 11:33:33.
