data_PCOD9395340
_publ_section_title
;
Structure prediction by ZEFSAII (Michael W. Deem and Ramdas Pophale) SiO2 
 PCOD9395340
Probable space group: P B A N
;
_chemical_formula_sum "Si O2"
_cell_formula_units_Z 64
_cell_length_a 5.477046
_cell_length_b 14.102614
_cell_length_c 36.163368
_cell_angle_alpha 90.000000
_cell_angle_beta 90.000000
_cell_angle_gamma 90.000000
_cell_volume 2793.282615
_symmetry_space_group_name_H-M "P B A N"
_symmetry_group_IT_number 50
_space_group.IT_coordinate_system_code '2'
_symmetry_cell_setting 'orthorhombic'
loop_
_space_group_symop_operation_xyz
x,y,z
1/2-x,1/2-y,z
x,1/2-y,-z
1/2-x,y,-z
-x,-y,-z
1/2+x,1/2+y,-z
-x,1/2+y,z
1/2+x,-y,z
loop_
_atom_site_type_symbol
_atom_site_label
_atom_site_fract_x
_atom_site_fract_y
_atom_site_fract_z
Si Si1 0.999590 0.356668 0.015577
Si Si2 0.510846 0.437981 0.906686
Si Si3 0.095531 0.616601 0.600953
Si Si4 0.001176 0.857528 0.484610
Si Si5 0.403380 0.401101 0.371262
Si Si6 0.013971 0.561914 0.823777
Si Si7 0.487854 0.402127 0.285261
Si Si8 0.011993 0.617303 0.744652
O O1 0.995840 0.364432 0.059703
O O2 0.999589 0.250000 0.000000
O O3 0.250000 0.399093 0.000000
O O4 0.750000 0.399719 0.000000
O O5 0.762875 0.498705 0.909976
O O6 0.511883 0.396314 0.865159
O O7 0.122559 0.502844 0.608199
O O8 0.367989 0.652501 0.610220
O O9 0.017999 0.638736 0.559370
O O10 0.864071 0.645167 0.626056
O O11 0.001261 0.750000 0.500000
O O12 0.750000 0.898701 0.500000
O O13 0.250000 0.900898 0.500000
O O14 0.474107 0.419775 0.328910
O O15 0.763281 0.500403 0.820789
O O16 0.016743 0.630603 0.788603
O O17 0.490956 0.503257 0.264074
O O18 0.242105 0.351231 0.272637
O O19 0.738061 0.351989 0.274360
#
# Coordination Sequence:
#
# PCOD9395340 Si02
#       8
#     8   8   8   8   8   8   8   8
#     4  10  21  37  55  74  99 136 178 229 276 331
#     4  10  21  32  50  75 105 139 177 223 274 330
#     4  10  18  32  48  65  95 126 154 198 239 282
#     4  10  21  37  54  70  87 116 157 205 246 290
#     4  10  19  30  43  70 100 131 164 186 232 295
#     4  10  16  27  38  61  95 131 173 200 247 294
#     4  10  16  23  39  59  90 131 172 178 218 283
#     4  10  14  22  36  56  83 130 169 189 218 274
#
# _framework density 22.912110999999999
#
# number of rings (size 3 to 8) (size 9 to 14) (size 15 to 20)
#    0.000    2.000    2.500    5.250    0.000    1.500 
#    0.000    7.500    0.000    0.000    0.000    0.000 
#    0.000    0.000    0.000  153.000    6.000    0.000 
#
# Total GULP energy -357346.657157 kJ/mol
# GULP energy per Si atom -5583.541518 kJ/mol
# Density = 2.285996 g / cm^3
# Si number density = 22.912111 Si / 1000 Ang^3
#
#
#
# Elastic Constant Matrix: (Units=GPa)
#
#
# Indices 1 2 3 4 5 6 
#
# 1 244.7601 8.5521 30.0415 0.0000 0.0000 0.0000
# 2 8.5521 85.6219 13.8843 0.0000 0.0000 0.0000
# 3 30.0415 13.8843 189.4508 0.0000 0.0000 0.0000
# 4 0.0000 0.0000 0.0000 -91.4479 0.0000 0.0000
# 5 0.0000 0.0000 0.0000 0.0000 42.9312 0.0000
# 6 0.0000 0.0000 0.0000 0.0000 0.0000 -20.4172
#
#
#
# Elastic Compliance Matrix: (Units=1/GPa)
#
#
# Indices 1 2 3 4 5 6 
#
# 1 0.004175 -0.000313 -0.000639 0.000000 0.000000 0.000000
# 2 -0.000313 0.011843 -0.000818 0.000000 0.000000 0.000000
# 3 -0.000639 -0.000818 0.005440 0.000000 0.000000 0.000000
# 4 0.000000 0.000000 0.000000 -0.010935 0.000000 0.000000
# 5 0.000000 0.000000 0.000000 0.000000 0.023293 0.000000
# 6 0.000000 0.000000 0.000000 0.000000 0.000000 -0.048978
#
#
# Mechanical properties :
#
#
# Convention : Reuss Voigt Hill
#
# Bulk Modulus (GPa) = 55.81430 69.42096 62.61763
# Shear Modulus (GPa) = -885.13568 17.37020 -433.88274
#
# Velocity S-wave (km/s) = -19.67629 2.75639 -13.77604
# Velocity P-wave (km/s) = 22.17646 6.36356 15.02166
#
# Compressibility (1/GPa) = 0.01791656
#
# Stress axis : x y z
#
# Youngs Moduli (GPa) = 239.51966 84.43631 183.83291
#
# Poissons Ratio (x) = 0.02646 0.11748
# Poissons Ratio (y) = 0.07506 0.15042
# Poissons Ratio (z) = 0.15307 0.06909
#
# Static dielectric constant tensor:
#      x y z
#    x 1.916610 0.000000 0.000000 
#    y 0.000000 1.519250 0.000000 
#    z 0.000000 0.000000 1.817790 
# 
# From -- ./inp_files/32431.got.cif
#   From: 2010.05.17/outbox.cif.g08.bks.cpg/sg50_17_cif.got.tgz:32431.got - 2010.06.03 11:33:33.
