data_PCOD9395746
_publ_section_title
;
Structure prediction by ZEFSAII (Michael W. Deem and Ramdas Pophale) SiO2 
 PCOD9395746
Probable space group: P B A N
;
_chemical_formula_sum "Si O2"
_cell_formula_units_Z 56
_cell_length_a 16.440002
_cell_length_b 11.936231
_cell_length_c 12.380805
_cell_angle_alpha 90.000000
_cell_angle_beta 90.000000
_cell_angle_gamma 90.000000
_cell_volume 2429.505936
_symmetry_space_group_name_H-M "P B A N"
_symmetry_group_IT_number 50
_space_group.IT_coordinate_system_code '2'
_symmetry_cell_setting 'orthorhombic'
loop_
_space_group_symop_operation_xyz
x,y,z
1/2-x,1/2-y,z
x,1/2-y,-z
1/2-x,y,-z
-x,-y,-z
1/2+x,1/2+y,-z
-x,1/2+y,z
1/2+x,-y,z
loop_
_atom_site_type_symbol
_atom_site_label
_atom_site_fract_x
_atom_site_fract_y
_atom_site_fract_z
Si Si1 0.669147 0.094774 0.434359
Si Si2 0.924578 0.702857 0.620816
Si Si3 0.399704 0.735411 0.268197
Si Si4 0.906207 0.878356 0.972079
Si Si5 0.888791 0.588880 0.283552
Si Si6 0.572543 0.050328 0.642105
Si Si7 0.903168 0.372190 0.040072
O O1 0.750000 0.086012 0.500000
O O2 0.660885 0.204226 0.362977
O O3 0.595961 0.092440 0.522112
O O4 0.667855 0.998402 0.343697
O O5 0.933932 0.750000 0.500000
O O6 0.864218 0.788638 0.676710
O O7 0.898289 0.576367 0.636427
O O8 0.010050 0.714563 0.684343
O O9 0.393073 0.869942 0.262176
O O10 0.391713 0.652056 0.167828
O O11 0.902130 0.896282 0.843304
O O12 0.872856 0.005457 0.003600
O O13 0.874270 0.750000 0.000000
O O14 0.999679 0.874480 0.014271
O O15 0.976339 0.554482 0.335666
O O16 0.871257 0.250000 0.000000
#
# Coordination Sequence:
#
# PCOD9395746 Si02
#       7
#     8   8   8   8   8   8   8
#     4  12  24  40  58  85 127 177 211 259 315 400
#     4  11  19  31  56  84 116 161 208 260 323 373
#     4  11  22  34  57  87 129 165 206 265 323 396
#     4  10  19  32  55  87 127 160 200 267 338 385
#     4  11  21  37  59  89 130 164 212 264 325 385
#     4  11  21  36  58  85 119 166 214 261 323 386
#     4  10  19  32  51  87 127 159 197 268 340 375
#
# _framework density 23.049954
#
# number of rings (size 3 to 8) (size 9 to 14) (size 15 to 20)
#    0.000    1.143    4.286    6.000    0.000    4.571 
#    0.000    1.429    0.000    0.000    0.000    8.000 
#    0.000    5.143    0.000    0.000    0.000    0.000 
#
# Total GULP energy -311852.686646 kJ/mol
# GULP energy per Si atom -5568.797976 kJ/mol
# Density = 2.299749 g / cm^3
# Si number density = 23.049954 Si / 1000 Ang^3
#
#
#
# Elastic Constant Matrix: (Units=GPa)
#
#
# Indices 1 2 3 4 5 6 
#
# 1 21.6724 8.1455 19.8484 0.0000 0.0000 0.0000
# 2 8.1455 224.5425 36.8199 0.0000 0.0000 0.0000
# 3 19.8484 36.8199 110.0736 0.0000 0.0000 0.0000
# 4 0.0000 0.0000 0.0000 40.7541 0.0000 0.0000
# 5 0.0000 0.0000 0.0000 0.0000 10.5775 0.0000
# 6 0.0000 0.0000 0.0000 0.0000 0.0000 3.8431
#
#
#
# Elastic Compliance Matrix: (Units=1/GPa)
#
#
# Indices 1 2 3 4 5 6 
#
# 1 0.055302 -0.000392 -0.009841 0.000000 0.000000 0.000000
# 2 -0.000392 0.004715 -0.001506 0.000000 0.000000 0.000000
# 3 -0.009841 -0.001506 0.011363 0.000000 0.000000 0.000000
# 4 0.000000 0.000000 0.000000 0.024537 0.000000 0.000000
# 5 0.000000 0.000000 0.000000 0.000000 0.094541 0.000000
# 6 0.000000 0.000000 0.000000 0.000000 0.000000 0.260204
#
#
# Mechanical properties :
#
#
# Convention : Reuss Voigt Hill
#
# Bulk Modulus (GPa) = 20.87658 53.99067 37.43362
# Shear Modulus (GPa) = 10.20184 30.46659 20.33421
#
# Velocity S-wave (km/s) = 2.10608 3.63955 2.97337
# Velocity P-wave (km/s) = 3.87180 6.41373 5.29749
#
# Compressibility (1/GPa) = 0.04790057
#
# Stress axis : x y z
#
# Youngs Moduli (GPa) = 18.08268 212.10076 88.00373
#
# Poissons Ratio (x) = 0.08325 0.86601
# Poissons Ratio (y) = 0.00710 0.13256
# Poissons Ratio (z) = 0.17795 0.31949
#
# Static dielectric constant tensor:
#      x y z
#    x 1.847410 0.000000 0.000000 
#    y 0.000000 2.104970 0.000000 
#    z 0.000000 0.000000 2.082650 
# 
# From -- ./inp_files/22400.got.cif
#   From: 2010.05.17/outbox.cif.g08.bks.cpg/sg50_12_cif.got.tgz:22400.got - 2010.06.03 11:33:33.
