data_PCOD9395019
_publ_section_title
;
Structure prediction by ZEFSAII (Michael W. Deem and Ramdas Pophale) SiO2 
 PCOD9395019
Probable space group: P C C M
;
_chemical_formula_sum "Si O2"
_cell_formula_units_Z 34
_cell_length_a 12.973433
_cell_length_b 5.011983
_cell_length_c 24.141792
_cell_angle_alpha 90.000000
_cell_angle_beta 90.000000
_cell_angle_gamma 90.000000
_cell_volume 1569.762704
_symmetry_space_group_name_H-M "P C C M"
_symmetry_group_IT_number 49
_symmetry_cell_setting 'orthorhombic'
loop_
_space_group_symop_operation_xyz
x,y,z
-x,-y,z
x,-y,1/2-z
-x,y,1/2-z
-x,-y,-z
x,y,-z
-x,y,1/2+z
x,-y,1/2+z
loop_
_atom_site_type_symbol
_atom_site_label
_atom_site_fract_x
_atom_site_fract_y
_atom_site_fract_z
Si Si1 0.000000 0.500000 0.250000
Si Si2 0.889984 0.460966 0.351631
Si Si3 0.398116 0.817262 0.899384
Si Si4 0.717112 0.310387 0.437610
Si Si5 0.723393 0.246537 0.210031
O O1 0.069817 0.666026 0.293291
O O2 0.806762 0.339533 0.392219
O O3 0.827085 0.711562 0.326366
O O4 0.000000 0.500000 0.381101
O O5 0.375936 0.519390 0.922842
O O6 0.366641 0.791012 0.835007
O O7 0.500000 0.000000 0.903880
O O8 0.318916 0.007280 0.931779
O O9 0.750963 0.367322 0.500000
O O10 0.707367 0.500000 0.250000
O O11 0.728872 0.000000 0.250000
#
# Coordination Sequence:
#
# PCOD9395019 Si02
#       5
#     2   8   8   8   8
#     4   8  16  36  64  92 124 168 202 250 318 384
#     4   9  19  38  63  94 124 165 207 253 314 386
#     4  11  25  42  64  93 124 166 218 264 320 380
#     4  11  24  43  65  92 126 167 215 270 316 368
#     4  11  21  39  63  90 130 167 203 257 316 381
#
# _framework density 21.659324000000002
#
# number of rings (size 3 to 8) (size 9 to 14) (size 15 to 20)
#    0.706    0.941    1.176    4.235    0.000    3.765 
#    0.000   25.294    0.000    7.059    0.000    0.000 
#    0.000    0.000    0.000    0.000    0.000    0.000 
#
# Total GULP energy -189274.905603 kJ/mol
# GULP energy per Si atom -5566.908988 kJ/mol
# Density = 2.161003 g / cm^3
# Si number density = 21.659324 Si / 1000 Ang^3
#
#
#
# Elastic Constant Matrix: (Units=GPa)
#
#
# Indices 1 2 3 4 5 6 
#
# 1 65.0362 -4.5873 31.6997 0.0000 0.0000 0.0000
# 2 -4.5873 111.0928 26.5391 0.0000 0.0000 0.0000
# 3 31.6997 26.5391 126.5140 0.0000 0.0000 0.0000
# 4 0.0000 0.0000 0.0000 57.1047 0.0000 0.0000
# 5 0.0000 0.0000 0.0000 0.0000 442.9380 0.0000
# 6 0.0000 0.0000 0.0000 0.0000 0.0000 17.2486
#
#
#
# Elastic Compliance Matrix: (Units=1/GPa)
#
#
# Indices 1 2 3 4 5 6 
#
# 1 0.017890 0.001905 -0.004882 0.000000 0.000000 0.000000
# 2 0.001905 0.009679 -0.002508 0.000000 0.000000 0.000000
# 3 -0.004882 -0.002508 0.009654 0.000000 0.000000 0.000000
# 4 0.000000 0.000000 0.000000 0.017512 0.000000 0.000000
# 5 0.000000 0.000000 0.000000 0.000000 0.002258 0.000000
# 6 0.000000 0.000000 0.000000 0.000000 0.000000 0.057976
#
#
# Mechanical properties :
#
#
# Convention : Reuss Voigt Hill
#
# Bulk Modulus (GPa) = 38.09081 45.54957 41.82019
# Shear Modulus (GPa) = 37.12255 120.05770 78.59012
#
# Velocity S-wave (km/s) = 4.14445 7.45321 6.03021
# Velocity P-wave (km/s) = 6.36604 9.75412 8.23618
#
# Compressibility (1/GPa) = 0.02625305
#
# Stress axis : x y z
#
# Youngs Moduli (GPa) = 55.89689 103.31400 103.58800
#
# Poissons Ratio (x) = -0.19682 0.50574
# Poissons Ratio (y) = -0.10649 0.25977
# Poissons Ratio (z) = 0.27290 0.25909
#
# Static dielectric constant tensor:
#      x y z
#    x 1.895870 0.000000 0.000000 
#    y 0.000000 1.749670 0.000000 
#    z 0.000000 0.000000 1.770520 
# 
# From -- ./inp_files/22734.got.cif
#   From: 2010.05.17/outbox.cif.g08.bks.cpg/sg49_12_cif.got.tgz:22734.got - 2010.06.03 21:02:19.
