data_PCOD9395180
_publ_section_title
;
Structure prediction by ZEFSAII (Michael W. Deem and Ramdas Pophale) SiO2 
 PCOD9395180
Probable space group: P C C M
;
_chemical_formula_sum "Si O2"
_cell_formula_units_Z 32
_cell_length_a 12.759001
_cell_length_b 12.813442
_cell_length_c 9.967086
_cell_angle_alpha 90.000000
_cell_angle_beta 90.000000
_cell_angle_gamma 90.000000
_cell_volume 1629.486191
_symmetry_space_group_name_H-M "P C C M"
_symmetry_group_IT_number 49
_symmetry_cell_setting 'orthorhombic'
loop_
_space_group_symop_operation_xyz
x,y,z
-x,-y,z
x,-y,1/2-z
-x,y,1/2-z
-x,-y,-z
x,y,-z
-x,y,1/2+z
x,-y,1/2+z
loop_
_atom_site_type_symbol
_atom_site_label
_atom_site_fract_x
_atom_site_fract_y
_atom_site_fract_z
Si Si1 0.896765 0.800949 0.339845
Si Si2 0.430171 0.396307 0.500000
Si Si3 0.763976 0.000000 0.250000
Si Si4 0.360200 0.283547 0.000000
Si Si5 0.739575 0.381850 0.232492
Si Si6 0.378806 0.035838 0.000000
O O1 0.916391 0.819988 0.500000
O O2 0.823967 0.698887 0.324954
O O3 0.000000 0.784806 0.250000
O O4 0.836974 0.899025 0.271756
O O5 0.500000 0.500000 0.500000
O O6 0.516427 0.307198 0.500000
O O7 0.356760 0.391128 0.370762
O O8 0.684776 0.995646 0.373439
O O9 0.305172 0.334753 0.870793
O O10 0.357593 0.159542 0.000000
O O11 0.780956 0.500000 0.250000
O O12 0.500000 0.000000 0.000000
#
# Coordination Sequence:
#
# PCOD9395180 Si02
#       6
#     8   4   4   4   8   4
#     4  12  29  50  77 103 137 187 246 308 368 420
#     4  12  24  42  68 106 144 193 237 277 344 429
#     4  12  26  50  74 104 146 188 244 292 360 446
#     4  12  26  40  72 104 148 193 238 283 359 429
#     4  12  25  46  70 108 147 187 237 299 350 428
#     4  12  28  44  71 113 154 190 228 297 367 433
#
# _framework density 19.638090999999999
#
# number of rings (size 3 to 8) (size 9 to 14) (size 15 to 20)
#    0.000    0.000    7.500    1.500    7.000    3.500 
#    0.000    1.250    0.000    0.000    0.000    0.000 
#    0.000    0.000    0.000    0.000    0.000    0.000 
#
# Total GULP energy -178908.336620 kJ/mol
# GULP energy per Si atom -5590.885519 kJ/mol
# Density = 1.959339 g / cm^3
# Si number density = 19.638091 Si / 1000 Ang^3
#
#
#
# Elastic Constant Matrix: (Units=GPa)
#
#
# Indices 1 2 3 4 5 6 
#
# 1 135.9531 48.1249 61.5708 0.0000 0.0000 0.0000
# 2 48.1249 94.7625 -0.3570 0.0000 0.0000 0.0000
# 3 61.5708 -0.3570 151.7588 0.0000 0.0000 0.0000
# 4 0.0000 0.0000 0.0000 28.2497 0.0000 0.0000
# 5 0.0000 0.0000 0.0000 0.0000 50.1267 0.0000
# 6 0.0000 0.0000 0.0000 0.0000 0.0000 32.6798
#
#
#
# Elastic Compliance Matrix: (Units=1/GPa)
#
#
# Indices 1 2 3 4 5 6 
#
# 1 0.011576 -0.005897 -0.004710 0.000000 0.000000 0.000000
# 2 -0.005897 0.013556 0.002424 0.000000 0.000000 0.000000
# 3 -0.004710 0.002424 0.008506 0.000000 0.000000 0.000000
# 4 0.000000 0.000000 0.000000 0.035399 0.000000 0.000000
# 5 0.000000 0.000000 0.000000 0.000000 0.019949 0.000000
# 6 0.000000 0.000000 0.000000 0.000000 0.000000 0.030600
#
#
# Mechanical properties :
#
#
# Convention : Reuss Voigt Hill
#
# Bulk Modulus (GPa) = 57.89377 66.79465 62.34421
# Shear Modulus (GPa) = 35.28331 40.42027 37.85179
#
# Velocity S-wave (km/s) = 4.24332 4.54173 4.39506
# Velocity P-wave (km/s) = 7.31793 7.84791 7.58755
#
# Compressibility (1/GPa) = 0.01727302
#
# Stress axis : x y z
#
# Youngs Moduli (GPa) = 86.38519 73.76575 117.56120
#
# Poissons Ratio (x) = 0.43497 0.55377
# Poissons Ratio (y) = 0.50938 -0.28500
# Poissons Ratio (z) = 0.40691 -0.17883
#
# Static dielectric constant tensor:
#      x y z
#    x 1.667080 0.000000 0.000000 
#    y 0.000000 1.777210 0.000000 
#    z 0.000000 0.000000 1.683650 
# 
# From -- ./inp_files/2589.got.cif
#   From: 2010.05.17/outbox.cif.g08.bks.cpg/sg49_2_cif.got.tgz:2589.got - 2010.06.03 21:02:19.
