data_PCOD9395684
_publ_section_title
;
Structure prediction by ZEFSAII (Michael W. Deem and Ramdas Pophale) SiO2 
 PCOD9395684
Probable space group: P B A N
;
_chemical_formula_sum "Si O2"
_cell_formula_units_Z 48
_cell_length_a 30.862587
_cell_length_b 5.127244
_cell_length_c 14.554511
_cell_angle_alpha 90.000000
_cell_angle_beta 90.000000
_cell_angle_gamma 90.000000
_cell_volume 2303.106025
_symmetry_space_group_name_H-M "P B A N"
_symmetry_group_IT_number 50
_space_group.IT_coordinate_system_code '2'
_symmetry_cell_setting 'orthorhombic'
loop_
_space_group_symop_operation_xyz
x,y,z
1/2-x,1/2-y,z
x,1/2-y,-z
1/2-x,y,-z
-x,-y,-z
1/2+x,1/2+y,-z
-x,1/2+y,z
1/2+x,-y,z
loop_
_atom_site_type_symbol
_atom_site_label
_atom_site_fract_x
_atom_site_fract_y
_atom_site_fract_z
Si Si1 0.889348 0.740439 0.154169
Si Si2 0.294561 0.674367 0.275315
Si Si3 0.018416 0.430567 0.101729
Si Si4 0.387957 0.760000 0.277375
Si Si5 0.026624 0.763197 0.610237
Si Si6 0.704758 0.675102 0.150153
O O1 0.891117 0.447729 0.193273
O O2 0.842537 0.780165 0.106418
O O3 0.932879 0.824724 0.101539
O O4 0.888993 0.947104 0.238131
O O5 0.250000 0.750000 0.325561
O O6 0.340720 0.716932 0.322064
O O7 0.294436 0.382410 0.235180
O O8 0.294463 0.881306 0.189486
O O9 0.988269 0.211435 0.147868
O O10 0.000000 0.500000 0.000000
O O11 0.427550 0.711718 0.343898
O O12 0.031090 0.750000 0.500000
O O13 0.991783 0.544549 0.636697
O O14 0.750000 0.750000 0.101555
#
# Coordination Sequence:
#
# PCOD9395684 Si02
#       6
#     8   8   8   8   8   8
#     4  10  19  30  48  73  95 119 157 197 236 280
#     4   8  14  25  41  63  92 120 143 179 236 284
#     4  10  21  35  48  65  94 130 158 185 230 285
#     4  10  19  30  48  72  94 120 156 200 237 275
#     4  10  21  35  48  64  91 127 161 195 240 286
#     4   8  14  25  41  64  93 117 142 184 235 278
#
# _framework density 20.841419999999999
#
# number of rings (size 3 to 8) (size 9 to 14) (size 15 to 20)
#    0.000    2.667    0.000    2.000    0.000    4.000 
#    0.000    0.000    0.000    0.500    0.000    2.333 
#    0.000   22.667    0.000    0.000    0.000    2.667 
#
# Total GULP energy -267497.764114 kJ/mol
# GULP energy per Si atom -5572.870086 kJ/mol
# Density = 2.079398 g / cm^3
# Si number density = 20.841420 Si / 1000 Ang^3
#
#
#
# Elastic Constant Matrix: (Units=GPa)
#
#
# Indices 1 2 3 4 5 6 
#
# 1 222.4436 4.7792 26.3527 0.0000 0.0000 0.0000
# 2 4.7792 105.4275 2.4102 0.0000 0.0000 0.0000
# 3 26.3527 2.4102 22.7211 0.0000 0.0000 0.0000
# 4 0.0000 0.0000 0.0000 7.1274 0.0000 0.0000
# 5 0.0000 0.0000 0.0000 0.0000 -39.2870 0.0000
# 6 0.0000 0.0000 0.0000 0.0000 0.0000 36.2502
#
#
#
# Elastic Compliance Matrix: (Units=1/GPa)
#
#
# Indices 1 2 3 4 5 6 
#
# 1 0.005213 -0.000098 -0.006035 0.000000 0.000000 0.000000
# 2 -0.000098 0.009510 -0.000895 0.000000 0.000000 0.000000
# 3 -0.006035 -0.000895 0.051107 0.000000 0.000000 0.000000
# 4 0.000000 0.000000 0.000000 0.140304 0.000000 0.000000
# 5 0.000000 0.000000 0.000000 0.000000 -0.025454 0.000000
# 6 0.000000 0.000000 0.000000 0.000000 0.000000 0.027586
#
#
# Mechanical properties :
#
#
# Convention : Reuss Voigt Hill
#
# Bulk Modulus (GPa) = 19.31516 46.40850 32.86183
# Shear Modulus (GPa) = 20.86982 21.95479 21.41231
#
# Velocity S-wave (km/s) = 3.16786 3.24917 3.20877
# Velocity P-wave (km/s) = 4.76112 6.03257 5.43416
#
# Compressibility (1/GPa) = 0.05177282
#
# Stress axis : x y z
#
# Youngs Moduli (GPa) = 191.84127 105.15137 19.56678
#
# Poissons Ratio (x) = 0.01034 0.11809
# Poissons Ratio (y) = 0.01886 0.01751
# Poissons Ratio (z) = 1.15784 0.09409
#
# Static dielectric constant tensor:
#      x y z
#    x 1.836170 0.000000 0.000000 
#    y 0.000000 1.832590 0.000000 
#    z 0.000000 0.000000 1.803640 
# 
# From -- ./inp_files/27727.got.cif
#   From: 2010.05.17/outbox.cif.g08.bks.cpg/sg50_14_cif.got.tgz:27727.got - 2010.06.03 11:33:33.
