data_PCOD9395896
_publ_section_title
;
Structure prediction by ZEFSAII (Michael W. Deem and Ramdas Pophale) SiO2 
 PCOD9395896
Probable space group: P B A N
;
_chemical_formula_sum "Si O2"
_cell_formula_units_Z 40
_cell_length_a 8.951970
_cell_length_b 28.181558
_cell_length_c 8.058328
_cell_angle_alpha 90.000000
_cell_angle_beta 90.000000
_cell_angle_gamma 90.000000
_cell_volume 2032.958709
_symmetry_space_group_name_H-M "P B A N"
_symmetry_group_IT_number 50
_space_group.IT_coordinate_system_code '2'
_symmetry_cell_setting 'orthorhombic'
loop_
_space_group_symop_operation_xyz
x,y,z
1/2-x,1/2-y,z
x,1/2-y,-z
1/2-x,y,-z
-x,-y,-z
1/2+x,1/2+y,-z
-x,1/2+y,z
1/2+x,-y,z
loop_
_atom_site_type_symbol
_atom_site_label
_atom_site_fract_x
_atom_site_fract_y
_atom_site_fract_z
Si Si1 0.168059 0.637916 0.830818
Si Si2 0.486837 0.551660 0.295934
Si Si3 0.311142 0.041779 0.812073
Si Si4 0.425625 0.698656 0.449982
Si Si5 0.039981 0.605327 0.367463
O O1 0.087405 0.682004 0.740746
O O2 0.302443 0.616029 0.719191
O O3 0.050923 0.594846 0.830066
O O4 0.250000 0.650575 0.000000
O O5 0.401415 0.506018 0.228327
O O6 0.662743 0.542962 0.298393
O O7 0.443027 0.568407 0.480751
O O8 0.420272 0.084619 0.760349
O O9 0.250000 0.042325 0.000000
O O10 0.486410 0.750000 0.500000
O O11 0.250000 0.699183 0.500000
O O12 0.503107 0.655530 0.548029
#
# Coordination Sequence:
#
# PCOD9395896 Si02
#       5
#     8   8   8   8   8
#     4  10  19  35  58  85 114 144 183 234 278 319
#     4  11  22  36  54  79 113 151 187 223 275 333
#     4  12  23  36  55  82 114 146 187 232 273 327
#     4   8  16  33  56  82 111 141 181 227 277 336
#     4  10  21  36  55  79 109 147 185 227 277 336
#
# _framework density 19.675756
#
# number of rings (size 3 to 8) (size 9 to 14) (size 15 to 20)
#    0.000    1.800    0.000    6.600    0.000    1.600 
#    0.000    8.000    0.000    9.600    0.000    5.600 
#    0.000    0.000    0.000    0.000    0.000    0.000 
#
# Total GULP energy -223221.960091 kJ/mol
# GULP energy per Si atom -5580.549002 kJ/mol
# Density = 1.963097 g / cm^3
# Si number density = 19.675756 Si / 1000 Ang^3
#
#
#
# Elastic Constant Matrix: (Units=GPa)
#
#
# Indices 1 2 3 4 5 6 
#
# 1 69.2729 31.5275 18.1436 0.0000 0.0000 0.0000
# 2 31.5275 128.6160 48.2133 0.0000 0.0000 0.0000
# 3 18.1436 48.2133 102.8905 0.0000 0.0000 0.0000
# 4 0.0000 0.0000 0.0000 9.1631 0.0000 0.0000
# 5 0.0000 0.0000 0.0000 0.0000 26.2657 0.0000
# 6 0.0000 0.0000 0.0000 0.0000 0.0000 17.4976
#
#
#
# Elastic Compliance Matrix: (Units=1/GPa)
#
#
# Indices 1 2 3 4 5 6 
#
# 1 0.016374 -0.003556 -0.001221 0.000000 0.000000 0.000000
# 2 -0.003556 0.010204 -0.004154 0.000000 0.000000 0.000000
# 3 -0.001221 -0.004154 0.011881 0.000000 0.000000 0.000000
# 4 0.000000 0.000000 0.000000 0.109133 0.000000 0.000000
# 5 0.000000 0.000000 0.000000 0.000000 0.038072 0.000000
# 6 0.000000 0.000000 0.000000 0.000000 0.000000 0.057151
#
#
# Mechanical properties :
#
#
# Convention : Reuss Voigt Hill
#
# Bulk Modulus (GPa) = 48.55289 55.17200 51.86245
# Shear Modulus (GPa) = 18.68853 24.11162 21.40007
#
# Velocity S-wave (km/s) = 3.08527 3.50444 3.30151
# Velocity P-wave (km/s) = 6.11734 6.66905 6.39915
#
# Compressibility (1/GPa) = 0.02059610
#
# Stress axis : x y z
#
# Youngs Moduli (GPa) = 61.07295 97.99972 84.16712
#
# Poissons Ratio (x) = 0.34848 0.10277
# Poissons Ratio (y) = 0.21717 0.34967
# Poissons Ratio (z) = 0.07457 0.40714
#
# Static dielectric constant tensor:
#      x y z
#    x 1.692460 0.000000 0.000000 
#    y 0.000000 1.713070 0.000000 
#    z 0.000000 0.000000 1.776260 
# 
# From -- ./inp_files/9740.got.cif
#   From: 2010.05.17/outbox.cif.g08.bks.cpg/sg50_5_cif.got.tgz:9740.got - 2010.06.03 11:33:33.
