data_PCOD9395868
_publ_section_title
;
Structure prediction by ZEFSAII (Michael W. Deem and Ramdas Pophale) SiO2 
 PCOD9395868
Probable space group: P B A N
;
_chemical_formula_sum "Si O2"
_cell_formula_units_Z 24
_cell_length_a 11.154613
_cell_length_b 16.774461
_cell_length_c 5.242069
_cell_angle_alpha 90.000000
_cell_angle_beta 90.000000
_cell_angle_gamma 90.000000
_cell_volume 980.857269
_symmetry_space_group_name_H-M "P B A N"
_symmetry_group_IT_number 50
_space_group.IT_coordinate_system_code '2'
_symmetry_cell_setting 'orthorhombic'
loop_
_space_group_symop_operation_xyz
x,y,z
1/2-x,1/2-y,z
x,1/2-y,-z
1/2-x,y,-z
-x,-y,-z
1/2+x,1/2+y,-z
-x,1/2+y,z
1/2+x,-y,z
loop_
_atom_site_type_symbol
_atom_site_label
_atom_site_fract_x
_atom_site_fract_y
_atom_site_fract_z
Si Si1 0.381933 0.557951 0.544643
Si Si2 0.698968 0.839922 0.765010
Si Si3 0.424487 0.659865 0.063864
O O1 0.250000 0.520197 0.500000
O O2 0.500000 0.500000 0.500000
O O3 0.369948 0.622739 0.317708
O O4 0.405563 0.602542 0.817180
O O5 0.750000 0.750000 0.768027
O O6 0.750000 0.867610 0.500000
O O7 0.561354 0.834963 0.835968
O O8 0.750000 0.889881 0.000000
O O9 0.387143 0.750000 0.000000
#
# Coordination Sequence:
#
# PCOD9395868 Si02
#       3
#     8   8   8
#     4  12  30  54  77 110 160 216 263 319 409 486
#     4  10  19  34  61 108 162 181 240 306 383 459
#     4  12  25  46  81 119 153 196 269 339 394 466
#
# _framework density 24.468388999999998
#
# number of rings (size 3 to 8) (size 9 to 14) (size 15 to 20)
#    0.000    0.667    3.333    5.000    4.667    8.000 
#    0.000    0.000    0.000    0.000    0.000    0.000 
#    0.000    0.000    0.000    0.000    0.000    0.000 
#
# Total GULP energy -133709.670260 kJ/mol
# GULP energy per Si atom -5571.236261 kJ/mol
# Density = 2.441270 g / cm^3
# Si number density = 24.468389 Si / 1000 Ang^3
#
#
#
# Elastic Constant Matrix: (Units=GPa)
#
#
# Indices 1 2 3 4 5 6 
#
# 1 204.9787 43.3435 46.1805 0.0000 0.0000 0.0000
# 2 43.3435 120.3234 63.1883 0.0000 0.0000 0.0000
# 3 46.1805 63.1883 260.6249 0.0000 0.0000 0.0000
# 4 0.0000 0.0000 0.0000 -7.6721 0.0000 0.0000
# 5 0.0000 0.0000 0.0000 0.0000 48.8560 0.0000
# 6 0.0000 0.0000 0.0000 0.0000 0.0000 30.3202
#
#
#
# Elastic Compliance Matrix: (Units=1/GPa)
#
#
# Indices 1 2 3 4 5 6 
#
# 1 0.005349 -0.001638 -0.000551 0.000000 0.000000 0.000000
# 2 -0.001638 0.010025 -0.002140 0.000000 0.000000 0.000000
# 3 -0.000551 -0.002140 0.004453 0.000000 0.000000 0.000000
# 4 0.000000 0.000000 0.000000 -0.130343 0.000000 0.000000
# 5 0.000000 0.000000 0.000000 0.000000 0.020468 0.000000
# 6 0.000000 0.000000 0.000000 0.000000 0.000000 0.032981
#
#
# Mechanical properties :
#
#
# Convention : Reuss Voigt Hill
#
# Bulk Modulus (GPa) = 89.52684 99.03908 94.28296
# Shear Modulus (GPa) = -111.89404 43.18178 -34.35613
#
# Velocity S-wave (km/s) = -6.76974 4.20551 -3.75120
# Velocity P-wave (km/s) = 4.94343 8.00912 4.45581
#
# Compressibility (1/GPa) = 0.01116983
#
# Stress axis : x y z
#
# Youngs Moduli (GPa) = 186.95399 99.75212 224.54511
#
# Poissons Ratio (x) = 0.16335 0.12367
# Poissons Ratio (y) = 0.30615 0.48061
# Poissons Ratio (z) = 0.10297 0.21350
#
# Static dielectric constant tensor:
#      x y z
#    x 1.872120 0.000000 0.000000 
#    y 0.000000 1.972920 0.000000 
#    z 0.000000 0.000000 1.984110 
# 
# From -- ./inp_files/1662.got.cif
#   From: 2010.05.17/outbox.cif.g08.bks.cpg/sg50_1_cif.got.tgz:1662.got - 2010.06.03 11:33:33.
