data_PCOD9395317
_publ_section_title
;
Structure prediction by ZEFSAII (Michael W. Deem and Ramdas Pophale) SiO2 
 PCOD9395317
Probable space group: P C C M
;
_chemical_formula_sum "Si O2"
_cell_formula_units_Z 56
_cell_length_a 15.000000
_cell_length_b 12.000000
_cell_length_c 15.000000
_cell_angle_alpha 90.000000
_cell_angle_beta 90.000000
_cell_angle_gamma 90.000000
_cell_volume 2700.000000
_symmetry_space_group_name_H-M "P C C M"
_symmetry_group_IT_number 49
_symmetry_cell_setting 'orthorhombic'
loop_
_space_group_symop_operation_xyz
x,y,z
-x,-y,z
x,-y,1/2-z
-x,y,1/2-z
-x,-y,-z
x,y,-z
-x,y,1/2+z
x,-y,1/2+z
loop_
_atom_site_type_symbol
_atom_site_label
_atom_site_fract_x
_atom_site_fract_y
_atom_site_fract_z
Si Si1 0.681847 0.099336 0.893104
Si Si2 0.171054 0.735248 0.145602
Si Si3 0.363380 0.150019 0.897933
Si Si4 0.216860 0.327285 0.844828
Si Si5 0.457359 0.282352 0.659482
Si Si6 0.308316 0.452894 0.598418
Si Si7 0.013065 0.625453 0.604544
O O1 0.783093 0.147326 0.882248
O O2 0.617523 0.184515 0.839209
O O3 0.661272 0.973392 0.860014
O O4 0.661382 0.112156 0.000000
O O5 0.197487 0.714918 0.246694
O O6 0.228625 0.638305 0.097198
O O7 0.065230 0.709294 0.137890
O O8 0.280907 0.234312 0.886772
O O9 0.455046 0.216516 0.876769
O O10 0.373712 0.121673 0.000000
O O11 0.272650 0.443070 0.844264
O O12 0.117449 0.343697 0.884722
O O13 0.500000 0.326887 0.750000
O O14 0.399530 0.385154 0.619366
O O15 0.318752 0.502172 0.500000
O O16 0.994542 0.619068 0.500000
O O17 0.000000 0.500000 0.642842
#
# Coordination Sequence:
#
# PCOD9395317 Si02
#       7
#     8   8   8   8   8   8   8
#     4  10  22  42  67  91 119 163 215 261 309 375
#     4  11  22  38  64  94 125 160 206 260 314 365
#     4  11  23  41  63  89 125 167 210 258 312 371
#     4  12  25  39  61  95 130 162 203 259 316 373
#     4  11  23  39  63  92 123 163 212 263 311 365
#     4  11  22  40  62  88 124 164 207 250 306 375
#     4  11  22  39  65  93 124 166 208 253 306 373
#
# _framework density 20.740741
#
# number of rings (size 3 to 8) (size 9 to 14) (size 15 to 20)
#    0.000    1.000    1.429    7.714    0.000    5.143 
#    0.000    4.286    0.000    4.286    0.000    0.000 
#    0.000    0.000    0.000    0.000    0.000    0.000 
#
# Total GULP energy -312153.158945 kJ/mol
# GULP energy per Si atom -5574.163553 kJ/mol
# Density = 2.069353 g / cm^3
# Si number density = 20.740741 Si / 1000 Ang^3
#
#
#
# Elastic Constant Matrix: (Units=GPa)
#
#
# Indices 1 2 3 4 5 6 
#
# 1 155.8910 44.1529 -4.1586 0.0000 0.0000 0.0000
# 2 44.1529 77.2663 -8.8258 0.0000 0.0000 0.0000
# 3 -4.1586 -8.8258 38.9357 0.0000 0.0000 0.0000
# 4 0.0000 0.0000 0.0000 75.8035 0.0000 0.0000
# 5 0.0000 0.0000 0.0000 0.0000 35.8237 0.0000
# 6 0.0000 0.0000 0.0000 0.0000 0.0000 23.4694
#
#
#
# Elastic Compliance Matrix: (Units=1/GPa)
#
#
# Indices 1 2 3 4 5 6 
#
# 1 0.007655 -0.004395 -0.000179 0.000000 0.000000 0.000000
# 2 -0.004395 0.015809 0.003114 0.000000 0.000000 0.000000
# 3 -0.000179 0.003114 0.026370 0.000000 0.000000 0.000000
# 4 0.000000 0.000000 0.000000 0.013192 0.000000 0.000000
# 5 0.000000 0.000000 0.000000 0.000000 0.027915 0.000000
# 6 0.000000 0.000000 0.000000 0.000000 0.000000 0.042609
#
#
# Mechanical properties :
#
#
# Convention : Reuss Voigt Hill
#
# Bulk Modulus (GPa) = 21.31457 37.15887 29.23672
# Shear Modulus (GPa) = 32.87184 43.08095 37.97639
#
# Velocity S-wave (km/s) = 3.98539 4.56248 4.28367
# Velocity P-wave (km/s) = 5.61041 6.76090 6.21235
#
# Compressibility (1/GPa) = 0.04691625
#
# Stress axis : x y z
#
# Youngs Moduli (GPa) = 130.63978 63.25438 37.92153
#
# Poissons Ratio (x) = 0.27797 0.00677
# Poissons Ratio (y) = 0.57410 -0.11810
# Poissons Ratio (z) = 0.02333 -0.19699
#
# Static dielectric constant tensor:
#      x y z
#    x 1.811420 0.000000 0.000000 
#    y 0.000000 1.678730 0.000000 
#    z 0.000000 0.000000 1.880550 
# 
# From -- ./inp_files/12859.got.cif
#   From: 2010.05.17/outbox.ucp.g08.bks.cvg/sg49_7_cif.got.tgz:12859.got - 2010.06.11 16:40:14.
