data_PCOD9395072
_publ_section_title
;
Structure prediction by ZEFSAII (Michael W. Deem and Ramdas Pophale) SiO2 
 PCOD9395072
Probable space group: P C C M
;
_chemical_formula_sum "Si O2"
_cell_formula_units_Z 40
_cell_length_a 8.942408
_cell_length_b 24.449078
_cell_length_c 9.049735
_cell_angle_alpha 90.000000
_cell_angle_beta 90.000000
_cell_angle_gamma 90.000000
_cell_volume 1978.576420
_symmetry_space_group_name_H-M "P C C M"
_symmetry_group_IT_number 49
_symmetry_cell_setting 'orthorhombic'
loop_
_space_group_symop_operation_xyz
x,y,z
-x,-y,z
x,-y,1/2-z
-x,y,1/2-z
-x,-y,-z
x,y,-z
-x,y,1/2+z
x,-y,1/2+z
loop_
_atom_site_type_symbol
_atom_site_label
_atom_site_fract_x
_atom_site_fract_y
_atom_site_fract_z
Si Si1 0.834553 0.841579 0.678835
Si Si2 0.204592 0.453082 0.000000
Si Si3 0.676632 0.375532 0.730436
Si Si4 0.862326 0.581456 0.500000
Si Si5 0.156610 0.733572 0.330846
Si Si6 0.665792 0.055900 0.319936
O O1 0.834420 0.845342 0.500000
O O2 0.772759 0.783117 0.736096
O O3 0.749870 0.891658 0.755436
O O4 0.000000 0.842444 0.750000
O O5 0.295909 0.429843 0.135895
O O6 0.183663 0.517548 0.000000
O O7 0.042204 0.422655 0.000000
O O8 0.500000 0.369709 0.750000
O O9 0.786466 0.387375 0.865905
O O10 0.739536 0.319402 0.664382
O O11 0.126557 0.751482 0.500000
O O12 0.000000 0.719798 0.250000
O O13 0.500000 0.058848 0.250000
O O14 0.663245 0.054226 0.500000
O O15 0.732646 0.000000 0.250000
#
# Coordination Sequence:
#
# PCOD9395072 Si02
#       6
#     8   4   8   4   8   8
#     4  11  23  41  65  97 130 169 220 271 329 386
#     4  11  23  47  63  99 117 171 214 259 314 397
#     4  12  26  41  63  96 131 163 208 266 330 385
#     4  11  25  41  73  87 129 163 216 259 316 391
#     4  11  23  42  66  91 124 167 216 262 320 393
#     4  11  22  40  64  94 132 176 224 273 332 396
#
# _framework density 20.216556000000001
#
# number of rings (size 3 to 8) (size 9 to 14) (size 15 to 20)
#    0.000    0.800    1.000    9.000    2.800    5.200 
#    0.000    4.000    0.000    0.000    0.000    0.000 
#    0.000    0.000    0.000    0.000    0.000    0.000 
#
# Total GULP energy -223301.467961 kJ/mol
# GULP energy per Si atom -5582.536699 kJ/mol
# Density = 2.017054 g / cm^3
# Si number density = 20.216556 Si / 1000 Ang^3
#
#
#
# Elastic Constant Matrix: (Units=GPa)
#
#
# Indices 1 2 3 4 5 6 
#
# 1 78.0603 53.5771 23.3666 0.0000 0.0000 0.0000
# 2 53.5771 127.5043 43.4808 0.0000 0.0000 0.0000
# 3 23.3666 43.4808 181.3352 0.0000 0.0000 0.0000
# 4 0.0000 0.0000 0.0000 36.7109 0.0000 0.0000
# 5 0.0000 0.0000 0.0000 0.0000 24.1226 0.0000
# 6 0.0000 0.0000 0.0000 0.0000 0.0000 -46.7858
#
#
#
# Elastic Compliance Matrix: (Units=1/GPa)
#
#
# Indices 1 2 3 4 5 6 
#
# 1 0.018053 -0.007398 -0.000553 0.000000 0.000000 0.000000
# 2 -0.007398 0.011573 -0.001822 0.000000 0.000000 0.000000
# 3 -0.000553 -0.001822 0.006023 0.000000 0.000000 0.000000
# 4 0.000000 0.000000 0.000000 0.027240 0.000000 0.000000
# 5 0.000000 0.000000 0.000000 0.000000 0.041455 0.000000
# 6 0.000000 0.000000 0.000000 0.000000 0.000000 -0.021374
#
#
# Mechanical properties :
#
#
# Convention : Reuss Voigt Hill
#
# Bulk Modulus (GPa) = 62.09230 69.74986 65.92108
# Shear Modulus (GPa) = 46.34733 20.57455 33.46094
#
# Velocity S-wave (km/s) = 4.79325 3.19361 4.07274
# Velocity P-wave (km/s) = 7.83670 6.94083 7.40233
#
# Compressibility (1/GPa) = 0.01610506
#
# Stress axis : x y z
#
# Youngs Moduli (GPa) = 55.39134 86.41160 166.04003
#
# Poissons Ratio (x) = 0.63924 0.09174
# Poissons Ratio (y) = 0.40976 0.30246
# Poissons Ratio (z) = 0.03061 0.15741
#
# Static dielectric constant tensor:
#      x y z
#    x 1.703590 0.000000 0.000000 
#    y 0.000000 1.731480 0.000000 
#    z 0.000000 0.000000 1.698450 
# 
# From -- ./inp_files/1938.got.cif
#   From: 2010.05.17/outbox.cif.g08.bks.cpg/sg49_1_cif.got.tgz:1938.got - 2010.06.03 21:02:19.
