data_PCOD9395887
_publ_section_title
;
Structure prediction by ZEFSAII (Michael W. Deem and Ramdas Pophale) SiO2 
 PCOD9395887
Probable space group: P B A N
;
_chemical_formula_sum "Si O2"
_cell_formula_units_Z 24
_cell_length_a 13.620875
_cell_length_b 13.158455
_cell_length_c 5.241072
_cell_angle_alpha 90.000000
_cell_angle_beta 90.000000
_cell_angle_gamma 90.000000
_cell_volume 939.355609
_symmetry_space_group_name_H-M "P B A N"
_symmetry_group_IT_number 50
_space_group.IT_coordinate_system_code '2'
_symmetry_cell_setting 'orthorhombic'
loop_
_space_group_symop_operation_xyz
x,y,z
1/2-x,1/2-y,z
x,1/2-y,-z
1/2-x,y,-z
-x,-y,-z
1/2+x,1/2+y,-z
-x,1/2+y,z
1/2+x,-y,z
loop_
_atom_site_type_symbol
_atom_site_label
_atom_site_fract_x
_atom_site_fract_y
_atom_site_fract_z
Si Si1 0.384816 0.513217 0.006861
Si Si2 0.353650 0.135534 0.604760
Si Si3 0.084215 0.871661 0.506148
O O1 0.350742 0.400555 0.098093
O O2 0.367855 0.583738 0.251850
O O3 0.500000 0.500000 0.000000
O O4 0.364890 0.574828 0.749613
O O5 0.352177 0.250000 0.500000
O O6 0.250000 0.093684 0.500000
O O7 0.465026 0.105065 0.516017
O O8 0.092919 0.750000 0.500000
#
# Coordination Sequence:
#
# PCOD9395887 Si02
#       3
#     8   8   8
#     4  10  19  35  56  82 114 153 198 243 294 357
#     4   9  18  33  54  84 121 157 193 242 305 365
#     4  10  20  36  58  83 113 152 201 251 296 351
#
# _framework density 25.549430999999998
#
# number of rings (size 3 to 8) (size 9 to 14) (size 15 to 20)
#    0.000    2.333    0.000    5.000    0.000    0.000 
#    0.000   20.000    0.000   45.000    0.000    9.333 
#    0.000    0.000    0.000    0.000    0.000    0.000 
#
# Total GULP energy -133649.149579 kJ/mol
# GULP energy per Si atom -5568.714566 kJ/mol
# Density = 2.549128 g / cm^3
# Si number density = 25.549431 Si / 1000 Ang^3
#
#
#
# Elastic Constant Matrix: (Units=GPa)
#
#
# Indices 1 2 3 4 5 6 
#
# 1 151.2926 44.3494 40.2360 0.0000 0.0000 0.0000
# 2 44.3494 194.5051 99.9930 0.0000 0.0000 0.0000
# 3 40.2360 99.9930 220.7714 0.0000 0.0000 0.0000
# 4 0.0000 0.0000 0.0000 30.4758 0.0000 0.0000
# 5 0.0000 0.0000 0.0000 0.0000 24.0650 0.0000
# 6 0.0000 0.0000 0.0000 0.0000 0.0000 13.4794
#
#
#
# Elastic Compliance Matrix: (Units=1/GPa)
#
#
# Indices 1 2 3 4 5 6 
#
# 1 0.007174 -0.001256 -0.000739 0.000000 0.000000 0.000000
# 2 -0.001256 0.006922 -0.002906 0.000000 0.000000 0.000000
# 3 -0.000739 -0.002906 0.005980 0.000000 0.000000 0.000000
# 4 0.000000 0.000000 0.000000 0.032813 0.000000 0.000000
# 5 0.000000 0.000000 0.000000 0.000000 0.041554 0.000000
# 6 0.000000 0.000000 0.000000 0.000000 0.000000 0.074187
#
#
# Mechanical properties :
#
#
# Convention : Reuss Voigt Hill
#
# Bulk Modulus (GPa) = 97.32525 103.96956 100.64741
# Shear Modulus (GPa) = 27.49406 39.07008 33.28207
#
# Velocity S-wave (km/s) = 3.28397 3.91474 3.61315
# Velocity P-wave (km/s) = 7.24948 7.82403 7.54222
#
# Compressibility (1/GPa) = 0.01027483
#
# Stress axis : x y z
#
# Youngs Moduli (GPa) = 139.38537 144.47448 167.21251
#
# Poissons Ratio (x) = 0.18148 0.12350
# Poissons Ratio (y) = 0.17509 0.48593
# Poissons Ratio (z) = 0.10295 0.41985
#
# Static dielectric constant tensor:
#      x y z
#    x 2.020800 0.000000 0.000000 
#    y 0.000000 2.102550 0.000000 
#    z 0.000000 0.000000 2.114030 
# 
# From -- ./inp_files/2695.got.cif
#   From: 2010.05.17/outbox.cif.g08.bks.cpg/sg50_2_cif.got.tgz:2695.got - 2010.06.03 11:33:33.
