data_PCOD9395853
_publ_section_title
;
Structure prediction by ZEFSAII (Michael W. Deem and Ramdas Pophale) SiO2 
 PCOD9395853
Probable space group: P B A N
;
_chemical_formula_sum "Si O2"
_cell_formula_units_Z 60
_cell_length_a 14.122186
_cell_length_b 14.016017
_cell_length_c 15.996598
_cell_angle_alpha 90.000000
_cell_angle_beta 90.000000
_cell_angle_gamma 90.000000
_cell_volume 3166.315404
_symmetry_space_group_name_H-M "P B A N"
_symmetry_group_IT_number 50
_space_group.IT_coordinate_system_code '2'
_symmetry_cell_setting 'orthorhombic'
loop_
_space_group_symop_operation_xyz
x,y,z
1/2-x,1/2-y,z
x,1/2-y,-z
1/2-x,y,-z
-x,-y,-z
1/2+x,1/2+y,-z
-x,1/2+y,z
1/2+x,-y,z
loop_
_atom_site_type_symbol
_atom_site_label
_atom_site_fract_x
_atom_site_fract_y
_atom_site_fract_z
Si Si1 0.544381 0.152009 0.449562
Si Si2 0.033153 0.853717 0.997057
Si Si3 0.750000 0.394492 0.000000
Si Si4 0.858652 0.533220 0.525647
Si Si5 0.805742 0.068839 0.821025
Si Si6 0.503911 0.999737 0.858308
Si Si7 0.357673 0.735762 0.292200
Si Si8 0.633464 0.455820 0.287420
O O1 0.566855 0.250000 0.500000
O O2 0.437591 0.117933 0.474751
O O3 0.572928 0.179158 0.354342
O O4 0.606943 0.058469 0.471711
O O5 0.990715 0.750000 0.000000
O O6 0.146748 0.848299 0.009942
O O7 0.989248 0.918861 0.069969
O O8 0.020796 0.903330 0.908264
O O9 0.752943 0.440972 0.907526
O O10 0.750000 0.557696 0.500000
O O11 0.867766 0.494511 0.620015
O O12 0.896664 0.004596 0.828742
O O13 0.840710 0.175686 0.793553
O O14 0.739698 0.038814 0.745861
O O15 0.569332 0.988385 0.778503
O O16 0.250000 0.750000 0.328223
O O17 0.393952 0.843608 0.281392
#
# Coordination Sequence:
#
# PCOD9395853 Si02
#       8
#     8   8   4   8   8   8   8   8
#     4  11  23  42  66  96 122 167 207 256 322 379
#     4  10  21  36  58  86 115 155 201 252 306 363
#     4  10  19  34  58  84 113 148 193 250 308 354
#     4  11  24  41  66  92 129 166 210 260 315 390
#     4  10  21  35  57  87 120 155 199 250 304 357
#     4  10  22  36  56  87 118 159 199 248 309 362
#     4  10  21  36  61  95 125 153 199 265 317 368
#     4  11  21  38  60  91 122 156 202 256 310 362
#
# _framework density 18.949470999999999
#
# number of rings (size 3 to 8) (size 9 to 14) (size 15 to 20)
#    0.000    1.600    2.667    2.600    3.733    3.467 
#    0.000    0.000    0.000    1.600    0.000    0.000 
#    0.000    0.000    0.000    0.000    0.000    0.000 
#
# Total GULP energy -334148.402567 kJ/mol
# GULP energy per Si atom -5569.140043 kJ/mol
# Density = 1.890634 g / cm^3
# Si number density = 18.949471 Si / 1000 Ang^3
#
#
#
# Elastic Constant Matrix: (Units=GPa)
#
#
# Indices 1 2 3 4 5 6 
#
# 1 58.2861 18.1933 17.7844 0.0000 0.0000 0.0000
# 2 18.1933 57.1897 15.0607 0.0000 0.0000 0.0000
# 3 17.7844 15.0607 87.1245 0.0000 0.0000 0.0000
# 4 0.0000 0.0000 0.0000 -7.4954 0.0000 0.0000
# 5 0.0000 0.0000 0.0000 0.0000 34.7830 0.0000
# 6 0.0000 0.0000 0.0000 0.0000 0.0000 58.4875
#
#
#
# Elastic Compliance Matrix: (Units=1/GPa)
#
#
# Indices 1 2 3 4 5 6 
#
# 1 0.019814 -0.005488 -0.003096 0.000000 0.000000 0.000000
# 2 -0.005488 0.019840 -0.002309 0.000000 0.000000 0.000000
# 3 -0.003096 -0.002309 0.012509 0.000000 0.000000 0.000000
# 4 0.000000 0.000000 0.000000 -0.133415 0.000000 0.000000
# 5 0.000000 0.000000 0.000000 0.000000 0.028750 0.000000
# 6 0.000000 0.000000 0.000000 0.000000 0.000000 0.017098
#
#
# Mechanical properties :
#
#
# Convention : Reuss Voigt Hill
#
# Bulk Modulus (GPa) = 32.92030 33.85303 33.38666
# Shear Modulus (GPa) = -1431.61701 27.25915 -702.17893
#
# Velocity S-wave (km/s) = -27.51603 3.79689 -19.27065
# Velocity P-wave (km/s) = 31.49760 6.09307 21.85147
#
# Compressibility (1/GPa) = 0.03037639
#
# Stress axis : x y z
#
# Youngs Moduli (GPa) = 50.46822 50.40398 79.94246
#
# Poissons Ratio (x) = 0.27662 0.24750
# Poissons Ratio (y) = 0.27698 0.18461
# Poissons Ratio (z) = 0.15625 0.11640
#
# Static dielectric constant tensor:
#      x y z
#    x 1.679200 0.000000 0.000000 
#    y 0.000000 1.701320 0.000000 
#    z 0.000000 0.000000 1.674980 
# 
# From -- ./inp_files/26599.got.cif
#   From: 2010.05.17/outbox.cif.g08.bks.cpg/sg50_14_cif.got.tgz:26599.got - 2010.06.03 11:33:33.
