data_PCOD9395817
_publ_section_title
;
Structure prediction by ZEFSAII (Michael W. Deem and Ramdas Pophale) SiO2 
 PCOD9395817
Probable space group: P B A N
;
_chemical_formula_sum "Si O2"
_cell_formula_units_Z 38
_cell_length_a 8.527474
_cell_length_b 15.090460
_cell_length_c 13.867366
_cell_angle_alpha 90.000000
_cell_angle_beta 90.000000
_cell_angle_gamma 90.000000
_cell_volume 1784.501266
_symmetry_space_group_name_H-M "P B A N"
_symmetry_group_IT_number 50
_space_group.IT_coordinate_system_code '2'
_symmetry_cell_setting 'orthorhombic'
loop_
_space_group_symop_operation_xyz
x,y,z
1/2-x,1/2-y,z
x,1/2-y,-z
1/2-x,y,-z
-x,-y,-z
1/2+x,1/2+y,-z
-x,1/2+y,z
1/2+x,-y,z
loop_
_atom_site_type_symbol
_atom_site_label
_atom_site_fract_x
_atom_site_fract_y
_atom_site_fract_z
Si Si1 0.942305 0.048798 0.808032
Si Si2 0.345533 0.589099 0.682167
Si Si3 0.242321 0.389333 0.855943
Si Si4 0.750000 0.523833 0.500000
Si Si5 0.250000 0.250000 0.000000
Si Si6 0.860524 0.668717 0.356360
O O1 0.819632 0.098406 0.737818
O O2 0.069398 0.106294 0.864852
O O3 0.836710 0.984139 0.873098
O O4 0.049979 0.980960 0.744619
O O5 0.318529 0.540145 0.581166
O O6 0.454081 0.675671 0.666591
O O7 0.167799 0.316982 0.925897
O O8 0.214161 0.363442 0.744656
O O9 0.852043 0.592212 0.436682
O O10 0.750000 0.750000 0.386072
#
# Coordination Sequence:
#
# PCOD9395817 Si02
#       6
#     8   8   8   4   2   8
#     4   9  18  39  62  90 121 162 206 252 303 365
#     4  10  19  33  63  91 121 167 211 249 290 369
#     4  10  21  39  66  89 119 162 204 261 310 375
#     4  12  19  34  64  96 123 168 222 238 285 370
#     4  12  24  40  68  92 120 158 210 256 336 374
#     4  11  22  37  57  91 133 165 202 252 321 354
#
# _framework density 21.294464999999999
#
# number of rings (size 3 to 8) (size 9 to 14) (size 15 to 20)
#    0.000    1.684    7.368    0.947    0.000    0.842 
#    0.000    1.053    0.000   11.368    0.000    0.000 
#    0.000    0.000    0.000    0.000    0.000    0.000 
#
# Total GULP energy -211544.313549 kJ/mol
# GULP energy per Si atom -5566.955620 kJ/mol
# Density = 2.124600 g / cm^3
# Si number density = 21.294465 Si / 1000 Ang^3
#
#
#
# Elastic Constant Matrix: (Units=GPa)
#
#
# Indices 1 2 3 4 5 6 
#
# 1 130.7915 36.0665 18.4044 0.0000 0.0000 0.0000
# 2 36.0665 62.7257 16.5652 0.0000 0.0000 0.0000
# 3 18.4044 16.5652 58.6039 0.0000 0.0000 0.0000
# 4 0.0000 0.0000 0.0000 4.2030 0.0000 0.0000
# 5 0.0000 0.0000 0.0000 0.0000 -1.4144 0.0000
# 6 0.0000 0.0000 0.0000 0.0000 0.0000 17.0206
#
#
#
# Elastic Compliance Matrix: (Units=1/GPa)
#
#
# Indices 1 2 3 4 5 6 
#
# 1 0.009208 -0.004896 -0.001508 0.000000 0.000000 0.000000
# 2 -0.004896 0.019832 -0.004068 0.000000 0.000000 0.000000
# 3 -0.001508 -0.004068 0.018687 0.000000 0.000000 0.000000
# 4 0.000000 0.000000 0.000000 0.237928 0.000000 0.000000
# 5 0.000000 0.000000 0.000000 0.000000 -0.707010 0.000000
# 6 0.000000 0.000000 0.000000 0.000000 0.000000 0.058752
#
#
# Mechanical properties :
#
#
# Convention : Reuss Voigt Hill
#
# Bulk Modulus (GPa) = 37.33729 43.79925 40.56827
# Shear Modulus (GPa) = -15.02719 16.03416 0.50348
#
# Velocity S-wave (km/s) = -2.65936 2.74701 0.48678
# Velocity P-wave (km/s) = 2.85347 5.53845 4.40549
#
# Compressibility (1/GPa) = 0.02678288
#
# Stress axis : x y z
#
# Youngs Moduli (GPa) = 108.59974 50.42321 53.51275
#
# Poissons Ratio (x) = 0.24689 0.08069
# Poissons Ratio (y) = 0.53174 0.21770
# Poissons Ratio (z) = 0.16374 0.20513
#
# Static dielectric constant tensor:
#      x y z
#    x 1.861030 0.000000 0.000000 
#    y 0.000000 1.845420 0.000000 
#    z 0.000000 0.000000 1.782690 
# 
# From -- ./inp_files/24599.got.cif
#   From: 2010.05.17/outbox.cif.g08.bks.cpg/sg50_13_cif.got.tgz:24599.got - 2010.06.03 11:33:33.
