data_PCOD9395683
_publ_section_title
;
Structure prediction by ZEFSAII (Michael W. Deem and Ramdas Pophale) SiO2 
 PCOD9395683
Probable space group: P B A N
;
_chemical_formula_sum "Si O2"
_cell_formula_units_Z 44
_cell_length_a 13.727524
_cell_length_b 34.677570
_cell_length_c 5.254974
_cell_angle_alpha 90.000000
_cell_angle_beta 90.000000
_cell_angle_gamma 90.000000
_cell_volume 2501.562975
_symmetry_space_group_name_H-M "P B A N"
_symmetry_group_IT_number 50
_space_group.IT_coordinate_system_code '2'
_symmetry_cell_setting 'orthorhombic'
loop_
_space_group_symop_operation_xyz
x,y,z
1/2-x,1/2-y,z
x,1/2-y,-z
1/2-x,y,-z
-x,-y,-z
1/2+x,1/2+y,-z
-x,1/2+y,z
1/2+x,-y,z
loop_
_atom_site_type_symbol
_atom_site_label
_atom_site_fract_x
_atom_site_fract_y
_atom_site_fract_z
Si Si1 0.102432 0.463336 0.637947
Si Si2 0.861802 0.732747 0.753586
Si Si3 0.851961 0.642220 0.845577
Si Si4 0.750000 0.909071 0.500000
Si Si5 0.186619 0.547391 0.743053
Si Si6 0.514949 0.572676 0.115009
O O1 0.199477 0.437944 0.696546
O O2 0.135158 0.507280 0.656702
O O3 0.067506 0.449492 0.356009
O O4 0.027245 0.452876 0.860228
O O5 0.750000 0.750000 0.752859
O O6 0.906374 0.750000 0.500000
O O7 0.864900 0.687002 0.785423
O O8 0.911313 0.750000 0.000000
O O9 0.832394 0.620228 0.583556
O O10 0.936738 0.614414 0.949614
O O11 0.750000 0.638964 0.000000
O O12 0.250000 0.559972 0.500000
O O13 0.097443 0.575547 0.809399
O O14 0.250000 0.541421 0.000000
#
# Coordination Sequence:
#
# PCOD9395683 Si02
#       6
#     8   8   8   4   8   8
#     4  11  21  36  54  77 107 137 184 233 278 324
#     4  10  19  30  48  72 106 141 172 189 248 321
#     4  11  20  33  52  77 112 145 171 217 261 320
#     4  10  20  30  51  72 108 142 178 212 267 320
#     4  12  24  39  58  74 105 145 189 239 285 315
#     4  11  24  37  55  82 107 139 191 228 276 329
#
# _framework density 17.589003999999999
#
# number of rings (size 3 to 8) (size 9 to 14) (size 15 to 20)
#    0.000    1.091    4.545    4.364    2.545    0.000 
#    0.000    0.000    0.000    0.000    0.000    0.000 
#    0.000    4.364    0.000    0.000    0.000    0.000 
#
# Total GULP energy -244991.780503 kJ/mol
# GULP energy per Si atom -5567.995011 kJ/mol
# Density = 1.754897 g / cm^3
# Si number density = 17.589004 Si / 1000 Ang^3
#
#
#
# Elastic Constant Matrix: (Units=GPa)
#
#
# Indices 1 2 3 4 5 6 
#
# 1 71.4766 37.3718 20.5028 0.0000 0.0000 0.0000
# 2 37.3718 116.1219 16.0466 0.0000 0.0000 0.0000
# 3 20.5028 16.0466 102.9419 0.0000 0.0000 0.0000
# 4 0.0000 0.0000 0.0000 17.0759 0.0000 0.0000
# 5 0.0000 0.0000 0.0000 0.0000 27.9109 0.0000
# 6 0.0000 0.0000 0.0000 0.0000 0.0000 12.0579
#
#
#
# Elastic Compliance Matrix: (Units=1/GPa)
#
#
# Indices 1 2 3 4 5 6 
#
# 1 0.017509 -0.005267 -0.002666 0.000000 0.000000 0.000000
# 2 -0.005267 0.010385 -0.000570 0.000000 0.000000 0.000000
# 3 -0.002666 -0.000570 0.010334 0.000000 0.000000 0.000000
# 4 0.000000 0.000000 0.000000 0.058562 0.000000 0.000000
# 5 0.000000 0.000000 0.000000 0.000000 0.035828 0.000000
# 6 0.000000 0.000000 0.000000 0.000000 0.000000 0.082933
#
#
# Mechanical properties :
#
#
# Convention : Reuss Voigt Hill
#
# Bulk Modulus (GPa) = 47.11882 48.70919 47.91400
# Shear Modulus (GPa) = 20.86532 25.85021 23.35777
#
# Velocity S-wave (km/s) = 3.44796 3.83780 3.64809
# Velocity P-wave (km/s) = 6.53439 6.88414 6.71154
#
# Compressibility (1/GPa) = 0.02122294
#
# Stress axis : x y z
#
# Youngs Moduli (GPa) = 57.11338 96.28957 96.76695
#
# Poissons Ratio (x) = 0.50711 0.25801
# Poissons Ratio (y) = 0.30079 0.05515
# Poissons Ratio (z) = 0.15228 0.05488
#
# Static dielectric constant tensor:
#      x y z
#    x 1.676900 0.000000 0.000000 
#    y 0.000000 1.619420 0.000000 
#    z 0.000000 0.000000 1.719680 
# 
# From -- ./inp_files/3664.got.cif
#   From: 2010.05.17/outbox.cif.g08.bks.cpg/sg50_2_cif.got.tgz:3664.got - 2010.06.03 11:33:33.
