data_PCOD9395839
_publ_section_title
;
Structure prediction by ZEFSAII (Michael W. Deem and Ramdas Pophale) SiO2 
 PCOD9395839
Probable space group: P B A N
;
_chemical_formula_sum "Si O2"
_cell_formula_units_Z 58
_cell_length_a 16.645999
_cell_length_b 17.148038
_cell_length_c 9.919279
_cell_angle_alpha 90.000000
_cell_angle_beta 90.000000
_cell_angle_gamma 90.000000
_cell_volume 2831.420729
_symmetry_space_group_name_H-M "P B A N"
_symmetry_group_IT_number 50
_space_group.IT_coordinate_system_code '2'
_symmetry_cell_setting 'orthorhombic'
loop_
_space_group_symop_operation_xyz
x,y,z
1/2-x,1/2-y,z
x,1/2-y,-z
1/2-x,y,-z
-x,-y,-z
1/2+x,1/2+y,-z
-x,1/2+y,z
1/2+x,-y,z
loop_
_atom_site_type_symbol
_atom_site_label
_atom_site_fract_x
_atom_site_fract_y
_atom_site_fract_z
Si Si1 0.998288 0.408838 0.270191
Si Si2 0.970062 0.587865 0.025180
Si Si3 0.158113 0.805320 0.245934
Si Si4 0.750000 0.250000 0.000000
Si Si5 0.918177 0.360951 0.734060
Si Si6 0.371015 0.451932 0.257796
Si Si7 0.432406 0.158828 0.532551
Si Si8 0.262627 0.937519 0.347298
O O1 0.923870 0.350064 0.267555
O O2 0.951115 0.492299 0.281062
O O3 0.053602 0.389717 0.396264
O O4 0.040455 0.387503 0.128658
O O5 0.037129 0.628478 0.121545
O O6 0.890320 0.586516 0.114456
O O7 0.000000 0.500000 0.000000
O O8 0.135338 0.716359 0.267978
O O9 0.220024 0.852533 0.337895
O O10 0.196015 0.804123 0.096218
O O11 0.854763 0.429456 0.699254
O O12 0.985301 0.348895 0.619817
O O13 0.369332 0.386434 0.372911
O O14 0.293142 0.506121 0.258161
O O15 0.417360 0.250000 0.500000
O O16 0.250000 0.964365 0.500000
#
# Coordination Sequence:
#
# PCOD9395839 Si02
#       8
#     8   8   8   2   8   8   8   8
#     4  10  19  34  56  82 116 158 200 249 295 367
#     4   9  20  37  56  78 115 160 207 253 294 359
#     4  11  21  32  50  81 124 155 196 234 296 377
#     4  12  20  32  42  72 124 176 184 232 286 372
#     4  11  20  36  56  85 123 163 197 247 308 366
#     4   9  21  39  55  82 120 159 205 251 303 368
#     4  11  21  36  62  90 121 155 201 261 311 363
#     4  11  23  36  57  84 118 163 198 245 305 377
#
# _framework density 20.484417000000001
#
# number of rings (size 3 to 8) (size 9 to 14) (size 15 to 20)
#    0.000    1.655    2.759    2.897    0.000    2.759 
#    0.000    0.000    0.000    0.414    0.000    0.000 
#    0.000    2.759    0.000    0.000    0.000    0.000 
#
# Total GULP energy -323348.869333 kJ/mol
# GULP energy per Si atom -5574.980506 kJ/mol
# Density = 2.043779 g / cm^3
# Si number density = 20.484417 Si / 1000 Ang^3
#
#
#
# Elastic Constant Matrix: (Units=GPa)
#
#
# Indices 1 2 3 4 5 6 
#
# 1 28.6384 19.4185 2.7026 0.0000 0.0000 0.0000
# 2 19.4185 73.4928 8.8466 0.0000 0.0000 0.0000
# 3 2.7026 8.8466 99.4319 0.0000 0.0000 0.0000
# 4 0.0000 0.0000 0.0000 21.9994 0.0000 0.0000
# 5 0.0000 0.0000 0.0000 0.0000 14.9760 0.0000
# 6 0.0000 0.0000 0.0000 0.0000 0.0000 5.6760
#
#
#
# Elastic Compliance Matrix: (Units=1/GPa)
#
#
# Indices 1 2 3 4 5 6 
#
# 1 0.042542 -0.011222 -0.000158 0.000000 0.000000 0.000000
# 2 -0.011222 0.016714 -0.001182 0.000000 0.000000 0.000000
# 3 -0.000158 -0.001182 0.010167 0.000000 0.000000 0.000000
# 4 0.000000 0.000000 0.000000 0.045456 0.000000 0.000000
# 5 0.000000 0.000000 0.000000 0.000000 0.066773 0.000000
# 6 0.000000 0.000000 0.000000 0.000000 0.000000 0.176181
#
#
# Mechanical properties :
#
#
# Convention : Reuss Voigt Hill
#
# Bulk Modulus (GPa) = 22.57358 29.27759 25.92559
# Shear Modulus (GPa) = 12.57157 19.90330 16.23744
#
# Velocity S-wave (km/s) = 2.48001 3.12048 2.81850
# Velocity P-wave (km/s) = 4.38685 5.22560 4.82448
#
# Compressibility (1/GPa) = 0.04429957
#
# Stress axis : x y z
#
# Youngs Moduli (GPa) = 23.50619 59.82984 98.36138
#
# Poissons Ratio (x) = 0.67139 0.01553
# Poissons Ratio (y) = 0.26378 0.11627
# Poissons Ratio (z) = 0.00371 0.07072
#
# Static dielectric constant tensor:
#      x y z
#    x 1.748340 0.000000 0.000000 
#    y 0.000000 1.796080 0.000000 
#    z 0.000000 0.000000 1.805370 
# 
# From -- ./inp_files/14483.got.cif
#   From: 2010.05.17/outbox.cif.g08.bks.cpg/sg50_8_cif.got.tgz:14483.got - 2010.06.03 11:33:33.
