data_PCOD9395830
_publ_section_title
;
Structure prediction by ZEFSAII (Michael W. Deem and Ramdas Pophale) SiO2 
 PCOD9395830
Probable space group: P B A N
;
_chemical_formula_sum "Si O2"
_cell_formula_units_Z 38
_cell_length_a 12.800916
_cell_length_b 4.963706
_cell_length_c 25.341717
_cell_angle_alpha 90.000000
_cell_angle_beta 90.000000
_cell_angle_gamma 90.000000
_cell_volume 1610.212281
_symmetry_space_group_name_H-M "P B A N"
_symmetry_group_IT_number 50
_space_group.IT_coordinate_system_code '2'
_symmetry_cell_setting 'orthorhombic'
loop_
_space_group_symop_operation_xyz
x,y,z
1/2-x,1/2-y,z
x,1/2-y,-z
1/2-x,y,-z
-x,-y,-z
1/2+x,1/2+y,-z
-x,1/2+y,z
1/2+x,-y,z
loop_
_atom_site_type_symbol
_atom_site_label
_atom_site_fract_x
_atom_site_fract_y
_atom_site_fract_z
Si Si1 0.817828 0.515994 0.171109
Si Si2 0.927511 0.806461 0.387412
Si Si3 0.750000 0.250000 0.000000
Si Si4 0.067726 0.492256 0.931995
Si Si5 0.078090 0.250000 0.500000
Si Si6 0.428662 0.245612 0.271761
O O1 0.750000 0.250000 0.180288
O O2 0.909346 0.459561 0.130038
O O3 0.857600 0.649906 0.224915
O O4 0.750000 0.750000 0.143805
O O5 0.868842 0.752819 0.442512
O O6 0.880119 0.735310 0.330537
O O7 0.030421 0.612421 0.388067
O O8 0.828461 0.421567 0.036827
O O9 0.028565 0.192710 0.943476
O O10 0.000000 0.500000 0.500000
O O11 0.530056 0.441011 0.267542
#
# Coordination Sequence:
#
# PCOD9395830 Si02
#       6
#     8   8   2   8   4   8
#     4  12  24  42  64  91 127 166 212 269 318 387
#     4   8  14  23  40  66 101 139 182 237 297 360
#     4  12  28  50  76 108 144 170 228 274 318 404
#     4  12  27  48  74 103 136 179 217 270 335 387
#     4   8  12  20  34  60  97 136 175 230 298 354
#     4  10  19  34  55  82 114 153 200 252 312 381
#
# _framework density 23.599371999999999
#
# number of rings (size 3 to 8) (size 9 to 14) (size 15 to 20)
#    0.000    1.684    1.053    4.421    0.000    0.842 
#    0.000    0.000    0.000    0.000    0.000    0.737 
#    0.000    1.684    0.000    0.000    0.000    0.000 
#
# Total GULP energy -212282.476215 kJ/mol
# GULP energy per Si atom -5586.380953 kJ/mol
# Density = 2.354566 g / cm^3
# Si number density = 23.599372 Si / 1000 Ang^3
#
#
#
# Elastic Constant Matrix: (Units=GPa)
#
#
# Indices 1 2 3 4 5 6 
#
# 1 71.4237 7.5077 27.4299 0.0000 0.0000 0.0000
# 2 7.5077 90.8280 -22.1603 0.0000 0.0000 0.0000
# 3 27.4299 -22.1603 161.6488 0.0000 0.0000 0.0000
# 4 0.0000 0.0000 0.0000 31.5130 0.0000 0.0000
# 5 0.0000 0.0000 0.0000 0.0000 -21.6844 0.0000
# 6 0.0000 0.0000 0.0000 0.0000 0.0000 19.3058
#
#
#
# Elastic Compliance Matrix: (Units=1/GPa)
#
#
# Indices 1 2 3 4 5 6 
#
# 1 0.015309 -0.001965 -0.002867 0.000000 0.000000 0.000000
# 2 -0.001965 0.011643 0.001930 0.000000 0.000000 0.000000
# 3 -0.002867 0.001930 0.006937 0.000000 0.000000 0.000000
# 4 0.000000 0.000000 0.000000 0.031733 0.000000 0.000000
# 5 0.000000 0.000000 0.000000 0.000000 -0.046116 0.000000
# 6 0.000000 0.000000 0.000000 0.000000 0.000000 0.051798
#
#
# Mechanical properties :
#
#
# Convention : Reuss Voigt Hill
#
# Bulk Modulus (GPa) = 35.60738 38.82836 37.21787
# Shear Modulus (GPa) = 57.82371 26.56844 42.19607
#
# Velocity S-wave (km/s) = 4.95534 3.35895 4.23308
# Velocity P-wave (km/s) = 6.91821 5.61536 6.30055
#
# Compressibility (1/GPa) = 0.02808406
#
# Stress axis : x y z
#
# Youngs Moduli (GPa) = 65.32290 85.88846 144.14879
#
# Poissons Ratio (x) = 0.16876 0.41328
# Poissons Ratio (y) = 0.12835 -0.27814
# Poissons Ratio (z) = 0.18728 -0.16573
#
# Static dielectric constant tensor:
#      x y z
#    x 1.895700 0.000000 0.000000 
#    y 0.000000 1.801090 0.000000 
#    z 0.000000 0.000000 1.980120 
# 
# From -- ./inp_files/32202.got.cif
#   From: 2010.05.17/outbox.cif.g08.bks.cpg/sg50_17_cif.got.tgz:32202.got - 2010.06.03 11:33:33.
