data_PCOD9395604
_publ_section_title
;
Structure prediction by ZEFSAII (Michael W. Deem and Ramdas Pophale) SiO2 
 PCOD9395604
Probable space group: P B A N
;
_chemical_formula_sum "Si O2"
_cell_formula_units_Z 44
_cell_length_a 8.826517
_cell_length_b 20.859983
_cell_length_c 12.352785
_cell_angle_alpha 90.000000
_cell_angle_beta 90.000000
_cell_angle_gamma 90.000000
_cell_volume 2274.407060
_symmetry_space_group_name_H-M "P B A N"
_symmetry_group_IT_number 50
_space_group.IT_coordinate_system_code '2'
_symmetry_cell_setting 'orthorhombic'
loop_
_space_group_symop_operation_xyz
x,y,z
1/2-x,1/2-y,z
x,1/2-y,-z
1/2-x,y,-z
-x,-y,-z
1/2+x,1/2+y,-z
-x,1/2+y,z
1/2+x,-y,z
loop_
_atom_site_type_symbol
_atom_site_label
_atom_site_fract_x
_atom_site_fract_y
_atom_site_fract_z
Si Si1 0.250000 0.020270 0.000000
Si Si2 0.582438 0.720675 0.388615
Si Si3 0.535712 0.074362 0.125455
Si Si4 0.479513 0.719186 0.148106
Si Si5 0.750000 0.750000 0.000000
Si Si6 0.034591 0.072566 0.624529
Si Si7 0.750000 0.475839 0.500000
Si Si8 0.250000 0.750000 0.000000
O O1 0.385685 0.061367 0.053004
O O2 0.166391 0.973418 0.085412
O O3 0.750000 0.750000 0.377509
O O4 0.516312 0.750000 0.500000
O O5 0.497323 0.732569 0.274894
O O6 0.592826 0.644117 0.397236
O O7 0.588594 0.148544 0.125219
O O8 0.488545 0.061731 0.248670
O O9 0.376007 0.771982 0.088590
O O10 0.638658 0.715371 0.084742
O O11 0.872885 0.064486 0.566029
O O12 0.152156 0.021392 0.578058
#
# Coordination Sequence:
#
# PCOD9395604 Si02
#       8
#     4   8   8   8   2   8   4   2
#     4  10  20  34  56  84 116 150 180 236 276 344
#     4  10  20  38  60  85 115 151 198 239 292 348
#     4  10  20  35  55  82 113 146 186 225 282 332
#     4  10  20  36  57  81 111 150 185 238 275 346
#     4  10  18  34  58  80 104 146 194 224 272 332
#     4  10  21  37  61  84 117 151 192 241 286 350
#     4  10  20  38  58  86 112 150 190 236 290 340
#     4  10  22  38  54  80 116 142 186 228 296 328
#
# _framework density 19.345700000000001
#
# number of rings (size 3 to 8) (size 9 to 14) (size 15 to 20)
#    0.000    2.000    0.909    3.273    0.000    0.000 
#    6.545    0.000   12.000    0.000    0.000    0.000 
#    0.000    0.000    0.000    0.000    0.000    0.000 
#
# Total GULP energy -244989.058314 kJ/mol
# GULP energy per Si atom -5567.933144 kJ/mol
# Density = 1.930167 g / cm^3
# Si number density = 19.345700 Si / 1000 Ang^3
#
#
#
# Elastic Constant Matrix: (Units=GPa)
#
#
# Indices 1 2 3 4 5 6 
#
# 1 87.0303 37.5136 21.0940 0.0000 0.0000 0.0000
# 2 37.5136 71.0503 48.7815 0.0000 0.0000 0.0000
# 3 21.0940 48.7815 135.8673 0.0000 0.0000 0.0000
# 4 0.0000 0.0000 0.0000 -54.8792 0.0000 0.0000
# 5 0.0000 0.0000 0.0000 0.0000 13.4709 0.0000
# 6 0.0000 0.0000 0.0000 0.0000 0.0000 25.3344
#
#
#
# Elastic Compliance Matrix: (Units=1/GPa)
#
#
# Indices 1 2 3 4 5 6 
#
# 1 0.014923 -0.008346 0.000680 0.000000 0.000000 0.000000
# 2 -0.008346 0.023346 -0.007087 0.000000 0.000000 0.000000
# 3 0.000680 -0.007087 0.009799 0.000000 0.000000 0.000000
# 4 0.000000 0.000000 0.000000 -0.018222 0.000000 0.000000
# 5 0.000000 0.000000 0.000000 0.000000 0.074234 0.000000
# 6 0.000000 0.000000 0.000000 0.000000 0.000000 0.039472
#
#
# Mechanical properties :
#
#
# Convention : Reuss Voigt Hill
#
# Bulk Modulus (GPa) = 53.87075 56.52515 55.19795
# Shear Modulus (GPa) = 27.89470 9.22247 18.55858
#
# Velocity S-wave (km/s) = 3.80136 2.18576 3.10064
# Velocity P-wave (km/s) = 6.86833 5.97092 6.43529
#
# Compressibility (1/GPa) = 0.01856295
#
# Stress axis : x y z
#
# Youngs Moduli (GPa) = 67.01130 42.83315 102.05169
#
# Poissons Ratio (x) = 0.35747 -0.06935
# Poissons Ratio (y) = 0.55925 0.72319
# Poissons Ratio (z) = -0.04554 0.30354
#
# Static dielectric constant tensor:
#      x y z
#    x 1.636010 0.000000 0.000000 
#    y 0.000000 1.744000 0.000000 
#    z 0.000000 0.000000 1.679060 
# 
# From -- ./inp_files/24946.got.cif
#   From: 2010.05.17/outbox.cif.g08.bks.cpg/sg50_13_cif.got.tgz:24946.got - 2010.06.03 11:33:33.
