data_PCOD9395057
_publ_section_title
;
Structure prediction by ZEFSAII (Michael W. Deem and Ramdas Pophale) SiO2 
 PCOD9395057
Probable space group: P C C M
;
_chemical_formula_sum "Si O2"
_cell_formula_units_Z 64
_cell_length_a 16.590570
_cell_length_b 11.830431
_cell_length_c 15.596860
_cell_angle_alpha 90.000000
_cell_angle_beta 90.000000
_cell_angle_gamma 90.000000
_cell_volume 3061.251762
_symmetry_space_group_name_H-M "P C C M"
_symmetry_group_IT_number 49
_symmetry_cell_setting 'orthorhombic'
loop_
_space_group_symop_operation_xyz
x,y,z
-x,-y,z
x,-y,1/2-z
-x,y,1/2-z
-x,-y,-z
x,y,-z
-x,y,1/2+z
x,-y,1/2+z
loop_
_atom_site_type_symbol
_atom_site_label
_atom_site_fract_x
_atom_site_fract_y
_atom_site_fract_z
Si Si1 0.244186 0.466828 0.903651
Si Si2 0.004997 0.630034 0.399952
Si Si3 0.827827 0.685907 0.351206
Si Si4 0.162202 0.756464 0.660291
Si Si5 0.677137 0.814258 0.406715
Si Si6 0.288560 0.920335 0.598864
Si Si7 0.412771 0.803043 0.271210
Si Si8 0.580682 0.445388 0.656215
O O1 0.200981 0.556251 0.842266
O O2 0.218768 0.341109 0.879253
O O3 0.339860 0.472828 0.896519
O O4 0.216229 0.491937 0.000000
O O5 0.026187 0.620531 0.500000
O O6 0.916984 0.682726 0.388673
O O7 0.000000 0.500000 0.365587
O O8 0.072454 0.711405 0.359458
O O9 0.827716 0.751081 0.261764
O O10 0.758322 0.741797 0.406764
O O11 0.200054 0.871543 0.623222
O O12 0.635675 0.800190 0.500000
O O13 0.627783 0.780929 0.321683
O O14 0.702933 0.944940 0.397870
O O15 0.306442 0.885251 0.500000
O O16 0.352038 0.872817 0.668564
O O17 0.500000 0.855850 0.250000
O O18 0.428016 0.686936 0.323111
O O19 0.500000 0.500000 0.619105
O O20 0.592602 0.500000 0.750000
#
# Coordination Sequence:
#
# PCOD9395057 Si02
#       8
#     8   8   8   8   8   8   8   8
#     4  12  23  37  61  91 126 175 223 268 334 400
#     4  11  23  39  62  97 137 174 217 270 327 398
#     4  12  24  40  65  97 132 176 220 275 331 400
#     4  12  23  40  67  96 133 173 222 275 334 393
#     4  11  25  46  70  97 131 175 228 280 331 394
#     4  11  25  46  71  97 129 174 230 281 331 394
#     4  12  24  43  71  99 130 174 218 277 336 397
#     4  11  22  39  60  90 133 168 213 264 332 395
#
# _framework density 20.906479000000001
#
# number of rings (size 3 to 8) (size 9 to 14) (size 15 to 20)
#    0.000    0.500    5.000    4.875    0.000    2.250 
#    0.000    1.875    0.000    4.125    0.000    0.000 
#    0.000    0.000    0.000    0.000    0.000    0.000 
#
# Total GULP energy -357756.008605 kJ/mol
# GULP energy per Si atom -5589.937634 kJ/mol
# Density = 2.085889 g / cm^3
# Si number density = 20.906479 Si / 1000 Ang^3
#
#
#
# Elastic Constant Matrix: (Units=GPa)
#
#
# Indices 1 2 3 4 5 6 
#
# 1 131.4822 5.5575 19.5455 0.0000 0.0000 0.0000
# 2 5.5575 45.8137 -2.5398 0.0000 0.0000 0.0000
# 3 19.5455 -2.5398 95.3821 0.0000 0.0000 0.0000
# 4 0.0000 0.0000 0.0000 -74.1785 0.0000 0.0000
# 5 0.0000 0.0000 0.0000 0.0000 -273.7850 0.0000
# 6 0.0000 0.0000 0.0000 0.0000 0.0000 -3.2369
#
#
#
# Elastic Compliance Matrix: (Units=1/GPa)
#
#
# Indices 1 2 3 4 5 6 
#
# 1 0.007895 -0.001049 -0.001646 0.000000 0.000000 0.000000
# 2 -0.001049 0.021999 0.000801 0.000000 0.000000 0.000000
# 3 -0.001646 0.000801 0.010843 0.000000 0.000000 0.000000
# 4 0.000000 0.000000 0.000000 -0.013481 0.000000 0.000000
# 5 0.000000 0.000000 0.000000 0.000000 -0.003653 0.000000
# 6 0.000000 0.000000 0.000000 0.000000 0.000000 -0.308934
#
#
# Mechanical properties :
#
#
# Convention : Reuss Voigt Hill
#
# Bulk Modulus (GPa) = 27.06453 35.31159 31.18806
# Shear Modulus (GPa) = -18.57170 -53.56576 -36.06873
#
# Velocity S-wave (km/s) = -2.98371 -5.06727 -4.15811
# Velocity P-wave (km/s) = 1.05053 4.16045 2.84656
#
# Compressibility (1/GPa) = 0.03694874
#
# Stress axis : x y z
#
# Youngs Moduli (GPa) = 126.66951 45.45630 92.22797
#
# Poissons Ratio (x) = 0.04768 0.15178
# Poissons Ratio (y) = 0.13286 -0.07385
# Poissons Ratio (z) = 0.20846 -0.03640
#
# Static dielectric constant tensor:
#      x y z
#    x 1.757130 0.000000 0.000000 
#    y 0.000000 1.762200 0.000000 
#    z 0.000000 0.000000 1.764960 
# 
# From -- ./inp_files/14217.got.cif
#   From: 2010.05.17/outbox.cif.g08.bks.cpg/sg49_8_cif.got.tgz:14217.got - 2010.06.03 21:02:19.
