data_PCOD9395246
_publ_section_title
;
Structure prediction by ZEFSAII (Michael W. Deem and Ramdas Pophale) SiO2 
 PCOD9395246
Probable space group: P C C M
;
_chemical_formula_sum "Si O2"
_cell_formula_units_Z 56
_cell_length_a 15.000000
_cell_length_b 12.000000
_cell_length_c 15.000000
_cell_angle_alpha 90.000000
_cell_angle_beta 90.000000
_cell_angle_gamma 90.000000
_cell_volume 2700.000000
_symmetry_space_group_name_H-M "P C C M"
_symmetry_group_IT_number 49
_symmetry_cell_setting 'orthorhombic'
loop_
_space_group_symop_operation_xyz
x,y,z
-x,-y,z
x,-y,1/2-z
-x,y,1/2-z
-x,-y,-z
x,y,-z
-x,y,1/2+z
x,-y,1/2+z
loop_
_atom_site_type_symbol
_atom_site_label
_atom_site_fract_x
_atom_site_fract_y
_atom_site_fract_z
Si Si1 0.332275 0.744832 0.343241
Si Si2 0.135842 0.831619 0.897222
Si Si3 0.508840 0.626139 0.603534
Si Si4 0.713703 0.340172 0.851686
Si Si5 0.797159 0.928698 0.107814
Si Si6 0.805102 0.567281 0.101077
Si Si7 0.945249 0.257476 0.391251
O O1 0.436428 0.711931 0.355098
O O2 0.302828 0.707017 0.245914
O O3 0.294691 0.869523 0.359842
O O4 0.271247 0.662547 0.402899
O O5 0.215949 0.743458 0.895860
O O6 0.044861 0.775365 0.859339
O O7 0.173950 0.948364 0.858760
O O8 0.112115 0.858258 0.000000
O O9 0.500000 0.500000 0.641496
O O10 0.482879 0.620619 0.500000
O O11 0.613756 0.654929 0.608433
O O12 0.760578 0.461174 0.851982
O O13 0.877629 0.843580 0.130163
O O14 0.789777 0.933883 0.000000
O O15 0.893451 0.629520 0.139013
O O16 0.825567 0.530063 0.000000
O O17 0.948027 0.267458 0.500000
#
# Coordination Sequence:
#
# PCOD9395246 Si02
#       7
#     8   8   8   8   8   8   8
#     4  11  22  37  58  84 117 156 195 243 300 354
#     4  10  20  36  58  86 119 155 198 250 296 343
#     4  11  22  38  63  88 112 149 198 247 292 352
#     4  12  24  35  54  88 126 155 190 240 301 363
#     4   9  18  36  62  86 112 153 207 253 291 344
#     4  10  19  35  57  84 117 154 198 241 286 347
#     4   8  16  32  59  88 112 148 201 249 286 334
#
# _framework density 20.740741
#
# number of rings (size 3 to 8) (size 9 to 14) (size 15 to 20)
#    0.000    1.857    1.429    4.714    0.000    3.429 
#    0.000    5.714    0.000   11.143    0.000    0.000 
#    0.000    0.000    0.000    0.000    0.000    0.000 
#
# Total GULP energy -312475.582933 kJ/mol
# GULP energy per Si atom -5579.921124 kJ/mol
# Density = 2.069353 g / cm^3
# Si number density = 20.740741 Si / 1000 Ang^3
#
#
#
# Elastic Constant Matrix: (Units=GPa)
#
#
# Indices 1 2 3 4 5 6 
#
# 1 176.9302 80.8141 3.9122 0.0000 0.0000 0.0000
# 2 80.8141 114.1188 5.8664 0.0000 0.0000 0.0000
# 3 3.9122 5.8664 52.1504 0.0000 0.0000 0.0000
# 4 0.0000 0.0000 0.0000 -37.6029 0.0000 0.0000
# 5 0.0000 0.0000 0.0000 0.0000 13.6782 0.0000
# 6 0.0000 0.0000 0.0000 0.0000 0.0000 36.8943
#
#
#
# Elastic Compliance Matrix: (Units=1/GPa)
#
#
# Indices 1 2 3 4 5 6 
#
# 1 0.008354 -0.005918 0.000039 0.000000 0.000000 0.000000
# 2 -0.005918 0.013006 -0.001019 0.000000 0.000000 0.000000
# 3 0.000039 -0.001019 0.019287 0.000000 0.000000 0.000000
# 4 0.000000 0.000000 0.000000 -0.026594 0.000000 0.000000
# 5 0.000000 0.000000 0.000000 0.000000 0.073109 0.000000
# 6 0.000000 0.000000 0.000000 0.000000 0.000000 0.027104
#
#
# Mechanical properties :
#
#
# Convention : Reuss Voigt Hill
#
# Bulk Modulus (GPa) = 37.24259 58.26500 47.75379
# Shear Modulus (GPa) = 36.49261 19.43436 27.96348
#
# Velocity S-wave (km/s) = 4.19915 3.06439 3.67582
# Velocity P-wave (km/s) = 6.44249 6.37759 6.41012
#
# Compressibility (1/GPa) = 0.02685098
#
# Stress axis : x y z
#
# Youngs Moduli (GPa) = 119.69983 76.88668 51.84833
#
# Poissons Ratio (x) = 0.45502 -0.00202
# Poissons Ratio (y) = 0.70840 0.05284
# Poissons Ratio (z) = -0.00467 0.07836
#
# Static dielectric constant tensor:
#      x y z
#    x 1.730920 0.000000 0.000000 
#    y 0.000000 1.745960 0.000000 
#    z 0.000000 0.000000 1.842180 
# 
# From -- ./inp_files/13583.got.cif
#   From: 2010.05.17/outbox.ucp.g08.bks.cvg/sg49_7_cif.got.tgz:13583.got - 2010.06.11 16:40:14.
