data_PCOD9395280
_publ_section_title
;
Structure prediction by ZEFSAII (Michael W. Deem and Ramdas Pophale) SiO2 
 PCOD9395280
Probable space group: P C C M
;
_chemical_formula_sum "Si O2"
_cell_formula_units_Z 48
_cell_length_a 18.000000
_cell_length_b 9.000000
_cell_length_c 15.000000
_cell_angle_alpha 90.000000
_cell_angle_beta 90.000000
_cell_angle_gamma 90.000000
_cell_volume 2430.000000
_symmetry_space_group_name_H-M "P C C M"
_symmetry_group_IT_number 49
_symmetry_cell_setting 'orthorhombic'
loop_
_space_group_symop_operation_xyz
x,y,z
-x,-y,z
x,-y,1/2-z
-x,y,1/2-z
-x,-y,-z
x,y,-z
-x,y,1/2+z
x,-y,1/2+z
loop_
_atom_site_type_symbol
_atom_site_label
_atom_site_fract_x
_atom_site_fract_y
_atom_site_fract_z
Si Si1 0.854757 0.832178 0.220168
Si Si2 0.336177 0.180166 0.403102
Si Si3 0.410698 0.326721 0.762076
Si Si4 0.177866 0.675102 0.095623
Si Si5 0.923870 0.434897 0.350404
Si Si6 0.702315 0.169688 0.394519
O O1 0.850835 0.753113 0.316012
O O2 0.914789 0.741532 0.161175
O O3 0.776535 0.813455 0.166646
O O4 0.869207 0.000000 0.250000
O O5 0.373433 0.195625 0.500000
O O6 0.383476 0.228087 0.320065
O O7 0.264990 0.289548 0.402996
O O8 0.312321 0.008474 0.393366
O O9 0.388531 0.500000 0.750000
O O10 0.500000 0.322166 0.750000
O O11 0.366570 0.258059 0.847758
O O12 0.148146 0.507227 0.103218
O O13 0.150620 0.735671 0.000000
O O14 0.923032 0.500000 0.250000
O O15 0.000000 0.500000 0.390796
O O16 0.711630 0.210462 0.500000
#
# Coordination Sequence:
#
# PCOD9395280 Si02
#       6
#     8   8   8   8   8   8
#     4  11  20  37  65  92 124 163 208 260 309 365
#     4  10  21  39  63  91 123 160 209 256 305 362
#     4  11  25  42  62  91 127 165 205 251 310 372
#     4  10  20  36  61  90 122 161 203 254 304 362
#     4   9  21  39  58  87 125 164 208 249 305 373
#     4  11  23  40  64  95 124 160 211 261 309 367
#
# _framework density 19.753086
#
# number of rings (size 3 to 8) (size 9 to 14) (size 15 to 20)
#    0.000    1.667    3.333    0.500    2.333    3.667 
#    0.000   10.000    0.000    1.000    0.000    0.000 
#    0.000    0.000    0.000    0.000    0.000    0.000 
#
# Total GULP energy -267286.866918 kJ/mol
# GULP energy per Si atom -5568.476394 kJ/mol
# Density = 1.970813 g / cm^3
# Si number density = 19.753086 Si / 1000 Ang^3
#
#
#
# Elastic Constant Matrix: (Units=GPa)
#
#
# Indices 1 2 3 4 5 6 
#
# 1 66.1615 50.2876 25.4496 0.0000 0.0000 0.0000
# 2 50.2876 103.1220 43.6388 0.0000 0.0000 0.0000
# 3 25.4496 43.6388 130.6270 0.0000 0.0000 0.0000
# 4 0.0000 0.0000 0.0000 15.9899 0.0000 0.0000
# 5 0.0000 0.0000 0.0000 0.0000 172.5890 0.0000
# 6 0.0000 0.0000 0.0000 0.0000 0.0000 22.4346
#
#
#
# Elastic Compliance Matrix: (Units=1/GPa)
#
#
# Indices 1 2 3 4 5 6 
#
# 1 0.024106 -0.011376 -0.000896 0.000000 0.000000 0.000000
# 2 -0.011376 0.016662 -0.003350 0.000000 0.000000 0.000000
# 3 -0.000896 -0.003350 0.008949 0.000000 0.000000 0.000000
# 4 0.000000 0.000000 0.000000 0.062539 0.000000 0.000000
# 5 0.000000 0.000000 0.000000 0.000000 0.005794 0.000000
# 6 0.000000 0.000000 0.000000 0.000000 0.000000 0.044574
#
#
# Mechanical properties :
#
#
# Convention : Reuss Voigt Hill
#
# Bulk Modulus (GPa) = 54.13293 59.85139 56.99216
# Shear Modulus (GPa) = 24.99663 54.23835 39.61749
#
# Velocity S-wave (km/s) = 3.56118 5.24574 4.48329
# Velocity P-wave (km/s) = 6.66135 8.18877 7.46423
#
# Compressibility (1/GPa) = 0.01847304
#
# Stress axis : x y z
#
# Youngs Moduli (GPa) = 41.48375 60.01507 111.74271
#
# Poissons Ratio (x) = 0.68273 0.10013
# Poissons Ratio (y) = 0.47192 0.37435
# Poissons Ratio (z) = 0.03717 0.20106
#
# Static dielectric constant tensor:
#      x y z
#    x 1.752490 0.000000 0.000000 
#    y 0.000000 1.730490 0.000000 
#    z 0.000000 0.000000 1.720310 
# 
# From -- ./inp_files/11840.got.cif
#   From: 2010.05.17/outbox.ucp.g08.bks.cvg/sg49_6_cif.got.tgz:11840.got - 2010.06.11 16:40:14.
