data_PCOD9395156
_publ_section_title
;
Structure prediction by ZEFSAII (Michael W. Deem and Ramdas Pophale) SiO2 
 PCOD9395156
Probable space group: P C C M
;
_chemical_formula_sum "Si O2"
_cell_formula_units_Z 26
_cell_length_a 5.429599
_cell_length_b 13.922621
_cell_length_c 17.698411
_cell_angle_alpha 90.000000
_cell_angle_beta 90.000000
_cell_angle_gamma 90.000000
_cell_volume 1337.898089
_symmetry_space_group_name_H-M "P C C M"
_symmetry_group_IT_number 49
_symmetry_cell_setting 'orthorhombic'
loop_
_space_group_symop_operation_xyz
x,y,z
-x,-y,z
x,-y,1/2-z
-x,y,1/2-z
-x,-y,-z
x,y,-z
-x,y,1/2+z
x,-y,1/2+z
loop_
_atom_site_type_symbol
_atom_site_label
_atom_site_fract_x
_atom_site_fract_y
_atom_site_fract_z
Si Si1 0.393869 0.602987 0.333514
Si Si2 0.000000 0.500000 0.750000
Si Si3 0.996545 0.884695 0.338695
Si Si4 0.494639 0.200308 0.910466
O O1 0.500000 0.500000 0.358268
O O2 0.500000 0.626236 0.250000
O O3 0.457886 0.688073 0.388714
O O4 0.120110 0.574715 0.309422
O O5 0.248396 0.848441 0.376905
O O6 0.000000 0.858771 0.250000
O O7 0.747183 0.841280 0.374814
O O8 0.000000 0.000000 0.345097
O O9 0.504138 0.186781 0.000000
#
# Coordination Sequence:
#
# PCOD9395156 Si02
#       4
#     8   2   8   8
#     4   9  20  37  62  92 124 170 219 265 311 376
#     4   8  18  36  62  90 122 172 228 268 306 368
#     4  11  25  46  70  94 124 171 226 269 313 383
#     4  12  26  41  65 101 136 170 206 266 338 386
#
# _framework density 19.43347
#
# number of rings (size 3 to 8) (size 9 to 14) (size 15 to 20)
#    0.000    1.846    0.000    4.615   10.769    6.769 
#    0.000    0.769    0.000    0.000    0.000    0.000 
#    0.000    0.000    0.000    0.000    0.000    0.000 
#
# Total GULP energy -144890.600960 kJ/mol
# GULP energy per Si atom -5572.715422 kJ/mol
# Density = 1.938924 g / cm^3
# Si number density = 19.433470 Si / 1000 Ang^3
#
#
#
# Elastic Constant Matrix: (Units=GPa)
#
#
# Indices 1 2 3 4 5 6 
#
# 1 160.8934 67.5917 92.8620 0.0000 0.0000 0.0000
# 2 67.5917 94.7887 80.5707 0.0000 0.0000 0.0000
# 3 92.8620 80.5707 169.8008 0.0000 0.0000 0.0000
# 4 0.0000 0.0000 0.0000 65.2808 0.0000 0.0000
# 5 0.0000 0.0000 0.0000 0.0000 31.9935 0.0000
# 6 0.0000 0.0000 0.0000 0.0000 0.0000 77.2753
#
#
#
# Elastic Compliance Matrix: (Units=1/GPa)
#
#
# Indices 1 2 3 4 5 6 
#
# 1 0.009968 -0.004147 -0.003484 0.000000 0.000000 0.000000
# 2 -0.004147 0.019406 -0.006940 0.000000 0.000000 0.000000
# 3 -0.003484 -0.006940 0.011088 0.000000 0.000000 0.000000
# 4 0.000000 0.000000 0.000000 0.015318 0.000000 0.000000
# 5 0.000000 0.000000 0.000000 0.000000 0.031256 0.000000
# 6 0.000000 0.000000 0.000000 0.000000 0.000000 0.012941
#
#
# Mechanical properties :
#
#
# Convention : Reuss Voigt Hill
#
# Bulk Modulus (GPa) = 88.33923 100.83685 94.58804
# Shear Modulus (GPa) = 37.62431 47.20714 42.41573
#
# Velocity S-wave (km/s) = 4.40484 4.93400 4.67691
# Velocity P-wave (km/s) = 8.45140 9.19022 8.82854
#
# Compressibility (1/GPa) = 0.01132000
#
# Stress axis : x y z
#
# Youngs Moduli (GPa) = 100.32017 51.53002 90.18995
#
# Poissons Ratio (x) = 0.21369 0.31420
# Poissons Ratio (y) = 0.41601 0.62595
# Poissons Ratio (z) = 0.34949 0.35764
#
# Static dielectric constant tensor:
#      x y z
#    x 2.023040 0.000000 0.000000 
#    y 0.000000 1.671990 0.000000 
#    z 0.000000 0.000000 1.633290 
# 
# From -- ./inp_files/15041.got.cif
#   From: 2010.05.17/outbox.cif.g08.bks.cpg/sg49_8_cif.got.tgz:15041.got - 2010.06.03 21:02:19.
