data_PCOD9395716
_publ_section_title
;
Structure prediction by ZEFSAII (Michael W. Deem and Ramdas Pophale) SiO2 
 PCOD9395716
Probable space group: P B A N
;
_chemical_formula_sum "Si O2"
_cell_formula_units_Z 56
_cell_length_a 5.223320
_cell_length_b 17.713870
_cell_length_c 30.890081
_cell_angle_alpha 90.000000
_cell_angle_beta 90.000000
_cell_angle_gamma 90.000000
_cell_volume 2858.111276
_symmetry_space_group_name_H-M "P B A N"
_symmetry_group_IT_number 50
_space_group.IT_coordinate_system_code '2'
_symmetry_cell_setting 'orthorhombic'
loop_
_space_group_symop_operation_xyz
x,y,z
1/2-x,1/2-y,z
x,1/2-y,-z
1/2-x,y,-z
-x,-y,-z
1/2+x,1/2+y,-z
-x,1/2+y,z
1/2+x,-y,z
loop_
_atom_site_type_symbol
_atom_site_label
_atom_site_fract_x
_atom_site_fract_y
_atom_site_fract_z
Si Si1 0.505250 0.798420 0.298030
Si Si2 0.885804 0.446008 0.861472
Si Si3 0.911684 0.542196 0.443508
Si Si4 0.499987 0.216314 0.548548
Si Si5 0.997038 0.700054 0.195432
Si Si6 0.270436 0.549981 0.047279
Si Si7 0.082073 0.458332 0.660913
O O1 0.750000 0.750000 0.311713
O O2 0.534211 0.815230 0.246746
O O3 0.502627 0.876455 0.323293
O O4 0.250000 0.750000 0.304334
O O5 0.628566 0.497073 0.856911
O O6 0.949771 0.377945 0.829297
O O7 0.827106 0.409802 0.909239
O O8 0.628750 0.517256 0.457413
O O9 0.987712 0.626878 0.455661
O O10 0.912643 0.541374 0.391207
O O11 0.250000 0.250000 0.570858
O O12 0.500564 0.250000 0.500000
O O13 0.750000 0.250000 0.570756
O O14 0.250000 0.750000 0.189973
O O15 0.750000 0.750000 0.181479
O O16 0.563011 0.519624 0.048400
O O17 0.250000 0.587359 0.000000
O O18 0.363709 0.483102 0.675803
#
# Coordination Sequence:
#
# PCOD9395716 Si02
#       7
#     8   8   8   8   8   8   8
#     4  10  21  36  54  77 105 141 179 212 257 316
#     4  10  19  31  51  77  98 128 177 218 253 305
#     4  10  21  38  58  81 110 143 175 214 267 320
#     4  10  21  38  56  81 110 138 178 221 258 305
#     4  10  21  36  51  72 107 143 172 210 265 319
#     4   8  14  25  42  67  96 121 154 206 256 295
#     4  10  21  36  56  82 109 137 174 220 268 310
#
# _framework density 19.593357000000001
#
# number of rings (size 3 to 8) (size 9 to 14) (size 15 to 20)
#    0.000    2.286    0.000    2.571    0.000    2.286 
#    0.000    8.571    0.000    0.429    0.000    1.000 
#    0.000    0.000    0.000    0.000    0.000    0.000 
#
# Total GULP energy -312229.397914 kJ/mol
# GULP energy per Si atom -5575.524963 kJ/mol
# Density = 1.954876 g / cm^3
# Si number density = 19.593357 Si / 1000 Ang^3
#
#
#
# Elastic Constant Matrix: (Units=GPa)
#
#
# Indices 1 2 3 4 5 6 
#
# 1 137.6418 28.1113 21.2863 0.0000 0.0000 0.0000
# 2 28.1113 72.2683 10.9861 0.0000 0.0000 0.0000
# 3 21.2863 10.9861 36.6717 0.0000 0.0000 0.0000
# 4 0.0000 0.0000 0.0000 -202.8330 0.0000 0.0000
# 5 0.0000 0.0000 0.0000 0.0000 23.6281 0.0000
# 6 0.0000 0.0000 0.0000 0.0000 0.0000 25.3238
#
#
#
# Elastic Compliance Matrix: (Units=1/GPa)
#
#
# Indices 1 2 3 4 5 6 
#
# 1 0.008443 -0.002660 -0.004104 0.000000 0.000000 0.000000
# 2 -0.002660 0.015336 -0.003050 0.000000 0.000000 0.000000
# 3 -0.004104 -0.003050 0.030565 0.000000 0.000000 0.000000
# 4 0.000000 0.000000 0.000000 -0.004930 0.000000 0.000000
# 5 0.000000 0.000000 0.000000 0.000000 0.042322 0.000000
# 6 0.000000 0.000000 0.000000 0.000000 0.000000 0.039489
#
#
# Mechanical properties :
#
#
# Convention : Reuss Voigt Hill
#
# Bulk Modulus (GPa) = 28.80587 40.81659 34.81123
# Shear Modulus (GPa) = 30.78336 -18.36301 6.21018
#
# Velocity S-wave (km/s) = 3.96803 -3.06470 1.78225
# Velocity P-wave (km/s) = 5.97724 2.89031 4.69475
#
# Compressibility (1/GPa) = 0.03471514
#
# Stress axis : x y z
#
# Youngs Moduli (GPa) = 118.43766 65.20668 32.71731
#
# Poissons Ratio (x) = 0.17348 0.13427
# Poissons Ratio (y) = 0.31510 0.09979
# Poissons Ratio (z) = 0.48606 0.19888
#
# Static dielectric constant tensor:
#      x y z
#    x 1.699390 0.000000 0.000000 
#    y 0.000000 1.643620 0.000000 
#    z 0.000000 0.000000 1.735180 
# 
# From -- ./inp_files/32381.got.cif
#   From: 2010.05.17/outbox.cif.g08.bks.cpg/sg50_17_cif.got.tgz:32381.got - 2010.06.03 11:33:33.
