data_PCOD9395483
_publ_section_title
;
Structure prediction by ZEFSAII (Michael W. Deem and Ramdas Pophale) SiO2 
 PCOD9395483
Probable space group: P B A N
;
_chemical_formula_sum "Si O2"
_cell_formula_units_Z 56
_cell_length_a 14.931424
_cell_length_b 20.638759
_cell_length_c 7.394072
_cell_angle_alpha 90.000000
_cell_angle_beta 90.000000
_cell_angle_gamma 90.000000
_cell_volume 2278.602046
_symmetry_space_group_name_H-M "P B A N"
_symmetry_group_IT_number 50
_space_group.IT_coordinate_system_code '2'
_symmetry_cell_setting 'orthorhombic'
loop_
_space_group_symop_operation_xyz
x,y,z
1/2-x,1/2-y,z
x,1/2-y,-z
1/2-x,y,-z
-x,-y,-z
1/2+x,1/2+y,-z
-x,1/2+y,z
1/2+x,-y,z
loop_
_atom_site_type_symbol
_atom_site_label
_atom_site_fract_x
_atom_site_fract_y
_atom_site_fract_z
Si Si1 0.654996 0.772035 0.213602
Si Si2 0.640043 0.117019 0.828317
Si Si3 0.314083 0.077287 0.771083
Si Si4 0.664883 0.150964 0.256830
Si Si5 0.962941 0.263353 0.783869
Si Si6 0.556992 0.465172 0.650383
Si Si7 0.373083 0.462694 0.825156
O O1 0.750000 0.750000 0.288978
O O2 0.655020 0.849012 0.243443
O O3 0.561070 0.744642 0.285884
O O4 0.656081 0.750000 0.000000
O O5 0.728909 0.145012 0.732806
O O6 0.557857 0.160786 0.762745
O O7 0.634261 0.040286 0.804522
O O8 0.648170 0.129549 0.045609
O O9 0.209020 0.070375 0.716395
O O10 0.368977 0.019801 0.681987
O O11 0.341296 0.059451 0.977904
O O12 0.618322 0.219703 0.286215
O O13 0.612779 0.099534 0.378912
O O14 0.963962 0.250000 0.000000
O O15 0.500000 0.500000 0.500000
O O16 0.477516 0.447113 0.793334
#
# Coordination Sequence:
#
# PCOD9395483 Si02
#       7
#     8   8   8   8   8   8   8
#     4  10  20  33  54  94 131 151 204 263 329 377
#     4  10  17  35  57  93 118 154 202 272 318 377
#     4  11  22  40  63  97 123 166 211 269 330 375
#     4  10  19  35  56  86 128 155 211 249 329 370
#     4   9  19  28  54  87 124 161 190 258 322 375
#     4  12  26  39  59  92 129 176 212 258 316 391
#     4  11  21  36  66  87 123 155 211 266 322 368
#
# _framework density 24.576471000000002
#
# number of rings (size 3 to 8) (size 9 to 14) (size 15 to 20)
#    0.000    1.571    2.857    4.286    8.000    2.286 
#    0.000    0.000    0.000    3.429    0.000    4.000 
#    0.000    0.000    0.000    0.000    0.000    0.000 
#
# Total GULP energy -312775.073858 kJ/mol
# GULP energy per Si atom -5585.269176 kJ/mol
# Density = 2.452053 g / cm^3
# Si number density = 24.576471 Si / 1000 Ang^3
#
#
#
# Elastic Constant Matrix: (Units=GPa)
#
#
# Indices 1 2 3 4 5 6 
#
# 1 154.1519 29.7576 -4.1562 0.0000 0.0000 0.0000
# 2 29.7576 70.6878 -9.8563 0.0000 0.0000 0.0000
# 3 -4.1562 -9.8563 36.3710 0.0000 0.0000 0.0000
# 4 0.0000 0.0000 0.0000 7.0162 0.0000 0.0000
# 5 0.0000 0.0000 0.0000 0.0000 88.2773 0.0000
# 6 0.0000 0.0000 0.0000 0.0000 0.0000 55.4356
#
#
#
# Elastic Compliance Matrix: (Units=1/GPa)
#
#
# Indices 1 2 3 4 5 6 
#
# 1 0.007061 -0.002972 0.000001 0.000000 0.000000 0.000000
# 2 -0.002972 0.015953 0.003984 0.000000 0.000000 0.000000
# 3 0.000001 0.003984 0.028574 0.000000 0.000000 0.000000
# 4 0.000000 0.000000 0.000000 0.142526 0.000000 0.000000
# 5 0.000000 0.000000 0.000000 0.000000 0.011328 0.000000
# 6 0.000000 0.000000 0.000000 0.000000 0.000000 0.018039
#
#
# Mechanical properties :
#
#
# Convention : Reuss Voigt Hill
#
# Bulk Modulus (GPa) = 18.65186 32.52232 25.58709
# Shear Modulus (GPa) = 20.89188 46.51021 33.70104
#
# Velocity S-wave (km/s) = 2.91877 4.35497 3.70709
# Velocity P-wave (km/s) = 4.35485 6.20883 5.36257
#
# Compressibility (1/GPa) = 0.05361397
#
# Stress axis : x y z
#
# Youngs Moduli (GPa) = 141.62481 62.68254 34.99671
#
# Poissons Ratio (x) = 0.18631 -0.00005
# Poissons Ratio (y) = 0.42094 -0.13941
# Poissons Ratio (z) = -0.00020 -0.24970
#
# Static dielectric constant tensor:
#      x y z
#    x 2.051100 0.000000 0.000000 
#    y 0.000000 1.852690 0.000000 
#    z 0.000000 0.000000 2.100500 
# 
# From -- ./inp_files/13262.got.cif
#   From: 2010.05.17/outbox.cif.g08.bks.cpg/sg50_7_cif.got.tgz:13262.got - 2010.06.03 11:33:33.
