data_PCOD9395899
_publ_section_title
;
Structure prediction by ZEFSAII (Michael W. Deem and Ramdas Pophale) SiO2 
 PCOD9395899
Probable space group: P B A N
;
_chemical_formula_sum "Si O2"
_cell_formula_units_Z 64
_cell_length_a 21.083887
_cell_length_b 13.340872
_cell_length_c 9.286398
_cell_angle_alpha 90.000000
_cell_angle_beta 90.000000
_cell_angle_gamma 90.000000
_cell_volume 2612.054235
_symmetry_space_group_name_H-M "P B A N"
_symmetry_group_IT_number 50
_space_group.IT_coordinate_system_code '2'
_symmetry_cell_setting 'orthorhombic'
loop_
_space_group_symop_operation_xyz
x,y,z
1/2-x,1/2-y,z
x,1/2-y,-z
1/2-x,y,-z
-x,-y,-z
1/2+x,1/2+y,-z
-x,1/2+y,z
1/2+x,-y,z
loop_
_atom_site_type_symbol
_atom_site_label
_atom_site_fract_x
_atom_site_fract_y
_atom_site_fract_z
Si Si1 0.715527 0.645429 0.201906
Si Si2 0.314845 0.603946 0.429302
Si Si3 0.473165 0.087805 0.277490
Si Si4 0.947364 0.363502 0.526122
Si Si5 0.449754 0.177406 0.731283
Si Si6 0.900716 0.932035 0.012816
Si Si7 0.296066 0.557307 0.121244
Si Si8 0.857457 0.891011 0.486266
O O1 0.750000 0.750000 0.169401
O O2 0.653016 0.628800 0.103865
O O3 0.759179 0.547124 0.169280
O O4 0.691646 0.650176 0.367861
O O5 0.250000 0.634300 0.500000
O O6 0.372423 0.640806 0.528247
O O7 0.310957 0.624437 0.259957
O O8 0.323858 0.483973 0.438807
O O9 0.534821 0.078609 0.378585
O O10 0.468111 0.207546 0.243810
O O11 0.455987 0.040939 0.125110
O O12 0.415459 0.066658 0.388430
O O13 0.970261 0.250000 0.500000
O O14 0.990347 0.384704 0.665102
O O15 0.393352 0.171129 0.611124
O O16 0.425462 0.130013 0.877868
O O17 0.862255 0.025962 0.950484
O O18 0.250000 0.602332 0.000000
#
# Coordination Sequence:
#
# PCOD9395899 Si02
#       8
#     8   8   8   8   8   8   8   8
#     4  10  22  34  50  81 130 175 210 230 263 334
#     4  12  23  41  63  84 114 156 194 249 315 365
#     4   9  20  35  57  83 122 158 197 244 286 338
#     4   9  22  44  65  87 109 138 196 264 316 360
#     4  10  19  35  58  87 118 157 200 255 285 337
#     4  10  20  33  55  83 122 168 203 227 282 335
#     4  10  22  37  51  81 130 166 196 235 275 347
#     4  10  20  35  52  82 120 157 202 237 286 345
#
# _framework density 24.501788999999999
#
# number of rings (size 3 to 8) (size 9 to 14) (size 15 to 20)
#    0.000    2.000    2.500    1.500    5.250    5.000 
#    0.000    3.125    0.000    0.000    0.000    0.875 
#    0.000    0.000    0.000    0.000    0.000    0.000 
#
# Total GULP energy -357879.757246 kJ/mol
# GULP energy per Si atom -5591.871207 kJ/mol
# Density = 2.444602 g / cm^3
# Si number density = 24.501789 Si / 1000 Ang^3
#
#
#
# Elastic Constant Matrix: (Units=GPa)
#
#
# Indices 1 2 3 4 5 6 
#
# 1 92.6067 7.6109 44.5756 0.0000 0.0000 0.0000
# 2 7.6109 26.4348 3.4012 0.0000 0.0000 0.0000
# 3 44.5756 3.4012 173.9536 0.0000 0.0000 0.0000
# 4 0.0000 0.0000 0.0000 10.1683 0.0000 0.0000
# 5 0.0000 0.0000 0.0000 0.0000 30.3537 0.0000
# 6 0.0000 0.0000 0.0000 0.0000 0.0000 13.7793
#
#
#
# Elastic Compliance Matrix: (Units=1/GPa)
#
#
# Indices 1 2 3 4 5 6 
#
# 1 0.012585 -0.003216 -0.003162 0.000000 0.000000 0.000000
# 2 -0.003216 0.038746 0.000067 0.000000 0.000000 0.000000
# 3 -0.003162 0.000067 0.006558 0.000000 0.000000 0.000000
# 4 0.000000 0.000000 0.000000 0.098345 0.000000 0.000000
# 5 0.000000 0.000000 0.000000 0.000000 0.032945 0.000000
# 6 0.000000 0.000000 0.000000 0.000000 0.000000 0.072573
#
#
# Mechanical properties :
#
#
# Convention : Reuss Voigt Hill
#
# Bulk Modulus (GPa) = 22.09204 44.90783 33.49993
# Shear Modulus (GPa) = 17.27337 26.68743 21.98040
#
# Velocity S-wave (km/s) = 2.65803 3.30389 2.99840
# Velocity P-wave (km/s) = 4.29608 5.73781 5.06847
#
# Compressibility (1/GPa) = 0.04526518
#
# Stress axis : x y z
#
# Youngs Moduli (GPa) = 79.46177 25.80883 152.49486
#
# Poissons Ratio (x) = 0.08301 0.48218
# Poissons Ratio (y) = 0.25559 -0.01016
# Poissons Ratio (z) = 0.25125 -0.00172
#
# Static dielectric constant tensor:
#      x y z
#    x 1.959770 0.000000 0.000000 
#    y 0.000000 2.066740 0.000000 
#    z 0.000000 0.000000 1.961860 
# 
# From -- ./inp_files/15501.got.cif
#   From: 2010.05.17/outbox.cif.g08.bks.cpg/sg50_8_cif.got.tgz:15501.got - 2010.06.03 11:33:33.
