data_PCOD9395415
_publ_section_title
;
Structure prediction by ZEFSAII (Michael W. Deem and Ramdas Pophale) SiO2 
 PCOD9395415
Probable space group: P B A N
;
_chemical_formula_sum "Si O2"
_cell_formula_units_Z 32
_cell_length_a 30.867806
_cell_length_b 8.696620
_cell_length_c 5.520314
_cell_angle_alpha 90.000000
_cell_angle_beta 90.000000
_cell_angle_gamma 90.000000
_cell_volume 1481.903888
_symmetry_space_group_name_H-M "P B A N"
_symmetry_group_IT_number 50
_space_group.IT_coordinate_system_code '2'
_symmetry_cell_setting 'orthorhombic'
loop_
_space_group_symop_operation_xyz
x,y,z
1/2-x,1/2-y,z
x,1/2-y,-z
1/2-x,y,-z
-x,-y,-z
1/2+x,1/2+y,-z
-x,1/2+y,z
1/2+x,-y,z
loop_
_atom_site_type_symbol
_atom_site_label
_atom_site_fract_x
_atom_site_fract_y
_atom_site_fract_z
Si Si1 0.478336 0.116297 0.677732
Si Si2 0.132434 0.348658 0.251693
Si Si3 0.232345 0.427245 0.249512
Si Si4 0.432151 0.909324 0.068065
O O1 0.462175 0.250000 0.500000
O O2 0.522291 0.152534 0.824159
O O3 0.500000 0.000000 0.500000
O O4 0.445333 0.027647 0.852193
O O5 0.130146 0.250000 0.500000
O O6 0.180664 0.418518 0.246406
O O7 0.096924 0.484868 0.242041
O O8 0.127873 0.250000 0.000000
O O9 0.250000 0.250000 0.249596
O O10 0.250000 0.496862 0.500000
O O11 0.250000 0.497840 0.000000
O O12 0.408557 0.750000 0.000000
#
# Coordination Sequence:
#
# PCOD9395415 Si02
#       4
#     8   8   8   8
#     4  11  24  45  70  90 132 186 235 284 350 411
#     4  12  25  39  67 106 135 175 230 293 342 409
#     4  10  16  35  61  94 138 169 218 282 342 396
#     4  11  27  44  64 101 140 179 230 289 354 417
#
# _framework density 21.593845999999999
#
# number of rings (size 3 to 8) (size 9 to 14) (size 15 to 20)
#    0.000    1.000    7.500    0.000    7.000    0.000 
#    0.000    0.000    0.000    0.750    0.000    3.500 
#    0.000    0.000    0.000    0.000    0.000    0.000 
#
# Total GULP energy -178418.616798 kJ/mol
# GULP energy per Si atom -5575.581775 kJ/mol
# Density = 2.154470 g / cm^3
# Si number density = 21.593846 Si / 1000 Ang^3
#
#
#
# Elastic Constant Matrix: (Units=GPa)
#
#
# Indices 1 2 3 4 5 6 
#
# 1 137.7249 52.1917 55.2312 0.0000 0.0000 0.0000
# 2 52.1917 66.3794 40.8958 0.0000 0.0000 0.0000
# 3 55.2312 40.8958 175.1184 0.0000 0.0000 0.0000
# 4 0.0000 0.0000 0.0000 41.9502 0.0000 0.0000
# 5 0.0000 0.0000 0.0000 0.0000 34.8338 0.0000
# 6 0.0000 0.0000 0.0000 0.0000 0.0000 -24.9152
#
#
#
# Elastic Compliance Matrix: (Units=1/GPa)
#
#
# Indices 1 2 3 4 5 6 
#
# 1 0.010737 -0.007424 -0.001653 0.000000 0.000000 0.000000
# 2 -0.007424 0.022730 -0.002967 0.000000 0.000000 0.000000
# 3 -0.001653 -0.002967 0.006924 0.000000 0.000000 0.000000
# 4 0.000000 0.000000 0.000000 0.023838 0.000000 0.000000
# 5 0.000000 0.000000 0.000000 0.000000 0.028708 0.000000
# 6 0.000000 0.000000 0.000000 0.000000 0.000000 -0.040136
#
#
# Mechanical properties :
#
#
# Convention : Reuss Voigt Hill
#
# Bulk Modulus (GPa) = 61.33177 75.09557 68.21367
# Shear Modulus (GPa) = 60.73713 25.76736 43.25224
#
# Velocity S-wave (km/s) = 5.30925 3.45813 4.48033
# Velocity P-wave (km/s) = 8.12701 7.12718 7.64346
#
# Compressibility (1/GPa) = 0.01630476
#
# Stress axis : x y z
#
# Youngs Moduli (GPa) = 93.13651 43.99509 144.41525
#
# Poissons Ratio (x) = 0.32661 0.23867
# Poissons Ratio (y) = 0.69143 0.42844
# Poissons Ratio (z) = 0.15392 0.13052
#
# Static dielectric constant tensor:
#      x y z
#    x 1.798050 0.000000 0.000000 
#    y 0.000000 1.704860 0.000000 
#    z 0.000000 0.000000 1.815920 
# 
# From -- ./inp_files/1132.got.cif
#   From: 2010.05.17/outbox.cif.g08.bks.cpg/sg50_1_cif.got.tgz:1132.got - 2010.06.03 11:33:33.
