data_PCOD9395364
_publ_section_title
;
Structure prediction by ZEFSAII (Michael W. Deem and Ramdas Pophale) SiO2 
 PCOD9395364
Probable space group: P B A N
;
_chemical_formula_sum "Si O2"
_cell_formula_units_Z 64
_cell_length_a 5.458267
_cell_length_b 22.513104
_cell_length_c 25.907653
_cell_angle_alpha 90.000000
_cell_angle_beta 90.000000
_cell_angle_gamma 90.000000
_cell_volume 3183.598015
_symmetry_space_group_name_H-M "P B A N"
_symmetry_group_IT_number 50
_space_group.IT_coordinate_system_code '2'
_symmetry_cell_setting 'orthorhombic'
loop_
_space_group_symop_operation_xyz
x,y,z
1/2-x,1/2-y,z
x,1/2-y,-z
1/2-x,y,-z
-x,-y,-z
1/2+x,1/2+y,-z
-x,1/2+y,z
1/2+x,-y,z
loop_
_atom_site_type_symbol
_atom_site_label
_atom_site_fract_x
_atom_site_fract_y
_atom_site_fract_z
Si Si1 0.000001 0.470161 0.779075
Si Si2 0.500000 0.319983 0.644485
Si Si3 0.500001 0.666317 0.798771
Si Si4 1.000000 0.816997 0.020961
Si Si5 0.500000 0.812428 0.312784
Si Si6 0.999999 0.157056 0.862167
Si Si7 0.999998 0.018577 0.894849
Si Si8 0.500000 0.181374 0.478520
O O1 0.750002 0.500000 0.759507
O O2 0.000001 0.399860 0.774223
O O3 0.000002 0.480926 0.841318
O O4 0.500000 0.249638 0.656701
O O5 0.748648 0.344105 0.670412
O O6 0.500000 0.323291 0.582973
O O7 0.251352 0.344105 0.670412
O O8 0.500000 0.705196 0.747359
O O9 0.750067 0.672033 0.831520
O O10 0.249936 0.672033 0.831521
O O11 0.000000 0.812506 0.082307
O O12 1.000000 0.750000 0.000000
O O13 0.750000 0.846106 0.000000
O O14 0.250000 0.846106 0.000000
O O15 0.999998 0.086826 0.876518
O O16 0.249998 0.000000 0.922406
O O17 0.500000 0.250000 0.500000
O O18 0.250000 0.154350 0.500000
O O19 0.750000 0.154350 0.500000
#
# Coordination Sequence:
#
# PCOD9395364 Si02
#       8
#     8   8   8   8   8   8   8   8
#     4  10  16  30  48  74 107 124 149 202 238 283
#     4  10  19  35  44  59 102 147 163 208 267 279
#     4  12  21  32  52  86  98 127 176 197 231 297
#     4  10  23  45  62  76  99 132 164 200 260 304
#     4  10  20  32  46  64 102 140 164 197 242 310
#     4  12  21  35  60  80  99 126 162 216 234 293
#     4  10  16  30  51  81 102 124 144 192 255 287
#     4  10  16  25  46  69  80 113 186 228 242 293
#
# _framework density 20.10304
#
# number of rings (size 3 to 8) (size 9 to 14) (size 15 to 20)
#    0.000    1.500    5.000    5.250    0.000    0.000 
#    0.000   15.000    0.000    2.250    0.000    0.000 
#    0.000    0.000    0.000    0.000    0.000  152.500 
#
# Total GULP energy -357105.652479 kJ/mol
# GULP energy per Si atom -5579.775820 kJ/mol
# Density = 2.005728 g / cm^3
# Si number density = 20.103040 Si / 1000 Ang^3
#
#
#
# Elastic Constant Matrix: (Units=GPa)
#
#
# Indices 1 2 3 4 5 6 
#
# 1 270.3242 0.2009 86.4262 0.0000 0.0000 0.0000
# 2 0.2009 24.1444 6.0092 0.0000 0.0000 0.0000
# 3 86.4262 6.0092 147.3425 0.0000 0.0000 0.0000
# 4 0.0000 0.0000 0.0000 -7.7868 0.0000 0.0000
# 5 0.0000 0.0000 0.0000 0.0000 24.9984 0.0000
# 6 0.0000 0.0000 0.0000 0.0000 0.0000 2.5425
#
#
#
# Elastic Compliance Matrix: (Units=1/GPa)
#
#
# Indices 1 2 3 4 5 6 
#
# 1 0.004563 0.000635 -0.002702 0.000000 0.000000 0.000000
# 2 0.000635 0.041931 -0.002082 0.000000 0.000000 0.000000
# 3 -0.002702 -0.002082 0.008457 0.000000 0.000000 0.000000
# 4 0.000000 0.000000 0.000000 -0.128423 0.000000 0.000000
# 5 0.000000 0.000000 0.000000 0.000000 0.040003 0.000000
# 6 0.000000 0.000000 0.000000 0.000000 0.000000 0.393310
#
#
# Mechanical properties :
#
#
# Convention : Reuss Voigt Hill
#
# Bulk Modulus (GPa) = 21.43613 69.67595 45.55604
# Shear Modulus (GPa) = 13.03136 27.22914 20.13025
#
# Velocity S-wave (km/s) = 2.54880 3.68432 3.16785
# Velocity P-wave (km/s) = 4.39865 7.26867 6.00756
#
# Compressibility (1/GPa) = 0.04665021
#
# Stress axis : x y z
#
# Youngs Moduli (GPa) = 219.16712 23.84898 118.24704
#
# Poissons Ratio (x) = -0.01513 0.31953
# Poissons Ratio (y) = -0.13908 0.24623
# Poissons Ratio (z) = 0.59224 0.04966
#
# Static dielectric constant tensor:
#      x y z
#    x 1.894620 0.000000 0.000000 
#    y 0.000000 1.513860 0.000000 
#    z 0.000000 0.000000 1.672530 
# 
# From -- ./inp_files/30494.got.cif
#   From: 2010.05.17/outbox.cif.g08.bks.cpg/sg50_16_cif.got.tgz:30494.got - 2010.06.03 11:33:33.
