data_PCOD9395891
_publ_section_title
;
Structure prediction by ZEFSAII (Michael W. Deem and Ramdas Pophale) SiO2 
 PCOD9395891
Probable space group: P B A N
;
_chemical_formula_sum "Si O2"
_cell_formula_units_Z 48
_cell_length_a 20.646483
_cell_length_b 16.850174
_cell_length_c 5.799676
_cell_angle_alpha 90.000000
_cell_angle_beta 90.000000
_cell_angle_gamma 90.000000
_cell_volume 2017.688901
_symmetry_space_group_name_H-M "P B A N"
_symmetry_group_IT_number 50
_space_group.IT_coordinate_system_code '2'
_symmetry_cell_setting 'orthorhombic'
loop_
_space_group_symop_operation_xyz
x,y,z
1/2-x,1/2-y,z
x,1/2-y,-z
1/2-x,y,-z
-x,-y,-z
1/2+x,1/2+y,-z
-x,1/2+y,z
1/2+x,-y,z
loop_
_atom_site_type_symbol
_atom_site_label
_atom_site_fract_x
_atom_site_fract_y
_atom_site_fract_z
Si Si1 0.829075 0.005212 0.259500
Si Si2 0.641081 0.166261 0.967334
Si Si3 0.272004 0.128714 0.747362
Si Si4 0.013586 0.822669 0.667706
Si Si5 0.421331 0.934078 0.649157
Si Si6 0.589321 0.588813 0.909600
O O1 0.863129 0.033452 0.491704
O O2 0.762467 0.957733 0.260299
O O3 0.823103 0.086812 0.116376
O O4 0.878599 0.940389 0.147341
O O5 0.606216 0.137776 0.199959
O O6 0.676191 0.250000 0.000000
O O7 0.584176 0.184322 0.782437
O O8 0.250000 0.164314 0.500000
O O9 0.348888 0.119100 0.762151
O O10 0.250000 0.162052 0.000000
O O11 0.996382 0.750000 0.500000
O O12 0.964310 0.844213 0.873348
O O13 0.020877 0.899565 0.502721
O O14 0.439123 0.006144 0.814533
#
# Coordination Sequence:
#
# PCOD9395891 Si02
#       6
#     8   8   8   8   8   8
#     4   9  20  34  59  89 116 154 215 265 322 375
#     4  10  20  36  55  85 124 168 201 254 323 387
#     4  10  19  38  61  92 120 155 204 272 319 367
#     4  11  22  36  54  86 125 163 204 250 317 393
#     4  10  19  35  57  83 117 157 201 256 312 381
#     4  10  21  35  58  87 119 156 208 262 317 379
#
# _framework density 23.789593
#
# number of rings (size 3 to 8) (size 9 to 14) (size 15 to 20)
#    0.000    2.000    3.333    0.500    0.000    7.333 
#    0.000    0.000    0.000   13.000    4.333    1.167 
#    0.000    0.000    0.000    0.000    0.000    0.000 
#
# Total GULP energy -267918.766574 kJ/mol
# GULP energy per Si atom -5581.640970 kJ/mol
# Density = 2.373545 g / cm^3
# Si number density = 23.789593 Si / 1000 Ang^3
#
#
#
# Elastic Constant Matrix: (Units=GPa)
#
#
# Indices 1 2 3 4 5 6 
#
# 1 70.7922 38.8052 -1.7860 0.0000 0.0000 0.0000
# 2 38.8052 108.0966 16.2566 0.0000 0.0000 0.0000
# 3 -1.7860 16.2566 103.4202 0.0000 0.0000 0.0000
# 4 0.0000 0.0000 0.0000 -18.4183 0.0000 0.0000
# 5 0.0000 0.0000 0.0000 0.0000 20.6980 0.0000
# 6 0.0000 0.0000 0.0000 0.0000 0.0000 -26.2148
#
#
#
# Elastic Compliance Matrix: (Units=1/GPa)
#
#
# Indices 1 2 3 4 5 6 
#
# 1 0.017766 -0.006580 0.001341 0.000000 0.000000 0.000000
# 2 -0.006580 0.011912 -0.001986 0.000000 0.000000 0.000000
# 3 0.001341 -0.001986 0.010005 0.000000 0.000000 0.000000
# 4 0.000000 0.000000 0.000000 -0.054294 0.000000 0.000000
# 5 0.000000 0.000000 0.000000 0.000000 0.048314 0.000000
# 6 0.000000 0.000000 0.000000 0.000000 0.000000 -0.038146
#
#
# Mechanical properties :
#
#
# Convention : Reuss Voigt Hill
#
# Bulk Modulus (GPa) = 39.62978 43.20675 41.41826
# Shear Modulus (GPa) = 271.49703 10.48186 140.98945
#
# Velocity S-wave (km/s) = 10.69449 2.10134 7.70674
# Velocity P-wave (km/s) = 13.00733 4.90805 9.83056
#
# Compressibility (1/GPa) = 0.02523355
#
# Stress axis : x y z
#
# Youngs Moduli (GPa) = 56.28631 83.95156 99.95374
#
# Poissons Ratio (x) = 0.55236 -0.13404
# Poissons Ratio (y) = 0.37034 0.19851
# Poissons Ratio (z) = -0.07548 0.16673
#
# Static dielectric constant tensor:
#      x y z
#    x 1.886900 0.000000 0.000000 
#    y 0.000000 1.905990 0.000000 
#    z 0.000000 0.000000 2.008150 
# 
# From -- ./inp_files/6005.got.cif
#   From: 2010.05.17/outbox.cif.g08.bks.cpg/sg50_4_cif.got.tgz:6005.got - 2010.06.03 11:33:33.
