data_PCOD9395338
_publ_section_title
;
Structure prediction by ZEFSAII (Michael W. Deem and Ramdas Pophale) SiO2 
 PCOD9395338
Probable space group: P B A N
;
_chemical_formula_sum "Si O2"
_cell_formula_units_Z 48
_cell_length_a 14.124545
_cell_length_b 5.337888
_cell_length_c 28.625644
_cell_angle_alpha 90.000000
_cell_angle_beta 90.000000
_cell_angle_gamma 90.000000
_cell_volume 2158.237278
_symmetry_space_group_name_H-M "P B A N"
_symmetry_group_IT_number 50
_space_group.IT_coordinate_system_code '2'
_symmetry_cell_setting 'orthorhombic'
loop_
_space_group_symop_operation_xyz
x,y,z
1/2-x,1/2-y,z
x,1/2-y,-z
1/2-x,y,-z
-x,-y,-z
1/2+x,1/2+y,-z
-x,1/2+y,z
1/2+x,-y,z
loop_
_atom_site_type_symbol
_atom_site_label
_atom_site_fract_x
_atom_site_fract_y
_atom_site_fract_z
Si Si1 0.885292 0.664879 0.590279
Si Si2 0.940823 0.809718 0.209917
Si Si3 0.101885 0.834940 0.446698
Si Si4 0.365676 0.753239 0.053529
Si Si5 0.936872 0.789148 0.690547
Si Si6 0.362986 0.252761 0.107194
O O1 0.847464 0.390446 0.580061
O O2 0.877233 0.745175 0.643943
O O3 0.997356 0.635413 0.576434
O O4 0.851782 0.894139 0.558563
O O5 0.888799 0.752884 0.259021
O O6 0.889376 0.761938 0.161349
O O7 0.023643 0.597347 0.210608
O O8 0.091106 0.750000 0.500000
O O9 0.250000 0.750000 0.052249
O O10 0.394838 0.508305 0.082441
O O11 0.395233 0.005948 0.079643
O O12 0.398638 0.750000 0.000000
O O13 0.016117 0.565453 0.688838
O O14 0.250000 0.250000 0.104011
#
# Coordination Sequence:
#
# PCOD9395338 Si02
#       6
#     8   8   8   8   8   8
#     4  10  14  22  31  43  65  93 132 176 202 253
#     4  10  21  33  50  69  95 127 161 199 232 277
#     4  10  16  20  29  45  67  95 132 173 213 257
#     4   9  17  30  52  78  99 122 157 195 229 276
#     4  10  16  27  39  54  73 106 147 184 213 255
#     4  10  19  33  53  76 100 125 156 195 238 276
#
# _framework density 22.240372000000001
#
# number of rings (size 3 to 8) (size 9 to 14) (size 15 to 20)
#    0.000    2.167    3.333    4.000    0.000    2.000 
#    0.000    0.000    0.000   10.000    0.000    0.000 
#    0.000    0.000    0.000    0.000    0.000    9.167 
#
# Total GULP energy -267977.454353 kJ/mol
# GULP energy per Si atom -5582.863632 kJ/mol
# Density = 2.218975 g / cm^3
# Si number density = 22.240372 Si / 1000 Ang^3
#
#
#
# Elastic Constant Matrix: (Units=GPa)
#
#
# Indices 1 2 3 4 5 6 
#
# 1 53.2175 1.8772 2.0238 0.0000 0.0000 0.0000
# 2 1.8772 161.2393 36.2845 0.0000 0.0000 0.0000
# 3 2.0238 36.2845 190.0659 0.0000 0.0000 0.0000
# 4 0.0000 0.0000 0.0000 41.2397 0.0000 0.0000
# 5 0.0000 0.0000 0.0000 0.0000 78.2627 0.0000
# 6 0.0000 0.0000 0.0000 0.0000 0.0000 -12.2141
#
#
#
# Elastic Compliance Matrix: (Units=1/GPa)
#
#
# Indices 1 2 3 4 5 6 
#
# 1 0.018803 -0.000182 -0.000166 0.000000 0.000000 0.000000
# 2 -0.000182 0.006482 -0.001236 0.000000 0.000000 0.000000
# 3 -0.000166 -0.001236 0.005499 0.000000 0.000000 0.000000
# 4 0.000000 0.000000 0.000000 0.024248 0.000000 0.000000
# 5 0.000000 0.000000 0.000000 0.000000 0.012777 0.000000
# 6 0.000000 0.000000 0.000000 0.000000 0.000000 -0.081873
#
#
# Mechanical properties :
#
#
# Convention : Reuss Voigt Hill
#
# Bulk Modulus (GPa) = 36.20683 53.87708 45.04195
# Shear Modulus (GPa) = -2958.05754 45.74681 -1456.15536
#
# Velocity S-wave (km/s) = -36.50927 4.54026 -25.61555
# Velocity P-wave (km/s) = 41.96333 7.19463 29.23318
#
# Compressibility (1/GPa) = 0.02761910
#
# Stress axis : x y z
#
# Youngs Moduli (GPa) = 53.18160 154.27069 181.85239
#
# Poissons Ratio (x) = 0.02803 0.03010
# Poissons Ratio (y) = 0.00966 0.22468
# Poissons Ratio (z) = 0.00880 0.19061
#
# Static dielectric constant tensor:
#      x y z
#    x 2.037170 0.000000 0.000000 
#    y 0.000000 1.857610 0.000000 
#    z 0.000000 0.000000 1.807910 
# 
# From -- ./inp_files/31814.got.cif
#   From: 2010.05.17/outbox.cif.g08.bks.cpg/sg50_16_cif.got.tgz:31814.got - 2010.06.03 11:33:33.
