data_PCOD9395059
_publ_section_title
;
Structure prediction by ZEFSAII (Michael W. Deem and Ramdas Pophale) SiO2 
 PCOD9395059
Probable space group: P C C M
;
_chemical_formula_sum "Si O2"
_cell_formula_units_Z 40
_cell_length_a 27.423857
_cell_length_b 9.378795
_cell_length_c 8.506639
_cell_angle_alpha 90.000000
_cell_angle_beta 90.000000
_cell_angle_gamma 90.000000
_cell_volume 2187.930799
_symmetry_space_group_name_H-M "P C C M"
_symmetry_group_IT_number 49
_symmetry_cell_setting 'orthorhombic'
loop_
_space_group_symop_operation_xyz
x,y,z
-x,-y,z
x,-y,1/2-z
-x,y,1/2-z
-x,-y,-z
x,y,-z
-x,y,1/2+z
x,-y,1/2+z
loop_
_atom_site_type_symbol
_atom_site_label
_atom_site_fract_x
_atom_site_fract_y
_atom_site_fract_z
Si Si1 0.356122 0.160358 0.810975
Si Si2 0.050361 0.663682 0.311623
Si Si3 0.447117 0.660737 0.187588
Si Si4 0.261929 0.337957 0.190064
Si Si5 0.844434 0.662882 0.810289
O O1 0.403688 0.241008 0.748139
O O2 0.307457 0.243838 0.757158
O O3 0.355187 0.000000 0.750000
O O4 0.357171 0.161486 0.000000
O O5 0.050869 0.500000 0.250000
O O6 0.048170 0.660629 0.500000
O O7 0.103073 0.726600 0.261098
O O8 0.000000 0.730160 0.250000
O O9 0.439464 0.500000 0.250000
O O10 0.500000 0.708810 0.250000
O O11 0.447957 0.658060 0.000000
O O12 0.266833 0.500000 0.250000
O O13 0.208463 0.279076 0.240113
O O14 0.262558 0.341983 0.000000
O O15 0.844335 0.500000 0.750000
O O16 0.844772 0.661470 0.000000
#
# Coordination Sequence:
#
# PCOD9395059 Si02
#       5
#     8   8   8   8   8
#     4  11  23  38  55  78 107 139 173 212 257 305
#     4   9  14  19  29  46  74 109 145 182 227 280
#     4  11  22  39  62  87 113 141 174 210 248 294
#     4   9  18  32  51  72  96 127 166 207 249 297
#     4   8  14  24  37  56  81 113 151 192 235 284
#
# _framework density 18.282114
#
# number of rings (size 3 to 8) (size 9 to 14) (size 15 to 20)
#    0.000    2.400    0.000    4.800    0.000    4.400 
#    0.000    2.000    0.000    0.000    0.000    0.000 
#    0.000    0.800    0.000   10.000    0.000    3.000 
#
# Total GULP energy -222862.543245 kJ/mol
# GULP energy per Si atom -5571.563581 kJ/mol
# Density = 1.824050 g / cm^3
# Si number density = 18.282114 Si / 1000 Ang^3
#
#
#
# Elastic Constant Matrix: (Units=GPa)
#
#
# Indices 1 2 3 4 5 6 
#
# 1 248.6420 81.9411 48.8532 0.0000 0.0000 0.0000
# 2 81.9411 48.2456 17.6369 0.0000 0.0000 0.0000
# 3 48.8532 17.6369 63.3154 0.0000 0.0000 0.0000
# 4 0.0000 0.0000 0.0000 17.7938 0.0000 0.0000
# 5 0.0000 0.0000 0.0000 0.0000 -121.0253 0.0000
# 6 0.0000 0.0000 0.0000 0.0000 0.0000 2.6252
#
#
#
# Elastic Compliance Matrix: (Units=1/GPa)
#
#
# Indices 1 2 3 4 5 6 
#
# 1 0.009691 -0.015282 -0.003220 0.000000 0.000000 0.000000
# 2 -0.015282 0.047175 -0.001350 0.000000 0.000000 0.000000
# 3 -0.003220 -0.001350 0.018655 0.000000 0.000000 0.000000
# 4 0.000000 0.000000 0.000000 0.056199 0.000000 0.000000
# 5 0.000000 0.000000 0.000000 0.000000 -0.008263 0.000000
# 6 0.000000 0.000000 0.000000 0.000000 0.000000 0.380927
#
#
# Mechanical properties :
#
#
# Convention : Reuss Voigt Hill
#
# Bulk Modulus (GPa) = 27.91979 73.00726 50.46353
# Shear Modulus (GPa) = 8.99236 -6.00314 1.49461
#
# Velocity S-wave (km/s) = 2.22021 -1.81404 0.90515
# Velocity P-wave (km/s) = 4.67731 5.96932 5.36237
#
# Compressibility (1/GPa) = 0.03581689
#
# Stress axis : x y z
#
# Youngs Moduli (GPa) = 103.19167 21.19759 53.60549
#
# Poissons Ratio (x) = 0.32393 0.17263
# Poissons Ratio (y) = 1.57693 0.07236
# Poissons Ratio (z) = 0.33232 0.02861
#
# Static dielectric constant tensor:
#      x y z
#    x 1.710730 0.000000 0.000000 
#    y 0.000000 1.575400 0.000000 
#    z 0.000000 0.000000 1.630970 
# 
# From -- ./inp_files/1919.got.cif
#   From: 2010.05.17/outbox.cif.g08.bks.cpg/sg49_1_cif.got.tgz:1919.got - 2010.06.03 21:02:19.
