data_PCOD9395274
_publ_section_title
;
Structure prediction by ZEFSAII (Michael W. Deem and Ramdas Pophale) SiO2 
 PCOD9395274
Probable space group: P C C M
;
_chemical_formula_sum "Si O2"
_cell_formula_units_Z 64
_cell_length_a 15.000000
_cell_length_b 12.000000
_cell_length_c 18.000000
_cell_angle_alpha 90.000000
_cell_angle_beta 90.000000
_cell_angle_gamma 90.000000
_cell_volume 3240.000000
_symmetry_space_group_name_H-M "P C C M"
_symmetry_group_IT_number 49
_symmetry_cell_setting 'orthorhombic'
loop_
_space_group_symop_operation_xyz
x,y,z
-x,-y,z
x,-y,1/2-z
-x,y,1/2-z
-x,-y,-z
x,y,-z
-x,y,1/2+z
x,-y,1/2+z
loop_
_atom_site_type_symbol
_atom_site_label
_atom_site_fract_x
_atom_site_fract_y
_atom_site_fract_z
Si Si1 0.782198 0.873848 0.676483
Si Si2 0.565155 0.826813 0.082694
Si Si3 0.160494 0.438208 0.827957
Si Si4 0.380475 0.915933 0.918052
Si Si5 0.132022 0.065289 0.913587
Si Si6 0.823709 0.659283 0.416258
Si Si7 0.031325 0.717931 0.584250
Si Si8 0.265149 0.214322 0.165630
O O1 0.689180 0.919393 0.647185
O O2 0.787210 0.752776 0.638600
O O3 0.773147 0.854270 0.763842
O O4 0.854065 0.959355 0.640542
O O5 0.459324 0.828007 0.096327
O O6 0.630762 0.784607 0.146303
O O7 0.584864 0.958432 0.077632
O O8 0.582908 0.778572 0.000000
O O9 0.143416 0.500000 0.750000
O O10 0.186632 0.535423 0.884899
O O11 0.077200 0.367686 0.859461
O O12 0.233539 0.340732 0.823311
O O13 0.340661 0.891652 0.000000
O O14 0.051983 0.152531 0.896687
O O15 0.216312 0.149322 0.902216
O O16 0.126120 0.028955 0.000000
O O17 0.788788 0.668618 0.500000
O O18 0.928470 0.688434 0.417706
O O19 0.067422 0.701719 0.500000
#
# Coordination Sequence:
#
# PCOD9395274 Si02
#       8
#     8   8   8   8   8   8   8   8
#     4  12  22  35  55  87 126 158 188 234 294 358
#     4   9  18  34  58  88 118 151 190 231 283 347
#     4  11  22  41  58  83 114 150 198 252 302 335
#     4   9  18  33  56  87 121 153 186 229 284 350
#     4  10  20  36  57  83 117 157 192 235 292 350
#     4  11  23  39  60  86 113 154 202 247 297 351
#     4   9  21  39  61  86 111 147 203 251 289 347
#     4  11  22  36  57  85 119 153 195 242 293 353
#
# _framework density 19.753086
#
# number of rings (size 3 to 8) (size 9 to 14) (size 15 to 20)
#    0.000    1.750    2.500    3.375    0.000    4.500 
#    0.000    3.125    0.000    2.250    0.000    2.625 
#    0.000    0.000    0.000    0.000    0.000    0.000 
#
# Total GULP energy -356756.433430 kJ/mol
# GULP energy per Si atom -5574.319272 kJ/mol
# Density = 1.970813 g / cm^3
# Si number density = 19.753086 Si / 1000 Ang^3
#
#
#
# Elastic Constant Matrix: (Units=GPa)
#
#
# Indices 1 2 3 4 5 6 
#
# 1 27.4095 20.9876 20.7924 0.0000 0.0000 0.0000
# 2 20.9876 79.6889 29.0483 0.0000 0.0000 0.0000
# 3 20.7924 29.0483 84.2145 0.0000 0.0000 0.0000
# 4 0.0000 0.0000 0.0000 31.3312 0.0000 0.0000
# 5 0.0000 0.0000 0.0000 0.0000 14.8672 0.0000
# 6 0.0000 0.0000 0.0000 0.0000 0.0000 10.1642
#
#
#
# Elastic Compliance Matrix: (Units=1/GPa)
#
#
# Indices 1 2 3 4 5 6 
#
# 1 0.051187 -0.010151 -0.009137 0.000000 0.000000 0.000000
# 2 -0.010151 0.016366 -0.003139 0.000000 0.000000 0.000000
# 3 -0.009137 -0.003139 0.015213 0.000000 0.000000 0.000000
# 4 0.000000 0.000000 0.000000 0.031917 0.000000 0.000000
# 5 0.000000 0.000000 0.000000 0.000000 0.067262 0.000000
# 6 0.000000 0.000000 0.000000 0.000000 0.000000 0.098385
#
#
# Mechanical properties :
#
#
# Convention : Reuss Voigt Hill
#
# Bulk Modulus (GPa) = 26.37576 36.99663 31.68619
# Shear Modulus (GPa) = 14.80073 19.30483 17.05278
#
# Velocity S-wave (km/s) = 2.74028 3.12958 2.94138
# Velocity P-wave (km/s) = 4.83672 5.64174 5.25467
#
# Compressibility (1/GPa) = 0.03791361
#
# Stress axis : x y z
#
# Youngs Moduli (GPa) = 19.53622 61.10061 65.73292
#
# Poissons Ratio (x) = 0.62021 0.60058
# Poissons Ratio (y) = 0.19830 0.20635
# Poissons Ratio (z) = 0.17850 0.19180
#
# Static dielectric constant tensor:
#      x y z
#    x 1.786880 0.000000 0.000000 
#    y 0.000000 1.687210 0.000000 
#    z 0.000000 0.000000 1.768810 
# 
# From -- ./inp_files/17973.got.cif
#   From: 2010.05.17/outbox.ucp.g08.bks.cvg/sg49_9_cif.got.tgz:17973.got - 2010.06.11 16:40:14.
