data_PCOD9395045
_publ_section_title
;
Structure prediction by ZEFSAII (Michael W. Deem and Ramdas Pophale) SiO2 
 PCOD9395045
Probable space group: P C C M
;
_chemical_formula_sum "Si O2"
_cell_formula_units_Z 56
_cell_length_a 8.985179
_cell_length_b 21.868049
_cell_length_c 14.496384
_cell_angle_alpha 90.000000
_cell_angle_beta 90.000000
_cell_angle_gamma 90.000000
_cell_volume 2848.370351
_symmetry_space_group_name_H-M "P C C M"
_symmetry_group_IT_number 49
_symmetry_cell_setting 'orthorhombic'
loop_
_space_group_symop_operation_xyz
x,y,z
-x,-y,z
x,-y,1/2-z
-x,y,1/2-z
-x,-y,-z
x,y,-z
-x,y,1/2+z
x,-y,1/2+z
loop_
_atom_site_type_symbol
_atom_site_label
_atom_site_fract_x
_atom_site_fract_y
_atom_site_fract_z
Si Si1 0.675657 0.798904 0.232505
Si Si2 0.404995 0.594894 0.500000
Si Si3 0.835825 0.561046 0.293943
Si Si4 0.332448 0.988109 0.140862
Si Si5 0.737591 0.539024 0.500000
Si Si6 0.347324 0.336635 0.192596
Si Si7 0.175794 0.139166 0.393300
Si Si8 0.161443 0.107343 0.103964
O O1 0.500000 0.804915 0.250000
O O2 0.707575 0.733198 0.187611
O O3 0.763860 0.807716 0.327976
O O4 0.731967 0.854042 0.169307
O O5 0.578654 0.574426 0.500000
O O6 0.306120 0.532896 0.500000
O O7 0.371112 0.633206 0.407489
O O8 0.760985 0.500000 0.250000
O O9 0.823792 0.555040 0.404821
O O10 0.756717 0.620518 0.254320
O O11 0.000000 0.562393 0.250000
O O12 0.281193 0.919808 0.119330
O O13 0.500000 0.000000 0.106627
O O14 0.334223 0.000000 0.250000
O O15 0.213668 0.037228 0.104572
O O16 0.500000 0.334264 0.250000
O O17 0.176025 0.157258 0.500000
O O18 0.009438 0.117390 0.367458
O O19 0.176072 0.130649 0.000000
#
# Coordination Sequence:
#
# PCOD9395045 Si02
#       8
#     8   4   8   8   4   8   8   8
#     4  11  25  43  65  91 126 169 212 271 318 386
#     4  11  22  39  76 103 134 175 225 278 325 404
#     4  11  24  41  65  98 143 173 215 277 328 397
#     4  11  22  37  63  96 130 161 208 271 338 389
#     4  11  22  40  73 106 133 182 224 268 346 392
#     4  11  24  44  66  97 131 175 225 270 330 385
#     4  11  24  43  65  92 126 170 218 267 329 399
#     4  11  24  41  65  94 124 166 215 263 326 396
#
# _framework density 19.660364000000001
#
# number of rings (size 3 to 8) (size 9 to 14) (size 15 to 20)
#    0.000    1.000    4.286    2.143    1.000    7.714 
#    5.143    0.000    0.000    0.000    0.000    0.000 
#    0.000    0.000    0.000    0.000    0.000    0.000 
#
# Total GULP energy -312940.422621 kJ/mol
# GULP energy per Si atom -5588.221833 kJ/mol
# Density = 1.961562 g / cm^3
# Si number density = 19.660364 Si / 1000 Ang^3
#
#
#
# Elastic Constant Matrix: (Units=GPa)
#
#
# Indices 1 2 3 4 5 6 
#
# 1 89.2301 20.2528 29.4510 0.0000 0.0000 0.0000
# 2 20.2528 90.0716 29.9792 0.0000 0.0000 0.0000
# 3 29.4510 29.9792 156.2739 0.0000 0.0000 0.0000
# 4 0.0000 0.0000 0.0000 12.9568 0.0000 0.0000
# 5 0.0000 0.0000 0.0000 0.0000 31.3472 0.0000
# 6 0.0000 0.0000 0.0000 0.0000 0.0000 -18.3971
#
#
#
# Elastic Compliance Matrix: (Units=1/GPa)
#
#
# Indices 1 2 3 4 5 6 
#
# 1 0.012323 -0.002134 -0.001913 0.000000 0.000000 0.000000
# 2 -0.002134 0.012229 -0.001944 0.000000 0.000000 0.000000
# 3 -0.001913 -0.001944 0.007132 0.000000 0.000000 0.000000
# 4 0.000000 0.000000 0.000000 0.077179 0.000000 0.000000
# 5 0.000000 0.000000 0.000000 0.000000 0.031901 0.000000
# 6 0.000000 0.000000 0.000000 0.000000 0.000000 -0.054356
#
#
# Mechanical properties :
#
#
# Convention : Reuss Voigt Hill
#
# Bulk Modulus (GPa) = 50.75474 54.99354 52.87414
# Shear Modulus (GPa) = 47.63836 22.24088 34.93962
#
# Velocity S-wave (km/s) = 4.92780 3.36706 4.22021
# Velocity P-wave (km/s) = 7.63214 6.56876 7.12033
#
# Compressibility (1/GPa) = 0.01970259
#
# Stress axis : x y z
#
# Youngs Moduli (GPa) = 81.15080 81.77209 140.20486
#
# Poissons Ratio (x) = 0.17451 0.26820
# Poissons Ratio (y) = 0.17318 0.27253
# Poissons Ratio (z) = 0.15523 0.15895
#
# Static dielectric constant tensor:
#      x y z
#    x 1.762980 0.000000 0.000000 
#    y 0.000000 1.683370 0.000000 
#    z 0.000000 0.000000 1.708290 
# 
# From -- ./inp_files/12070.got.cif
#   From: 2010.05.17/outbox.cif.g08.bks.cpg/sg49_7_cif.got.tgz:12070.got - 2010.06.03 21:02:19.
