data_PCOD9395474
_publ_section_title
;
Structure prediction by ZEFSAII (Michael W. Deem and Ramdas Pophale) SiO2 
 PCOD9395474
Probable space group: P B A N
;
_chemical_formula_sum "Si O2"
_cell_formula_units_Z 48
_cell_length_a 22.915859
_cell_length_b 7.437161
_cell_length_c 11.750702
_cell_angle_alpha 90.000000
_cell_angle_beta 90.000000
_cell_angle_gamma 90.000000
_cell_volume 2002.659602
_symmetry_space_group_name_H-M "P B A N"
_symmetry_group_IT_number 50
_space_group.IT_coordinate_system_code '2'
_symmetry_cell_setting 'orthorhombic'
loop_
_space_group_symop_operation_xyz
x,y,z
1/2-x,1/2-y,z
x,1/2-y,-z
1/2-x,y,-z
-x,-y,-z
1/2+x,1/2+y,-z
-x,1/2+y,z
1/2+x,-y,z
loop_
_atom_site_type_symbol
_atom_site_label
_atom_site_fract_x
_atom_site_fract_y
_atom_site_fract_z
Si Si1 0.412026 0.052701 0.509720
Si Si2 0.070065 0.119207 0.237419
Si Si3 0.145235 0.930153 0.050399
Si Si4 0.283213 0.058252 0.398995
Si Si5 0.439347 0.541327 0.720228
Si Si6 0.180722 0.628551 0.178084
O O1 0.439708 0.250000 0.500000
O O2 0.348091 0.071980 0.451400
O O3 0.444120 0.930973 0.416281
O O4 0.410211 0.019695 0.644568
O O5 0.106448 0.054918 0.128401
O O6 0.001349 0.082279 0.224856
O O7 0.076333 0.332492 0.255886
O O8 0.192986 0.827314 0.128335
O O9 0.112171 0.750000 0.000000
O O10 0.174250 0.998583 0.933814
O O11 0.250000 0.250000 0.383293
O O12 0.250000 0.959190 0.500000
O O13 0.284739 0.956074 0.281119
O O14 0.384876 0.648542 0.769217
#
# Coordination Sequence:
#
# PCOD9395474 Si02
#       6
#     8   8   8   8   8   8
#     4   9  18  33  51  91 119 156 196 258 314 363
#     4  11  20  34  58  85 130 173 208 255 310 370
#     4   8  20  40  59  80 129 164 207 252 304 356
#     4  10  17  32  66  96 121 143 197 264 319 378
#     4  10  20  32  54  87 124 163 216 250 308 370
#     4   8  19  38  57  91 124 160 204 256 305 364
#
# _framework density 23.968126999999999
#
# number of rings (size 3 to 8) (size 9 to 14) (size 15 to 20)
#    1.000    1.500    1.667    1.500    0.000    1.333 
#    0.000    6.667    0.000    4.000    4.333    0.000 
#    0.000    0.000    0.000    0.000    0.000    0.000 
#
# Total GULP energy -267562.686374 kJ/mol
# GULP energy per Si atom -5574.222633 kJ/mol
# Density = 2.391357 g / cm^3
# Si number density = 23.968127 Si / 1000 Ang^3
#
#
#
# Elastic Constant Matrix: (Units=GPa)
#
#
# Indices 1 2 3 4 5 6 
#
# 1 84.3042 17.5988 42.3058 0.0000 0.0000 0.0000
# 2 17.5988 57.0124 41.3464 0.0000 0.0000 0.0000
# 3 42.3058 41.3464 201.1540 0.0000 0.0000 0.0000
# 4 0.0000 0.0000 0.0000 46.2736 0.0000 0.0000
# 5 0.0000 0.0000 0.0000 0.0000 30.0879 0.0000
# 6 0.0000 0.0000 0.0000 0.0000 0.0000 4.9466
#
#
#
# Elastic Compliance Matrix: (Units=1/GPa)
#
#
# Indices 1 2 3 4 5 6 
#
# 1 0.013555 -0.002488 -0.002340 0.000000 0.000000 0.000000
# 2 -0.002488 0.021069 -0.003808 0.000000 0.000000 0.000000
# 3 -0.002340 -0.003808 0.006246 0.000000 0.000000 0.000000
# 4 0.000000 0.000000 0.000000 0.021611 0.000000 0.000000
# 5 0.000000 0.000000 0.000000 0.000000 0.033236 0.000000
# 6 0.000000 0.000000 0.000000 0.000000 0.000000 0.202160
#
#
# Mechanical properties :
#
#
# Convention : Reuss Voigt Hill
#
# Bulk Modulus (GPa) = 42.37097 60.55248 51.46172
# Shear Modulus (GPa) = 15.47924 32.34293 23.91108
#
# Velocity S-wave (km/s) = 2.54407 3.67742 3.16194
# Velocity P-wave (km/s) = 5.13285 6.58406 5.90322
#
# Compressibility (1/GPa) = 0.02360107
#
# Stress axis : x y z
#
# Youngs Moduli (GPa) = 73.77279 47.46265 160.10301
#
# Poissons Ratio (x) = 0.11807 0.37457
# Poissons Ratio (y) = 0.18351 0.60960
# Poissons Ratio (z) = 0.17259 0.18071
#
# Static dielectric constant tensor:
#      x y z
#    x 2.061790 0.000000 0.000000 
#    y 0.000000 1.919060 0.000000 
#    z 0.000000 0.000000 1.993110 
# 
# From -- ./inp_files/23053.got.cif
#   From: 2010.05.17/outbox.cif.g08.bks.cpg/sg50_12_cif.got.tgz:23053.got - 2010.06.03 11:33:33.
