data_PCOD9395880
_publ_section_title
;
Structure prediction by ZEFSAII (Michael W. Deem and Ramdas Pophale) SiO2 
 PCOD9395880
Probable space group: P B A N
;
_chemical_formula_sum "Si O2"
_cell_formula_units_Z 52
_cell_length_a 26.829331
_cell_length_b 16.779059
_cell_length_c 6.588715
_cell_angle_alpha 90.000000
_cell_angle_beta 90.000000
_cell_angle_gamma 90.000000
_cell_volume 2966.047944
_symmetry_space_group_name_H-M "P B A N"
_symmetry_group_IT_number 50
_space_group.IT_coordinate_system_code '2'
_symmetry_cell_setting 'orthorhombic'
loop_
_space_group_symop_operation_xyz
x,y,z
1/2-x,1/2-y,z
x,1/2-y,-z
1/2-x,y,-z
-x,-y,-z
1/2+x,1/2+y,-z
-x,1/2+y,z
1/2+x,-y,z
loop_
_atom_site_type_symbol
_atom_site_label
_atom_site_fract_x
_atom_site_fract_y
_atom_site_fract_z
Si Si1 0.750000 0.610695 0.500000
Si Si2 0.972382 0.573560 0.611871
Si Si3 0.924436 0.872733 0.782046
Si Si4 0.976263 0.339253 0.037028
Si Si5 0.405055 0.983178 0.063006
Si Si6 0.816532 0.822574 0.852932
Si Si7 0.204152 0.020728 0.876827
O O1 0.714732 0.663754 0.646688
O O2 0.719601 0.553741 0.344282
O O3 0.942308 0.622873 0.446904
O O4 0.933340 0.535032 0.767601
O O5 0.000000 0.500000 0.500000
O O6 0.009346 0.630747 0.737395
O O7 0.875345 0.819929 0.806392
O O8 0.971896 0.845928 0.912653
O O9 0.910359 0.961903 0.861313
O O10 0.936150 0.402892 0.959674
O O11 0.958173 0.250000 0.000000
O O12 0.347409 0.972894 0.120370
O O13 0.803322 0.750000 0.000000
O O14 0.807151 0.900874 0.988176
O O15 0.250000 0.981091 0.000000
#
# Coordination Sequence:
#
# PCOD9395880 Si02
#       7
#     4   8   8   8   8   8   8
#     4  10  20  37  52  74 100 137 188 234 274 317
#     4  11  18  34  57  79 103 153 183 213 264 321
#     4  10  19  36  54  77 109 145 186 220 258 328
#     4  11  22  34  52  82 117 140 174 224 271 327
#     4  10  19  35  55  78 108 140 182 221 268 323
#     4  10  21  34  52  77 107 143 180 227 280 319
#     4   9  20  35  54  77 101 134 182 233 272 321
#
# _framework density 17.531748
#
# number of rings (size 3 to 8) (size 9 to 14) (size 15 to 20)
#    0.000    1.846    3.077    2.308    0.000    4.615 
#    0.000    1.538    0.000    5.077    0.000    0.000 
#    0.000    0.000    0.000    0.000    0.000    0.000 
#
# Total GULP energy -290147.899611 kJ/mol
# GULP energy per Si atom -5579.767300 kJ/mol
# Density = 1.749184 g / cm^3
# Si number density = 17.531748 Si / 1000 Ang^3
#
#
#
# Elastic Constant Matrix: (Units=GPa)
#
#
# Indices 1 2 3 4 5 6 
#
# 1 116.5198 19.1086 41.7011 0.0000 0.0000 0.0000
# 2 19.1086 44.5547 23.2740 0.0000 0.0000 0.0000
# 3 41.7011 23.2740 115.6793 0.0000 0.0000 0.0000
# 4 0.0000 0.0000 0.0000 16.1889 0.0000 0.0000
# 5 0.0000 0.0000 0.0000 0.0000 19.7037 0.0000
# 6 0.0000 0.0000 0.0000 0.0000 0.0000 6.0109
#
#
#
# Elastic Compliance Matrix: (Units=1/GPa)
#
#
# Indices 1 2 3 4 5 6 
#
# 1 0.010141 -0.002726 -0.003107 0.000000 0.000000 0.000000
# 2 -0.002726 0.025813 -0.004211 0.000000 0.000000 0.000000
# 3 -0.003107 -0.004211 0.010612 0.000000 0.000000 0.000000
# 4 0.000000 0.000000 0.000000 0.061771 0.000000 0.000000
# 5 0.000000 0.000000 0.000000 0.000000 0.050752 0.000000
# 6 0.000000 0.000000 0.000000 0.000000 0.000000 0.166365
#
#
# Mechanical properties :
#
#
# Convention : Reuss Voigt Hill
#
# Bulk Modulus (GPa) = 37.76738 49.43569 43.60153
# Shear Modulus (GPa) = 14.10959 21.22537 17.66748
#
# Velocity S-wave (km/s) = 2.83998 3.48326 3.17794
# Velocity P-wave (km/s) = 5.68709 6.66607 6.19595
#
# Compressibility (1/GPa) = 0.02647788
#
# Stress axis : x y z
#
# Youngs Moduli (GPa) = 98.60560 38.74002 94.23373
#
# Poissons Ratio (x) = 0.10562 0.29282
# Poissons Ratio (y) = 0.26882 0.39679
# Poissons Ratio (z) = 0.30640 0.16312
#
# Static dielectric constant tensor:
#      x y z
#    x 1.650930 0.000000 0.000000 
#    y 0.000000 1.583140 0.000000 
#    z 0.000000 0.000000 1.649370 
# 
# From -- ./inp_files/6732.got.cif
#   From: 2010.05.17/outbox.cif.g08.bks.cpg/sg50_4_cif.got.tgz:6732.got - 2010.06.03 11:33:33.
