data_PCOD9395437
_publ_section_title
;
Structure prediction by ZEFSAII (Michael W. Deem and Ramdas Pophale) SiO2 
 PCOD9395437
Probable space group: P B A N
;
_chemical_formula_sum "Si O2"
_cell_formula_units_Z 48
_cell_length_a 19.528379
_cell_length_b 8.348172
_cell_length_c 16.390745
_cell_angle_alpha 90.000000
_cell_angle_beta 90.000000
_cell_angle_gamma 90.000000
_cell_volume 2672.121967
_symmetry_space_group_name_H-M "P B A N"
_symmetry_group_IT_number 50
_space_group.IT_coordinate_system_code '2'
_symmetry_cell_setting 'orthorhombic'
loop_
_space_group_symop_operation_xyz
x,y,z
1/2-x,1/2-y,z
x,1/2-y,-z
1/2-x,y,-z
-x,-y,-z
1/2+x,1/2+y,-z
-x,1/2+y,z
1/2+x,-y,z
loop_
_atom_site_type_symbol
_atom_site_label
_atom_site_fract_x
_atom_site_fract_y
_atom_site_fract_z
Si Si1 0.173224 0.185208 0.753960
Si Si2 0.049756 0.852066 0.579427
Si Si3 0.583521 0.118921 0.758974
Si Si4 0.524995 0.092707 0.145701
Si Si5 0.901449 0.782787 0.415887
Si Si6 0.401100 0.294714 0.084722
O O1 0.250000 0.250000 0.748144
O O2 0.137237 0.232718 0.668875
O O3 0.142310 0.267416 0.834059
O O4 0.149925 0.997245 0.764312
O O5 0.072266 0.750000 0.500000
O O6 0.078589 0.807308 0.668319
O O7 0.968169 0.829568 0.585234
O O8 0.070317 0.036922 0.574885
O O9 0.573399 0.268775 0.818520
O O10 0.517774 0.004018 0.783083
O O11 0.465791 0.175870 0.093359
O O12 0.568338 0.971154 0.092050
O O13 0.861331 0.750000 0.500000
O O14 0.365544 0.250000 0.000000
#
# Coordination Sequence:
#
# PCOD9395437 Si02
#       6
#     8   8   8   8   8   8
#     4  10  22  37  50  69 101 144 186 213 247 305
#     4  10  17  26  46  78 105 125 159 209 269 320
#     4   9  17  31  51  76 108 141 170 212 264 319
#     4   9  17  31  53  80 107 130 163 212 273 325
#     4  10  19  31  51  76 101 131 165 213 267 318
#     4  10  19  32  54  81 106 133 166 213 267 317
#
# _framework density 17.963251
#
# number of rings (size 3 to 8) (size 9 to 14) (size 15 to 20)
#    0.000    2.333    0.000    6.500    0.000    2.000 
#    0.000    0.833    0.000    0.000    0.000   17.500 
#    0.000    0.000    0.000    0.000    0.000    0.000 
#
# Total GULP energy -267229.547409 kJ/mol
# GULP energy per Si atom -5567.282238 kJ/mol
# Density = 1.792237 g / cm^3
# Si number density = 17.963251 Si / 1000 Ang^3
#
#
#
# Elastic Constant Matrix: (Units=GPa)
#
#
# Indices 1 2 3 4 5 6 
#
# 1 69.3133 36.3236 41.9065 0.0000 0.0000 0.0000
# 2 36.3236 57.2706 43.8548 0.0000 0.0000 0.0000
# 3 41.9065 43.8548 117.5096 0.0000 0.0000 0.0000
# 4 0.0000 0.0000 0.0000 16.1184 0.0000 0.0000
# 5 0.0000 0.0000 0.0000 0.0000 -1.8262 0.0000
# 6 0.0000 0.0000 0.0000 0.0000 0.0000 13.2879
#
#
#
# Elastic Compliance Matrix: (Units=1/GPa)
#
#
# Indices 1 2 3 4 5 6 
#
# 1 0.022774 -0.011516 -0.003824 0.000000 0.000000 0.000000
# 2 -0.011516 0.030271 -0.007190 0.000000 0.000000 0.000000
# 3 -0.003824 -0.007190 0.012557 0.000000 0.000000 0.000000
# 4 0.000000 0.000000 0.000000 0.062041 0.000000 0.000000
# 5 0.000000 0.000000 0.000000 0.000000 -0.547598 0.000000
# 6 0.000000 0.000000 0.000000 0.000000 0.000000 0.075256
#
#
# Mechanical properties :
#
#
# Convention : Reuss Voigt Hill
#
# Bulk Modulus (GPa) = 48.68206 54.25148 51.46677
# Shear Modulus (GPa) = -17.07705 13.64994 -1.71355
#
# Velocity S-wave (km/s) = -3.08663 2.75959 -0.97775
# Velocity P-wave (km/s) = 3.80220 6.35773 5.23819
#
# Compressibility (1/GPa) = 0.02054145
#
# Stress axis : x y z
#
# Youngs Moduli (GPa) = 43.90921 33.03485 79.63668
#
# Poissons Ratio (x) = 0.38044 0.30452
# Poissons Ratio (y) = 0.50567 0.57261
# Poissons Ratio (z) = 0.16790 0.23753
#
# Static dielectric constant tensor:
#      x y z
#    x 1.589990 0.000000 0.000000 
#    y 0.000000 1.636660 0.000000 
#    z 0.000000 0.000000 1.700710 
# 
# From -- ./inp_files/27158.got.cif
#   From: 2010.05.17/outbox.cif.g08.bks.cpg/sg50_14_cif.got.tgz:27158.got - 2010.06.03 11:33:33.
