data_PCOD9395389
_publ_section_title
;
Structure prediction by ZEFSAII (Michael W. Deem and Ramdas Pophale) SiO2 
 PCOD9395389
Probable space group: P B A N
;
_chemical_formula_sum "Si O2"
_cell_formula_units_Z 40
_cell_length_a 5.388953
_cell_length_b 32.816647
_cell_length_c 11.074219
_cell_angle_alpha 90.000000
_cell_angle_beta 90.000000
_cell_angle_gamma 90.000000
_cell_volume 1958.446486
_symmetry_space_group_name_H-M "P B A N"
_symmetry_group_IT_number 50
_space_group.IT_coordinate_system_code '2'
_symmetry_cell_setting 'orthorhombic'
loop_
_space_group_symop_operation_xyz
x,y,z
1/2-x,1/2-y,z
x,1/2-y,-z
1/2-x,y,-z
-x,-y,-z
1/2+x,1/2+y,-z
-x,1/2+y,z
1/2+x,-y,z
loop_
_atom_site_type_symbol
_atom_site_label
_atom_site_fract_x
_atom_site_fract_y
_atom_site_fract_z
Si Si1 0.002084 0.703553 0.949283
Si Si2 0.681657 0.390102 0.359562
Si Si3 0.999751 0.275833 0.332454
Si Si4 0.478607 0.983597 0.360955
Si Si5 0.822274 0.861618 0.371953
O O1 0.013289 0.709135 0.806292
O O2 0.001143 0.750000 0.000000
O O3 0.750000 0.684488 0.000000
O O4 0.250000 0.683452 0.000000
O O5 0.750000 0.381154 0.500000
O O6 0.592289 0.436439 0.354724
O O7 0.453616 0.361742 0.313862
O O8 0.955134 0.384016 0.302317
O O9 0.750000 0.250000 0.359851
O O10 0.250000 0.250000 0.346299
O O11 0.057908 0.317653 0.401233
O O12 0.500000 0.000000 0.500000
O O13 0.747676 0.991903 0.306329
O O14 0.750000 0.882488 0.500000
#
# Coordination Sequence:
#
# PCOD9395389 Si02
#       5
#     8   8   8   8   8
#     4  10  16  30  50  78  93 108 134 208 274 310
#     4  10  18  32  46  60  96 120 158 202 230 291
#     4  12  21  34  54  70  92 120 173 219 244 293
#     4  10  17  24  44  73  84 108 151 206 235 268
#     4  10  23  35  45  63  89 139 167 197 241 267
#
# _framework density 20.424353
#
# number of rings (size 3 to 8) (size 9 to 14) (size 15 to 20)
#    0.000    1.600    6.000    2.400    5.600    0.400 
#    0.000    1.000    0.000    0.000    0.000    0.000 
#    0.000    0.000    0.000    0.000    0.000   70.000 
#
# Total GULP energy -222761.908383 kJ/mol
# GULP energy per Si atom -5569.047710 kJ/mol
# Density = 2.037787 g / cm^3
# Si number density = 20.424353 Si / 1000 Ang^3
#
#
#
# Elastic Constant Matrix: (Units=GPa)
#
#
# Indices 1 2 3 4 5 6 
#
# 1 264.4050 62.1088 5.7012 0.0000 0.0000 0.0000
# 2 62.1088 96.1154 -2.0197 0.0000 0.0000 0.0000
# 3 5.7012 -2.0197 33.9068 0.0000 0.0000 0.0000
# 4 0.0000 0.0000 0.0000 -0.1061 0.0000 0.0000
# 5 0.0000 0.0000 0.0000 0.0000 3.8693 0.0000
# 6 0.0000 0.0000 0.0000 0.0000 0.0000 15.1613
#
#
#
# Elastic Compliance Matrix: (Units=1/GPa)
#
#
# Indices 1 2 3 4 5 6 
#
# 1 0.004488 -0.002920 -0.000929 0.000000 0.000000 0.000000
# 2 -0.002920 0.012316 0.001225 0.000000 0.000000 0.000000
# 3 -0.000929 0.001225 0.029722 0.000000 0.000000 0.000000
# 4 0.000000 0.000000 0.000000 -9.422724 0.000000 0.000000
# 5 0.000000 0.000000 0.000000 0.000000 0.258447 0.000000
# 6 0.000000 0.000000 0.000000 0.000000 0.000000 0.065957
#
#
# Mechanical properties :
#
#
# Convention : Reuss Voigt Hill
#
# Bulk Modulus (GPa) = 24.22538 58.44532 41.33535
# Shear Modulus (GPa) = -0.55354 25.69401 12.57024
#
# Velocity S-wave (km/s) = -0.52116 3.55069 2.48352
# Velocity P-wave (km/s) = 3.39479 6.74444 5.33911
#
# Compressibility (1/GPa) = 0.04127903
#
# Stress axis : x y z
#
# Youngs Moduli (GPa) = 222.82135 81.19204 33.64546
#
# Poissons Ratio (x) = 0.23704 0.03124
# Poissons Ratio (y) = 0.65054 -0.04120
# Poissons Ratio (z) = 0.20689 -0.09942
#
# Static dielectric constant tensor:
#      x y z
#    x 1.412610 0.000000 0.000000 
#    y 0.000000 1.720830 0.000000 
#    z 0.000000 0.000000 1.776960 
# 
# From -- ./inp_files/17992.got.cif
#   From: 2010.05.17/outbox.cif.g08.bks.cpg/sg50_9_cif.got.tgz:17992.got - 2010.06.03 11:33:33.
