data_PCOD9395384
_publ_section_title
;
Structure prediction by ZEFSAII (Michael W. Deem and Ramdas Pophale) SiO2 
 PCOD9395384
Probable space group: P B A N
;
_chemical_formula_sum "Si O2"
_cell_formula_units_Z 32
_cell_length_a 36.971178
_cell_length_b 5.248911
_cell_length_c 7.296233
_cell_angle_alpha 90.000000
_cell_angle_beta 90.000000
_cell_angle_gamma 90.000000
_cell_volume 1415.895469
_symmetry_space_group_name_H-M "P B A N"
_symmetry_group_IT_number 50
_space_group.IT_coordinate_system_code '2'
_symmetry_cell_setting 'orthorhombic'
loop_
_space_group_symop_operation_xyz
x,y,z
1/2-x,1/2-y,z
x,1/2-y,-z
1/2-x,y,-z
-x,-y,-z
1/2+x,1/2+y,-z
-x,1/2+y,z
1/2+x,-y,z
loop_
_atom_site_type_symbol
_atom_site_label
_atom_site_fract_x
_atom_site_fract_y
_atom_site_fract_z
Si Si1 0.334437 0.245681 0.720386
Si Si2 0.208318 0.753590 0.276592
Si Si3 0.984572 0.021476 0.788854
Si Si4 0.593397 0.994385 0.110978
O O1 0.336066 0.250000 0.500000
O O2 0.317836 0.518577 0.778960
O O3 0.307306 0.024431 0.780381
O O4 0.373021 0.142251 0.789542
O O5 0.250000 0.750000 0.218233
O O6 0.208372 0.750000 0.500000
O O7 0.942108 0.083820 0.780534
O O8 0.007062 0.250065 0.705602
O O9 0.000000 0.000000 0.000000
O O10 0.604939 0.250000 0.000000
O O11 0.578212 0.750000 0.000000
#
# Coordination Sequence:
#
# PCOD9395384 Si02
#       4
#     8   8   8   8
#     4  10  21  35  53  82 114 139 173 230 286 327
#     4   9  17  33  57  80 103 140 186 223 261 324
#     4  10  16  30  49  75  97 131 183 235 252 298
#     4  12  21  33  55  81 108 143 182 228 272 328
#
# _framework density 22.600539000000001
#
# number of rings (size 3 to 8) (size 9 to 14) (size 15 to 20)
#    0.000    1.750    5.000    2.250    0.000    3.000 
#    0.000    0.000    0.000   12.750    0.000    0.000 
#    0.000    0.000    0.000    0.000    0.000    0.000 
#
# Total GULP energy -178425.060544 kJ/mol
# GULP energy per Si atom -5575.783142 kJ/mol
# Density = 2.254910 g / cm^3
# Si number density = 22.600539 Si / 1000 Ang^3
#
#
#
# Elastic Constant Matrix: (Units=GPa)
#
#
# Indices 1 2 3 4 5 6 
#
# 1 179.5822 42.9567 16.1253 0.0000 0.0000 0.0000
# 2 42.9567 181.4142 17.5363 0.0000 0.0000 0.0000
# 3 16.1253 17.5363 67.8271 0.0000 0.0000 0.0000
# 4 0.0000 0.0000 0.0000 -1.9010 0.0000 0.0000
# 5 0.0000 0.0000 0.0000 0.0000 8.9617 0.0000
# 6 0.0000 0.0000 0.0000 0.0000 0.0000 47.2491
#
#
#
# Elastic Compliance Matrix: (Units=1/GPa)
#
#
# Indices 1 2 3 4 5 6 
#
# 1 0.005979 -0.001311 -0.001083 0.000000 0.000000 0.000000
# 2 -0.001311 0.005941 -0.001224 0.000000 0.000000 0.000000
# 3 -0.001083 -0.001224 0.015317 0.000000 0.000000 0.000000
# 4 0.000000 0.000000 0.000000 -0.526038 0.000000 0.000000
# 5 0.000000 0.000000 0.000000 0.000000 0.111586 0.000000
# 6 0.000000 0.000000 0.000000 0.000000 0.000000 0.021164
#
#
# Mechanical properties :
#
#
# Convention : Reuss Voigt Hill
#
# Bulk Modulus (GPa) = 49.99601 64.67337 57.33469
# Shear Modulus (GPa) = -14.19862 34.34232 10.07185
#
# Velocity S-wave (km/s) = -2.50920 3.90235 2.11332
# Velocity P-wave (km/s) = 3.71145 6.99874 5.60166
#
# Compressibility (1/GPa) = 0.02000160
#
# Stress axis : x y z
#
# Youngs Moduli (GPa) = 167.24296 168.31989 65.28581
#
# Poissons Ratio (x) = 0.22070 0.07067
# Poissons Ratio (y) = 0.21929 0.07993
# Poissons Ratio (z) = 0.18105 0.20608
#
# Static dielectric constant tensor:
#      x y z
#    x 1.839440 0.000000 0.000000 
#    y 0.000000 1.906530 0.000000 
#    z 0.000000 0.000000 1.932310 
# 
# From -- ./inp_files/7907.got.cif
#   From: 2010.05.17/outbox.cif.g08.bks.cpg/sg50_4_cif.got.tgz:7907.got - 2010.06.03 11:33:33.
