data_PCOD9395515
_publ_section_title
;
Structure prediction by ZEFSAII (Michael W. Deem and Ramdas Pophale) SiO2 
 PCOD9395515
Probable space group: P B A N
;
_chemical_formula_sum "Si O2"
_cell_formula_units_Z 64
_cell_length_a 34.944137
_cell_length_b 6.931890
_cell_length_c 14.262713
_cell_angle_alpha 90.000000
_cell_angle_beta 90.000000
_cell_angle_gamma 90.000000
_cell_volume 3454.841478
_symmetry_space_group_name_H-M "P B A N"
_symmetry_group_IT_number 50
_space_group.IT_coordinate_system_code '2'
_symmetry_cell_setting 'orthorhombic'
loop_
_space_group_symop_operation_xyz
x,y,z
1/2-x,1/2-y,z
x,1/2-y,-z
1/2-x,y,-z
-x,-y,-z
1/2+x,1/2+y,-z
-x,1/2+y,z
1/2+x,-y,z
loop_
_atom_site_type_symbol
_atom_site_label
_atom_site_fract_x
_atom_site_fract_y
_atom_site_fract_z
Si Si1 0.102796 0.497090 0.887914
Si Si2 0.602796 0.502910 0.112086
Si Si3 0.321278 0.524282 0.766735
Si Si4 0.750000 0.482943 0.106984
Si Si5 0.178722 0.524282 0.766735
Si Si6 0.957520 0.750000 0.112737
Si Si7 0.203820 0.250000 0.390012
Si Si8 0.043492 0.750000 0.886559
O O1 0.138301 0.488853 0.816192
O O2 0.091451 0.250000 0.879099
O O3 0.053403 0.500646 0.869817
O O4 0.113015 0.502765 1.000000
O O5 0.638301 0.511147 0.183808
O O6 0.553403 0.499354 0.130183
O O7 0.592975 0.250000 0.126229
O O8 0.287704 0.458890 0.836779
O O9 0.316866 0.750000 0.754000
O O10 0.314332 0.426636 0.666978
O O11 0.750000 0.250000 0.105105
O O12 0.787704 0.541110 0.163221
O O13 0.750000 0.545927 0.000000
O O14 0.185668 0.426636 0.666978
O O15 0.000353 0.750000 0.155676
O O16 0.962461 0.750000 0.000000
O O17 0.250000 0.250000 0.379201
O O18 0.195282 0.250000 0.500000
O O19 0.039967 0.750000 0.000000
#
# Coordination Sequence:
#
# PCOD9395515 Si02
#       8
#     8   8   8   8   8   8   8   8
#     4  10  18  29  48  75 111 152 185 219 259 306
#     4  10  18  29  48  75 111 152 185 219 259 306
#     4  11  21  37  58  82 110 142 183 220 265 322
#     4   9  18  31  51  78 111 149 178 208 246 302
#     4  11  21  37  58  82 110 142 183 220 265 322
#     4   9  17  27  41  66 106 155 198 223 249 298
#     4  11  25  44  62  80 103 132 176 233 288 334
#     4   9  16  27  43  68 105 153 192 218 255 300
#
# _framework density 18.524729000000001
#
# number of rings (size 3 to 8) (size 9 to 14) (size 15 to 20)
#    0.000    2.000    2.500    2.250    0.000    4.500 
#    0.000    3.750    0.000    0.000    0.000    0.000 
#    0.000   16.000    0.000    0.000    0.000    0.000 
#
# Total GULP energy -356339.222213 kJ/mol
# GULP energy per Si atom -5567.800347 kJ/mol
# Density = 1.848257 g / cm^3
# Si number density = 18.524729 Si / 1000 Ang^3
#
#
#
# Elastic Constant Matrix: (Units=GPa)
#
#
# Indices 1 2 3 4 5 6 
#
# 1 157.6868 70.6563 87.2347 0.0000 0.0000 0.0000
# 2 70.6563 186.2188 56.4573 0.0000 0.0000 0.0000
# 3 87.2347 56.4573 131.5841 0.0000 0.0000 0.0000
# 4 0.0000 0.0000 0.0000 60.9327 0.0000 0.0000
# 5 0.0000 0.0000 0.0000 0.0000 4.9864 0.0000
# 6 0.0000 0.0000 0.0000 0.0000 0.0000 -0.9958
#
#
#
# Elastic Compliance Matrix: (Units=1/GPa)
#
#
# Indices 1 2 3 4 5 6 
#
# 1 0.010748 -0.002205 -0.006180 0.000000 0.000000 0.000000
# 2 -0.002205 0.006625 -0.001381 0.000000 0.000000 0.000000
# 3 -0.006180 -0.001381 0.012289 0.000000 0.000000 0.000000
# 4 0.000000 0.000000 0.000000 0.016412 0.000000 0.000000
# 5 0.000000 0.000000 0.000000 0.000000 0.200544 0.000000
# 6 0.000000 0.000000 0.000000 0.000000 0.000000 -1.004222
#
#
# Mechanical properties :
#
#
# Convention : Reuss Voigt Hill
#
# Bulk Modulus (GPa) = 98.69866 100.46514 99.58190
# Shear Modulus (GPa) = -6.80554 30.39410 11.79428
#
# Velocity S-wave (km/s) = -1.91878 4.05499 2.52598
# Velocity P-wave (km/s) = 6.96320 8.73353 7.89812
#
# Compressibility (1/GPa) = 0.01013185
#
# Stress axis : x y z
#
# Youngs Moduli (GPa) = 93.03847 150.93844 81.37268
#
# Poissons Ratio (x) = 0.33276 0.50286
# Poissons Ratio (y) = 0.20511 0.11238
# Poissons Ratio (z) = 0.57495 0.20845
#
# Static dielectric constant tensor:
#      x y z
#    x 1.662500 0.000000 0.000000 
#    y 0.000000 2.082030 0.000000 
#    z 0.000000 0.000000 1.503880 
# 
# From -- ./inp_files/23399.got.cif
#   From: 2010.05.17/outbox.cif.g08.bks.cpg/sg50_12_cif.got.tgz:23399.got - 2010.06.03 11:33:33.
