data_PCOD9395355
_publ_section_title
;
Structure prediction by ZEFSAII (Michael W. Deem and Ramdas Pophale) SiO2 
 PCOD9395355
Probable space group: P B A N
;
_chemical_formula_sum "Si O2"
_cell_formula_units_Z 54
_cell_length_a 21.379809
_cell_length_b 15.050235
_cell_length_c 9.361897
_cell_angle_alpha 90.000000
_cell_angle_beta 90.000000
_cell_angle_gamma 90.000000
_cell_volume 3012.388361
_symmetry_space_group_name_H-M "P B A N"
_symmetry_group_IT_number 50
_space_group.IT_coordinate_system_code '2'
_symmetry_cell_setting 'orthorhombic'
loop_
_space_group_symop_operation_xyz
x,y,z
1/2-x,1/2-y,z
x,1/2-y,-z
1/2-x,y,-z
-x,-y,-z
1/2+x,1/2+y,-z
-x,1/2+y,z
1/2+x,-y,z
loop_
_atom_site_type_symbol
_atom_site_label
_atom_site_fract_x
_atom_site_fract_y
_atom_site_fract_z
Si Si1 0.750000 0.250000 0.500000
Si Si2 0.339290 0.612346 0.639088
Si Si3 0.134071 0.077858 0.337630
Si Si4 0.918560 0.283424 0.838931
Si Si5 0.250000 0.033625 0.500000
Si Si6 0.950648 0.659666 0.584085
Si Si7 0.067728 0.278540 0.838681
Si Si8 0.583616 0.111181 0.356622
O O1 0.708858 0.309861 0.396910
O O2 0.375240 0.634884 0.785799
O O3 0.297839 0.525897 0.597384
O O4 0.391792 0.620789 0.517085
O O5 0.205086 0.085477 0.391493
O O6 0.092697 0.106823 0.475397
O O7 0.111098 0.141305 0.212247
O O8 0.118177 0.976089 0.299512
O O9 0.904798 0.199442 0.735289
O O10 0.993302 0.302420 0.825113
O O11 0.907137 0.250000 0.000000
O O12 0.972010 0.750000 0.500000
O O13 0.919841 0.698448 0.727161
O O14 0.009252 0.601495 0.632367
O O15 0.078483 0.250000 0.000000
#
# Coordination Sequence:
#
# PCOD9395355 Si02
#       8
#     2   8   8   8   4   8   8   8
#     4  10  16  24  50  68  94 148 188 196 240 292
#     4  10  17  31  51  72 107 144 181 210 253 309
#     4  10  19  34  53  78 106 133 175 230 267 302
#     4  10  19  33  53  82 114 143 177 210 262 331
#     4   9  22  33  53  78 103 136 188 231 259 302
#     4   9  17  30  53  79 102 133 175 216 265 317
#     4   9  19  36  57  81 108 139 170 216 281 337
#     4  10  17  30  53  81 105 133 172 224 266 311
#
# _framework density 17.925975999999999
#
# number of rings (size 3 to 8) (size 9 to 14) (size 15 to 20)
#    0.000    2.370    1.481    3.111    0.000    1.185 
#    0.000   13.333    0.000    5.333    0.000    0.000 
#    0.000    0.000    0.000    0.000    0.000    0.000 
#
# Total GULP energy -300781.003309 kJ/mol
# GULP energy per Si atom -5570.018580 kJ/mol
# Density = 1.788518 g / cm^3
# Si number density = 17.925976 Si / 1000 Ang^3
#
#
#
# Elastic Constant Matrix: (Units=GPa)
#
#
# Indices 1 2 3 4 5 6 
#
# 1 66.0202 29.5793 24.6239 0.0000 0.0000 0.0000
# 2 29.5793 40.0382 18.2634 0.0000 0.0000 0.0000
# 3 24.6239 18.2634 96.1099 0.0000 0.0000 0.0000
# 4 0.0000 0.0000 0.0000 7.5372 0.0000 0.0000
# 5 0.0000 0.0000 0.0000 0.0000 22.5419 0.0000
# 6 0.0000 0.0000 0.0000 0.0000 0.0000 23.5994
#
#
#
# Elastic Compliance Matrix: (Units=1/GPa)
#
#
# Indices 1 2 3 4 5 6 
#
# 1 0.023388 -0.015926 -0.002966 0.000000 0.000000 0.000000
# 2 -0.015926 0.038191 -0.003177 0.000000 0.000000 0.000000
# 3 -0.002966 -0.003177 0.011768 0.000000 0.000000 0.000000
# 4 0.000000 0.000000 0.000000 0.132675 0.000000 0.000000
# 5 0.000000 0.000000 0.000000 0.000000 0.044362 0.000000
# 6 0.000000 0.000000 0.000000 0.000000 0.000000 0.042374
#
#
# Mechanical properties :
#
#
# Convention : Reuss Voigt Hill
#
# Bulk Modulus (GPa) = 34.23462 38.56682 36.40072
# Shear Modulus (GPa) = 14.42445 19.38247 16.90346
#
# Velocity S-wave (km/s) = 2.83974 3.29180 3.07410
# Velocity P-wave (km/s) = 5.46731 6.00076 5.74023
#
# Compressibility (1/GPa) = 0.02921020
#
# Stress axis : x y z
#
# Youngs Moduli (GPa) = 42.75609 26.18410 84.97368
#
# Poissons Ratio (x) = 0.41701 0.25202
# Poissons Ratio (y) = 0.68093 0.26996
# Poissons Ratio (z) = 0.12681 0.08319
#
# Static dielectric constant tensor:
#      x y z
#    x 1.639050 0.000000 0.000000 
#    y 0.000000 1.648770 0.000000 
#    z 0.000000 0.000000 1.607120 
# 
# From -- ./inp_files/16169.got.cif
#   From: 2010.05.17/outbox.cif.g08.bks.cpg/sg50_9_cif.got.tgz:16169.got - 2010.06.03 11:33:33.
