data_PCOD9395567
_publ_section_title
;
Structure prediction by ZEFSAII (Michael W. Deem and Ramdas Pophale) SiO2 
 PCOD9395567
Probable space group: P B A N
;
_chemical_formula_sum "Si O2"
_cell_formula_units_Z 44
_cell_length_a 16.474518
_cell_length_b 17.185780
_cell_length_c 9.022072
_cell_angle_alpha 90.000000
_cell_angle_beta 90.000000
_cell_angle_gamma 90.000000
_cell_volume 2554.396166
_symmetry_space_group_name_H-M "P B A N"
_symmetry_group_IT_number 50
_space_group.IT_coordinate_system_code '2'
_symmetry_cell_setting 'orthorhombic'
loop_
_space_group_symop_operation_xyz
x,y,z
1/2-x,1/2-y,z
x,1/2-y,-z
1/2-x,y,-z
-x,-y,-z
1/2+x,1/2+y,-z
-x,1/2+y,z
1/2+x,-y,z
loop_
_atom_site_type_symbol
_atom_site_label
_atom_site_fract_x
_atom_site_fract_y
_atom_site_fract_z
Si Si1 0.498162 0.582616 0.358275
Si Si2 0.500628 0.234226 0.172305
Si Si3 0.839492 0.718141 0.334029
Si Si4 0.250000 0.574719 0.500000
Si Si5 0.879269 0.954731 0.592382
Si Si6 0.609962 0.324915 0.402757
O O1 0.489489 0.644736 0.227008
O O2 0.586931 0.565142 0.426324
O O3 0.453750 0.500545 0.330000
O O4 0.452293 0.624425 0.497307
O O5 0.409668 0.253928 0.225401
O O6 0.562444 0.290483 0.262443
O O7 0.510773 0.250000 0.000000
O O8 0.750000 0.750000 0.297652
O O9 0.858776 0.750000 0.500000
O O10 0.846685 0.625018 0.341062
O O11 0.309052 0.518190 0.411021
O O12 0.307611 0.625809 0.606766
O O13 0.631664 0.250000 0.500000
#
# Coordination Sequence:
#
# PCOD9395567 Si02
#       6
#     8   8   8   4   8   8
#     4   9  18  34  57  80 112 139 190 239 284 336
#     4  11  21  36  57  81 115 156 191 227 286 361
#     4  11  20  34  57  84 112 147 199 248 284 336
#     4  10  19  28  57  88 104 132 176 246 293 324
#     4  10  18  32  56  86 109 138 184 250 289 330
#     4   9  17  34  56  82 104 136 190 234 279 329
#
# _framework density 17.225204999999999
#
# number of rings (size 3 to 8) (size 9 to 14) (size 15 to 20)
#    0.000    2.000    3.636    1.909    0.000    0.364 
#    0.000    0.909    0.000   19.636    0.000    0.000 
#    0.000    0.000    0.000    0.000    0.000    0.000 
#
# Total GULP energy -245082.438964 kJ/mol
# GULP energy per Si atom -5570.055431 kJ/mol
# Density = 1.718600 g / cm^3
# Si number density = 17.225205 Si / 1000 Ang^3
#
#
#
# Elastic Constant Matrix: (Units=GPa)
#
#
# Indices 1 2 3 4 5 6 
#
# 1 97.3540 54.8471 39.3711 0.0000 0.0000 0.0000
# 2 54.8471 143.4093 42.1563 0.0000 0.0000 0.0000
# 3 39.3711 42.1563 91.7188 0.0000 0.0000 0.0000
# 4 0.0000 0.0000 0.0000 14.0297 0.0000 0.0000
# 5 0.0000 0.0000 0.0000 0.0000 9.5555 0.0000
# 6 0.0000 0.0000 0.0000 0.0000 0.0000 29.6688
#
#
#
# Elastic Compliance Matrix: (Units=1/GPa)
#
#
# Indices 1 2 3 4 5 6 
#
# 1 0.014375 -0.004259 -0.004213 0.000000 0.000000 0.000000
# 2 -0.004259 0.009324 -0.002457 0.000000 0.000000 0.000000
# 3 -0.004213 -0.002457 0.013841 0.000000 0.000000 0.000000
# 4 0.000000 0.000000 0.000000 0.071277 0.000000 0.000000
# 5 0.000000 0.000000 0.000000 0.000000 0.104652 0.000000
# 6 0.000000 0.000000 0.000000 0.000000 0.000000 0.033705
#
#
# Mechanical properties :
#
#
# Convention : Reuss Voigt Hill
#
# Bulk Modulus (GPa) = 63.77138 67.24790 65.50964
# Shear Modulus (GPa) = 18.23079 23.72466 20.97772
#
# Velocity S-wave (km/s) = 3.25680 3.71526 3.49356
# Velocity P-wave (km/s) = 7.15855 7.58481 7.37476
#
# Compressibility (1/GPa) = 0.01568102
#
# Stress axis : x y z
#
# Youngs Moduli (GPa) = 69.56424 107.24529 72.25015
#
# Poissons Ratio (x) = 0.45680 0.30439
# Poissons Ratio (y) = 0.29630 0.17755
# Poissons Ratio (z) = 0.29307 0.26354
#
# Static dielectric constant tensor:
#      x y z
#    x 1.657930 0.000000 0.000000 
#    y 0.000000 1.634910 0.000000 
#    z 0.000000 0.000000 1.547960 
# 
# From -- ./inp_files/12876.got.cif
#   From: 2010.05.17/outbox.cif.g08.bks.cpg/sg50_7_cif.got.tgz:12876.got - 2010.06.03 11:33:33.
