data_PCOD9395293
_publ_section_title
;
Structure prediction by ZEFSAII (Michael W. Deem and Ramdas Pophale) SiO2 
 PCOD9395293
Probable space group: P C C M
;
_chemical_formula_sum "Si O2"
_cell_formula_units_Z 40
_cell_length_a 12.000000
_cell_length_b 9.000000
_cell_length_c 18.000000
_cell_angle_alpha 90.000000
_cell_angle_beta 90.000000
_cell_angle_gamma 90.000000
_cell_volume 1944.000000
_symmetry_space_group_name_H-M "P C C M"
_symmetry_group_IT_number 49
_symmetry_cell_setting 'orthorhombic'
loop_
_space_group_symop_operation_xyz
x,y,z
-x,-y,z
x,-y,1/2-z
-x,y,1/2-z
-x,-y,-z
x,y,-z
-x,y,1/2+z
x,-y,1/2+z
loop_
_atom_site_type_symbol
_atom_site_label
_atom_site_fract_x
_atom_site_fract_y
_atom_site_fract_z
Si Si1 0.117060 0.670010 0.714333
Si Si2 0.738040 0.152834 0.088598
Si Si3 0.990225 0.178286 0.089204
Si Si4 0.327865 0.122161 0.186986
Si Si5 0.494976 0.320063 0.590016
O O1 0.131291 0.500000 0.750000
O O2 0.230398 0.769155 0.720634
O O3 0.000000 0.727261 0.750000
O O4 0.077236 0.708185 0.628893
O O5 0.860440 0.217835 0.107891
O O6 0.630187 0.256469 0.105140
O O7 0.723046 0.992274 0.126626
O O8 0.738642 0.131364 0.000000
O O9 0.004930 0.186734 0.000000
O O10 0.000000 0.000000 0.109248
O O11 0.420260 0.225311 0.143809
O O12 0.366257 0.000000 0.250000
O O13 0.500000 0.500000 0.603117
O O14 0.517599 0.297158 0.500000
#
# Coordination Sequence:
#
# PCOD9395293 Si02
#       5
#     8   8   8   8   8
#     4  11  26  45  65  98 145 187 223 276 358 425
#     4  10  21  41  71 104 134 171 228 292 347 407
#     4  10  20  39  74 109 133 173 239 298 339 404
#     4  12  25  41  67  98 134 180 232 282 340 413
#     4  10  24  46  71  99 136 180 227 289 359 418
#
# _framework density 20.576132000000001
#
# number of rings (size 3 to 8) (size 9 to 14) (size 15 to 20)
#    0.000    1.400    2.000    2.400    0.000    8.800 
#    0.000    3.000    0.000    2.400    0.000    0.000 
#    0.000    0.000    0.000    0.000    0.000    0.000 
#
# Total GULP energy -223113.716813 kJ/mol
# GULP energy per Si atom -5577.842920 kJ/mol
# Density = 2.052930 g / cm^3
# Si number density = 20.576132 Si / 1000 Ang^3
#
#
#
# Elastic Constant Matrix: (Units=GPa)
#
#
# Indices 1 2 3 4 5 6 
#
# 1 137.3355 65.9184 46.2119 0.0000 0.0000 0.0000
# 2 65.9184 154.0313 52.5492 0.0000 0.0000 0.0000
# 3 46.2119 52.5492 91.5760 0.0000 0.0000 0.0000
# 4 0.0000 0.0000 0.0000 48.4192 0.0000 0.0000
# 5 0.0000 0.0000 0.0000 0.0000 45.6011 0.0000
# 6 0.0000 0.0000 0.0000 0.0000 0.0000 46.2611
#
#
#
# Elastic Compliance Matrix: (Units=1/GPa)
#
#
# Indices 1 2 3 4 5 6 
#
# 1 0.009854 -0.003134 -0.003174 0.000000 0.000000 0.000000
# 2 -0.003134 0.009069 -0.003623 0.000000 0.000000 0.000000
# 3 -0.003174 -0.003623 0.014600 0.000000 0.000000 0.000000
# 4 0.000000 0.000000 0.000000 0.020653 0.000000 0.000000
# 5 0.000000 0.000000 0.000000 0.000000 0.021929 0.000000
# 6 0.000000 0.000000 0.000000 0.000000 0.000000 0.021616
#
#
# Mechanical properties :
#
#
# Convention : Reuss Voigt Hill
#
# Bulk Modulus (GPa) = 73.19670 79.14465 76.17067
# Shear Modulus (GPa) = 40.93728 42.60715 41.77221
#
# Velocity S-wave (km/s) = 4.46528 4.55544 4.51058
# Velocity P-wave (km/s) = 7.88896 8.13739 8.01414
#
# Compressibility (1/GPa) = 0.01366182
#
# Stress axis : x y z
#
# Youngs Moduli (GPa) = 101.48379 110.26120 68.49102
#
# Poissons Ratio (x) = 0.34557 0.21739
# Poissons Ratio (y) = 0.31806 0.24812
# Poissons Ratio (z) = 0.32212 0.39945
#
# Static dielectric constant tensor:
#      x y z
#    x 1.762630 0.000000 0.000000 
#    y 0.000000 1.717960 0.000000 
#    z 0.000000 0.000000 1.836310 
# 
# From -- ./inp_files/16850.got.cif
#   From: 2010.05.17/outbox.ucp.g08.bks.cvg/sg49_9_cif.got.tgz:16850.got - 2010.06.11 16:40:14.
