data_PCOD9395143
_publ_section_title
;
Structure prediction by ZEFSAII (Michael W. Deem and Ramdas Pophale) SiO2 
 PCOD9395143
Probable space group: P C C M
;
_chemical_formula_sum "Si O2"
_cell_formula_units_Z 40
_cell_length_a 8.656708
_cell_length_b 23.103632
_cell_length_c 10.017315
_cell_angle_alpha 90.000000
_cell_angle_beta 90.000000
_cell_angle_gamma 90.000000
_cell_volume 2003.476984
_symmetry_space_group_name_H-M "P C C M"
_symmetry_group_IT_number 49
_symmetry_cell_setting 'orthorhombic'
loop_
_space_group_symop_operation_xyz
x,y,z
-x,-y,z
x,-y,1/2-z
-x,y,1/2-z
-x,-y,-z
x,y,-z
-x,y,1/2+z
x,-y,1/2+z
loop_
_atom_site_type_symbol
_atom_site_label
_atom_site_fract_x
_atom_site_fract_y
_atom_site_fract_z
Si Si1 0.685726 0.642383 0.000000
Si Si2 0.819982 0.226795 0.500000
Si Si3 0.183719 0.430697 0.753415
Si Si4 0.682967 0.827257 0.734383
Si Si5 0.816112 0.247481 0.000000
Si Si6 0.678781 0.629045 0.500000
Si Si7 0.158399 0.053458 0.663120
O O1 0.745112 0.604688 0.875773
O O2 0.752952 0.707680 0.000000
O O3 0.500262 0.646352 0.000000
O O4 0.762018 0.191491 0.627952
O O5 0.004588 0.231177 0.500000
O O6 0.199854 0.500000 0.750000
O O7 0.275624 0.407770 0.627157
O O8 0.000000 0.418138 0.750000
O O9 0.500000 0.828062 0.750000
O O10 0.734311 0.779632 0.627967
O O11 0.742616 0.888938 0.681876
O O12 0.788169 0.315188 0.000000
O O13 0.138317 0.043288 0.500000
O O14 0.000000 0.063170 0.750000
O O15 0.228817 0.000000 0.750000
#
# Coordination Sequence:
#
# PCOD9395143 Si02
#       7
#     4   4   8   8   4   4   8
#     4  12  25  43  64 100 131 172 219 274 345 391
#     4  12  26  43  72  93 132 179 221 275 325 408
#     4  11  24  43  66  94 130 174 223 272 327 399
#     4  12  26  44  67 101 138 172 218 280 340 393
#     4  12  24  47  66  97 128 175 229 265 333 402
#     4  12  25  41  68  94 135 170 215 280 333 401
#     4  11  24  44  71 104 140 183 231 277 328 397
#
# _framework density 19.96529
#
# number of rings (size 3 to 8) (size 9 to 14) (size 15 to 20)
#    0.000    0.400    1.000    9.000    2.800    4.400 
#    0.000    1.000    0.000    0.000    0.000    0.000 
#    0.000    0.000    0.000    0.000    0.000    0.000 
#
# Total GULP energy -223622.681982 kJ/mol
# GULP energy per Si atom -5590.567050 kJ/mol
# Density = 1.991985 g / cm^3
# Si number density = 19.965290 Si / 1000 Ang^3
#
#
#
# Elastic Constant Matrix: (Units=GPa)
#
#
# Indices 1 2 3 4 5 6 
#
# 1 112.9071 23.3859 31.6480 0.0000 0.0000 0.0000
# 2 23.3859 86.1976 37.5241 0.0000 0.0000 0.0000
# 3 31.6480 37.5241 186.5430 0.0000 0.0000 0.0000
# 4 0.0000 0.0000 0.0000 59.7975 0.0000 0.0000
# 5 0.0000 0.0000 0.0000 0.0000 36.1493 0.0000
# 6 0.0000 0.0000 0.0000 0.0000 0.0000 32.7923
#
#
#
# Elastic Compliance Matrix: (Units=1/GPa)
#
#
# Indices 1 2 3 4 5 6 
#
# 1 0.009629 -0.002084 -0.001214 0.000000 0.000000 0.000000
# 2 -0.002084 0.013166 -0.002295 0.000000 0.000000 0.000000
# 3 -0.001214 -0.002295 0.006028 0.000000 0.000000 0.000000
# 4 0.000000 0.000000 0.000000 0.016723 0.000000 0.000000
# 5 0.000000 0.000000 0.000000 0.000000 0.027663 0.000000
# 6 0.000000 0.000000 0.000000 0.000000 0.000000 0.030495
#
#
# Mechanical properties :
#
#
# Convention : Reuss Voigt Hill
#
# Bulk Modulus (GPa) = 56.69938 63.41816 60.05877
# Shear Modulus (GPa) = 41.40146 45.28713 43.34429
#
# Velocity S-wave (km/s) = 4.55870 4.76783 4.66443
# Velocity P-wave (km/s) = 7.49464 7.88307 7.69130
#
# Compressibility (1/GPa) = 0.01763688
#
# Stress axis : x y z
#
# Youngs Moduli (GPa) = 103.85480 75.95574 165.88301
#
# Poissons Ratio (x) = 0.15827 0.20145
# Poissons Ratio (y) = 0.21640 0.38067
# Poissons Ratio (z) = 0.12613 0.17430
#
# Static dielectric constant tensor:
#      x y z
#    x 1.678770 0.000000 0.000000 
#    y 0.000000 1.692920 0.000000 
#    z 0.000000 0.000000 1.579340 
# 
# From -- ./inp_files/1840.got.cif
#   From: 2010.05.17/outbox.cif.g08.bks.cpg/sg49_1_cif.got.tgz:1840.got - 2010.06.03 21:02:19.
