data_PCOD9395681
_publ_section_title
;
Structure prediction by ZEFSAII (Michael W. Deem and Ramdas Pophale) SiO2 
 PCOD9395681
Probable space group: P B A N
;
_chemical_formula_sum "Si O2"
_cell_formula_units_Z 64
_cell_length_a 5.195981
_cell_length_b 26.445139
_cell_length_c 19.947213
_cell_angle_alpha 90.000000
_cell_angle_beta 90.000000
_cell_angle_gamma 90.000000
_cell_volume 2740.915416
_symmetry_space_group_name_H-M "P B A N"
_symmetry_group_IT_number 50
_space_group.IT_coordinate_system_code '2'
_symmetry_cell_setting 'orthorhombic'
loop_
_space_group_symop_operation_xyz
x,y,z
1/2-x,1/2-y,z
x,1/2-y,-z
1/2-x,y,-z
-x,-y,-z
1/2+x,1/2+y,-z
-x,1/2+y,z
1/2+x,-y,z
loop_
_atom_site_type_symbol
_atom_site_label
_atom_site_fract_x
_atom_site_fract_y
_atom_site_fract_z
Si Si1 0.744973 0.192924 0.779640
Si Si2 0.264493 0.307770 0.418079
Si Si3 0.678827 0.611215 0.930184
Si Si4 0.931201 0.519517 0.252434
Si Si5 0.394379 0.518737 0.600940
Si Si6 0.243382 0.124651 0.777715
Si Si7 0.762772 0.368116 0.418844
Si Si8 0.325985 0.826357 0.930983
O O1 0.750000 0.250000 0.750334
O O2 0.469300 0.166067 0.771641
O O3 0.785487 0.198425 0.859748
O O4 0.975284 0.153109 0.762043
O O5 0.250000 0.250000 0.394983
O O6 0.250000 0.306563 0.500000
O O7 0.530016 0.332590 0.396185
O O8 0.028436 0.342953 0.396986
O O9 0.748041 0.598694 0.852855
O O10 0.378757 0.626474 0.930082
O O11 0.876943 0.658364 0.936333
O O12 0.750000 0.581998 0.000000
O O13 0.211940 0.514651 0.217849
O O14 0.023915 0.499741 0.325183
O O15 0.828042 0.575885 0.263879
O O16 0.675881 0.515981 0.568604
O O17 0.285545 0.574982 0.603085
O O18 0.750000 0.368760 0.500000
O O19 0.250000 0.800576 0.000000
#
# Coordination Sequence:
#
# PCOD9395681 Si02
#       8
#     8   8   8   8   8   8   8   8
#     4  10  19  30  47  74 104 133 166 200 245 310
#     4   9  17  30  49  75 108 146 187 222 247 285
#     4   8  14  25  42  65  93 124 157 196 247 300
#     4  10  21  38  59  79  96 124 173 224 266 307
#     4  10  21  36  54  78 106 134 168 216 269 319
#     4  10  19  33  53  73  98 133 167 209 257 301
#     4  10  19  31  51  79 110 145 178 210 258 313
#     4   8  14  24  38  60  93 130 163 193 229 286
#
# _framework density 23.349862000000002
#
# number of rings (size 3 to 8) (size 9 to 14) (size 15 to 20)
#    0.000    2.625    0.000    2.250    0.000    2.250 
#    0.000    0.000    0.000   11.250    0.000    0.000 
#    0.000    0.000    0.000    0.000    0.000    0.000 
#
# Total GULP energy -356543.694284 kJ/mol
# GULP energy per Si atom -5570.995223 kJ/mol
# Density = 2.329672 g / cm^3
# Si number density = 23.349862 Si / 1000 Ang^3
#
#
#
# Elastic Constant Matrix: (Units=GPa)
#
#
# Indices 1 2 3 4 5 6 
#
# 1 149.1182 42.8873 -3.9386 0.0000 0.0000 0.0000
# 2 42.8873 115.0971 4.2793 0.0000 0.0000 0.0000
# 3 -3.9386 4.2793 59.7286 0.0000 0.0000 0.0000
# 4 0.0000 0.0000 0.0000 3.6362 0.0000 0.0000
# 5 0.0000 0.0000 0.0000 0.0000 -18.9210 0.0000
# 6 0.0000 0.0000 0.0000 0.0000 0.0000 37.1730
#
#
#
# Elastic Compliance Matrix: (Units=1/GPa)
#
#
# Indices 1 2 3 4 5 6 
#
# 1 0.007540 -0.002836 0.000700 0.000000 0.000000 0.000000
# 2 -0.002836 0.009778 -0.000888 0.000000 0.000000 0.000000
# 3 0.000700 -0.000888 0.016852 0.000000 0.000000 0.000000
# 4 0.000000 0.000000 0.000000 0.275012 0.000000 0.000000
# 5 0.000000 0.000000 0.000000 0.000000 -0.052851 0.000000
# 6 0.000000 0.000000 0.000000 0.000000 0.000000 0.026901
#
#
# Mechanical properties :
#
#
# Convention : Reuss Voigt Hill
#
# Bulk Modulus (GPa) = 35.55600 45.59998 40.57799
# Shear Modulus (GPa) = 16.74186 23.09204 19.91695
#
# Velocity S-wave (km/s) = 2.68059 3.14818 2.92375
# Velocity P-wave (km/s) = 4.98411 5.72592 5.36784
#
# Compressibility (1/GPa) = 0.02812465
#
# Stress axis : x y z
#
# Youngs Moduli (GPa) = 132.62359 102.27118 59.33949
#
# Poissons Ratio (x) = 0.29000 -0.04156
# Poissons Ratio (y) = 0.37607 0.05267
# Poissons Ratio (z) = -0.09289 0.09077
#
# Static dielectric constant tensor:
#      x y z
#    x 2.017000 0.000000 0.000000 
#    y 0.000000 1.812130 0.000000 
#    z 0.000000 0.000000 2.135590 
# 
# From -- ./inp_files/31545.got.cif
#   From: 2010.05.17/outbox.cif.g08.bks.cpg/sg50_16_cif.got.tgz:31545.got - 2010.06.03 11:33:33.
