data_PCOD9395907
_publ_section_title
;
Structure prediction by ZEFSAII (Michael W. Deem and Ramdas Pophale) SiO2 
 PCOD9395907
Probable space group: P B A N
;
_chemical_formula_sum "Si O2"
_cell_formula_units_Z 40
_cell_length_a 10.921693
_cell_length_b 20.558688
_cell_length_c 8.868952
_cell_angle_alpha 90.000000
_cell_angle_beta 90.000000
_cell_angle_gamma 90.000000
_cell_volume 1991.396158
_symmetry_space_group_name_H-M "P B A N"
_symmetry_group_IT_number 50
_space_group.IT_coordinate_system_code '2'
_symmetry_cell_setting 'orthorhombic'
loop_
_space_group_symop_operation_xyz
x,y,z
1/2-x,1/2-y,z
x,1/2-y,-z
1/2-x,y,-z
-x,-y,-z
1/2+x,1/2+y,-z
-x,1/2+y,z
1/2+x,-y,z
loop_
_atom_site_type_symbol
_atom_site_label
_atom_site_fract_x
_atom_site_fract_y
_atom_site_fract_z
Si Si1 0.586434 0.378378 0.744222
Si Si2 0.750000 0.052965 0.500000
Si Si3 0.654781 0.967786 0.767089
Si Si4 0.932528 0.739943 0.679180
Si Si5 0.285073 0.157837 0.824419
Si Si6 0.750000 0.434009 0.000000
O O1 0.658440 0.403390 0.597783
O O2 0.466646 0.424220 0.764882
O O3 0.546601 0.303803 0.727701
O O4 0.672267 0.391399 0.885756
O O5 0.674983 0.007082 0.613944
O O6 0.769230 0.918041 0.790161
O O7 0.661857 0.019070 0.902457
O O8 0.933330 0.750000 0.500000
O O9 0.817677 0.694080 0.724489
O O10 0.909073 0.806608 0.771780
O O11 0.250000 0.168445 0.000000
#
# Coordination Sequence:
#
# PCOD9395907 Si02
#       6
#     8   4   8   8   8   4
#     4  10  22  39  60  88 126 170 212 257 315 374
#     4  10  22  38  59  91 130 162 214 252 318 392
#     4  10  20  35  63  96 128 156 201 267 328 372
#     4  10  21  36  59  87 122 167 207 256 315 373
#     4  10  19  35  59  95 133 150 200 263 332 383
#     4  10  20  40  60  95 127 164 206 258 316 398
#
# _framework density 20.086409
#
# number of rings (size 3 to 8) (size 9 to 14) (size 15 to 20)
#    0.000    2.000    1.000    3.600    5.600    0.000 
#    0.000    8.500    0.000    2.400    0.000    0.000 
#    0.000    0.000    0.000    0.000    0.000    0.000 
#
# Total GULP energy -223291.049779 kJ/mol
# GULP energy per Si atom -5582.276244 kJ/mol
# Density = 2.004069 g / cm^3
# Si number density = 20.086409 Si / 1000 Ang^3
#
#
#
# Elastic Constant Matrix: (Units=GPa)
#
#
# Indices 1 2 3 4 5 6 
#
# 1 76.7400 47.2705 52.3811 0.0000 0.0000 0.0000
# 2 47.2705 101.2620 68.3666 0.0000 0.0000 0.0000
# 3 52.3811 68.3666 155.3229 0.0000 0.0000 0.0000
# 4 0.0000 0.0000 0.0000 13.0943 0.0000 0.0000
# 5 0.0000 0.0000 0.0000 0.0000 -4.7581 0.0000
# 6 0.0000 0.0000 0.0000 0.0000 0.0000 41.7027
#
#
#
# Elastic Compliance Matrix: (Units=1/GPa)
#
#
# Indices 1 2 3 4 5 6 
#
# 1 0.019671 -0.006693 -0.003688 0.000000 0.000000 0.000000
# 2 -0.006693 0.016328 -0.004930 0.000000 0.000000 0.000000
# 3 -0.003688 -0.004930 0.009852 0.000000 0.000000 0.000000
# 4 0.000000 0.000000 0.000000 0.076369 0.000000 0.000000
# 5 0.000000 0.000000 0.000000 0.000000 -0.210167 0.000000
# 6 0.000000 0.000000 0.000000 0.000000 0.000000 0.023979
#
#
# Mechanical properties :
#
#
# Convention : Reuss Voigt Hill
#
# Bulk Modulus (GPa) = 65.66128 74.37349 70.01738
# Shear Modulus (GPa) = -176.86582 21.02822 -77.91880
#
# Velocity S-wave (km/s) = -9.39381 3.23907 -6.23506
# Velocity P-wave (km/s) = 9.21400 7.14814 4.11107
#
# Compressibility (1/GPa) = 0.01522968
#
# Stress axis : x y z
#
# Youngs Moduli (GPa) = 50.83634 61.24445 101.50395
#
# Poissons Ratio (x) = 0.40990 0.37434
# Poissons Ratio (y) = 0.34024 0.50040
# Poissons Ratio (z) = 0.18748 0.30192
#
# Static dielectric constant tensor:
#      x y z
#    x 0.605980 0.000000 0.000000 
#    y 0.000000 1.720440 0.000000 
#    z 0.000000 0.000000 1.685000 
# 
# From -- ./inp_files/11355.got.cif
#   From: 2010.05.17/outbox.cif.g08.bks.cpg/sg50_6_cif.got.tgz:11355.got - 2010.06.03 11:33:33.
