data_PCOD9395228
_publ_section_title
;
Structure prediction by ZEFSAII (Michael W. Deem and Ramdas Pophale) SiO2 
 PCOD9395228
Probable space group: P C C M
;
_chemical_formula_sum "Si O2"
_cell_formula_units_Z 58
_cell_length_a 27.000000
_cell_length_b 15.000000
_cell_length_c 9.000000
_cell_angle_alpha 90.000000
_cell_angle_beta 90.000000
_cell_angle_gamma 90.000000
_cell_volume 3645.000000
_symmetry_space_group_name_H-M "P C C M"
_symmetry_group_IT_number 49
_symmetry_cell_setting 'orthorhombic'
loop_
_space_group_symop_operation_xyz
x,y,z
-x,-y,z
x,-y,1/2-z
-x,y,1/2-z
-x,-y,-z
x,y,-z
-x,y,1/2+z
x,-y,1/2+z
loop_
_atom_site_type_symbol
_atom_site_label
_atom_site_fract_x
_atom_site_fract_y
_atom_site_fract_z
Si Si1 0.164639 0.782536 0.177502
Si Si2 0.098249 0.913350 0.333105
Si Si3 0.317296 0.592167 0.321097
Si Si4 0.207909 0.591966 0.820436
Si Si5 0.447180 0.096199 0.821358
Si Si6 0.260862 0.098417 0.321123
Si Si7 0.350195 0.789874 0.677585
Si Si8 0.000000 0.000000 0.750000
O O1 0.116203 0.825526 0.250488
O O2 0.176850 0.680496 0.217214
O O3 0.211573 0.844956 0.218789
O O4 0.159625 0.786828 0.000000
O O5 0.116334 0.910905 0.500000
O O6 0.039367 0.935500 0.331524
O O7 0.120158 0.000000 0.250000
O O8 0.337482 0.500000 0.250000
O O9 0.313428 0.582139 0.500000
O O10 0.262688 0.603554 0.249365
O O11 0.346199 0.684219 0.288677
O O12 0.188092 0.500000 0.750000
O O13 0.211483 0.584968 0.000000
O O14 0.500000 0.121981 0.750000
O O15 0.403461 0.166259 0.789823
O O16 0.434174 0.000000 0.750000
O O17 0.452091 0.087045 0.000000
O O18 0.263023 0.091168 0.500000
O O19 0.307801 0.154860 0.262478
O O20 0.260347 0.000000 0.250000
O O21 0.341433 0.799452 0.500000
#
# Coordination Sequence:
#
# PCOD9395228 Si02
#       8
#     8   8   8   8   8   8   8   2
#     4  10  21  34  49  73 105 138 174 211 252 302
#     4  10  20  33  53  75 103 137 174 214 255 299
#     4  10  19  32  51  74 100 132 169 211 253 304
#     4  10  19  33  50  73 102 136 174 215 254 302
#     4  10  20  35  53  75  99 127 166 209 255 304
#     4  11  22  34  47  69 103 139 172 205 247 302
#     4  10  21  35  52  74 100 132 170 211 254 306
#     4   8  22  36  54  80 104 136 182 220 260 296
#
# _framework density 15.912209000000001
#
# number of rings (size 3 to 8) (size 9 to 14) (size 15 to 20)
#    0.414    1.517    1.379    4.345    0.000    6.069 
#    0.000    0.000    0.000    0.414    0.000    3.379 
#    0.000    3.310    0.000    0.000    0.000    0.000 
#
# Total GULP energy -323293.360012 kJ/mol
# GULP energy per Si atom -5574.023448 kJ/mol
# Density = 1.587599 g / cm^3
# Si number density = 15.912209 Si / 1000 Ang^3
#
#
#
# Elastic Constant Matrix: (Units=GPa)
#
#
# Indices 1 2 3 4 5 6 
#
# 1 74.1816 59.3786 32.9564 0.0000 0.0000 0.0000
# 2 59.3786 155.0481 54.5833 0.0000 0.0000 0.0000
# 3 32.9564 54.5833 66.4322 0.0000 0.0000 0.0000
# 4 0.0000 0.0000 0.0000 23.1839 0.0000 0.0000
# 5 0.0000 0.0000 0.0000 0.0000 18.3619 0.0000
# 6 0.0000 0.0000 0.0000 0.0000 0.0000 26.5860
#
#
#
# Elastic Compliance Matrix: (Units=1/GPa)
#
#
# Indices 1 2 3 4 5 6 
#
# 1 0.020676 -0.006060 -0.005278 0.000000 0.000000 0.000000
# 2 -0.006060 0.010851 -0.005909 0.000000 0.000000 0.000000
# 3 -0.005278 -0.005909 0.022526 0.000000 0.000000 0.000000
# 4 0.000000 0.000000 0.000000 0.043133 0.000000 0.000000
# 5 0.000000 0.000000 0.000000 0.000000 0.054461 0.000000
# 6 0.000000 0.000000 0.000000 0.000000 0.000000 0.037614
#
#
# Mechanical properties :
#
#
# Convention : Reuss Voigt Hill
#
# Bulk Modulus (GPa) = 51.12749 65.49982 58.31366
# Shear Modulus (GPa) = 21.71319 23.54259 22.62789
#
# Velocity S-wave (km/s) = 3.69801 3.85064 3.77509
# Velocity P-wave (km/s) = 7.10172 7.81169 7.46515
#
# Compressibility (1/GPa) = 0.01955895
#
# Stress axis : x y z
#
# Youngs Moduli (GPa) = 48.36484 92.16006 44.39271
#
# Poissons Ratio (x) = 0.55852 0.23430
# Poissons Ratio (y) = 0.29311 0.26231
# Poissons Ratio (z) = 0.25526 0.54456
#
# Static dielectric constant tensor:
#      x y z
#    x 1.522970 0.000000 0.000000 
#    y 0.000000 1.538100 0.000000 
#    z 0.000000 0.000000 1.540660 
# 
# From -- ./inp_files/6781.got.cif
#   From: 2010.05.17/outbox.ucp.g08.bks.cvg/sg49_4_cif.got.tgz:6781.got - 2010.06.11 16:40:14.
