data_PCOD9395998
_publ_section_title
;
Structure prediction by ZEFSAII (Michael W. Deem and Ramdas Pophale) SiO2 
 PCOD9395998
Probable space group: P B A N
;
_chemical_formula_sum "Si O2"
_cell_formula_units_Z 40
_cell_length_a 8.607628
_cell_length_b 13.399079
_cell_length_c 14.957020
_cell_angle_alpha 90.000000
_cell_angle_beta 90.000000
_cell_angle_gamma 90.000000
_cell_volume 1725.057246
_symmetry_space_group_name_H-M "P B A N"
_symmetry_group_IT_number 50
_space_group.IT_coordinate_system_code '2'
_symmetry_cell_setting 'orthorhombic'
loop_
_space_group_symop_operation_xyz
x,y,z
1/2-x,1/2-y,z
x,1/2-y,-z
1/2-x,y,-z
-x,-y,-z
1/2+x,1/2+y,-z
-x,1/2+y,z
1/2+x,-y,z
loop_
_atom_site_type_symbol
_atom_site_label
_atom_site_fract_x
_atom_site_fract_y
_atom_site_fract_z
Si Si1 0.400215 0.195189 0.356123
Si Si2 0.860498 0.449961 0.415905
Si Si3 0.628487 0.452453 0.934730
Si Si4 0.935533 0.392213 0.689561
Si Si5 0.626229 0.939765 0.815308
O O1 0.250000 0.250000 0.394106
O O2 0.503283 0.132108 0.425633
O O3 0.507673 0.280227 0.313113
O O4 0.344354 0.122528 0.275043
O O5 0.750000 0.470104 0.500000
O O6 0.739812 0.404263 0.345307
O O7 0.949598 0.544570 0.375568
O O8 0.730506 0.535216 0.880302
O O9 0.521690 0.392490 0.865559
O O10 0.750000 0.398613 0.000000
O O11 0.500000 0.500000 0.000000
O O12 0.933165 0.451635 0.782107
#
# Coordination Sequence:
#
# PCOD9395998 Si02
#       5
#     8   8   8   8   8
#     4  11  23  39  63  94 125 167 218 264 317 383
#     4  11  24  43  64  93 131 168 213 271 326 385
#     4   9  18  33  60  89 118 163 206 251 319 378
#     4  11  22  39  64  92 122 168 217 262 322 382
#     4  10  19  37  61  88 123 162 211 263 310 379
#
# _framework density 23.187638
#
# number of rings (size 3 to 8) (size 9 to 14) (size 15 to 20)
#    0.000    1.600    0.000    7.200    0.000    1.600 
#    0.000    1.000    0.000   48.600    0.000    0.000 
#    0.000    0.000    0.000    0.000    0.000    0.000 
#
# Total GULP energy -223380.857339 kJ/mol
# GULP energy per Si atom -5584.521433 kJ/mol
# Density = 2.313486 g / cm^3
# Si number density = 23.187638 Si / 1000 Ang^3
#
#
#
# Elastic Constant Matrix: (Units=GPa)
#
#
# Indices 1 2 3 4 5 6 
#
# 1 165.8084 33.7708 62.1277 0.0000 0.0000 0.0000
# 2 33.7708 88.3240 11.8130 0.0000 0.0000 0.0000
# 3 62.1277 11.8130 86.2459 0.0000 0.0000 0.0000
# 4 0.0000 0.0000 0.0000 6.6239 0.0000 0.0000
# 5 0.0000 0.0000 0.0000 0.0000 66.0442 0.0000
# 6 0.0000 0.0000 0.0000 0.0000 0.0000 43.0452
#
#
#
# Elastic Compliance Matrix: (Units=1/GPa)
#
#
# Indices 1 2 3 4 5 6 
#
# 1 0.008795 -0.002563 -0.005985 0.000000 0.000000 0.000000
# 2 -0.002563 0.012280 0.000164 0.000000 0.000000 0.000000
# 3 -0.005985 0.000164 0.015884 0.000000 0.000000 0.000000
# 4 0.000000 0.000000 0.000000 0.150968 0.000000 0.000000
# 5 0.000000 0.000000 0.000000 0.000000 0.015141 0.000000
# 6 0.000000 0.000000 0.000000 0.000000 0.000000 0.023231
#
#
# Mechanical properties :
#
#
# Convention : Reuss Voigt Hill
#
# Bulk Modulus (GPa) = 49.52467 61.75569 55.64018
# Shear Modulus (GPa) = 20.01623 38.65379 29.33501
#
# Velocity S-wave (km/s) = 2.94126 4.08732 3.56070
# Velocity P-wave (km/s) = 5.73928 6.99755 6.39942
#
# Compressibility (1/GPa) = 0.02019196
#
# Stress axis : x y z
#
# Youngs Moduli (GPa) = 113.69476 81.43461 62.95830
#
# Poissons Ratio (x) = 0.20868 0.37680
# Poissons Ratio (y) = 0.29134 -0.01032
# Poissons Ratio (z) = 0.68045 -0.01335
#
# Static dielectric constant tensor:
#      x y z
#    x 1.918580 0.000000 0.000000 
#    y 0.000000 1.836390 0.000000 
#    z 0.000000 0.000000 1.959540 
# 
# From -- ./inp_files/24668.got.cif
#   From: 2010.05.17/outbox.cif.g08.bks.cpg/sg50_13_cif.got.tgz:24668.got - 2010.06.03 11:33:33.
