data_PCOD9395510
_publ_section_title
;
Structure prediction by ZEFSAII (Michael W. Deem and Ramdas Pophale) SiO2 
 PCOD9395510
Probable space group: P B A N
;
_chemical_formula_sum "Si O2"
_cell_formula_units_Z 64
_cell_length_a 29.835986
_cell_length_b 20.198773
_cell_length_c 5.563855
_cell_angle_alpha 90.000000
_cell_angle_beta 90.000000
_cell_angle_gamma 90.000000
_cell_volume 3353.058932
_symmetry_space_group_name_H-M "P B A N"
_symmetry_group_IT_number 50
_space_group.IT_coordinate_system_code '2'
_symmetry_cell_setting 'orthorhombic'
loop_
_space_group_symop_operation_xyz
x,y,z
1/2-x,1/2-y,z
x,1/2-y,-z
1/2-x,y,-z
-x,-y,-z
1/2+x,1/2+y,-z
-x,1/2+y,z
1/2+x,-y,z
loop_
_atom_site_type_symbol
_atom_site_label
_atom_site_fract_x
_atom_site_fract_y
_atom_site_fract_z
Si Si1 0.378584 0.006415 0.422218
Si Si2 0.962451 0.370089 0.935914
Si Si3 0.584557 0.007742 0.075992
Si Si4 0.303747 0.398414 0.491854
Si Si5 0.466236 0.673601 0.435349
Si Si6 0.304477 0.326152 0.991825
Si Si7 0.070432 0.146260 0.602973
Si Si8 0.433452 0.150391 0.897425
O O1 0.397290 0.971233 0.661696
O O2 0.329128 0.032288 0.483457
O O3 0.409064 0.073052 0.403674
O O4 0.382679 0.978966 0.151688
O O5 0.943087 0.358392 0.669498
O O6 0.012916 0.343520 0.904661
O O7 0.957966 0.447188 0.005564
O O8 0.943787 0.333789 0.173422
O O9 0.575513 0.929082 0.095071
O O10 0.250000 0.403555 0.500000
O O11 0.317023 0.358261 0.734746
O O12 0.317769 0.365275 0.236226
O O13 0.472652 0.750000 0.500000
O O14 0.516072 0.641773 0.403079
O O15 0.318516 0.250000 0.000000
O O16 0.250000 0.326757 0.000000
O O17 0.083528 0.178576 0.352165
O O18 0.083897 0.178383 0.853343
#
# Coordination Sequence:
#
# PCOD9395510 Si02
#       8
#     8   8   8   8   8   8   8   8
#     4  10  19  31  45  64  90 114 142 184 228 267
#     4  10  18  29  45  64  83 111 149 179 213 258
#     4  10  18  29  45  65  87 111 140 179 223 260
#     4  10  19  31  48  67  88 116 150 185 225 274
#     4  10  19  31  44  60  85 116 150 184 215 252
#     4   9  17  30  47  65  83 105 140 187 226 255
#     4   8  16  28  42  58  81 110 139 176 217 254
#     4   8  15  26  42  62  81 102 134 176 214 250
#
# _framework density 19.087046999999998
#
# number of rings (size 3 to 8) (size 9 to 14) (size 15 to 20)
#    0.000    2.625    0.000    2.625    0.000    1.500 
#    0.000    8.750    0.000    0.000    0.000    0.000 
#    0.000    0.000    0.000    0.000    0.000   43.750 
#
# Total GULP energy -356353.269489 kJ/mol
# GULP energy per Si atom -5568.019836 kJ/mol
# Density = 1.904360 g / cm^3
# Si number density = 19.087047 Si / 1000 Ang^3
#
#
#
# Elastic Constant Matrix: (Units=GPa)
#
#
# Indices 1 2 3 4 5 6 
#
# 1 24.6943 12.4658 14.1452 0.0000 0.0000 0.0000
# 2 12.4658 35.6741 16.0485 0.0000 0.0000 0.0000
# 3 14.1452 16.0485 224.5075 0.0000 0.0000 0.0000
# 4 0.0000 0.0000 0.0000 27.5321 0.0000 0.0000
# 5 0.0000 0.0000 0.0000 0.0000 22.8892 0.0000
# 6 0.0000 0.0000 0.0000 0.0000 0.0000 20.4044
#
#
#
# Elastic Compliance Matrix: (Units=1/GPa)
#
#
# Indices 1 2 3 4 5 6 
#
# 1 0.049993 -0.016586 -0.001964 0.000000 0.000000 0.000000
# 2 -0.016586 0.034465 -0.001419 0.000000 0.000000 0.000000
# 3 -0.001964 -0.001419 0.004679 0.000000 0.000000 0.000000
# 4 0.000000 0.000000 0.000000 0.036321 0.000000 0.000000
# 5 0.000000 0.000000 0.000000 0.000000 0.043689 0.000000
# 6 0.000000 0.000000 0.000000 0.000000 0.000000 0.049009
#
#
# Mechanical properties :
#
#
# Convention : Reuss Voigt Hill
#
# Bulk Modulus (GPa) = 20.32504 41.13277 30.72890
# Shear Modulus (GPa) = 18.21531 30.31289 24.26410
#
# Velocity S-wave (km/s) = 3.09257 3.98947 3.56930
# Velocity P-wave (km/s) = 4.83981 6.54355 5.75507
#
# Compressibility (1/GPa) = 0.04920040
#
# Stress axis : x y z
#
# Youngs Moduli (GPa) = 20.00282 29.01455 213.70420
#
# Poissons Ratio (x) = 0.48123 0.41976
# Poissons Ratio (y) = 0.33176 0.30319
# Poissons Ratio (z) = 0.03929 0.04116
#
# Static dielectric constant tensor:
#      x y z
#    x 1.670020 0.000000 0.000000 
#    y 0.000000 1.583410 0.000000 
#    z 0.000000 0.000000 1.811870 
# 
# From -- ./inp_files/6802.got.cif
#   From: 2010.05.17/outbox.cif.g08.bks.cpg/sg50_4_cif.got.tgz:6802.got - 2010.06.03 11:33:33.
