data_PCOD9395365
_publ_section_title
;
Structure prediction by ZEFSAII (Michael W. Deem and Ramdas Pophale) SiO2 
 PCOD9395365
Probable space group: P B A N
;
_chemical_formula_sum "Si O2"
_cell_formula_units_Z 34
_cell_length_a 14.543834
_cell_length_b 5.595839
_cell_length_c 19.263638
_cell_angle_alpha 90.000000
_cell_angle_beta 90.000000
_cell_angle_gamma 90.000000
_cell_volume 1567.770283
_symmetry_space_group_name_H-M "P B A N"
_symmetry_group_IT_number 50
_space_group.IT_coordinate_system_code '2'
_symmetry_cell_setting 'orthorhombic'
loop_
_space_group_symop_operation_xyz
x,y,z
1/2-x,1/2-y,z
x,1/2-y,-z
1/2-x,y,-z
-x,-y,-z
1/2+x,1/2+y,-z
-x,1/2+y,z
1/2+x,-y,z
loop_
_atom_site_type_symbol
_atom_site_label
_atom_site_fract_x
_atom_site_fract_y
_atom_site_fract_z
Si Si1 0.054956 0.787443 0.282904
Si Si2 0.387246 0.746348 0.863789
Si Si3 0.750000 0.750000 0.500000
Si Si4 0.402100 0.244421 0.917618
Si Si5 0.647754 0.358166 0.570327
O O1 0.125211 0.772652 0.218554
O O2 0.095443 0.802164 0.359994
O O3 0.998718 0.539466 0.275186
O O4 0.355417 0.490414 0.892593
O O5 0.497575 0.741762 0.880660
O O6 0.355417 0.992328 0.899045
O O7 0.677111 0.625301 0.551818
O O8 0.416709 0.250000 0.000000
O O9 0.750000 0.250000 0.575894
O O10 0.603893 0.250000 0.500000
#
# Coordination Sequence:
#
# PCOD9395365 Si02
#       5
#     8   8   2   8   8
#     4  12  23  36  56  84 122 147 176 237 292 330
#     4  10  16  29  40  70 105 142 168 223 272 320
#     4   8  18  44  60  78 104 144 202 236 262 340
#     4  10  16  26  43  64 102 149 180 210 264 331
#     4   9  22  41  61  81 107 151 194 228 273 338
#
# _framework density 21.686851999999998
#
# number of rings (size 3 to 8) (size 9 to 14) (size 15 to 20)
#    0.000    2.118    4.706    3.529    6.588    0.941 
#    0.000    0.000    0.000    0.000    0.000    0.000 
#    0.000   10.353    0.000    0.000    0.000    0.000 
#
# Total GULP energy -189371.119928 kJ/mol
# GULP energy per Si atom -5569.738821 kJ/mol
# Density = 2.163749 g / cm^3
# Si number density = 21.686852 Si / 1000 Ang^3
#
#
#
# Elastic Constant Matrix: (Units=GPa)
#
#
# Indices 1 2 3 4 5 6 
#
# 1 44.2535 18.8993 13.9973 0.0000 0.0000 0.0000
# 2 18.8993 195.7188 53.0253 0.0000 0.0000 0.0000
# 3 13.9973 53.0253 195.4655 0.0000 0.0000 0.0000
# 4 0.0000 0.0000 0.0000 55.1053 0.0000 0.0000
# 5 0.0000 0.0000 0.0000 0.0000 -48.3203 0.0000
# 6 0.0000 0.0000 0.0000 0.0000 0.0000 36.9867
#
#
#
# Elastic Compliance Matrix: (Units=1/GPa)
#
#
# Indices 1 2 3 4 5 6 
#
# 1 0.023813 -0.001983 -0.001167 0.000000 0.000000 0.000000
# 2 -0.001983 0.005680 -0.001399 0.000000 0.000000 0.000000
# 3 -0.001167 -0.001399 0.005579 0.000000 0.000000 0.000000
# 4 0.000000 0.000000 0.000000 0.018147 0.000000 0.000000
# 5 0.000000 0.000000 0.000000 0.000000 -0.020695 0.000000
# 6 0.000000 0.000000 0.000000 0.000000 0.000000 0.027037
#
#
# Mechanical properties :
#
#
# Convention : Reuss Voigt Hill
#
# Bulk Modulus (GPa) = 38.50069 67.47574 52.98822
# Shear Modulus (GPa) = 64.66869 32.05541 48.36205
#
# Velocity S-wave (km/s) = 5.46663 3.84878 4.72743
# Velocity P-wave (km/s) = 7.59190 7.13667 7.36780
#
# Compressibility (1/GPa) = 0.02597356
#
# Stress axis : x y z
#
# Youngs Moduli (GPa) = 41.99339 176.06100 179.24232
#
# Poissons Ratio (x) = 0.34917 0.20922
# Poissons Ratio (y) = 0.08328 0.25072
# Poissons Ratio (z) = 0.04902 0.24627
#
# Static dielectric constant tensor:
#      x y z
#    x 1.787440 0.000000 0.000000 
#    y 0.000000 1.864670 0.000000 
#    z 0.000000 0.000000 1.702350 
# 
# From -- ./inp_files/26706.got.cif
#   From: 2010.05.17/outbox.cif.g08.bks.cpg/sg50_14_cif.got.tgz:26706.got - 2010.06.03 11:33:33.
