data_PCOD9395849
_publ_section_title
;
Structure prediction by ZEFSAII (Michael W. Deem and Ramdas Pophale) SiO2 
 PCOD9395849
Probable space group: P B A N
;
_chemical_formula_sum "Si O2"
_cell_formula_units_Z 24
_cell_length_a 5.156334
_cell_length_b 13.628503
_cell_length_c 13.207618
_cell_angle_alpha 90.000000
_cell_angle_beta 90.000000
_cell_angle_gamma 90.000000
_cell_volume 928.140437
_symmetry_space_group_name_H-M "P B A N"
_symmetry_group_IT_number 50
_space_group.IT_coordinate_system_code '2'
_symmetry_cell_setting 'orthorhombic'
loop_
_space_group_symop_operation_xyz
x,y,z
1/2-x,1/2-y,z
x,1/2-y,-z
1/2-x,y,-z
-x,-y,-z
1/2+x,1/2+y,-z
-x,1/2+y,z
1/2+x,-y,z
loop_
_atom_site_type_symbol
_atom_site_label
_atom_site_fract_x
_atom_site_fract_y
_atom_site_fract_z
Si Si1 0.912724 0.362165 0.895525
Si Si2 0.774629 0.932581 0.611305
Si Si3 0.916217 0.855665 0.184019
O O1 0.001967 0.251876 0.859754
O O2 0.703383 0.401907 0.815757
O O3 0.202670 0.404710 0.890093
O O4 0.750000 0.365679 0.000000
O O5 0.750000 0.885229 0.500000
O O6 0.707925 0.863062 0.705589
O O7 0.556769 0.018161 0.615941
#
# Coordination Sequence:
#
# PCOD9395849 Si02
#       3
#     8   8   8
#     4  10  20  34  57  85 112 146 182 227 286 338
#     4  10  21  38  60  83 112 153 193 231 278 331
#     4  10  19  34  57  84 110 145 188 227 275 336
#
# _framework density 25.858153999999999
#
# number of rings (size 3 to 8) (size 9 to 14) (size 15 to 20)
#    0.000    2.000    0.000    5.000    0.000    5.333 
#    0.000    3.333    0.000   38.000    0.000    0.000 
#    0.000    0.000    0.000    0.000    0.000    0.000 
#
# Total GULP energy -133764.372949 kJ/mol
# GULP energy per Si atom -5573.515540 kJ/mol
# Density = 2.579930 g / cm^3
# Si number density = 25.858154 Si / 1000 Ang^3
#
#
#
# Elastic Constant Matrix: (Units=GPa)
#
#
# Indices 1 2 3 4 5 6 
#
# 1 252.2552 -6.8832 60.9232 0.0000 0.0000 0.0000
# 2 -6.8832 89.0717 15.3207 0.0000 0.0000 0.0000
# 3 60.9232 15.3207 227.6287 0.0000 0.0000 0.0000
# 4 0.0000 0.0000 0.0000 24.4345 0.0000 0.0000
# 5 0.0000 0.0000 0.0000 0.0000 48.7609 0.0000
# 6 0.0000 0.0000 0.0000 0.0000 0.0000 5.5585
#
#
#
# Elastic Compliance Matrix: (Units=1/GPa)
#
#
# Indices 1 2 3 4 5 6 
#
# 1 0.004263 0.000532 -0.001177 0.000000 0.000000 0.000000
# 2 0.000532 0.011425 -0.000911 0.000000 0.000000 0.000000
# 3 -0.001177 -0.000911 0.004769 0.000000 0.000000 0.000000
# 4 0.000000 0.000000 0.000000 0.040926 0.000000 0.000000
# 5 0.000000 0.000000 0.000000 0.000000 0.020508 0.000000
# 6 0.000000 0.000000 0.000000 0.000000 0.000000 0.179904
#
#
# Mechanical properties :
#
#
# Convention : Reuss Voigt Hill
#
# Bulk Modulus (GPa) = 57.65447 78.63078 68.14263
# Shear Modulus (GPa) = 18.47135 49.05712 33.76423
#
# Velocity S-wave (km/s) = 2.67560 4.36037 3.61743
# Velocity P-wave (km/s) = 5.64712 7.47161 6.62250
#
# Compressibility (1/GPa) = 0.01734471
#
# Stress axis : x y z
#
# Youngs Moduli (GPa) = 234.57924 87.52918 209.66987
#
# Poissons Ratio (x) = -0.04655 0.24673
# Poissons Ratio (y) = -0.12476 0.19107
# Poissons Ratio (z) = 0.27604 0.07976
#
# Static dielectric constant tensor:
#      x y z
#    x 2.368090 0.000000 0.000000 
#    y 0.000000 2.665800 0.000000 
#    z 0.000000 0.000000 2.099670 
# 
# From -- ./inp_files/17438.got.cif
#   From: 2010.05.17/outbox.cif.g08.bks.cpg/sg50_9_cif.got.tgz:17438.got - 2010.06.03 11:33:33.
