data_PCOD9395805
_publ_section_title
;
Structure prediction by ZEFSAII (Michael W. Deem and Ramdas Pophale) SiO2 
 PCOD9395805
Probable space group: P B A N
;
_chemical_formula_sum "Si O2"
_cell_formula_units_Z 48
_cell_length_a 10.058911
_cell_length_b 28.146846
_cell_length_c 7.502979
_cell_angle_alpha 90.000000
_cell_angle_beta 90.000000
_cell_angle_gamma 90.000000
_cell_volume 2124.293076
_symmetry_space_group_name_H-M "P B A N"
_symmetry_group_IT_number 50
_space_group.IT_coordinate_system_code '2'
_symmetry_cell_setting 'orthorhombic'
loop_
_space_group_symop_operation_xyz
x,y,z
1/2-x,1/2-y,z
x,1/2-y,-z
1/2-x,y,-z
-x,-y,-z
1/2+x,1/2+y,-z
-x,1/2+y,z
1/2+x,-y,z
loop_
_atom_site_type_symbol
_atom_site_label
_atom_site_fract_x
_atom_site_fract_y
_atom_site_fract_z
Si Si1 0.460093 0.025377 0.311739
Si Si2 0.502870 0.638370 0.725316
Si Si3 0.242102 0.303610 0.718321
Si Si4 0.509296 0.863816 0.703224
Si Si5 0.743948 0.194294 0.281566
Si Si6 0.169822 0.043645 0.180959
O O1 0.499429 0.079976 0.273584
O O2 0.298173 0.027006 0.300225
O O3 0.500000 0.000000 0.500000
O O4 0.556917 0.996549 0.179935
O O5 0.602475 0.678633 0.786405
O O6 0.503704 0.639991 0.510957
O O7 0.358147 0.657103 0.779415
O O8 0.579693 0.589566 0.770754
O O9 0.250000 0.250000 0.777227
O O10 0.250000 0.303247 0.500000
O O11 0.354122 0.341232 0.770880
O O12 0.392409 0.830727 0.773542
O O13 0.750000 0.250000 0.226360
O O14 0.750000 0.195458 0.500000
O O15 0.250000 0.052286 0.000000
#
# Coordination Sequence:
#
# PCOD9395805 Si02
#       6
#     8   8   8   8   8   8
#     4  12  25  42  70  95 127 173 225 281 328 397
#     4  10  19  34  58  85 127 166 211 266 330 398
#     4   9  16  28  52  86 122 158 202 271 332 385
#     4  10  19  33  57  91 125 161 218 264 330 390
#     4   9  18  31  53  92 133 164 202 270 336 395
#     4  12  27  45  63  94 136 177 222 279 345 405
#
# _framework density 22.595752999999998
#
# number of rings (size 3 to 8) (size 9 to 14) (size 15 to 20)
#    0.000    1.667    3.333    2.000    2.333    5.333 
#    0.000    0.000    0.000    0.500    0.000    1.167 
#    0.000    0.000    0.000    0.000    0.000    0.000 
#
# Total GULP energy -267437.555503 kJ/mol
# GULP energy per Si atom -5571.615740 kJ/mol
# Density = 2.254432 g / cm^3
# Si number density = 22.595753 Si / 1000 Ang^3
#
#
#
# Elastic Constant Matrix: (Units=GPa)
#
#
# Indices 1 2 3 4 5 6 
#
# 1 132.5001 72.3584 27.1105 0.0000 0.0000 0.0000
# 2 72.3584 189.9658 3.4060 0.0000 0.0000 0.0000
# 3 27.1105 3.4060 65.0653 0.0000 0.0000 0.0000
# 4 0.0000 0.0000 0.0000 -24.9150 0.0000 0.0000
# 5 0.0000 0.0000 0.0000 0.0000 12.8752 0.0000
# 6 0.0000 0.0000 0.0000 0.0000 0.0000 -50.6577
#
#
#
# Elastic Compliance Matrix: (Units=1/GPa)
#
#
# Indices 1 2 3 4 5 6 
#
# 1 0.010561 -0.003948 -0.004194 0.000000 0.000000 0.000000
# 2 -0.003948 0.006745 0.001292 0.000000 0.000000 0.000000
# 3 -0.004194 0.001292 0.017049 0.000000 0.000000 0.000000
# 4 0.000000 0.000000 0.000000 -0.040136 0.000000 0.000000
# 5 0.000000 0.000000 0.000000 0.000000 0.077669 0.000000
# 6 0.000000 0.000000 0.000000 0.000000 0.000000 -0.019740
#
#
# Mechanical properties :
#
#
# Convention : Reuss Voigt Hill
#
# Bulk Modulus (GPa) = 48.41341 65.92009 57.16675
# Shear Modulus (GPa) = 68.74660 6.43758 37.59209
#
# Velocity S-wave (km/s) = 5.52183 1.68974 4.08325
# Velocity P-wave (km/s) = 7.88204 5.74839 6.89821
#
# Compressibility (1/GPa) = 0.02065543
#
# Stress axis : x y z
#
# Youngs Moduli (GPa) = 94.68819 148.26756 58.65462
#
# Poissons Ratio (x) = 0.58529 0.24598
# Poissons Ratio (y) = 0.37378 -0.07577
# Poissons Ratio (z) = 0.39710 -0.19152
#
# Static dielectric constant tensor:
#      x y z
#    x 1.796530 0.000000 0.000000 
#    y 0.000000 1.879020 0.000000 
#    z 0.000000 0.000000 2.004680 
# 
# From -- ./inp_files/10037.got.cif
#   From: 2010.05.17/outbox.cif.g08.bks.cpg/sg50_6_cif.got.tgz:10037.got - 2010.06.03 11:33:33.
