data_PCOD9395126
_publ_section_title
;
Structure prediction by ZEFSAII (Michael W. Deem and Ramdas Pophale) SiO2 
 PCOD9395126
Probable space group: P C C M
;
_chemical_formula_sum "Si O2"
_cell_formula_units_Z 40
_cell_length_a 8.443671
_cell_length_b 10.890135
_cell_length_c 18.271486
_cell_angle_alpha 90.000000
_cell_angle_beta 90.000000
_cell_angle_gamma 90.000000
_cell_volume 1680.112783
_symmetry_space_group_name_H-M "P C C M"
_symmetry_group_IT_number 49
_symmetry_cell_setting 'orthorhombic'
loop_
_space_group_symop_operation_xyz
x,y,z
-x,-y,z
x,-y,1/2-z
-x,y,1/2-z
-x,-y,-z
x,y,-z
-x,y,1/2+z
x,-y,1/2+z
loop_
_atom_site_type_symbol
_atom_site_label
_atom_site_fract_x
_atom_site_fract_y
_atom_site_fract_z
Si Si1 0.229864 0.095695 0.500000
Si Si2 0.574316 0.134416 0.145342
Si Si3 0.133685 0.180136 0.000000
Si Si4 0.832125 0.571908 0.582552
Si Si5 0.831702 0.257926 0.224921
Si Si6 0.297337 0.331920 0.872635
O O1 0.322611 0.134090 0.428196
O O2 0.049154 0.141734 0.500000
O O3 0.227620 0.947295 0.500000
O O4 0.694217 0.159656 0.211824
O O5 0.452070 0.247630 0.136937
O O6 0.500000 0.000000 0.151906
O O7 0.184850 0.257038 0.071101
O O8 0.811263 0.621322 0.500000
O O9 0.839479 0.665748 0.649764
O O10 0.697097 0.469466 0.596680
O O11 0.000000 0.500000 0.583107
O O12 0.780202 0.342076 0.292661
O O13 0.000000 0.204080 0.250000
#
# Coordination Sequence:
#
# PCOD9395126 Si02
#       6
#     4   8   4   8   8   8
#     4  11  24  45  77 110 161 208 263 322 370 478
#     4  12  27  49  76 112 159 208 255 323 396 454
#     4  11  23  46  77 118 152 212 269 304 395 461
#     4  11  25  46  79 114 151 199 261 321 382 463
#     4  12  27  48  77 110 153 205 258 324 386 466
#     4  12  24  46  76 111 158 203 251 321 392 454
#
# _framework density 23.807925000000001
#
# number of rings (size 3 to 8) (size 9 to 14) (size 15 to 20)
#    0.000    0.400    5.000    3.300    1.400    2.400 
#    0.000    4.000    0.000    0.000    0.000    0.000 
#    0.000    0.000    0.000    0.000    0.000    0.000 
#
# Total GULP energy -224121.739934 kJ/mol
# GULP energy per Si atom -5603.043498 kJ/mol
# Density = 2.375374 g / cm^3
# Si number density = 23.807925 Si / 1000 Ang^3
#
#
#
# Elastic Constant Matrix: (Units=GPa)
#
#
# Indices 1 2 3 4 5 6 
#
# 1 119.5545 55.9480 38.8542 0.0000 0.0000 0.0000
# 2 55.9480 100.5884 42.6158 0.0000 0.0000 0.0000
# 3 38.8542 42.6158 185.8340 0.0000 0.0000 0.0000
# 4 0.0000 0.0000 0.0000 31.8286 0.0000 0.0000
# 5 0.0000 0.0000 0.0000 0.0000 35.9831 0.0000
# 6 0.0000 0.0000 0.0000 0.0000 0.0000 38.9372
#
#
#
# Elastic Compliance Matrix: (Units=1/GPa)
#
#
# Indices 1 2 3 4 5 6 
#
# 1 0.011485 -0.005949 -0.001037 0.000000 0.000000 0.000000
# 2 -0.005949 0.014092 -0.001988 0.000000 0.000000 0.000000
# 3 -0.001037 -0.001988 0.006054 0.000000 0.000000 0.000000
# 4 0.000000 0.000000 0.000000 0.031418 0.000000 0.000000
# 5 0.000000 0.000000 0.000000 0.000000 0.027791 0.000000
# 6 0.000000 0.000000 0.000000 0.000000 0.000000 0.025682
#
#
# Mechanical properties :
#
#
# Convention : Reuss Voigt Hill
#
# Bulk Modulus (GPa) = 73.07874 75.64589 74.36231
# Shear Modulus (GPa) = 35.96287 39.25370 37.60829
#
# Velocity S-wave (km/s) = 3.89079 4.06491 3.97880
# Velocity P-wave (km/s) = 7.13765 7.33987 7.23947
#
# Compressibility (1/GPa) = 0.01368387
#
# Stress axis : x y z
#
# Youngs Moduli (GPa) = 87.06761 70.95978 165.18350
#
# Poissons Ratio (x) = 0.42213 0.17132
# Poissons Ratio (y) = 0.51795 0.32837
# Poissons Ratio (z) = 0.09030 0.14106
#
# Static dielectric constant tensor:
#      x y z
#    x 1.937110 0.000000 0.000000 
#    y 0.000000 1.902160 0.000000 
#    z 0.000000 0.000000 1.876560 
# 
# From -- ./inp_files/16033.got.cif
#   From: 2010.05.17/outbox.cif.g08.bks.cpg/sg49_9_cif.got.tgz:16033.got - 2010.06.03 21:02:19.
