data_PCOD9395571
_publ_section_title
;
Structure prediction by ZEFSAII (Michael W. Deem and Ramdas Pophale) SiO2 
 PCOD9395571
Probable space group: P B A N
;
_chemical_formula_sum "Si O2"
_cell_formula_units_Z 26
_cell_length_a 15.955744
_cell_length_b 11.951603
_cell_length_c 7.018181
_cell_angle_alpha 90.000000
_cell_angle_beta 90.000000
_cell_angle_gamma 90.000000
_cell_volume 1338.344082
_symmetry_space_group_name_H-M "P B A N"
_symmetry_group_IT_number 50
_space_group.IT_coordinate_system_code '2'
_symmetry_cell_setting 'orthorhombic'
loop_
_space_group_symop_operation_xyz
x,y,z
1/2-x,1/2-y,z
x,1/2-y,-z
1/2-x,y,-z
-x,-y,-z
1/2+x,1/2+y,-z
-x,1/2+y,z
1/2+x,-y,z
loop_
_atom_site_type_symbol
_atom_site_label
_atom_site_fract_x
_atom_site_fract_y
_atom_site_fract_z
Si Si1 0.636219 0.835747 0.671394
Si Si2 0.750000 0.750000 0.000000
Si Si3 0.410199 0.561074 0.514579
Si Si4 0.556724 0.274054 0.778987
O O1 0.655551 0.750000 0.500000
O O2 0.540567 0.805193 0.734883
O O3 0.646141 0.960491 0.588988
O O4 0.692301 0.820251 0.857161
O O5 0.500000 0.500000 0.500000
O O6 0.392529 0.621925 0.313542
O O7 0.419711 0.662312 0.663382
O O8 0.568583 0.250000 0.000000
#
# Coordination Sequence:
#
# PCOD9395571 Si02
#       4
#     8   2   8   8
#     4  11  21  37  53  80 121 148 193 228 280 347
#     4  12  26  36  52  78 114 172 190 218 272 360
#     4   9  18  33  54  82 116 142 173 240 293 325
#     4  10  18  32  57  89 114 139 182 241 299 331
#
# _framework density 19.426991000000001
#
# number of rings (size 3 to 8) (size 9 to 14) (size 15 to 20)
#    0.000    1.846    7.692    0.462    0.000    7.385 
#    0.000    0.000    0.000    0.000    0.000   44.154 
#    0.000    0.000    0.000    0.000    0.000    0.000 
#
# Total GULP energy -144959.914126 kJ/mol
# GULP energy per Si atom -5575.381313 kJ/mol
# Density = 1.938277 g / cm^3
# Si number density = 19.426991 Si / 1000 Ang^3
#
#
#
# Elastic Constant Matrix: (Units=GPa)
#
#
# Indices 1 2 3 4 5 6 
#
# 1 36.0842 31.4145 31.9961 0.0000 0.0000 0.0000
# 2 31.4145 179.8312 97.1766 0.0000 0.0000 0.0000
# 3 31.9961 97.1766 199.4268 0.0000 0.0000 0.0000
# 4 0.0000 0.0000 0.0000 28.8762 0.0000 0.0000
# 5 0.0000 0.0000 0.0000 0.0000 10.3039 0.0000
# 6 0.0000 0.0000 0.0000 0.0000 0.0000 -6.1620
#
#
#
# Elastic Compliance Matrix: (Units=1/GPa)
#
#
# Indices 1 2 3 4 5 6 
#
# 1 0.034411 -0.004110 -0.003518 0.000000 0.000000 0.000000
# 2 -0.004110 0.008039 -0.003258 0.000000 0.000000 0.000000
# 3 -0.003518 -0.003258 0.007166 0.000000 0.000000 0.000000
# 4 0.000000 0.000000 0.000000 0.034631 0.000000 0.000000
# 5 0.000000 0.000000 0.000000 0.000000 0.097050 0.000000
# 6 0.000000 0.000000 0.000000 0.000000 0.000000 -0.162286
#
#
# Mechanical properties :
#
#
# Convention : Reuss Voigt Hill
#
# Bulk Modulus (GPa) = 35.91430 81.83516 58.87473
# Shear Modulus (GPa) = 99.86922 23.58728 61.72825
#
# Velocity S-wave (km/s) = 7.17768 3.48825 5.64300
# Velocity P-wave (km/s) = 9.33911 7.64459 8.53401
#
# Compressibility (1/GPa) = 0.02784406
#
# Stress axis : x y z
#
# Youngs Moduli (GPa) = 29.06076 124.38925 139.54091
#
# Poissons Ratio (x) = 0.51125 0.49092
# Poissons Ratio (y) = 0.11944 0.45462
# Poissons Ratio (z) = 0.10224 0.40526
#
# Static dielectric constant tensor:
#      x y z
#    x 1.719480 0.000000 0.000000 
#    y 0.000000 1.669980 0.000000 
#    z 0.000000 0.000000 1.672280 
# 
# From -- ./inp_files/3903.got.cif
#   From: 2010.05.17/outbox.cif.g08.bks.cpg/sg50_2_cif.got.tgz:3903.got - 2010.06.03 11:33:33.
