data_PCOD9395207
_publ_section_title
;
Structure prediction by ZEFSAII (Michael W. Deem and Ramdas Pophale) SiO2 
 PCOD9395207
Probable space group: P C C M
;
_chemical_formula_sum "Si O2"
_cell_formula_units_Z 48
_cell_length_a 15.000000
_cell_length_b 18.000000
_cell_length_c 9.000000
_cell_angle_alpha 90.000000
_cell_angle_beta 90.000000
_cell_angle_gamma 90.000000
_cell_volume 2430.000000
_symmetry_space_group_name_H-M "P C C M"
_symmetry_group_IT_number 49
_symmetry_cell_setting 'orthorhombic'
loop_
_space_group_symop_operation_xyz
x,y,z
-x,-y,z
x,-y,1/2-z
-x,y,1/2-z
-x,-y,-z
x,y,-z
-x,y,1/2+z
x,-y,1/2+z
loop_
_atom_site_type_symbol
_atom_site_label
_atom_site_fract_x
_atom_site_fract_y
_atom_site_fract_z
Si Si1 0.580092 0.162127 0.327223
Si Si2 0.083339 0.921097 0.829688
Si Si3 0.768040 0.331027 0.668648
Si Si4 0.225784 0.846991 0.338766
Si Si5 0.410354 0.676096 0.822593
Si Si6 0.903718 0.573482 0.324366
O O1 0.500000 0.119203 0.250000
O O2 0.562296 0.182527 0.500000
O O3 0.674573 0.122680 0.326598
O O4 0.589769 0.236862 0.227829
O O5 0.168960 0.873148 0.797703
O O6 0.000000 0.882984 0.750000
O O7 0.095870 0.000000 0.750000
O O8 0.065028 0.931855 0.000000
O O9 0.778632 0.359066 0.500000
O O10 0.767873 0.241853 0.659454
O O11 0.676134 0.356508 0.742909
O O12 0.846069 0.357226 0.774752
O O13 0.187353 0.870542 0.500000
O O14 0.500000 0.644469 0.750000
O O15 0.408344 0.669847 0.000000
O O16 0.861830 0.500000 0.250000
O O17 0.910915 0.565354 0.500000
O O18 0.000000 0.580825 0.250000
#
# Coordination Sequence:
#
# PCOD9395207 Si02
#       6
#     8   8   8   8   8   8
#     4   9  16  27  45  70 102 137 170 209 252 301
#     4  11  22  37  57  76 100 133 171 211 255 309
#     4  10  20  35  54  79 109 139 173 218 263 306
#     4   9  19  34  52  77 108 137 170 212 258 302
#     4  10  17  27  45  71 103 138 174 212 255 306
#     4  11  22  38  58  79 104 138 177 216 259 312
#
# _framework density 19.753086
#
# number of rings (size 3 to 8) (size 9 to 14) (size 15 to 20)
#    0.000    2.000    0.000    8.500    0.000    4.667 
#    0.000    0.000    0.000    1.000    0.000    7.000 
#    0.000    0.000    0.000    0.000    0.000    0.000 
#
# Total GULP energy -267325.461141 kJ/mol
# GULP energy per Si atom -5569.280440 kJ/mol
# Density = 1.970813 g / cm^3
# Si number density = 19.753086 Si / 1000 Ang^3
#
#
#
# Elastic Constant Matrix: (Units=GPa)
#
#
# Indices 1 2 3 4 5 6 
#
# 1 84.0755 22.1082 54.8326 0.0000 0.0000 0.0000
# 2 22.1082 1.9136 18.0618 0.0000 0.0000 0.0000
# 3 54.8326 18.0618 181.1359 0.0000 0.0000 0.0000
# 4 0.0000 0.0000 0.0000 13.0975 0.0000 0.0000
# 5 0.0000 0.0000 0.0000 0.0000 49.0900 0.0000
# 6 0.0000 0.0000 0.0000 0.0000 0.0000 22.3524
#
#
#
# Elastic Compliance Matrix: (Units=1/GPa)
#
#
# Indices 1 2 3 4 5 6 
#
# 1 -0.000418 0.061789 -0.006035 0.000000 0.000000 0.000000
# 2 0.061789 -0.250552 0.006279 0.000000 0.000000 0.000000
# 3 -0.006035 0.006279 0.006721 0.000000 0.000000 0.000000
# 4 0.000000 0.000000 0.000000 0.076350 0.000000 0.000000
# 5 0.000000 0.000000 0.000000 0.000000 0.020371 0.000000
# 6 0.000000 0.000000 0.000000 0.000000 0.000000 0.044738
#
#
# Mechanical properties :
#
#
# Convention : Reuss Voigt Hill
#
# Bulk Modulus (GPa) = -8.32076 50.79227 21.23575
# Shear Modulus (GPa) = -18.73241 28.38280 4.82519
#
# Velocity S-wave (km/s) = -3.08284 3.79473 1.56463
# Velocity P-wave (km/s) = 4.11015 6.70592 3.74673
#
# Compressibility (1/GPa) = -0.12018132
#
# Stress axis : x y z
#
# Youngs Moduli (GPa) = -2391.74655 -3.99119 148.77841
#
# Poissons Ratio (x) = 0.24661 0.89783
# Poissons Ratio (y) = 147.78424 -0.93418
# Poissons Ratio (z) = -14.43347 0.02506
#
# Static dielectric constant tensor:
#      x y z
#    x 1.838380 0.000000 0.000000 
#    y 0.000000 1.736310 0.000000 
#    z 0.000000 0.000000 1.712350 
# 
# From -- ./inp_files/3724.got.cif
#   From: 2010.05.17/outbox.ucp.g08.bks.cvg/sg49_2_cif.got.tgz:3724.got - 2010.06.11 16:40:14.
