data_PCOD9395078
_publ_section_title
;
Structure prediction by ZEFSAII (Michael W. Deem and Ramdas Pophale) SiO2 
 PCOD9395078
Probable space group: P C C M
;
_chemical_formula_sum "Si O2"
_cell_formula_units_Z 40
_cell_length_a 12.198652
_cell_length_b 8.711526
_cell_length_c 16.350280
_cell_angle_alpha 90.000000
_cell_angle_beta 90.000000
_cell_angle_gamma 90.000000
_cell_volume 1737.525846
_symmetry_space_group_name_H-M "P C C M"
_symmetry_group_IT_number 49
_symmetry_cell_setting 'orthorhombic'
loop_
_space_group_symop_operation_xyz
x,y,z
-x,-y,z
x,-y,1/2-z
-x,y,1/2-z
-x,-y,-z
x,y,-z
-x,y,1/2+z
x,-y,1/2+z
loop_
_atom_site_type_symbol
_atom_site_label
_atom_site_fract_x
_atom_site_fract_y
_atom_site_fract_z
Si Si1 0.548910 0.214621 0.659240
Si Si2 0.167851 0.684983 0.836409
Si Si3 0.231541 0.352351 0.146722
Si Si4 0.659171 0.916475 0.593292
Si Si5 0.967697 0.174307 0.405960
O O1 0.500000 0.233475 0.750000
O O2 0.638412 0.340217 0.636526
O O3 0.445220 0.197121 0.600555
O O4 0.620406 0.057654 0.650109
O O5 0.193220 0.521738 0.877390
O O6 0.206174 0.672303 0.742940
O O7 0.235467 0.824325 0.876611
O O8 0.040292 0.719578 0.847595
O O9 0.158571 0.222390 0.103106
O O10 0.671838 0.968552 0.500000
O O11 0.000944 0.199812 0.500000
O O12 0.000000 0.000000 0.385492
#
# Coordination Sequence:
#
# PCOD9395078 Si02
#       5
#     8   8   8   8   8
#     4  11  22  41  66  96 128 175 226 273 327 385
#     4  11  24  43  64  98 132 174 216 269 325 397
#     4  11  25  42  66  94 132 174 221 267 328 393
#     4  11  23  40  65  97 133 171 221 278 329 386
#     4  11  25  44  68  97 131 169 217 274 328 391
#
# _framework density 23.021242000000001
#
# number of rings (size 3 to 8) (size 9 to 14) (size 15 to 20)
#    0.000    1.000    2.000    5.400    0.000   11.200 
#    0.000    1.000    0.000    0.000    0.000    0.000 
#    0.000    0.000    0.000    0.000    0.000    0.000 
#
# Total GULP energy -223812.886224 kJ/mol
# GULP energy per Si atom -5595.322156 kJ/mol
# Density = 2.296884 g / cm^3
# Si number density = 23.021242 Si / 1000 Ang^3
#
#
#
# Elastic Constant Matrix: (Units=GPa)
#
#
# Indices 1 2 3 4 5 6 
#
# 1 102.4107 6.2868 -1.2185 0.0000 0.0000 0.0000
# 2 6.2868 50.7684 7.8579 0.0000 0.0000 0.0000
# 3 -1.2185 7.8579 30.8324 0.0000 0.0000 0.0000
# 4 0.0000 0.0000 0.0000 0.1677 0.0000 0.0000
# 5 0.0000 0.0000 0.0000 0.0000 29.0024 0.0000
# 6 0.0000 0.0000 0.0000 0.0000 0.0000 25.3197
#
#
#
# Elastic Compliance Matrix: (Units=1/GPa)
#
#
# Indices 1 2 3 4 5 6 
#
# 1 0.009855 -0.001333 0.000729 0.000000 0.000000 0.000000
# 2 -0.001333 0.020687 -0.005325 0.000000 0.000000 0.000000
# 3 0.000729 -0.005325 0.033819 0.000000 0.000000 0.000000
# 4 0.000000 0.000000 0.000000 5.963381 0.000000 0.000000
# 5 0.000000 0.000000 0.000000 0.000000 0.034480 0.000000
# 6 0.000000 0.000000 0.000000 0.000000 0.000000 0.039495
#
#
# Mechanical properties :
#
#
# Convention : Reuss Voigt Hill
#
# Bulk Modulus (GPa) = 19.04640 23.31819 21.18229
# Shear Modulus (GPa) = 0.81552 22.30365 11.55958
#
# Velocity S-wave (km/s) = 0.59583 3.11598 2.24325
# Velocity P-wave (km/s) = 2.96053 4.80591 3.99133
#
# Compressibility (1/GPa) = 0.05250337
#
# Stress axis : x y z
#
# Youngs Moduli (GPa) = 101.46998 48.34052 29.56894
#
# Poissons Ratio (x) = 0.06445 -0.02156
# Poissons Ratio (y) = 0.13529 0.15745
# Poissons Ratio (z) = -0.07400 0.25740
#
# Static dielectric constant tensor:
#      x y z
#    x 1.845210 0.000000 0.000000 
#    y 0.000000 1.894110 0.000000 
#    z 0.000000 0.000000 1.829100 
# 
# From -- ./inp_files/16853.got.cif
#   From: 2010.05.17/outbox.cif.g08.bks.cpg/sg49_9_cif.got.tgz:16853.got - 2010.06.03 21:02:19.
