data_PCOD9395781
_publ_section_title
;
Structure prediction by ZEFSAII (Michael W. Deem and Ramdas Pophale) SiO2 
 PCOD9395781
Probable space group: P B A N
;
_chemical_formula_sum "Si O2"
_cell_formula_units_Z 58
_cell_length_a 25.668580
_cell_length_b 9.751042
_cell_length_c 12.368018
_cell_angle_alpha 90.000000
_cell_angle_beta 90.000000
_cell_angle_gamma 90.000000
_cell_volume 3095.658033
_symmetry_space_group_name_H-M "P B A N"
_symmetry_group_IT_number 50
_space_group.IT_coordinate_system_code '2'
_symmetry_cell_setting 'orthorhombic'
loop_
_space_group_symop_operation_xyz
x,y,z
1/2-x,1/2-y,z
x,1/2-y,-z
1/2-x,y,-z
-x,-y,-z
1/2+x,1/2+y,-z
-x,1/2+y,z
1/2+x,-y,z
loop_
_atom_site_type_symbol
_atom_site_label
_atom_site_fract_x
_atom_site_fract_y
_atom_site_fract_z
Si Si1 0.189581 0.093370 0.210129
Si Si2 0.186765 0.905673 0.014623
Si Si3 0.185113 0.096417 0.816154
Si Si4 0.159102 0.593642 0.382068
Si Si5 0.976951 0.956349 0.616895
Si Si6 0.439745 0.747334 0.368470
Si Si7 0.365203 0.384968 0.435140
Si Si8 0.250000 0.750000 0.500000
O O1 0.170072 0.244455 0.174604
O O2 0.252164 0.095017 0.199114
O O3 0.170831 0.080822 0.333141
O O4 0.172688 0.972650 0.129574
O O5 0.169516 0.008776 0.920341
O O6 0.168290 0.750000 0.000000
O O7 0.250000 0.902133 0.000000
O O8 0.164435 0.018604 0.711000
O O9 0.119533 0.711978 0.345336
O O10 0.135134 0.513416 0.484159
O O11 0.212942 0.658442 0.423569
O O12 0.924896 0.866176 0.601754
O O13 0.021613 0.866508 0.671902
O O14 0.958216 0.098493 0.669687
O O15 0.000000 0.000000 0.500000
O O16 0.444285 0.750000 0.500000
O O17 0.347099 0.250000 0.500000
#
# Coordination Sequence:
#
# PCOD9395781 Si02
#       8
#     8   8   8   8   8   8   8   2
#     4  10  21  36  54  80 107 152 193 235 285 335
#     4   9  19  36  57  77 101 140 195 250 289 327
#     4  10  21  36  54  76 110 148 192 238 281 336
#     4  12  22  35  51  78 114 155 187 227 287 344
#     4  10  19  33  53  74 105 146 183 238 279 335
#     4  10  19  34  51  74 105 141 192 228 284 333
#     4  12  21  34  54  81 116 147 189 232 284 353
#     4  12  24  36  46  72 122 160 192 234 280 356
#
# _framework density 18.73592
#
# number of rings (size 3 to 8) (size 9 to 14) (size 15 to 20)
#    0.000    1.517    4.828    2.483    0.000    6.069 
#    0.000    0.000    0.000    0.000    0.000    0.966 
#    0.000    0.276    0.000    0.000    0.000    0.000 
#
# Total GULP energy -323636.524051 kJ/mol
# GULP energy per Si atom -5579.940070 kJ/mol
# Density = 1.869328 g / cm^3
# Si number density = 18.735920 Si / 1000 Ang^3
#
#
#
# Elastic Constant Matrix: (Units=GPa)
#
#
# Indices 1 2 3 4 5 6 
#
# 1 57.4843 23.8757 8.4231 0.0000 0.0000 0.0000
# 2 23.8757 134.4617 45.6434 0.0000 0.0000 0.0000
# 3 8.4231 45.6434 77.7002 0.0000 0.0000 0.0000
# 4 0.0000 0.0000 0.0000 22.8074 0.0000 0.0000
# 5 0.0000 0.0000 0.0000 0.0000 -0.1687 0.0000
# 6 0.0000 0.0000 0.0000 0.0000 0.0000 -1.8547
#
#
#
# Elastic Compliance Matrix: (Units=1/GPa)
#
#
# Indices 1 2 3 4 5 6 
#
# 1 0.018782 -0.003302 -0.000096 0.000000 0.000000 0.000000
# 2 -0.003302 0.009870 -0.005440 0.000000 0.000000 0.000000
# 3 -0.000096 -0.005440 0.016076 0.000000 0.000000 0.000000
# 4 0.000000 0.000000 0.000000 0.043845 0.000000 0.000000
# 5 0.000000 0.000000 0.000000 0.000000 -5.926405 0.000000
# 6 0.000000 0.000000 0.000000 0.000000 0.000000 -0.539173
#
#
# Mechanical properties :
#
#
# Convention : Reuss Voigt Hill
#
# Bulk Modulus (GPa) = 36.96735 47.28117 42.12426
# Shear Modulus (GPa) = -0.78736 16.93706 8.07485
#
# Velocity S-wave (km/s) = -0.64896 3.00990 2.07826
# Velocity P-wave (km/s) = 4.38315 6.11308 5.31892
#
# Compressibility (1/GPa) = 0.02705090
#
# Stress axis : x y z
#
# Youngs Moduli (GPa) = 53.24313 101.31651 62.20458
#
# Poissons Ratio (x) = 0.33458 0.00598
# Poissons Ratio (y) = 0.17583 0.33839
# Poissons Ratio (z) = 0.00512 0.55116
#
# Static dielectric constant tensor:
#      x y z
#    x 1.674660 0.000000 0.000000 
#    y 0.000000 1.702670 0.000000 
#    z 0.000000 0.000000 1.641640 
# 
# From -- ./inp_files/23163.got.cif
#   From: 2010.05.17/outbox.cif.g08.bks.cpg/sg50_12_cif.got.tgz:23163.got - 2010.06.03 11:33:33.
