data_PCOD9395435
_publ_section_title
;
Structure prediction by ZEFSAII (Michael W. Deem and Ramdas Pophale) SiO2 
 PCOD9395435
Probable space group: P B A N
;
_chemical_formula_sum "Si O2"
_cell_formula_units_Z 60
_cell_length_a 34.038101
_cell_length_b 18.100863
_cell_length_c 5.603748
_cell_angle_alpha 90.000000
_cell_angle_beta 90.000000
_cell_angle_gamma 90.000000
_cell_volume 3452.575631
_symmetry_space_group_name_H-M "P B A N"
_symmetry_group_IT_number 50
_space_group.IT_coordinate_system_code '2'
_symmetry_cell_setting 'orthorhombic'
loop_
_space_group_symop_operation_xyz
x,y,z
1/2-x,1/2-y,z
x,1/2-y,-z
1/2-x,y,-z
-x,-y,-z
1/2+x,1/2+y,-z
-x,1/2+y,z
1/2+x,-y,z
loop_
_atom_site_type_symbol
_atom_site_label
_atom_site_fract_x
_atom_site_fract_y
_atom_site_fract_z
Si Si1 0.750000 0.656615 0.500000
Si Si2 0.405492 0.969812 0.670125
Si Si3 0.595944 0.650220 0.649666
Si Si4 0.372412 0.987720 0.169744
Si Si5 0.319697 0.183848 0.816288
Si Si6 0.070799 0.133886 0.841739
Si Si7 0.210008 0.049955 0.875628
Si Si8 0.506267 0.043942 0.249238
O O1 0.780385 0.698249 0.330209
O O2 0.723863 0.602354 0.338054
O O3 0.448041 0.935952 0.729240
O O4 0.409376 0.059899 0.649829
O O5 0.389398 0.948633 0.408000
O O6 0.379584 0.954441 0.905882
O O7 0.641438 0.671090 0.666790
O O8 0.582098 0.678297 0.393512
O O9 0.574944 0.670226 0.898896
O O10 0.397385 0.065349 0.154794
O O11 0.325783 0.998525 0.203487
O O12 0.326185 0.250000 0.000000
O O13 0.310625 0.106329 0.941972
O O14 0.027332 0.104870 0.781846
O O15 0.250000 0.019643 0.000000
O O16 0.500000 0.000000 0.500000
O O17 0.500000 0.000000 0.000000
#
# Coordination Sequence:
#
# PCOD9395435 Si02
#       8
#     4   8   8   8   8   8   8   8
#     4  10  22  37  46  54  70  84 114 170 216 250
#     4  10  17  26  43  57  82  97 112 137 164 227
#     4  10  18  31  44  58  73  99 115 140 184 227
#     4  10  17  28  41  56  73  99 114 139 181 218
#     4  11  23  35  48  58  69  90 124 164 212 260
#     4  10  17  27  45  58  81  98 114 138 165 228
#     4  10  21  32  46  58  68  90 125 160 201 247
#     4  12  16  24  37  67  80  99 118 130 160 203
#
# _framework density 17.378330999999999
#
# number of rings (size 3 to 8) (size 9 to 14) (size 15 to 20)
#    0.000    1.600    8.000    1.600    1.867    3.467 
#    0.000    0.000    0.000    0.000    0.000    0.000 
#    0.000    0.000    0.000    0.000    0.000    0.000 
#
# Total GULP energy -334304.814020 kJ/mol
# GULP energy per Si atom -5571.746900 kJ/mol
# Density = 1.733878 g / cm^3
# Si number density = 17.378331 Si / 1000 Ang^3
#
#
#
# Elastic Constant Matrix: (Units=GPa)
#
#
# Indices 1 2 3 4 5 6 
#
# 1 124.6098 15.2289 23.3455 0.0000 0.0000 0.0000
# 2 15.2289 4.5173 5.1680 0.0000 0.0000 0.0000
# 3 23.3455 5.1680 142.4107 0.0000 0.0000 0.0000
# 4 0.0000 0.0000 0.0000 13.9245 0.0000 0.0000
# 5 0.0000 0.0000 0.0000 0.0000 58.3684 0.0000
# 6 0.0000 0.0000 0.0000 0.0000 0.0000 8.8437
#
#
#
# Elastic Compliance Matrix: (Units=1/GPa)
#
#
# Indices 1 2 3 4 5 6 
#
# 1 0.013696 -0.045493 -0.000594 0.000000 0.000000 0.000000
# 2 -0.045493 0.382069 -0.006407 0.000000 0.000000 0.000000
# 3 -0.000594 -0.006407 0.007352 0.000000 0.000000 0.000000
# 4 0.000000 0.000000 0.000000 0.071816 0.000000 0.000000
# 5 0.000000 0.000000 0.000000 0.000000 0.017133 0.000000
# 6 0.000000 0.000000 0.000000 0.000000 0.000000 0.113075
#
#
# Mechanical properties :
#
#
# Convention : Reuss Voigt Hill
#
# Bulk Modulus (GPa) = 3.35427 39.89140 21.62284
# Shear Modulus (GPa) = 6.17661 31.41369 18.79515
#
# Velocity S-wave (km/s) = 1.88730 4.25624 3.29223
# Velocity P-wave (km/s) = 2.58526 6.86721 5.18855
#
# Compressibility (1/GPa) = 0.29812714
#
# Stress axis : x y z
#
# Youngs Moduli (GPa) = 73.01263 2.61733 136.01962
#
# Poissons Ratio (x) = 0.11907 0.08084
# Poissons Ratio (y) = 3.32159 0.87150
# Poissons Ratio (z) = 0.04339 0.01677
#
# Static dielectric constant tensor:
#      x y z
#    x 1.724500 0.000000 0.000000 
#    y 0.000000 1.607610 0.000000 
#    z 0.000000 0.000000 1.725350 
# 
# From -- ./inp_files/7331.got.cif
#   From: 2010.05.17/outbox.cif.g08.bks.cpg/sg50_4_cif.got.tgz:7331.got - 2010.06.03 11:33:33.
