data_PCOD9395235
_publ_section_title
;
Structure prediction by ZEFSAII (Michael W. Deem and Ramdas Pophale) SiO2 
 PCOD9395235
Probable space group: P C C M
;
_chemical_formula_sum "Si O2"
_cell_formula_units_Z 64
_cell_length_a 15.000000
_cell_length_b 24.000000
_cell_length_c 9.000000
_cell_angle_alpha 90.000000
_cell_angle_beta 90.000000
_cell_angle_gamma 90.000000
_cell_volume 3240.000000
_symmetry_space_group_name_H-M "P C C M"
_symmetry_group_IT_number 49
_symmetry_cell_setting 'orthorhombic'
loop_
_space_group_symop_operation_xyz
x,y,z
-x,-y,z
x,-y,1/2-z
-x,y,1/2-z
-x,-y,-z
x,y,-z
-x,y,1/2+z
x,-y,1/2+z
loop_
_atom_site_type_symbol
_atom_site_label
_atom_site_fract_x
_atom_site_fract_y
_atom_site_fract_z
Si Si1 0.776278 0.946781 0.174445
Si Si2 0.216885 0.361624 0.827933
Si Si3 0.831341 0.750819 0.669724
Si Si4 0.583177 0.672581 0.826426
Si Si5 0.084075 0.851194 0.325427
Si Si6 0.086866 0.560243 0.824922
Si Si7 0.410681 0.095487 0.822147
Si Si8 0.628509 0.788408 0.670169
O O1 0.831707 0.890932 0.194669
O O2 0.676997 0.936227 0.232799
O O3 0.818804 0.000000 0.250000
O O4 0.770545 0.957578 0.000000
O O5 0.179631 0.302036 0.775615
O O6 0.323281 0.358807 0.812923
O O7 0.173369 0.405924 0.719954
O O8 0.194298 0.372587 0.000000
O O9 0.852581 0.734503 0.500000
O O10 0.899420 0.794394 0.737588
O O11 0.735230 0.781230 0.667853
O O12 0.500000 0.642815 0.750000
O O13 0.594933 0.731066 0.741160
O O14 0.566545 0.682616 0.000000
O O15 0.071088 0.841508 0.500000
O O16 0.000000 0.880006 0.250000
O O17 0.093824 0.500000 0.750000
O O18 0.000000 0.588155 0.750000
O O19 0.074835 0.555762 0.000000
O O20 0.500000 0.072788 0.750000
O O21 0.398971 0.159154 0.767922
O O22 0.414653 0.093843 0.000000
O O23 0.597278 0.795198 0.500000
#
# Coordination Sequence:
#
# PCOD9395235 Si02
#       8
#     8   8   8   8   8   8   8   8
#     4  10  24  43  63  82 109 143 182 231 284 339
#     4  10  21  37  58  87 122 161 200 244 293 344
#     4  10  20  35  57  86 117 152 190 232 283 340
#     4  10  20  33  52  79 117 159 198 241 287 338
#     4  11  23  41  62  87 114 146 184 229 283 343
#     4  11  22  39  63  90 121 157 200 249 297 350
#     4  11  22  37  56  82 111 144 183 226 278 336
#     4  10  19  32  53  80 111 148 188 230 277 333
#
# _framework density 19.753086
#
# number of rings (size 3 to 8) (size 9 to 14) (size 15 to 20)
#    0.000    1.625    1.250    4.125    0.000    5.500 
#    0.000    5.000    0.000    0.375    0.000    2.625 
#    0.000    0.000    0.000    0.000    0.000    0.000 
#
# Total GULP energy -357307.159231 kJ/mol
# GULP energy per Si atom -5582.924363 kJ/mol
# Density = 1.970813 g / cm^3
# Si number density = 19.753086 Si / 1000 Ang^3
#
#
#
# Elastic Constant Matrix: (Units=GPa)
#
#
# Indices 1 2 3 4 5 6 
#
# 1 67.9270 13.2194 51.1121 0.0000 0.0000 0.0000
# 2 13.2194 27.1088 21.5391 0.0000 0.0000 0.0000
# 3 51.1121 21.5391 104.8859 0.0000 0.0000 0.0000
# 4 0.0000 0.0000 0.0000 22.4714 0.0000 0.0000
# 5 0.0000 0.0000 0.0000 0.0000 32.3774 0.0000
# 6 0.0000 0.0000 0.0000 0.0000 0.0000 23.9202
#
#
#
# Elastic Compliance Matrix: (Units=1/GPa)
#
#
# Indices 1 2 3 4 5 6 
#
# 1 0.023423 -0.002812 -0.010837 0.000000 0.000000 0.000000
# 2 -0.002812 0.044418 -0.007751 0.000000 0.000000 0.000000
# 3 -0.010837 -0.007751 0.016407 0.000000 0.000000 0.000000
# 4 0.000000 0.000000 0.000000 0.044501 0.000000 0.000000
# 5 0.000000 0.000000 0.000000 0.000000 0.030886 0.000000
# 6 0.000000 0.000000 0.000000 0.000000 0.000000 0.041806
#
#
# Mechanical properties :
#
#
# Convention : Reuss Voigt Hill
#
# Bulk Modulus (GPa) = 24.12645 41.29587 32.71116
# Shear Modulus (GPa) = 19.37552 23.35720 21.36636
#
# Velocity S-wave (km/s) = 3.13531 3.44242 3.29245
# Velocity P-wave (km/s) = 5.03462 6.06232 5.57221
#
# Compressibility (1/GPa) = 0.04144829
#
# Stress axis : x y z
#
# Youngs Moduli (GPa) = 42.69264 22.51318 60.94965
#
# Poissons Ratio (x) = 0.06330 0.66051
# Poissons Ratio (y) = 0.12004 0.47245
# Poissons Ratio (z) = 0.46266 0.17451
#
# Static dielectric constant tensor:
#      x y z
#    x 1.777120 0.000000 0.000000 
#    y 0.000000 1.681720 0.000000 
#    z 0.000000 0.000000 1.661730 
# 
# From -- ./inp_files/4335.got.cif
#   From: 2010.05.17/outbox.ucp.g08.bks.cvg/sg49_3_cif.got.tgz:4335.got - 2010.06.11 16:40:14.
