data_PCOD9395341
_publ_section_title
;
Structure prediction by ZEFSAII (Michael W. Deem and Ramdas Pophale) SiO2 
 PCOD9395341
Probable space group: P B A N
;
_chemical_formula_sum "Si O2"
_cell_formula_units_Z 48
_cell_length_a 13.998522
_cell_length_b 5.359525
_cell_length_c 28.594788
_cell_angle_alpha 90.000000
_cell_angle_beta 90.000000
_cell_angle_gamma 90.000000
_cell_volume 2145.336226
_symmetry_space_group_name_H-M "P B A N"
_symmetry_group_IT_number 50
_space_group.IT_coordinate_system_code '2'
_symmetry_cell_setting 'orthorhombic'
loop_
_space_group_symop_operation_xyz
x,y,z
1/2-x,1/2-y,z
x,1/2-y,-z
1/2-x,y,-z
-x,-y,-z
1/2+x,1/2+y,-z
-x,1/2+y,z
1/2+x,-y,z
loop_
_atom_site_type_symbol
_atom_site_label
_atom_site_fract_x
_atom_site_fract_y
_atom_site_fract_z
Si Si1 0.557651 0.806968 0.288875
Si Si2 0.866509 0.252957 0.446527
Si Si3 0.635694 0.747468 0.392446
Si Si4 0.388680 0.160560 0.188464
Si Si5 0.561892 0.202614 0.950175
Si Si6 0.389154 0.660902 0.151670
O O1 0.474985 0.594800 0.286427
O O2 0.605019 0.760840 0.338784
O O3 0.615807 0.745903 0.242046
O O4 0.750000 0.250000 0.448138
O O5 0.900690 0.250000 0.500000
O O6 0.895109 0.505790 0.420356
O O7 0.894898 0.007282 0.417781
O O8 0.750000 0.750000 0.393648
O O9 0.348248 0.386726 0.158248
O O10 0.499782 0.133984 0.170044
O O11 0.348107 0.886281 0.181861
O O12 0.480372 0.421794 0.949552
O O13 0.615156 0.252421 0.901865
O O14 0.612326 0.250000 0.000000
#
# Coordination Sequence:
#
# PCOD9395341 Si02
#       6
#     8   8   8   8   8   8
#     4  12  21  33  50  72  98 127 165 197 228 278
#     4   9  17  33  57  79  96 122 161 195 225 277
#     4  10  21  35  53  78 103 125 153 196 242 275
#     4  10  16  25  39  56  76 109 147 188 211 251
#     4  10  16  20  29  45  67 100 136 174 224 268
#     4  10  14  25  36  51  78 103 146 192 214 258
#
# _framework density 22.374113999999999
#
# number of rings (size 3 to 8) (size 9 to 14) (size 15 to 20)
#    0.000    1.833    6.667    1.500    0.000    2.000 
#    0.000    0.000    0.000   10.000    0.000    0.000 
#    0.000    0.000    0.000    0.000    0.000    9.167 
#
# Total GULP energy -268002.062041 kJ/mol
# GULP energy per Si atom -5583.376293 kJ/mol
# Density = 2.232319 g / cm^3
# Si number density = 22.374114 Si / 1000 Ang^3
#
#
#
# Elastic Constant Matrix: (Units=GPa)
#
#
# Indices 1 2 3 4 5 6 
#
# 1 53.6800 4.4704 -0.9330 0.0000 0.0000 0.0000
# 2 4.4704 141.0481 21.5368 0.0000 0.0000 0.0000
# 3 -0.9330 21.5368 175.0918 0.0000 0.0000 0.0000
# 4 0.0000 0.0000 0.0000 42.3440 0.0000 0.0000
# 5 0.0000 0.0000 0.0000 0.0000 37.9267 0.0000
# 6 0.0000 0.0000 0.0000 0.0000 0.0000 -11.9602
#
#
#
# Elastic Compliance Matrix: (Units=1/GPa)
#
#
# Indices 1 2 3 4 5 6 
#
# 1 0.018684 -0.000619 0.000176 0.000000 0.000000 0.000000
# 2 -0.000619 0.007246 -0.000895 0.000000 0.000000 0.000000
# 3 0.000176 -0.000895 0.005822 0.000000 0.000000 0.000000
# 4 0.000000 0.000000 0.000000 0.023616 0.000000 0.000000
# 5 0.000000 0.000000 0.000000 0.000000 0.026367 0.000000
# 6 0.000000 0.000000 0.000000 0.000000 0.000000 -0.083611
#
#
# Mechanical properties :
#
#
# Convention : Reuss Voigt Hill
#
# Bulk Modulus (GPa) = 34.39258 46.66314 40.52786
# Shear Modulus (GPa) = 476.57966 36.64516 256.61241
#
# Velocity S-wave (km/s) = 14.61052 4.05141 10.72104
# Velocity P-wave (km/s) = 17.32132 6.54113 13.09226
#
# Compressibility (1/GPa) = 0.02907604
#
# Stress axis : x y z
#
# Youngs Moduli (GPa) = 53.52311 138.00738 171.75462
#
# Poissons Ratio (x) = 0.08542 -0.03018
# Poissons Ratio (y) = 0.03313 0.15365
# Poissons Ratio (z) = -0.00940 0.12346
#
# Static dielectric constant tensor:
#      x y z
#    x 2.010750 0.000000 0.000000 
#    y 0.000000 1.840660 0.000000 
#    z 0.000000 0.000000 1.804730 
# 
# From -- ./inp_files/31818.got.cif
#   From: 2010.05.17/outbox.cif.g08.bks.cpg/sg50_16_cif.got.tgz:31818.got - 2010.06.03 11:33:33.
