data_PCOD9395332
_publ_section_title
;
Structure prediction by ZEFSAII (Michael W. Deem and Ramdas Pophale) SiO2 
 PCOD9395332
Probable space group: P B A N
;
_chemical_formula_sum "Si O2"
_cell_formula_units_Z 64
_cell_length_a 5.320667
_cell_length_b 26.550233
_cell_length_c 25.756274
_cell_angle_alpha 90.000000
_cell_angle_beta 90.000000
_cell_angle_gamma 90.000000
_cell_volume 3638.458722
_symmetry_space_group_name_H-M "P B A N"
_symmetry_group_IT_number 50
_space_group.IT_coordinate_system_code '2'
_symmetry_cell_setting 'orthorhombic'
loop_
_space_group_symop_operation_xyz
x,y,z
1/2-x,1/2-y,z
x,1/2-y,-z
1/2-x,y,-z
-x,-y,-z
1/2+x,1/2+y,-z
-x,1/2+y,z
1/2+x,-y,z
loop_
_atom_site_type_symbol
_atom_site_label
_atom_site_fract_x
_atom_site_fract_y
_atom_site_fract_z
Si Si1 0.201579 0.637043 0.698192
Si Si2 0.749366 0.478455 0.559852
Si Si3 0.801755 0.692496 0.299877
Si Si4 0.181420 0.861326 0.426570
Si Si5 0.504028 0.031309 0.859847
Si Si6 0.503025 0.058095 0.977384
Si Si7 0.371290 0.534221 0.747256
Si Si8 0.817219 0.806730 0.573593
O O1 0.424846 0.673560 0.717065
O O2 0.184689 0.640506 0.635925
O O3 0.295045 0.581230 0.712028
O O4 0.927038 0.655706 0.716781
O O5 0.750000 0.497737 0.500000
O O6 0.502644 0.501690 0.585585
O O7 0.734964 0.418684 0.558747
O O8 0.750000 0.750000 0.284365
O O9 0.812647 0.692015 0.363193
O O10 0.409690 0.825510 0.443649
O O11 0.907733 0.843133 0.443963
O O12 0.527737 0.057102 0.915555
O O13 0.588824 0.056461 0.805938
O O14 0.712797 0.986300 0.859478
O O15 0.250000 0.081041 0.000000
O O16 0.750000 0.082872 0.000000
O O17 0.500000 0.000000 0.000000
O O18 0.635869 0.504496 0.740667
O O19 0.750000 0.750000 0.558582
#
# Coordination Sequence:
#
# PCOD9395332 Si02
#       8
#     8   8   8   8   8   8   8   8
#     4  10  19  31  46  68  91 115 151 183 219 264
#     4  10  21  36  52  70  91 118 153 192 228 259
#     4   9  17  30  49  69  89 110 142 189 232 265
#     4  10  19  31  51  71  90 118 147 183 222 264
#     4  10  16  25  35  50  72 104 142 180 210 244
#     4  10  14  20  34  51  67  88 132 192 216 231
#     4  10  21  31  41  56  87 126 155 179 207 259
#     4   9  17  30  49  74  97 116 139 173 221 273
#
# _framework density 17.589863999999999
#
# number of rings (size 3 to 8) (size 9 to 14) (size 15 to 20)
#    0.000    2.250    2.500    2.250    0.000    4.000 
#    0.000    0.000    0.000    2.250    0.000    0.000 
#    0.000    0.000    0.000    0.000    0.000    9.375 
#
# Total GULP energy -356484.715523 kJ/mol
# GULP energy per Si atom -5570.073680 kJ/mol
# Density = 1.754983 g / cm^3
# Si number density = 17.589864 Si / 1000 Ang^3
#
#
#
# Elastic Constant Matrix: (Units=GPa)
#
#
# Indices 1 2 3 4 5 6 
#
# 1 120.5670 11.5570 1.1999 0.0000 0.0000 0.0000
# 2 11.5570 42.3312 -11.8551 0.0000 0.0000 0.0000
# 3 1.1999 -11.8551 22.3621 0.0000 0.0000 0.0000
# 4 0.0000 0.0000 0.0000 0.1737 0.0000 0.0000
# 5 0.0000 0.0000 0.0000 0.0000 136.6458 0.0000
# 6 0.0000 0.0000 0.0000 0.0000 0.0000 26.8403
#
#
#
# Elastic Compliance Matrix: (Units=1/GPa)
#
#
# Indices 1 2 3 4 5 6 
#
# 1 0.008593 -0.002907 -0.002002 0.000000 0.000000 0.000000
# 2 -0.002907 0.028725 0.015385 0.000000 0.000000 0.000000
# 3 -0.002002 0.015385 0.052982 0.000000 0.000000 0.000000
# 4 0.000000 0.000000 0.000000 5.755945 0.000000 0.000000
# 5 0.000000 0.000000 0.000000 0.000000 0.007318 0.000000
# 6 0.000000 0.000000 0.000000 0.000000 0.000000 0.037257
#
#
# Mechanical properties :
#
#
# Convention : Reuss Voigt Hill
#
# Bulk Modulus (GPa) = 8.98860 20.78487 14.88674
# Shear Modulus (GPa) = 0.84646 45.02253 22.93450
#
# Velocity S-wave (km/s) = 0.69445 5.06471 3.61480
# Velocity P-wave (km/s) = 2.40088 6.78556 5.08960
#
# Compressibility (1/GPa) = 0.11125205
#
# Stress axis : x y z
#
# Youngs Moduli (GPa) = 116.37816 34.81251 18.87430
#
# Poissons Ratio (x) = 0.10119 0.03779
# Poissons Ratio (y) = 0.33826 -0.29037
# Poissons Ratio (z) = 0.23299 -0.53558
#
# Static dielectric constant tensor:
#      x y z
#    x 1.509340 0.000000 0.000000 
#    y 0.000000 1.564470 0.000000 
#    z 0.000000 0.000000 1.645910 
# 
# From -- ./inp_files/31923.got.cif
#   From: 2010.05.17/outbox.cif.g08.bks.cpg/sg50_16_cif.got.tgz:31923.got - 2010.06.03 11:33:33.
