data_PCOD9395501
_publ_section_title
;
Structure prediction by ZEFSAII (Michael W. Deem and Ramdas Pophale) SiO2 
 PCOD9395501
Probable space group: P B A N
;
_chemical_formula_sum "Si O2"
_cell_formula_units_Z 48
_cell_length_a 5.085900
_cell_length_b 18.432390
_cell_length_c 24.542457
_cell_angle_alpha 90.000000
_cell_angle_beta 90.000000
_cell_angle_gamma 90.000000
_cell_volume 2300.739805
_symmetry_space_group_name_H-M "P B A N"
_symmetry_group_IT_number 50
_space_group.IT_coordinate_system_code '2'
_symmetry_cell_setting 'orthorhombic'
loop_
_space_group_symop_operation_xyz
x,y,z
1/2-x,1/2-y,z
x,1/2-y,-z
1/2-x,y,-z
-x,-y,-z
1/2+x,1/2+y,-z
-x,1/2+y,z
1/2+x,-y,z
loop_
_atom_site_type_symbol
_atom_site_label
_atom_site_fract_x
_atom_site_fract_y
_atom_site_fract_z
Si Si1 0.183615 0.449328 0.056838
Si Si2 0.695565 0.954152 0.171123
Si Si3 0.623309 0.170959 0.676397
Si Si4 0.871903 0.897560 0.287624
Si Si5 0.188584 0.836726 0.439496
Si Si6 0.327821 0.454129 0.594326
O O1 0.392746 0.516628 0.056240
O O2 0.234160 0.412048 0.115174
O O3 0.250000 0.409697 0.000000
O O4 0.772988 0.921898 0.229079
O O5 0.391455 0.976289 0.168527
O O6 0.750000 0.250000 0.676771
O O7 0.326612 0.166968 0.695668
O O8 0.651237 0.140918 0.614745
O O9 0.822665 0.123183 0.712389
O O10 0.831182 0.950692 0.339295
O O11 0.250000 0.750000 0.441033
O O12 0.250000 0.862682 0.500000
O O13 0.903780 0.872610 0.426131
O O14 0.068675 0.494935 0.575661
#
# Coordination Sequence:
#
# PCOD9395501 Si02
#       6
#     8   8   8   8   8   8
#     4   8  14  24  38  59  91 130 166 200 238 282
#     4  10  18  28  45  70 101 135 168 200 241 302
#     4  10  21  37  56  76  99 129 168 218 267 312
#     4  11  20  34  53  75 105 136 170 209 260 319
#     4   9  20  40  62  82 106 141 184 227 274 331
#     4  11  22  37  57  82 112 143 175 218 272 327
#
# _framework density 20.862853999999999
#
# number of rings (size 3 to 8) (size 9 to 14) (size 15 to 20)
#    0.000    2.167    0.000    4.500    0.000    0.667 
#    0.000    9.167    0.000   22.000    0.000    0.000 
#    0.000    4.000    0.000    0.000    0.000    0.000 
#
# Total GULP energy -267421.410088 kJ/mol
# GULP energy per Si atom -5571.279377 kJ/mol
# Density = 2.081537 g / cm^3
# Si number density = 20.862854 Si / 1000 Ang^3
#
#
#
# Elastic Constant Matrix: (Units=GPa)
#
#
# Indices 1 2 3 4 5 6 
#
# 1 104.0218 24.6331 11.9561 0.0000 0.0000 0.0000
# 2 24.6331 56.3963 8.2967 0.0000 0.0000 0.0000
# 3 11.9561 8.2967 156.4763 0.0000 0.0000 0.0000
# 4 0.0000 0.0000 0.0000 7.3888 0.0000 0.0000
# 5 0.0000 0.0000 0.0000 0.0000 28.7717 0.0000
# 6 0.0000 0.0000 0.0000 0.0000 0.0000 26.5976
#
#
#
# Elastic Compliance Matrix: (Units=1/GPa)
#
#
# Indices 1 2 3 4 5 6 
#
# 1 0.010774 -0.004621 -0.000578 0.000000 0.000000 0.000000
# 2 -0.004621 0.019853 -0.000700 0.000000 0.000000 0.000000
# 3 -0.000578 -0.000700 0.006472 0.000000 0.000000 0.000000
# 4 0.000000 0.000000 0.000000 0.135340 0.000000 0.000000
# 5 0.000000 0.000000 0.000000 0.000000 0.034756 0.000000
# 6 0.000000 0.000000 0.000000 0.000000 0.000000 0.037597
#
#
# Mechanical properties :
#
#
# Convention : Reuss Voigt Hill
#
# Bulk Modulus (GPa) = 39.52310 45.18512 42.35411
# Shear Modulus (GPa) = 18.86617 30.68551 24.77584
#
# Velocity S-wave (km/s) = 3.01041 3.83929 3.44983
# Velocity P-wave (km/s) = 5.57394 6.43107 6.01779
#
# Compressibility (1/GPa) = 0.02530166
#
# Stress axis : x y z
#
# Youngs Moduli (GPa) = 92.81532 50.37042 154.51135
#
# Poissons Ratio (x) = 0.23276 0.08934
# Poissons Ratio (y) = 0.42889 0.10809
# Poissons Ratio (z) = 0.05367 0.03524
#
# Static dielectric constant tensor:
#      x y z
#    x 1.792010 0.000000 0.000000 
#    y 0.000000 1.817230 0.000000 
#    z 0.000000 0.000000 1.820810 
# 
# From -- ./inp_files/31461.got.cif
#   From: 2010.05.17/outbox.cif.g08.bks.cpg/sg50_16_cif.got.tgz:31461.got - 2010.06.03 11:33:33.
