data_PCOD9395398
_publ_section_title
;
Structure prediction by ZEFSAII (Michael W. Deem and Ramdas Pophale) SiO2 
 PCOD9395398
Probable space group: P B A N
;
_chemical_formula_sum "Si O2"
_cell_formula_units_Z 28
_cell_length_a 10.917303
_cell_length_b 14.994574
_cell_length_c 9.199965
_cell_angle_alpha 90.000000
_cell_angle_beta 90.000000
_cell_angle_gamma 90.000000
_cell_volume 1506.037101
_symmetry_space_group_name_H-M "P B A N"
_symmetry_group_IT_number 50
_space_group.IT_coordinate_system_code '2'
_symmetry_cell_setting 'orthorhombic'
loop_
_space_group_symop_operation_xyz
x,y,z
1/2-x,1/2-y,z
x,1/2-y,-z
1/2-x,y,-z
-x,-y,-z
1/2+x,1/2+y,-z
-x,1/2+y,z
1/2+x,-y,z
loop_
_atom_site_type_symbol
_atom_site_label
_atom_site_fract_x
_atom_site_fract_y
_atom_site_fract_z
Si Si1 0.380042 0.973657 0.403515
Si Si2 0.750000 0.750000 0.500000
Si Si3 0.894322 0.847694 0.248656
Si Si4 0.250000 0.250000 0.000000
Si Si5 0.615641 0.228742 0.671650
O O1 0.250000 0.972019 0.500000
O O2 0.404095 0.877370 0.330833
O O3 0.500000 0.000000 0.500000
O O4 0.381959 0.047636 0.276686
O O5 0.830115 0.809452 0.394053
O O6 0.827155 0.812974 0.106259
O O7 0.023509 0.796776 0.252021
O O8 0.750000 0.250000 0.727683
O O9 0.611493 0.250000 0.500000
#
# Coordination Sequence:
#
# PCOD9395398 Si02
#       5
#     8   2   8   2   8
#     4  12  21  34  65 102 126 161 213 279 331 380
#     4  10  16  30  62  86 114 146 212 276 308 330
#     4  11  21  40  61  93 124 169 217 268 312 388
#     4  10  28  42  62  86 138 174 224 264 312 378
#     4  11  20  37  61  97 134 154 199 277 346 381
#
# _framework density 18.591840000000001
#
# number of rings (size 3 to 8) (size 9 to 14) (size 15 to 20)
#    0.000    0.857    8.571    0.000    4.000    0.000 
#    0.000    2.143    0.000    0.000    0.000    0.000 
#    0.000    0.000    0.000    0.000    0.000    0.000 
#
# Total GULP energy -156017.440138 kJ/mol
# GULP energy per Si atom -5572.051433 kJ/mol
# Density = 1.854952 g / cm^3
# Si number density = 18.591840 Si / 1000 Ang^3
#
#
#
# Elastic Constant Matrix: (Units=GPa)
#
#
# Indices 1 2 3 4 5 6 
#
# 1 110.7339 14.2386 21.7582 0.0000 0.0000 0.0000
# 2 14.2386 158.2628 17.5539 0.0000 0.0000 0.0000
# 3 21.7582 17.5539 69.5298 0.0000 0.0000 0.0000
# 4 0.0000 0.0000 0.0000 -1.6170 0.0000 0.0000
# 5 0.0000 0.0000 0.0000 0.0000 26.3197 0.0000
# 6 0.0000 0.0000 0.0000 0.0000 0.0000 26.1484
#
#
#
# Elastic Compliance Matrix: (Units=1/GPa)
#
#
# Indices 1 2 3 4 5 6 
#
# 1 0.009669 -0.000550 -0.002887 0.000000 0.000000 0.000000
# 2 -0.000550 0.006532 -0.001477 0.000000 0.000000 0.000000
# 3 -0.002887 -0.001477 0.015659 0.000000 0.000000 0.000000
# 4 0.000000 0.000000 0.000000 -0.618430 0.000000 0.000000
# 5 0.000000 0.000000 0.000000 0.000000 0.037994 0.000000
# 6 0.000000 0.000000 0.000000 0.000000 0.000000 0.038243
#
#
# Mechanical properties :
#
#
# Convention : Reuss Voigt Hill
#
# Bulk Modulus (GPa) = 45.38871 49.51422 47.45147
# Shear Modulus (GPa) = -10.13865 29.16861 9.51498
#
# Velocity S-wave (km/s) = -2.33776 3.96522 2.26472
# Velocity P-wave (km/s) = 4.14481 6.90319 5.69357
#
# Compressibility (1/GPa) = 0.02203191
#
# Stress axis : x y z
#
# Youngs Moduli (GPa) = 103.42778 153.09513 63.86261
#
# Poissons Ratio (x) = 0.08415 0.18436
# Poissons Ratio (y) = 0.05685 0.09433
# Poissons Ratio (z) = 0.29858 0.22613
#
# Static dielectric constant tensor:
#      x y z
#    x 1.322350 0.000000 0.000000 
#    y 0.000000 1.787090 0.000000 
#    z 0.000000 0.000000 1.611160 
# 
# From -- ./inp_files/10508.got.cif
#   From: 2010.05.17/outbox.cif.g08.bks.cpg/sg50_6_cif.got.tgz:10508.got - 2010.06.03 11:33:33.
