data_PCOD9395251
_publ_section_title
;
Structure prediction by ZEFSAII (Michael W. Deem and Ramdas Pophale) SiO2 
 PCOD9395251
Probable space group: P C C M
;
_chemical_formula_sum "Si O2"
_cell_formula_units_Z 48
_cell_length_a 15.000000
_cell_length_b 18.000000
_cell_length_c 9.000000
_cell_angle_alpha 90.000000
_cell_angle_beta 90.000000
_cell_angle_gamma 90.000000
_cell_volume 2430.000000
_symmetry_space_group_name_H-M "P C C M"
_symmetry_group_IT_number 49
_symmetry_cell_setting 'orthorhombic'
loop_
_space_group_symop_operation_xyz
x,y,z
-x,-y,z
x,-y,1/2-z
-x,y,1/2-z
-x,-y,-z
x,y,-z
-x,y,1/2+z
x,-y,1/2+z
loop_
_atom_site_type_symbol
_atom_site_label
_atom_site_fract_x
_atom_site_fract_y
_atom_site_fract_z
Si Si1 0.788454 0.924479 0.823435
Si Si2 0.849955 0.783088 0.668305
Si Si3 0.643314 0.268678 0.169207
Si Si4 0.090123 0.376829 0.321005
Si Si5 0.289341 0.424021 0.679285
Si Si6 0.589589 0.123306 0.675964
O O1 0.846849 0.854852 0.770458
O O2 0.684588 0.911334 0.775238
O O3 0.820234 0.000000 0.750000
O O4 0.788744 0.929425 0.000000
O O5 0.877477 0.802106 0.500000
O O6 0.747258 0.755378 0.660975
O O7 0.902301 0.710505 0.720397
O O8 0.650044 0.353442 0.221754
O O9 0.597575 0.209520 0.275357
O O10 0.607684 0.263763 0.000000
O O11 0.085137 0.381455 0.500000
O O12 0.185418 0.411289 0.274804
O O13 0.000000 0.408077 0.250000
O O14 0.321055 0.500000 0.750000
O O15 0.289643 0.426475 0.500000
O O16 0.500000 0.092336 0.750000
O O17 0.582780 0.116239 0.500000
#
# Coordination Sequence:
#
# PCOD9395251 Si02
#       6
#     8   8   8   8   8   8
#     4  10  20  32  48  71  96 123 155 189 228 274
#     4   8  15  30  49  66  88 120 157 194 230 271
#     4   8  15  30  49  66  88 120 157 194 230 271
#     4   9  18  31  47  69  96 126 158 192 233 278
#     4   9  18  31  47  69  96 126 158 192 233 278
#     4  10  20  32  48  71  96 123 155 189 228 274
#
# _framework density 19.753086
#
# number of rings (size 3 to 8) (size 9 to 14) (size 15 to 20)
#    0.000    3.000    0.000    3.000    0.000    4.667 
#    0.000    6.667    0.000    1.000    0.000    7.000 
#    0.000    0.000    0.000    0.000    0.000    0.000 
#
# Total GULP energy -267549.027969 kJ/mol
# GULP energy per Si atom -5573.938083 kJ/mol
# Density = 1.970813 g / cm^3
# Si number density = 19.753086 Si / 1000 Ang^3
#
#
#
# Elastic Constant Matrix: (Units=GPa)
#
#
# Indices 1 2 3 4 5 6 
#
# 1 13.1572 -13.4660 -2.9458 0.0000 0.0000 0.0000
# 2 -13.4660 108.6918 25.3603 0.0000 0.0000 0.0000
# 3 -2.9458 25.3603 13.2804 0.0000 0.0000 0.0000
# 4 0.0000 0.0000 0.0000 21.7731 0.0000 0.0000
# 5 0.0000 0.0000 0.0000 0.0000 51.7130 0.0000
# 6 0.0000 0.0000 0.0000 0.0000 0.0000 6.9980
#
#
#
# Elastic Compliance Matrix: (Units=1/GPa)
#
#
# Indices 1 2 3 4 5 6 
#
# 1 0.087081 0.011330 -0.002319 0.000000 0.000000 0.000000
# 2 0.011330 0.018068 -0.031989 0.000000 0.000000 0.000000
# 3 -0.002319 -0.031989 0.135870 0.000000 0.000000 0.000000
# 4 0.000000 0.000000 0.000000 0.045928 0.000000 0.000000
# 5 0.000000 0.000000 0.000000 0.000000 0.019338 0.000000
# 6 0.000000 0.000000 0.000000 0.000000 0.000000 0.142897
#
#
# Mechanical properties :
#
#
# Convention : Reuss Voigt Hill
#
# Bulk Modulus (GPa) = 5.12657 17.00293 11.06475
# Shear Modulus (GPa) = 8.92605 24.50889 16.71747
#
# Velocity S-wave (km/s) = 2.12806 3.52627 2.91232
# Velocity P-wave (km/s) = 2.93924 5.02054 4.11369
#
# Compressibility (1/GPa) = 0.19506215
#
# Stress axis : x y z
#
# Youngs Moduli (GPa) = 11.48362 55.34745 7.35997
#
# Poissons Ratio (x) = -0.62706 0.01707
# Poissons Ratio (y) = -0.13010 0.23544
# Poissons Ratio (z) = 0.02663 1.77050
#
# Static dielectric constant tensor:
#      x y z
#    x 1.702310 0.000000 0.000000 
#    y 0.000000 1.716220 0.000000 
#    z 0.000000 0.000000 1.667650 
# 
# From -- ./inp_files/3705.got.cif
#   From: 2010.05.17/outbox.ucp.g08.bks.cvg/sg49_2_cif.got.tgz:3705.got - 2010.06.11 16:40:14.
