data_PCOD9395120
_publ_section_title
;
Structure prediction by ZEFSAII (Michael W. Deem and Ramdas Pophale) SiO2 
 PCOD9395120
Probable space group: P C C M
;
_chemical_formula_sum "Si O2"
_cell_formula_units_Z 34
_cell_length_a 8.861946
_cell_length_b 20.247368
_cell_length_c 10.304960
_cell_angle_alpha 90.000000
_cell_angle_beta 90.000000
_cell_angle_gamma 90.000000
_cell_volume 1849.030121
_symmetry_space_group_name_H-M "P C C M"
_symmetry_group_IT_number 49
_symmetry_cell_setting 'orthorhombic'
loop_
_space_group_symop_operation_xyz
x,y,z
-x,-y,z
x,-y,1/2-z
-x,y,1/2-z
-x,-y,-z
x,y,-z
-x,y,1/2+z
x,-y,1/2+z
loop_
_atom_site_type_symbol
_atom_site_label
_atom_site_fract_x
_atom_site_fract_y
_atom_site_fract_z
Si Si1 0.161012 0.907035 0.000000
Si Si2 0.320062 0.857102 0.737480
Si Si3 0.382361 0.370593 0.853879
Si Si4 0.809846 0.064930 0.500000
Si Si5 0.864327 0.731207 0.150501
Si Si6 0.500000 0.500000 0.250000
O O1 0.236570 0.875446 0.872181
O O2 0.978425 0.903196 0.000000
O O3 0.186442 0.985933 0.000000
O O4 0.500000 0.855521 0.750000
O O5 0.273082 0.910161 0.628733
O O6 0.256422 0.787767 0.684520
O O7 0.500000 0.342103 0.750000
O O8 0.219961 0.338855 0.833093
O O9 0.397848 0.449350 0.832252
O O10 0.429031 0.354141 0.000000
O O11 0.000000 0.737891 0.250000
O O12 0.911096 0.737828 0.000000
#
# Coordination Sequence:
#
# PCOD9395120 Si02
#       6
#     4   8   8   4   8   2
#     4  11  25  41  69  89 125 169 208 257 328 377
#     4  12  25  41  63  93 125 164 211 270 318 373
#     4   9  19  36  62  92 126 160 207 251 306 369
#     4  11  23  45  63  93 125 165 212 257 316 397
#     4  11  24  42  62  90 126 167 211 263 314 377
#     4   8  18  36  64  96 126 168 198 256 318 364
#
# _framework density 18.388017999999999
#
# number of rings (size 3 to 8) (size 9 to 14) (size 15 to 20)
#    0.706    0.706    1.176    4.588    1.647    5.647 
#    0.000    0.588    0.000    2.824    0.000    0.000 
#    0.000    0.000    0.000    0.000    0.000    0.000 
#
# Total GULP energy -189709.040407 kJ/mol
# GULP energy per Si atom -5579.677659 kJ/mol
# Density = 1.834617 g / cm^3
# Si number density = 18.388018 Si / 1000 Ang^3
#
#
#
# Elastic Constant Matrix: (Units=GPa)
#
#
# Indices 1 2 3 4 5 6 
#
# 1 127.0387 31.7360 70.5620 0.0000 0.0000 0.0000
# 2 31.7360 74.5817 16.1013 0.0000 0.0000 0.0000
# 3 70.5620 16.1013 141.3217 0.0000 0.0000 0.0000
# 4 0.0000 0.0000 0.0000 7.0441 0.0000 0.0000
# 5 0.0000 0.0000 0.0000 0.0000 25.9373 0.0000
# 6 0.0000 0.0000 0.0000 0.0000 0.0000 31.7821
#
#
#
# Elastic Compliance Matrix: (Units=1/GPa)
#
#
# Indices 1 2 3 4 5 6 
#
# 1 0.011892 -0.003874 -0.005496 0.000000 0.000000 0.000000
# 2 -0.003874 0.015008 0.000224 0.000000 0.000000 0.000000
# 3 -0.005496 0.000224 0.009795 0.000000 0.000000 0.000000
# 4 0.000000 0.000000 0.000000 0.141962 0.000000 0.000000
# 5 0.000000 0.000000 0.000000 0.000000 0.038554 0.000000
# 6 0.000000 0.000000 0.000000 0.000000 0.000000 0.031464
#
#
# Mechanical properties :
#
#
# Convention : Reuss Voigt Hill
#
# Bulk Modulus (GPa) = 54.33821 64.41564 59.37692
# Shear Modulus (GPa) = 18.30814 27.92223 23.11519
#
# Velocity S-wave (km/s) = 3.15883 3.90102 3.54938
# Velocity P-wave (km/s) = 6.55128 7.44298 7.01132
#
# Compressibility (1/GPa) = 0.01840326
#
# Stress axis : x y z
#
# Youngs Moduli (GPa) = 84.08808 66.63082 102.09398
#
# Poissons Ratio (x) = 0.25811 0.56116
# Poissons Ratio (y) = 0.32574 -0.02290
# Poissons Ratio (z) = 0.46219 -0.01494
#
# Static dielectric constant tensor:
#      x y z
#    x 1.609600 0.000000 0.000000 
#    y 0.000000 1.647620 0.000000 
#    z 0.000000 0.000000 1.622510 
# 
# From -- ./inp_files/1568.got.cif
#   From: 2010.05.17/outbox.cif.g08.bks.cpg/sg49_1_cif.got.tgz:1568.got - 2010.06.03 21:02:19.
