data_PCOD9395050
_publ_section_title
;
Structure prediction by ZEFSAII (Michael W. Deem and Ramdas Pophale) SiO2 
 PCOD9395050
Probable space group: P C C M
;
_chemical_formula_sum "Si O2"
_cell_formula_units_Z 30
_cell_length_a 8.432718
_cell_length_b 9.191883
_cell_length_c 14.618384
_cell_angle_alpha 90.000000
_cell_angle_beta 90.000000
_cell_angle_gamma 90.000000
_cell_volume 1133.108326
_symmetry_space_group_name_H-M "P C C M"
_symmetry_group_IT_number 49
_symmetry_cell_setting 'orthorhombic'
loop_
_space_group_symop_operation_xyz
x,y,z
-x,-y,z
x,-y,1/2-z
-x,y,1/2-z
-x,-y,-z
x,y,-z
-x,y,1/2+z
x,-y,1/2+z
loop_
_atom_site_type_symbol
_atom_site_label
_atom_site_fract_x
_atom_site_fract_y
_atom_site_fract_z
Si Si1 0.796599 0.000000 0.750000
Si Si2 0.225897 0.195082 0.100115
Si Si3 0.000000 0.500000 0.000000
Si Si4 0.597464 0.808200 0.393590
Si Si5 0.772788 0.529569 0.355728
O O1 0.871135 0.116946 0.679833
O O2 0.698053 0.104489 0.818989
O O3 0.411749 0.155477 0.113770
O O4 0.237525 0.369731 0.100584
O O5 0.172254 0.149332 0.000000
O O6 0.089072 0.595816 0.918405
O O7 0.641045 0.833003 0.500000
O O8 0.626691 0.638216 0.369099
O O9 0.804575 0.500000 0.250000
#
# Coordination Sequence:
#
# PCOD9395050 Si02
#       5
#     4   8   2   8   8
#     4  12  23  36  62  99 140 173 200 240 309 404
#     4  11  22  38  63  99 135 167 202 251 319 384
#     4  12  26  48  66  92 116 160 230 280 316 350
#     4  11  22  38  63  99 135 167 202 251 319 384
#     4  12  24  42  70  93 119 166 214 274 317 367
#
# _framework density 26.475846000000001
#
# number of rings (size 3 to 8) (size 9 to 14) (size 15 to 20)
#    0.000    0.533    5.333    4.400    0.000    5.333 
#    0.000    0.000    0.000    4.800    0.000    0.000 
#    0.000    0.000    0.000    0.000    0.000    0.000 
#
# Total GULP energy -167373.001393 kJ/mol
# GULP energy per Si atom -5579.100046 kJ/mol
# Density = 2.641559 g / cm^3
# Si number density = 26.475846 Si / 1000 Ang^3
#
#
#
# Elastic Constant Matrix: (Units=GPa)
#
#
# Indices 1 2 3 4 5 6 
#
# 1 47.7558 1.5777 27.6464 0.0000 0.0000 0.0000
# 2 1.5777 150.7477 45.1148 0.0000 0.0000 0.0000
# 3 27.6464 45.1148 291.6101 0.0000 0.0000 0.0000
# 4 0.0000 0.0000 0.0000 50.3632 0.0000 0.0000
# 5 0.0000 0.0000 0.0000 0.0000 35.1040 0.0000
# 6 0.0000 0.0000 0.0000 0.0000 0.0000 26.0071
#
#
#
# Elastic Compliance Matrix: (Units=1/GPa)
#
#
# Indices 1 2 3 4 5 6 
#
# 1 0.022181 0.000416 -0.002167 0.000000 0.000000 0.000000
# 2 0.000416 0.006963 -0.001117 0.000000 0.000000 0.000000
# 3 -0.002167 -0.001117 0.003807 0.000000 0.000000 0.000000
# 4 0.000000 0.000000 0.000000 0.019856 0.000000 0.000000
# 5 0.000000 0.000000 0.000000 0.000000 0.028487 0.000000
# 6 0.000000 0.000000 0.000000 0.000000 0.000000 0.038451
#
#
# Mechanical properties :
#
#
# Convention : Reuss Voigt Hill
#
# Bulk Modulus (GPa) = 36.74243 70.97682 53.85962
# Shear Modulus (GPa) = 37.16015 50.01316 43.58666
#
# Velocity S-wave (km/s) = 3.75046 4.35099 4.06184
# Velocity P-wave (km/s) = 5.71511 7.21858 6.51039
#
# Compressibility (1/GPa) = 0.02721649
#
# Stress axis : x y z
#
# Youngs Moduli (GPa) = 45.08408 143.60656 262.64023
#
# Poissons Ratio (x) = -0.05981 0.56922
# Poissons Ratio (y) = -0.01878 0.29332
# Poissons Ratio (z) = 0.09771 0.16038
#
# Static dielectric constant tensor:
#      x y z
#    x 2.479210 0.000000 0.000000 
#    y 0.000000 2.211870 0.000000 
#    z 0.000000 0.000000 1.945570 
# 
# From -- ./inp_files/11212.got.cif
#   From: 2010.05.17/outbox.cif.g08.bks.cpg/sg49_6_cif.got.tgz:11212.got - 2010.06.03 21:02:19.
