data_PCOD9395939
_publ_section_title
;
Structure prediction by ZEFSAII (Michael W. Deem and Ramdas Pophale) SiO2 
 PCOD9395939
Probable space group: P B A N
;
_chemical_formula_sum "Si O2"
_cell_formula_units_Z 44
_cell_length_a 14.080472
_cell_length_b 7.860150
_cell_length_c 19.277099
_cell_angle_alpha 90.000000
_cell_angle_beta 90.000000
_cell_angle_gamma 90.000000
_cell_volume 2133.485645
_symmetry_space_group_name_H-M "P B A N"
_symmetry_group_IT_number 50
_space_group.IT_coordinate_system_code '2'
_symmetry_cell_setting 'orthorhombic'
loop_
_space_group_symop_operation_xyz
x,y,z
1/2-x,1/2-y,z
x,1/2-y,-z
1/2-x,y,-z
-x,-y,-z
1/2+x,1/2+y,-z
-x,1/2+y,z
1/2+x,-y,z
loop_
_atom_site_type_symbol
_atom_site_label
_atom_site_fract_x
_atom_site_fract_y
_atom_site_fract_z
Si Si1 0.116268 0.035636 0.382163
Si Si2 0.246711 0.045174 0.884706
Si Si3 0.750000 0.963466 0.500000
Si Si4 0.391843 0.046174 0.995302
Si Si5 0.762144 0.046596 0.274385
Si Si6 0.895792 0.373047 0.608496
O O1 0.181520 0.118010 0.441828
O O2 0.173292 0.053334 0.309438
O O3 0.116798 0.830451 0.390414
O O4 0.008337 0.093692 0.391802
O O5 0.250000 0.250000 0.884853
O O6 0.343316 0.988336 0.923441
O O7 0.229815 0.994346 0.806081
O O8 0.166049 0.981901 0.937867
O O9 0.671395 0.064886 0.545776
O O10 0.382703 0.250000 0.000000
O O11 0.500000 0.000000 0.000000
O O12 0.750000 0.250000 0.278179
O O13 0.853181 0.026852 0.324550
#
# Coordination Sequence:
#
# PCOD9395939 Si02
#       6
#     8   8   4   8   8   8
#     4  10  20  35  54  76 102 134 171 211 254 302
#     4   9  19  36  55  75 104 136 168 209 253 296
#     4  10  19  36  57  74 101 138 171 208 257 306
#     4   9  19  35  54  78 104 133 169 209 252 298
#     4   9  20  36  52  73 104 138 170 205 252 306
#     4  10  20  35  54  76 102 134 171 211 254 302
#
# _framework density 20.623526999999999
#
# number of rings (size 3 to 8) (size 9 to 14) (size 15 to 20)
#    0.000    2.545    0.000    4.364    0.000    4.364 
#    0.000   12.727    0.000    0.000    0.000    0.000 
#    0.000    0.000    0.000    0.000    0.000    0.000 
#
# Total GULP energy -245283.630676 kJ/mol
# GULP energy per Si atom -5574.627970 kJ/mol
# Density = 2.057659 g / cm^3
# Si number density = 20.623527 Si / 1000 Ang^3
#
#
#
# Elastic Constant Matrix: (Units=GPa)
#
#
# Indices 1 2 3 4 5 6 
#
# 1 182.9898 16.1755 85.2861 0.0000 0.0000 0.0000
# 2 16.1755 30.8870 15.2276 0.0000 0.0000 0.0000
# 3 85.2861 15.2276 180.6225 0.0000 0.0000 0.0000
# 4 0.0000 0.0000 0.0000 27.7148 0.0000 0.0000
# 5 0.0000 0.0000 0.0000 0.0000 11.8939 0.0000
# 6 0.0000 0.0000 0.0000 0.0000 0.0000 31.8213
#
#
#
# Elastic Compliance Matrix: (Units=1/GPa)
#
#
# Indices 1 2 3 4 5 6 
#
# 1 0.007143 -0.002168 -0.003190 0.000000 0.000000 0.000000
# 2 -0.002168 0.034438 -0.001880 0.000000 0.000000 0.000000
# 3 -0.003190 -0.001880 0.007201 0.000000 0.000000 0.000000
# 4 0.000000 0.000000 0.000000 0.036082 0.000000 0.000000
# 5 0.000000 0.000000 0.000000 0.000000 0.084076 0.000000
# 6 0.000000 0.000000 0.000000 0.000000 0.000000 0.031425
#
#
# Mechanical properties :
#
#
# Convention : Reuss Voigt Hill
#
# Bulk Modulus (GPa) = 29.14865 69.76418 49.45642
# Shear Modulus (GPa) = 22.09673 32.80668 27.45171
#
# Velocity S-wave (km/s) = 3.27683 3.99274 3.65236
# Velocity P-wave (km/s) = 5.33677 7.42676 6.46676
#
# Compressibility (1/GPa) = 0.03430691
#
# Stress axis : x y z
#
# Youngs Moduli (GPa) = 139.99225 29.03751 138.86635
#
# Poissons Ratio (x) = 0.06296 0.44300
# Poissons Ratio (y) = 0.30353 0.26101
# Poissons Ratio (z) = 0.44659 0.05458
#
# Static dielectric constant tensor:
#      x y z
#    x 1.727850 0.000000 0.000000 
#    y 0.000000 1.852040 0.000000 
#    z 0.000000 0.000000 1.747380 
# 
# From -- ./inp_files/29400.got.cif
#   From: 2010.05.17/outbox.cif.g08.bks.cpg/sg50_15_cif.got.tgz:29400.got - 2010.06.03 11:33:33.
