data_PCOD9395075
_publ_section_title
;
Structure prediction by ZEFSAII (Michael W. Deem and Ramdas Pophale) SiO2 
 PCOD9395075
Probable space group: P C C M
;
_chemical_formula_sum "Si O2"
_cell_formula_units_Z 40
_cell_length_a 9.802814
_cell_length_b 10.676928
_cell_length_c 17.072453
_cell_angle_alpha 90.000000
_cell_angle_beta 90.000000
_cell_angle_gamma 90.000000
_cell_volume 1786.870184
_symmetry_space_group_name_H-M "P C C M"
_symmetry_group_IT_number 49
_symmetry_cell_setting 'orthorhombic'
loop_
_space_group_symop_operation_xyz
x,y,z
-x,-y,z
x,-y,1/2-z
-x,y,1/2-z
-x,-y,-z
x,y,-z
-x,y,1/2+z
x,-y,1/2+z
loop_
_atom_site_type_symbol
_atom_site_label
_atom_site_fract_x
_atom_site_fract_y
_atom_site_fract_z
Si Si1 0.337351 0.977566 0.339153
Si Si2 0.711901 0.755494 0.369354
Si Si3 0.397698 0.289607 0.908568
Si Si4 0.006543 0.649776 0.083957
Si Si5 0.795881 0.631971 0.789561
O O1 0.329816 0.842276 0.379440
O O2 0.500000 0.000000 0.335849
O O3 0.287506 0.000000 0.250000
O O4 0.277365 0.095891 0.384970
O O5 0.559310 0.715903 0.392381
O O6 0.837040 0.688692 0.410658
O O7 0.735135 0.720397 0.277924
O O8 0.321906 0.390145 0.854251
O O9 0.376384 0.309618 0.000000
O O10 0.000000 0.500000 0.084202
O O11 0.922069 0.687931 0.161069
O O12 0.949610 0.694597 0.000000
O O13 0.833142 0.500000 0.750000
#
# Coordination Sequence:
#
# PCOD9395075 Si02
#       5
#     8   8   8   8   8
#     4   9  18  37  65  98 132 170 222 274 337 410
#     4  11  22  40  71  97 130 176 234 278 342 419
#     4  11  24  42  68 102 138 173 221 291 354 404
#     4  11  24  43  64  93 132 175 229 285 340 402
#     4  12  24  43  65  94 133 186 230 278 338 416
#
# _framework density 22.385508999999999
#
# number of rings (size 3 to 8) (size 9 to 14) (size 15 to 20)
#    0.000    1.200    4.000    2.400    0.000    6.000 
#    0.000    2.000    0.000    2.400    0.000    0.000 
#    0.000    0.000    0.000    0.000    0.000    0.000 
#
# Total GULP energy -223432.951148 kJ/mol
# GULP energy per Si atom -5585.823779 kJ/mol
# Density = 2.233456 g / cm^3
# Si number density = 22.385509 Si / 1000 Ang^3
#
#
#
# Elastic Constant Matrix: (Units=GPa)
#
#
# Indices 1 2 3 4 5 6 
#
# 1 127.3141 41.5017 48.9152 0.0000 0.0000 0.0000
# 2 41.5017 66.4768 16.0413 0.0000 0.0000 0.0000
# 3 48.9152 16.0413 169.4151 0.0000 0.0000 0.0000
# 4 0.0000 0.0000 0.0000 7.1565 0.0000 0.0000
# 5 0.0000 0.0000 0.0000 0.0000 -188.5197 0.0000
# 6 0.0000 0.0000 0.0000 0.0000 0.0000 34.3558
#
#
#
# Elastic Compliance Matrix: (Units=1/GPa)
#
#
# Indices 1 2 3 4 5 6 
#
# 1 0.010839 -0.006152 -0.002547 0.000000 0.000000 0.000000
# 2 -0.006152 0.018886 -0.000012 0.000000 0.000000 0.000000
# 3 -0.002547 -0.000012 0.006639 0.000000 0.000000 0.000000
# 4 0.000000 0.000000 0.000000 0.139734 0.000000 0.000000
# 5 0.000000 0.000000 0.000000 0.000000 -0.005304 0.000000
# 6 0.000000 0.000000 0.000000 0.000000 0.000000 0.029107
#
#
# Mechanical properties :
#
#
# Convention : Reuss Voigt Hill
#
# Bulk Modulus (GPa) = 52.79178 64.01361 58.40269
# Shear Modulus (GPa) = 22.35771 -12.28498 5.03636
#
# Velocity S-wave (km/s) = 3.16374 -2.34517 1.50157
# Velocity P-wave (km/s) = 6.08111 4.61790 5.39930
#
# Compressibility (1/GPa) = 0.01894234
#
# Stress axis : x y z
#
# Youngs Moduli (GPa) = 92.26335 52.94809 150.62126
#
# Poissons Ratio (x) = 0.32573 0.38362
# Poissons Ratio (y) = 0.56760 0.00181
# Poissons Ratio (z) = 0.23499 0.00064
#
# Static dielectric constant tensor:
#      x y z
#    x 1.824470 0.000000 0.000000 
#    y 0.000000 1.874540 0.000000 
#    z 0.000000 0.000000 1.872530 
# 
# From -- ./inp_files/15956.got.cif
#   From: 2010.05.17/outbox.cif.g08.bks.cpg/sg49_8_cif.got.tgz:15956.got - 2010.06.03 21:02:19.
