data_PCOD9395832
_publ_section_title
;
Structure prediction by ZEFSAII (Michael W. Deem and Ramdas Pophale) SiO2 
 PCOD9395832
Probable space group: P B A N
;
_chemical_formula_sum "Si O2"
_cell_formula_units_Z 48
_cell_length_a 23.081763
_cell_length_b 7.671951
_cell_length_c 12.138090
_cell_angle_alpha 90.000000
_cell_angle_beta 90.000000
_cell_angle_gamma 90.000000
_cell_volume 2149.439132
_symmetry_space_group_name_H-M "P B A N"
_symmetry_group_IT_number 50
_space_group.IT_coordinate_system_code '2'
_symmetry_cell_setting 'orthorhombic'
loop_
_space_group_symop_operation_xyz
x,y,z
1/2-x,1/2-y,z
x,1/2-y,-z
1/2-x,y,-z
-x,-y,-z
1/2+x,1/2+y,-z
-x,1/2+y,z
1/2+x,-y,z
loop_
_atom_site_type_symbol
_atom_site_label
_atom_site_fract_x
_atom_site_fract_y
_atom_site_fract_z
Si Si1 0.430416 0.092451 0.076385
Si Si2 0.140932 0.160737 0.388655
Si Si3 0.684723 0.777619 0.155631
Si Si4 0.043099 0.069686 0.674468
Si Si5 0.624071 0.131926 0.087801
Si Si6 0.415460 0.810542 0.663716
O O1 0.363841 0.141388 0.113562
O O2 0.460938 0.063637 0.192038
O O3 0.450741 0.250000 0.000000
O O4 0.427326 0.934144 0.992191
O O5 0.161702 0.250000 0.500000
O O6 0.181287 0.213088 0.287329
O O7 0.080913 0.263018 0.359526
O O8 0.129392 0.951854 0.387553
O O9 0.750000 0.750000 0.120308
O O10 0.661233 0.963481 0.117060
O O11 0.977486 0.100893 0.639359
O O12 0.074419 0.892726 0.632913
O O13 0.601243 0.198743 0.205424
O O14 0.658177 0.250000 0.000000
#
# Coordination Sequence:
#
# PCOD9395832 Si02
#       6
#     8   8   8   8   8   8
#     4   9  19  33  53  80 118 154 189 232 279 340
#     4  10  23  41  61  85 111 150 197 246 305 355
#     4   9  20  39  61  83 113 145 190 249 296 344
#     4  11  21  37  55  83 123 152 197 240 283 336
#     4  10  19  34  55  85 118 153 192 224 281 349
#     4  11  22  36  57  85 121 159 193 240 283 344
#
# _framework density 22.331408
#
# number of rings (size 3 to 8) (size 9 to 14) (size 15 to 20)
#    0.000    2.000    3.333    1.000    0.000    6.000 
#    0.000    1.667    0.000    0.000    0.000    4.667 
#    0.000    0.000    0.000    0.000    0.000    0.000 
#
# Total GULP energy -267807.863571 kJ/mol
# GULP energy per Si atom -5579.330491 kJ/mol
# Density = 2.228058 g / cm^3
# Si number density = 22.331408 Si / 1000 Ang^3
#
#
#
# Elastic Constant Matrix: (Units=GPa)
#
#
# Indices 1 2 3 4 5 6 
#
# 1 64.6980 -3.1581 -7.7815 0.0000 0.0000 0.0000
# 2 -3.1581 101.2017 12.6758 0.0000 0.0000 0.0000
# 3 -7.7815 12.6758 135.9849 0.0000 0.0000 0.0000
# 4 0.0000 0.0000 0.0000 17.6505 0.0000 0.0000
# 5 0.0000 0.0000 0.0000 0.0000 -5.2257 0.0000
# 6 0.0000 0.0000 0.0000 0.0000 0.0000 6.9443
#
#
#
# Elastic Compliance Matrix: (Units=1/GPa)
#
#
# Indices 1 2 3 4 5 6 
#
# 1 0.015578 0.000379 0.000856 0.000000 0.000000 0.000000
# 2 0.000379 0.010007 -0.000911 0.000000 0.000000 0.000000
# 3 0.000856 -0.000911 0.007488 0.000000 0.000000 0.000000
# 4 0.000000 0.000000 0.000000 0.056656 0.000000 0.000000
# 5 0.000000 0.000000 0.000000 0.000000 -0.191361 0.000000
# 6 0.000000 0.000000 0.000000 0.000000 0.000000 0.144004
#
#
# Mechanical properties :
#
#
# Convention : Reuss Voigt Hill
#
# Bulk Modulus (GPa) = 29.65556 33.92854 31.79205
# Shear Modulus (GPa) = 94.40350 23.88371 59.14361
#
# Velocity S-wave (km/s) = 6.50889 3.27389 5.15189
# Velocity P-wave (km/s) = 8.35441 5.43298 7.04675
#
# Compressibility (1/GPa) = 0.03372049
#
# Stress axis : x y z
#
# Youngs Moduli (GPa) = 64.19358 99.92805 133.55276
#
# Poissons Ratio (x) = -0.03786 -0.11433
# Poissons Ratio (y) = -0.02432 0.12168
# Poissons Ratio (z) = -0.05496 0.09105
#
# Static dielectric constant tensor:
#      x y z
#    x 1.837130 0.000000 0.000000 
#    y 0.000000 1.977680 0.000000 
#    z 0.000000 0.000000 1.915650 
# 
# From -- ./inp_files/22766.got.cif
#   From: 2010.05.17/outbox.cif.g08.bks.cpg/sg50_12_cif.got.tgz:22766.got - 2010.06.03 11:33:33.
