data_PCOD9395908
_publ_section_title
;
Structure prediction by ZEFSAII (Michael W. Deem and Ramdas Pophale) SiO2 
 PCOD9395908
Probable space group: P B A N
;
_chemical_formula_sum "Si O2"
_cell_formula_units_Z 64
_cell_length_a 12.125839
_cell_length_b 19.094685
_cell_length_c 13.175891
_cell_angle_alpha 90.000000
_cell_angle_beta 90.000000
_cell_angle_gamma 90.000000
_cell_volume 3050.733628
_symmetry_space_group_name_H-M "P B A N"
_symmetry_group_IT_number 50
_space_group.IT_coordinate_system_code '2'
_symmetry_cell_setting 'orthorhombic'
loop_
_space_group_symop_operation_xyz
x,y,z
1/2-x,1/2-y,z
x,1/2-y,-z
1/2-x,y,-z
-x,-y,-z
1/2+x,1/2+y,-z
-x,1/2+y,z
1/2+x,-y,z
loop_
_atom_site_type_symbol
_atom_site_label
_atom_site_fract_x
_atom_site_fract_y
_atom_site_fract_z
Si Si1 0.484090 0.781724 0.897979
Si Si2 0.255438 0.078968 0.303584
Si Si3 0.999550 0.584276 0.613521
Si Si4 0.714745 0.669408 0.114459
Si Si5 0.180828 0.927503 0.233363
Si Si6 0.970242 0.583801 0.390508
Si Si7 0.873958 0.410283 0.025326
Si Si8 0.087281 0.635884 0.187625
O O1 0.583277 0.831565 0.863697
O O2 0.385305 0.829681 0.937845
O O3 0.445709 0.716498 0.832324
O O4 0.537158 0.750000 0.000000
O O5 0.376175 0.095887 0.345916
O O6 0.233372 0.119830 0.198790
O O7 0.159727 0.098587 0.382050
O O8 0.237789 0.996643 0.279807
O O9 0.013706 0.610667 0.498488
O O10 0.096090 0.608060 0.688941
O O11 0.013497 0.499934 0.610740
O O12 0.750000 0.750000 0.130613
O O13 0.750000 0.648930 0.000000
O O14 0.108866 0.948661 0.133016
O O15 0.282683 0.877261 0.205002
O O16 0.026647 0.611314 0.288652
O O17 0.750000 0.431363 0.000000
O O18 0.937980 0.407895 0.917676
#
# Coordination Sequence:
#
# PCOD9395908 Si02
#       8
#     8   8   8   8   8   8   8   8
#     4  10  19  35  60  83 119 165 203 240 289 369
#     4  11  22  38  60  87 123 160 204 260 315 369
#     4  10  21  39  59  86 121 163 208 253 312 366
#     4  11  22  37  57  87 121 160 211 242 296 365
#     4  10  21  38  58  92 126 158 200 254 320 372
#     4  10  21  37  61  86 119 162 210 257 302 366
#     4   9  20  35  58  86 123 156 197 241 301 379
#     4  10  20  36  61  90 123 154 204 253 307 362
#
# _framework density 20.978560000000002
#
# number of rings (size 3 to 8) (size 9 to 14) (size 15 to 20)
#    0.000    1.875    2.500    1.875    1.750    7.750 
#    0.000    1.250    0.000    9.000    0.000    7.000 
#    0.000    0.000    0.000    0.000    0.000    0.000 
#
# Total GULP energy -356601.723841 kJ/mol
# GULP energy per Si atom -5571.901935 kJ/mol
# Density = 2.093081 g / cm^3
# Si number density = 20.978560 Si / 1000 Ang^3
#
#
#
# Elastic Constant Matrix: (Units=GPa)
#
#
# Indices 1 2 3 4 5 6 
#
# 1 86.4318 9.7455 45.3857 0.0000 0.0000 0.0000
# 2 9.7455 17.9745 14.0288 0.0000 0.0000 0.0000
# 3 45.3857 14.0288 137.1531 0.0000 0.0000 0.0000
# 4 0.0000 0.0000 0.0000 595.9368 0.0000 0.0000
# 5 0.0000 0.0000 0.0000 0.0000 36.1611 0.0000
# 6 0.0000 0.0000 0.0000 0.0000 0.0000 19.6391
#
#
#
# Elastic Compliance Matrix: (Units=1/GPa)
#
#
# Indices 1 2 3 4 5 6 
#
# 1 0.014319 -0.004418 -0.004286 0.000000 0.000000 0.000000
# 2 -0.004418 0.061824 -0.004862 0.000000 0.000000 0.000000
# 3 -0.004286 -0.004862 0.009207 0.000000 0.000000 0.000000
# 4 0.000000 0.000000 0.000000 0.001678 0.000000 0.000000
# 5 0.000000 0.000000 0.000000 0.000000 0.027654 0.000000
# 6 0.000000 0.000000 0.000000 0.000000 0.000000 0.050919
#
#
# Mechanical properties :
#
#
# Convention : Reuss Voigt Hill
#
# Bulk Modulus (GPa) = 17.17696 42.20884 29.69290
# Shear Modulus (GPa) = 23.56948 141.84070 82.70509
#
# Velocity S-wave (km/s) = 3.35551 8.23159 6.28564
# Velocity P-wave (km/s) = 4.81853 10.51233 8.17702
#
# Compressibility (1/GPa) = 0.05821751
#
# Stress axis : x y z
#
# Youngs Moduli (GPa) = 69.83848 16.17491 108.61513
#
# Poissons Ratio (x) = 0.07146 0.46556
# Poissons Ratio (y) = 0.30855 0.52806
# Poissons Ratio (z) = 0.29935 0.07864
#
# Static dielectric constant tensor:
#      x y z
#    x 1.829180 0.000000 0.000000 
#    y 0.000000 1.741800 0.000000 
#    z 0.000000 0.000000 1.847430 
# 
# From -- ./inp_files/20550.got.cif
#   From: 2010.05.17/outbox.cif.g08.bks.cpg/sg50_11_cif.got.tgz:20550.got - 2010.06.03 11:33:33.
