data_PCOD9395339
_publ_section_title
;
Structure prediction by ZEFSAII (Michael W. Deem and Ramdas Pophale) SiO2 
 PCOD9395339
Probable space group: P B A N
;
_chemical_formula_sum "Si O2"
_cell_formula_units_Z 48
_cell_length_a 13.703971
_cell_length_b 5.515816
_cell_length_c 26.485869
_cell_angle_alpha 90.000000
_cell_angle_beta 90.000000
_cell_angle_gamma 90.000000
_cell_volume 2002.029294
_symmetry_space_group_name_H-M "P B A N"
_symmetry_group_IT_number 50
_space_group.IT_coordinate_system_code '2'
_symmetry_cell_setting 'orthorhombic'
loop_
_space_group_symop_operation_xyz
x,y,z
1/2-x,1/2-y,z
x,1/2-y,-z
1/2-x,y,-z
-x,-y,-z
1/2+x,1/2+y,-z
-x,1/2+y,z
1/2+x,-y,z
loop_
_atom_site_type_symbol
_atom_site_label
_atom_site_fract_x
_atom_site_fract_y
_atom_site_fract_z
Si Si1 0.882074 0.612256 0.138331
Si Si2 0.896209 0.118284 0.177459
Si Si3 0.397434 0.623007 0.703500
Si Si4 0.379591 0.129392 0.663097
Si Si5 0.140004 0.496551 0.978855
Si Si6 0.564331 0.807350 0.446078
O O1 0.846071 0.880016 0.153798
O O2 0.862906 0.534936 0.081036
O O3 0.998607 0.634073 0.149525
O O4 0.848181 0.380904 0.170414
O O5 0.914414 0.095478 0.236887
O O6 0.343935 0.378664 0.687247
O O7 0.503079 0.628213 0.675849
O O8 0.348720 0.874651 0.687018
O O9 0.369607 0.166112 0.603280
O O10 0.100974 0.750000 0.000000
O O11 0.250000 0.496000 0.000000
O O12 0.095217 0.250000 0.000000
O O13 0.614240 0.750000 0.500000
O O14 0.494340 0.566185 0.443822
#
# Coordination Sequence:
#
# PCOD9395339 Si02
#       6
#     8   8   8   8   8   8
#     4  10  18  32  48  65  90 112 135 164 205 255
#     4  10  19  30  43  67  90 114 134 166 215 267
#     4  10  16  23  36  49  73  96 127 158 196 260
#     4  10  14  22  31  46  61  94 128 163 205 255
#     4  10  21  37  54  70  87 111 142 172 200 239
#     4  10  16  22  28  39  59  85 124 175 220 254
#
# _framework density 23.975674000000001
#
# number of rings (size 3 to 8) (size 9 to 14) (size 15 to 20)
#    0.000    2.000    3.333    6.000    0.000    0.000 
#    0.000   10.000    0.000    0.000    0.000    0.000 
#    0.000    0.000    0.000    0.000    0.000    0.000 
#
# Total GULP energy -267945.126580 kJ/mol
# GULP energy per Si atom -5582.190137 kJ/mol
# Density = 2.392110 g / cm^3
# Si number density = 23.975674 Si / 1000 Ang^3
#
#
#
# Elastic Constant Matrix: (Units=GPa)
#
#
# Indices 1 2 3 4 5 6 
#
# 1 86.7088 31.1452 7.4784 0.0000 0.0000 0.0000
# 2 31.1452 257.3759 24.9594 0.0000 0.0000 0.0000
# 3 7.4784 24.9594 188.2344 0.0000 0.0000 0.0000
# 4 0.0000 0.0000 0.0000 16.9377 0.0000 0.0000
# 5 0.0000 0.0000 0.0000 0.0000 -56.9434 0.0000
# 6 0.0000 0.0000 0.0000 0.0000 0.0000 12.9906
#
#
#
# Elastic Compliance Matrix: (Units=1/GPa)
#
#
# Indices 1 2 3 4 5 6 
#
# 1 0.012072 -0.001433 -0.000290 0.000000 0.000000 0.000000
# 2 -0.001433 0.004106 -0.000488 0.000000 0.000000 0.000000
# 3 -0.000290 -0.000488 0.005389 0.000000 0.000000 0.000000
# 4 0.000000 0.000000 0.000000 0.059040 0.000000 0.000000
# 5 0.000000 0.000000 0.000000 0.000000 -0.017561 0.000000
# 6 0.000000 0.000000 0.000000 0.000000 0.000000 0.076978
#
#
# Mechanical properties :
#
#
# Convention : Reuss Voigt Hill
#
# Bulk Modulus (GPa) = 58.31843 73.27611 65.79727
# Shear Modulus (GPa) = 33.29779 25.84605 29.57192
#
# Velocity S-wave (km/s) = 3.73072 3.28687 3.51581
# Velocity P-wave (km/s) = 6.55245 6.71072 6.63205
#
# Compressibility (1/GPa) = 0.01714724
#
# Stress axis : x y z
#
# Youngs Moduli (GPa) = 82.83298 243.54418 185.57427
#
# Poissons Ratio (x) = 0.34895 0.05375
# Poissons Ratio (y) = 0.11868 0.09047
# Poissons Ratio (z) = 0.02399 0.11873
#
# Static dielectric constant tensor:
#      x y z
#    x 1.974890 0.000000 0.000000 
#    y 0.000000 2.091680 0.000000 
#    z 0.000000 0.000000 2.065850 
# 
# From -- ./inp_files/31813.got.cif
#   From: 2010.05.17/outbox.cif.g08.bks.cpg/sg50_16_cif.got.tgz:31813.got - 2010.06.03 11:33:33.
