data_PCOD9395254
_publ_section_title
;
Structure prediction by ZEFSAII (Michael W. Deem and Ramdas Pophale) SiO2 
 PCOD9395254
Probable space group: P C C M
;
_chemical_formula_sum "Si O2"
_cell_formula_units_Z 40
_cell_length_a 9.000000
_cell_length_b 27.000000
_cell_length_c 9.000000
_cell_angle_alpha 90.000000
_cell_angle_beta 90.000000
_cell_angle_gamma 90.000000
_cell_volume 2187.000000
_symmetry_space_group_name_H-M "P C C M"
_symmetry_group_IT_number 49
_symmetry_cell_setting 'orthorhombic'
loop_
_space_group_symop_operation_xyz
x,y,z
-x,-y,z
x,-y,1/2-z
-x,y,1/2-z
-x,-y,-z
x,y,-z
-x,y,1/2+z
x,-y,1/2+z
loop_
_atom_site_type_symbol
_atom_site_label
_atom_site_fract_x
_atom_site_fract_y
_atom_site_fract_z
Si Si1 0.662552 0.842045 0.822265
Si Si2 0.334974 0.048607 0.177687
Si Si3 0.836648 0.641215 0.321732
Si Si4 0.161923 0.247725 0.676887
Si Si5 0.335761 0.550264 0.679473
O O1 0.500000 0.841914 0.750000
O O2 0.731210 0.896838 0.792703
O O3 0.749073 0.796572 0.751442
O O4 0.651837 0.836611 0.000000
O O5 0.500000 0.050642 0.250000
O O6 0.261445 0.000000 0.250000
O O7 0.347050 0.042305 0.000000
O O8 0.842768 0.632437 0.500000
O O9 0.773660 0.696876 0.298716
O O10 0.747455 0.598645 0.238029
O O11 0.000000 0.641078 0.250000
O O12 0.151191 0.240342 0.500000
O O13 0.000000 0.247710 0.750000
O O14 0.267474 0.500000 0.750000
O O15 0.500000 0.552962 0.750000
O O16 0.340234 0.547517 0.500000
#
# Coordination Sequence:
#
# PCOD9395254 Si02
#       5
#     8   8   8   8   8
#     4  10  20  33  51  77 107 137 175 218 262 311
#     4   9  16  26  43  68  98 132 167 209 257 307
#     4  10  21  38  58  82 108 138 178 220 262 311
#     4  10  21  37  57  78 105 140 176 216 264 315
#     4  11  22  38  59  83 112 145 178 216 262 312
#
# _framework density 18.289895000000001
#
# number of rings (size 3 to 8) (size 9 to 14) (size 15 to 20)
#    0.000    2.000    0.000    5.400    0.000    6.000 
#    0.000    2.000    0.000    0.600    0.000    4.200 
#    0.000    0.000    0.000    0.000    0.000    0.000 
#
# Total GULP energy -223028.109775 kJ/mol
# GULP energy per Si atom -5575.702744 kJ/mol
# Density = 1.824827 g / cm^3
# Si number density = 18.289895 Si / 1000 Ang^3
#
#
#
# Elastic Constant Matrix: (Units=GPa)
#
#
# Indices 1 2 3 4 5 6 
#
# 1 31.2140 60.2040 27.2184 0.0000 0.0000 0.0000
# 2 60.2040 212.3696 105.7269 0.0000 0.0000 0.0000
# 3 27.2184 105.7269 155.3072 0.0000 0.0000 0.0000
# 4 0.0000 0.0000 0.0000 38.8419 0.0000 0.0000
# 5 0.0000 0.0000 0.0000 0.0000 27.7175 0.0000
# 6 0.0000 0.0000 0.0000 0.0000 0.0000 51.3196
#
#
#
# Elastic Compliance Matrix: (Units=1/GPa)
#
#
# Indices 1 2 3 4 5 6 
#
# 1 0.071057 -0.021093 0.001906 0.000000 0.000000 0.000000
# 2 -0.021093 0.013384 -0.005415 0.000000 0.000000 0.000000
# 3 0.001906 -0.005415 0.009791 0.000000 0.000000 0.000000
# 4 0.000000 0.000000 0.000000 0.025745 0.000000 0.000000
# 5 0.000000 0.000000 0.000000 0.000000 0.036078 0.000000
# 6 0.000000 0.000000 0.000000 0.000000 0.000000 0.019486
#
#
# Mechanical properties :
#
#
# Convention : Reuss Voigt Hill
#
# Bulk Modulus (GPa) = 22.20776 87.24324 54.72550
# Shear Modulus (GPa) = 20.85472 37.29192 29.07332
#
# Velocity S-wave (km/s) = 3.38039 4.52036 3.99128
# Velocity P-wave (km/s) = 5.23494 8.66306 7.15727
#
# Compressibility (1/GPa) = 0.04502930
#
# Stress axis : x y z
#
# Youngs Moduli (GPa) = 14.07315 74.71680 102.13573
#
# Poissons Ratio (x) = 1.57597 -0.19465
# Poissons Ratio (y) = 0.29684 0.55303
# Poissons Ratio (z) = -0.02682 0.40456
#
# Static dielectric constant tensor:
#      x y z
#    x 1.624030 0.000000 0.000000 
#    y 0.000000 1.693980 0.000000 
#    z 0.000000 0.000000 1.597080 
# 
# From -- ./inp_files/1688.got.cif
#   From: 2010.05.17/outbox.ucp.g08.bks.cvg/sg49_1_cif.got.tgz:1688.got - 2010.06.11 16:40:14.
