data_PCOD9395997
_publ_section_title
;
Structure prediction by ZEFSAII (Michael W. Deem and Ramdas Pophale) SiO2 
 PCOD9395997
Probable space group: P B A N
;
_chemical_formula_sum "Si O2"
_cell_formula_units_Z 48
_cell_length_a 9.226148
_cell_length_b 18.570387
_cell_length_c 14.950775
_cell_angle_alpha 90.000000
_cell_angle_beta 90.000000
_cell_angle_gamma 90.000000
_cell_volume 2561.563209
_symmetry_space_group_name_H-M "P B A N"
_symmetry_group_IT_number 50
_space_group.IT_coordinate_system_code '2'
_symmetry_cell_setting 'orthorhombic'
loop_
_space_group_symop_operation_xyz
x,y,z
1/2-x,1/2-y,z
x,1/2-y,-z
1/2-x,y,-z
-x,-y,-z
1/2+x,1/2+y,-z
-x,1/2+y,z
1/2+x,-y,z
loop_
_atom_site_type_symbol
_atom_site_label
_atom_site_fract_x
_atom_site_fract_y
_atom_site_fract_z
Si Si1 0.919460 0.232606 0.603150
Si Si2 0.406529 0.539414 0.748747
Si Si3 0.916207 0.672799 0.828552
Si Si4 0.592534 0.817483 0.241884
Si Si5 0.095110 0.588345 0.688953
Si Si6 0.113948 0.039997 0.938511
O O1 0.750000 0.250000 0.626839
O O2 0.944445 0.250000 0.500000
O O3 0.932495 0.146336 0.612351
O O4 0.029346 0.276577 0.668886
O O5 0.507087 0.608432 0.766563
O O6 0.259820 0.564221 0.701090
O O7 0.494318 0.481605 0.689887
O O8 0.372484 0.499872 0.842759
O O9 0.765212 0.667056 0.770160
O O10 0.939752 0.757994 0.834767
O O11 0.906161 0.624210 0.915772
O O12 0.046799 0.635901 0.774606
O O13 0.250000 0.033968 0.000000
O O14 0.000000 0.000000 0.000000
#
# Coordination Sequence:
#
# PCOD9395997 Si02
#       6
#     8   8   8   8   8   8
#     4  10  20  38  64  91 122 156 205 257 313 360
#     4  11  20  35  59  84 119 157 202 246 300 374
#     4   9  20  36  57  84 116 154 207 238 297 377
#     4  10  19  37  61  86 115 160 199 251 297 371
#     4  10  20  36  59  89 115 163 201 241 299 377
#     4  11  21  36  55  82 115 154 197 256 309 349
#
# _framework density 18.738558999999999
#
# number of rings (size 3 to 8) (size 9 to 14) (size 15 to 20)
#    0.000    1.833    1.667    5.000    0.000    0.000 
#    0.000   13.333    0.000    1.000    0.000    0.000 
#    0.000    0.000    0.000    0.000    0.000    0.000 
#
# Total GULP energy -267379.237490 kJ/mol
# GULP energy per Si atom -5570.400781 kJ/mol
# Density = 1.869591 g / cm^3
# Si number density = 18.738559 Si / 1000 Ang^3
#
#
#
# Elastic Constant Matrix: (Units=GPa)
#
#
# Indices 1 2 3 4 5 6 
#
# 1 50.3471 45.2618 22.0724 0.0000 0.0000 0.0000
# 2 45.2618 167.1391 43.5665 0.0000 0.0000 0.0000
# 3 22.0724 43.5665 72.3869 0.0000 0.0000 0.0000
# 4 0.0000 0.0000 0.0000 4.6071 0.0000 0.0000
# 5 0.0000 0.0000 0.0000 0.0000 13.7849 0.0000
# 6 0.0000 0.0000 0.0000 0.0000 0.0000 33.7335
#
#
#
# Elastic Compliance Matrix: (Units=1/GPa)
#
#
# Indices 1 2 3 4 5 6 
#
# 1 0.027503 -0.006241 -0.004630 0.000000 0.000000 0.000000
# 2 -0.006241 0.008513 -0.003220 0.000000 0.000000 0.000000
# 3 -0.004630 -0.003220 0.017165 0.000000 0.000000 0.000000
# 4 0.000000 0.000000 0.000000 0.217057 0.000000 0.000000
# 5 0.000000 0.000000 0.000000 0.000000 0.072543 0.000000
# 6 0.000000 0.000000 0.000000 0.000000 0.000000 0.029644
#
#
# Mechanical properties :
#
#
# Convention : Reuss Voigt Hill
#
# Bulk Modulus (GPa) = 40.00454 56.85272 48.42863
# Shear Modulus (GPa) = 12.22676 22.35658 17.29167
#
# Velocity S-wave (km/s) = 2.55716 3.45784 3.04103
# Velocity P-wave (km/s) = 5.48761 6.80794 6.18312
#
# Compressibility (1/GPa) = 0.02499716
#
# Stress axis : x y z
#
# Youngs Moduli (GPa) = 36.36033 117.47429 58.25943
#
# Poissons Ratio (x) = 0.73315 0.26974
# Poissons Ratio (y) = 0.22692 0.18761
# Poissons Ratio (z) = 0.16835 0.37830
#
# Static dielectric constant tensor:
#      x y z
#    x 1.692390 0.000000 0.000000 
#    y 0.000000 1.621240 0.000000 
#    z 0.000000 0.000000 1.822200 
# 
# From -- ./inp_files/24989.got.cif
#   From: 2010.05.17/outbox.cif.g08.bks.cpg/sg50_13_cif.got.tgz:24989.got - 2010.06.03 11:33:33.
