data_PCOD9395488
_publ_section_title
;
Structure prediction by ZEFSAII (Michael W. Deem and Ramdas Pophale) SiO2 
 PCOD9395488
Probable space group: P B A N
;
_chemical_formula_sum "Si O2"
_cell_formula_units_Z 44
_cell_length_a 9.184285
_cell_length_b 14.325039
_cell_length_c 16.507402
_cell_angle_alpha 90.000000
_cell_angle_beta 90.000000
_cell_angle_gamma 90.000000
_cell_volume 2171.800319
_symmetry_space_group_name_H-M "P B A N"
_symmetry_group_IT_number 50
_space_group.IT_coordinate_system_code '2'
_symmetry_cell_setting 'orthorhombic'
loop_
_space_group_symop_operation_xyz
x,y,z
1/2-x,1/2-y,z
x,1/2-y,-z
1/2-x,y,-z
-x,-y,-z
1/2+x,1/2+y,-z
-x,1/2+y,z
1/2+x,-y,z
loop_
_atom_site_type_symbol
_atom_site_label
_atom_site_fract_x
_atom_site_fract_y
_atom_site_fract_z
Si Si1 0.568191 0.545481 0.808544
Si Si2 0.797462 0.076157 0.407140
Si Si3 0.788783 0.436561 0.907595
Si Si4 0.522435 0.588063 0.329703
Si Si5 0.501310 0.705492 0.695825
Si Si6 0.250000 0.750000 0.175251
O O1 0.713888 0.511891 0.849979
O O2 0.456758 0.570536 0.880961
O O3 0.492189 0.462906 0.756796
O O4 0.594203 0.627008 0.742567
O O5 0.750000 0.082547 0.500000
O O6 0.645814 0.087255 0.359512
O O7 0.911940 0.154870 0.376562
O O8 0.875767 0.978267 0.384589
O O9 0.720026 0.338204 0.880795
O O10 0.750000 0.455673 0.000000
O O11 0.570069 0.696006 0.328498
O O12 0.382614 0.729934 0.764727
#
# Coordination Sequence:
#
# PCOD9395488 Si02
#       6
#     8   8   8   8   8   4
#     4  10  21  37  61  86 118 159 207 247 293 378
#     4  11  23  38  62  94 125 155 206 261 303 356
#     4  11  21  36  60  89 122 156 198 262 311 346
#     4  11  20  40  62  86 120 164 205 248 302 365
#     4  10  19  36  64  84 117 166 210 238 297 369
#     4  10  17  36  59  86 112 158 218 232 279 386
#
# _framework density 20.259689999999999
#
# number of rings (size 3 to 8) (size 9 to 14) (size 15 to 20)
#    0.000    1.455    3.636    3.545    0.000    1.455 
#    0.000    8.182    0.000    5.455    0.000    0.000 
#    0.000    0.000    0.000    0.000    0.000    0.000 
#
# Total GULP energy -245635.467741 kJ/mol
# GULP energy per Si atom -5582.624267 kJ/mol
# Density = 2.021358 g / cm^3
# Si number density = 20.259690 Si / 1000 Ang^3
#
#
#
# Elastic Constant Matrix: (Units=GPa)
#
#
# Indices 1 2 3 4 5 6 
#
# 1 25.7456 27.3554 20.2396 0.0000 0.0000 0.0000
# 2 27.3554 153.8036 44.1850 0.0000 0.0000 0.0000
# 3 20.2396 44.1850 112.2129 0.0000 0.0000 0.0000
# 4 0.0000 0.0000 0.0000 13.8398 0.0000 0.0000
# 5 0.0000 0.0000 0.0000 0.0000 22.1890 0.0000
# 6 0.0000 0.0000 0.0000 0.0000 0.0000 27.9284
#
#
#
# Elastic Compliance Matrix: (Units=1/GPa)
#
#
# Indices 1 2 3 4 5 6 
#
# 1 0.051707 -0.007349 -0.006433 0.000000 0.000000 0.000000
# 2 -0.007349 0.008375 -0.001972 0.000000 0.000000 0.000000
# 3 -0.006433 -0.001972 0.010849 0.000000 0.000000 0.000000
# 4 0.000000 0.000000 0.000000 0.072255 0.000000 0.000000
# 5 0.000000 0.000000 0.000000 0.000000 0.045067 0.000000
# 6 0.000000 0.000000 0.000000 0.000000 0.000000 0.035806
#
#
# Mechanical properties :
#
#
# Convention : Reuss Voigt Hill
#
# Bulk Modulus (GPa) = 25.36571 52.81359 39.08965
# Shear Modulus (GPa) = 18.60758 26.12357 22.36558
#
# Velocity S-wave (km/s) = 3.03389 3.59477 3.32617
# Velocity P-wave (km/s) = 4.98198 6.58443 5.83844
#
# Compressibility (1/GPa) = 0.03942329
#
# Stress axis : x y z
#
# Youngs Moduli (GPa) = 19.33989 119.39642 92.17809
#
# Poissons Ratio (x) = 0.87739 0.59295
# Poissons Ratio (y) = 0.14212 0.18182
# Poissons Ratio (z) = 0.12441 0.23551
#
# Static dielectric constant tensor:
#      x y z
#    x 1.726260 0.000000 0.000000 
#    y 0.000000 1.785690 0.000000 
#    z 0.000000 0.000000 1.704860 
# 
# From -- ./inp_files/28635.got.cif
#   From: 2010.05.17/outbox.cif.g08.bks.cpg/sg50_15_cif.got.tgz:28635.got - 2010.06.03 11:33:33.
