data_PCOD9395432
_publ_section_title
;
Structure prediction by ZEFSAII (Michael W. Deem and Ramdas Pophale) SiO2 
 PCOD9395432
Probable space group: P B A N
;
_chemical_formula_sum "Si O2"
_cell_formula_units_Z 32
_cell_length_a 32.571686
_cell_length_b 5.400545
_cell_length_c 7.082634
_cell_angle_alpha 90.000000
_cell_angle_beta 90.000000
_cell_angle_gamma 90.000000
_cell_volume 1245.869714
_symmetry_space_group_name_H-M "P B A N"
_symmetry_group_IT_number 50
_space_group.IT_coordinate_system_code '2'
_symmetry_cell_setting 'orthorhombic'
loop_
_space_group_symop_operation_xyz
x,y,z
1/2-x,1/2-y,z
x,1/2-y,-z
1/2-x,y,-z
-x,-y,-z
1/2+x,1/2+y,-z
-x,1/2+y,z
1/2+x,-y,z
loop_
_atom_site_type_symbol
_atom_site_label
_atom_site_fract_x
_atom_site_fract_y
_atom_site_fract_z
Si Si1 0.389866 0.304445 0.283647
Si Si2 0.732415 0.003016 0.785993
Si Si3 0.358072 0.809734 0.274882
Si Si4 0.483177 0.479610 0.285069
O O1 0.376215 0.250000 0.500000
O O2 0.362368 0.527976 0.197332
O O3 0.435291 0.416504 0.286920
O O4 0.390472 0.020872 0.209818
O O5 0.750000 0.750000 0.703690
O O6 0.750000 0.250000 0.696094
O O7 0.684083 0.049363 0.774177
O O8 0.750000 0.001515 0.000000
O O9 0.361313 0.750000 0.500000
O O10 0.500000 0.500000 0.500000
O O11 0.493233 0.745502 0.201471
#
# Coordination Sequence:
#
# PCOD9395432 Si02
#       4
#     8   8   8   8
#     4  10  18  29  44  69 109 147 188 219 268 328
#     4  10  21  39  61  80 102 141 190 247 288 342
#     4  10  21  33  50  77 109 145 181 227 291 337
#     4  10  17  24  41  64  96 149 201 211 249 318
#
# _framework density 25.684867000000001
#
# number of rings (size 3 to 8) (size 9 to 14) (size 15 to 20)
#    0.000    2.000    2.500    3.000    7.000    0.500 
#    0.000    1.250    0.000    0.000    0.000    0.000 
#    0.000    0.000    0.000  315.000    0.000    0.000 
#
# Total GULP energy -178600.724894 kJ/mol
# GULP energy per Si atom -5581.272653 kJ/mol
# Density = 2.562641 g / cm^3
# Si number density = 25.684867 Si / 1000 Ang^3
#
#
#
# Elastic Constant Matrix: (Units=GPa)
#
#
# Indices 1 2 3 4 5 6 
#
# 1 119.7892 74.0979 -4.2885 0.0000 0.0000 0.0000
# 2 74.0979 318.9077 27.6873 0.0000 0.0000 0.0000
# 3 -4.2885 27.6873 122.9612 0.0000 0.0000 0.0000
# 4 0.0000 0.0000 0.0000 -54.3210 0.0000 0.0000
# 5 0.0000 0.0000 0.0000 0.0000 5.7510 0.0000
# 6 0.0000 0.0000 0.0000 0.0000 0.0000 56.0976
#
#
#
# Elastic Compliance Matrix: (Units=1/GPa)
#
#
# Indices 1 2 3 4 5 6 
#
# 1 0.009841 -0.002362 0.000875 0.000000 0.000000 0.000000
# 2 -0.002362 0.003765 -0.000930 0.000000 0.000000 0.000000
# 3 0.000875 -0.000930 0.008373 0.000000 0.000000 0.000000
# 4 0.000000 0.000000 0.000000 -0.018409 0.000000 0.000000
# 5 0.000000 0.000000 0.000000 0.000000 0.173882 0.000000
# 6 0.000000 0.000000 0.000000 0.000000 0.000000 0.017826
#
#
# Mechanical properties :
#
#
# Convention : Reuss Voigt Hill
#
# Bulk Modulus (GPa) = 58.33073 84.07236 71.20155
# Shear Modulus (GPa) = 24.29218 32.44961 28.37090
#
# Velocity S-wave (km/s) = 3.07869 3.55825 3.32712
# Velocity P-wave (km/s) = 5.94956 7.04875 6.52235
#
# Compressibility (1/GPa) = 0.01714362
#
# Stress axis : x y z
#
# Youngs Moduli (GPa) = 101.61914 265.57743 119.43668
#
# Poissons Ratio (x) = 0.62741 -0.10453
# Poissons Ratio (y) = 0.24007 0.11111
# Poissons Ratio (z) = -0.08893 0.24705
#
# Static dielectric constant tensor:
#      x y z
#    x 2.078950 0.000000 0.000000 
#    y 0.000000 2.037810 0.000000 
#    z 0.000000 0.000000 2.002630 
# 
# From -- ./inp_files/16662.got.cif
#   From: 2010.05.17/outbox.cif.g08.bks.cpg/sg50_9_cif.got.tgz:16662.got - 2010.06.03 11:33:33.
