data_PCOD9395321
_publ_section_title
;
Structure prediction by ZEFSAII (Michael W. Deem and Ramdas Pophale) SiO2 
 PCOD9395321
Probable space group: P C C M
;
_chemical_formula_sum "Si O2"
_cell_formula_units_Z 56
_cell_length_a 9.000000
_cell_length_b 15.000000
_cell_length_c 21.000000
_cell_angle_alpha 90.000000
_cell_angle_beta 90.000000
_cell_angle_gamma 90.000000
_cell_volume 2835.000000
_symmetry_space_group_name_H-M "P C C M"
_symmetry_group_IT_number 49
_symmetry_cell_setting 'orthorhombic'
loop_
_space_group_symop_operation_xyz
x,y,z
-x,-y,z
x,-y,1/2-z
-x,y,1/2-z
-x,-y,-z
x,y,-z
-x,y,1/2+z
x,-y,1/2+z
loop_
_atom_site_type_symbol
_atom_site_label
_atom_site_fract_x
_atom_site_fract_y
_atom_site_fract_z
Si Si1 0.661437 0.542681 0.685271
Si Si2 0.679780 0.006086 0.326563
Si Si3 0.872062 0.572204 0.430615
Si Si4 0.800404 0.142553 0.076195
Si Si5 0.704848 0.203816 0.680640
Si Si6 0.921277 0.742931 0.074155
Si Si7 0.356401 0.248905 0.318823
O O1 0.500000 0.500000 0.675191
O O2 0.725403 0.500000 0.750000
O O3 0.763014 0.537903 0.623579
O O4 0.642315 0.647242 0.695219
O O5 0.731121 0.104485 0.343305
O O6 0.500000 0.000000 0.332932
O O7 0.709691 0.000000 0.250000
O O8 0.754990 0.938475 0.376587
O O9 0.797505 0.582775 0.500000
O O10 0.962186 0.662418 0.416602
O O11 0.000000 0.500000 0.435704
O O12 0.973889 0.169505 0.079320
O O13 0.712740 0.221729 0.113470
O O14 0.763585 0.132998 0.000000
O O15 0.527731 0.219378 0.678502
O O16 0.732236 0.209832 0.757228
O O17 0.799498 0.261807 0.630563
O O18 0.865779 0.737619 0.000000
#
# Coordination Sequence:
#
# PCOD9395321 Si02
#       7
#     8   8   8   8   8   8   8
#     4  11  24  41  65  98 133 163 215 274 329 378
#     4  11  20  40  64  94 130 167 220 275 327 381
#     4  10  23  43  64  89 128 171 213 263 323 391
#     4  11  23  42  64  93 132 172 214 269 326 387
#     4  11  22  39  68  90 126 167 217 265 327 381
#     4  10  24  44  63  91 132 172 212 265 330 398
#     4  11  22  42  65  94 128 170 214 269 317 386
#
# _framework density 19.753086
#
# number of rings (size 3 to 8) (size 9 to 14) (size 15 to 20)
#    0.000    1.286    4.286    2.571    4.000    3.143 
#    0.000    2.143    0.000    0.000    0.000    0.000 
#    0.000    0.000    0.000    0.000    0.000    0.000 
#
# Total GULP energy -311992.004923 kJ/mol
# GULP energy per Si atom -5571.285802 kJ/mol
# Density = 1.970813 g / cm^3
# Si number density = 19.753086 Si / 1000 Ang^3
#
#
#
# Elastic Constant Matrix: (Units=GPa)
#
#
# Indices 1 2 3 4 5 6 
#
# 1 59.2753 16.8976 73.8295 0.0000 0.0000 0.0000
# 2 16.8976 121.2108 43.0437 0.0000 0.0000 0.0000
# 3 73.8295 43.0437 194.0770 0.0000 0.0000 0.0000
# 4 0.0000 0.0000 0.0000 25.3588 0.0000 0.0000
# 5 0.0000 0.0000 0.0000 0.0000 45.8671 0.0000
# 6 0.0000 0.0000 0.0000 0.0000 0.0000 28.1357
#
#
#
# Elastic Compliance Matrix: (Units=1/GPa)
#
#
# Indices 1 2 3 4 5 6 
#
# 1 0.032064 -0.000150 -0.012164 0.000000 0.000000 0.000000
# 2 -0.000150 0.008956 -0.001929 0.000000 0.000000 0.000000
# 3 -0.012164 -0.001929 0.010208 0.000000 0.000000 0.000000
# 4 0.000000 0.000000 0.000000 0.039434 0.000000 0.000000
# 5 0.000000 0.000000 0.000000 0.000000 0.021802 0.000000
# 6 0.000000 0.000000 0.000000 0.000000 0.000000 0.035542
#
#
# Mechanical properties :
#
#
# Convention : Reuss Voigt Hill
#
# Bulk Modulus (GPa) = 43.97377 71.34496 57.65936
# Shear Modulus (GPa) = 27.16288 35.92515 31.54402
#
# Velocity S-wave (km/s) = 3.71229 4.26926 4.00048
# Velocity P-wave (km/s) = 6.37846 7.77810 7.11280
#
# Compressibility (1/GPa) = 0.02274083
#
# Stress axis : x y z
#
# Youngs Moduli (GPa) = 31.18719 111.65548 97.96263
#
# Poissons Ratio (x) = 0.01678 1.19166
# Poissons Ratio (y) = 0.00469 0.18899
# Poissons Ratio (z) = 0.37937 0.21541
#
# Static dielectric constant tensor:
#      x y z
#    x 1.679640 0.000000 0.000000 
#    y 0.000000 1.791100 0.000000 
#    z 0.000000 0.000000 1.710930 
# 
# From -- ./inp_files/19876.got.cif
#   From: 2010.05.17/outbox.ucp.g08.bks.cvg/sg49_10_cif.got.tgz:19876.got - 2010.06.11 16:40:14.
