data_PCOD9395205
_publ_section_title
;
Structure prediction by ZEFSAII (Michael W. Deem and Ramdas Pophale) SiO2 
 PCOD9395205
Probable space group: P C C M
;
_chemical_formula_sum "Si O2"
_cell_formula_units_Z 64
_cell_length_a 24.000000
_cell_length_b 15.000000
_cell_length_c 9.000000
_cell_angle_alpha 90.000000
_cell_angle_beta 90.000000
_cell_angle_gamma 90.000000
_cell_volume 3240.000000
_symmetry_space_group_name_H-M "P C C M"
_symmetry_group_IT_number 49
_symmetry_cell_setting 'orthorhombic'
loop_
_space_group_symop_operation_xyz
x,y,z
-x,-y,z
x,-y,1/2-z
-x,y,1/2-z
-x,-y,-z
x,y,-z
-x,y,1/2+z
x,-y,1/2+z
loop_
_atom_site_type_symbol
_atom_site_label
_atom_site_fract_x
_atom_site_fract_y
_atom_site_fract_z
Si Si1 0.717556 0.097196 0.176759
Si Si2 0.846404 0.094647 0.824351
Si Si3 0.102190 0.593202 0.822435
Si Si4 0.557878 0.276159 0.322462
Si Si5 0.944133 0.777620 0.679355
Si Si6 0.679104 0.275148 0.676199
Si Si7 0.439029 0.913872 0.178376
Si Si8 0.767670 0.595315 0.677755
O O1 0.782545 0.122081 0.197831
O O2 0.684032 0.175991 0.254818
O O3 0.711440 0.000000 0.250000
O O4 0.704936 0.093183 0.000000
O O5 0.890576 0.166541 0.771921
O O6 0.855646 0.000000 0.750000
O O7 0.853804 0.083892 0.000000
O O8 0.086868 0.500000 0.750000
O O9 0.065556 0.676040 0.772040
O O10 0.167210 0.613673 0.788769
O O11 0.097994 0.585275 0.000000
O O12 0.500000 0.310842 0.250000
O O13 0.548579 0.261130 0.500000
O O14 0.618177 0.322279 0.305506
O O15 0.572453 0.184792 0.236263
O O16 0.947155 0.779348 0.500000
O O17 0.000000 0.814591 0.750000
O O18 0.688260 0.267555 0.500000
O O19 0.726562 0.332652 0.753962
O O20 0.500000 0.919552 0.250000
O O21 0.408663 0.000000 0.250000
O O22 0.438438 0.919804 0.000000
O O23 0.754754 0.500000 0.750000
O O24 0.761604 0.592517 0.500000
#
# Coordination Sequence:
#
# PCOD9395205 Si02
#       8
#     8   8   8   8   8   8   8   8
#     4  10  20  36  58  83 112 147 186 231 283 336
#     4   9  19  36  56  77 104 140 183 231 280 328
#     4   9  19  36  57  81 110 143 178 219 268 324
#     4  10  21  36  52  72 101 137 178 219 262 316
#     4  10  21  36  52  75 109 146 186 228 270 319
#     4  11  23  37  56  84 115 146 181 225 275 329
#     4  10  17  27  44  64  89 123 166 212 256 301
#     4  10  20  37  62  89 115 143 178 224 278 333
#
# _framework density 19.753086
#
# number of rings (size 3 to 8) (size 9 to 14) (size 15 to 20)
#    0.000    2.125    0.000    4.500    0.000    7.000 
#    0.000    3.750    0.000    0.375    0.000    2.625 
#    0.000    0.000    0.000    0.000    0.000    0.000 
#
# Total GULP energy -356677.248756 kJ/mol
# GULP energy per Si atom -5573.082012 kJ/mol
# Density = 1.970813 g / cm^3
# Si number density = 19.753086 Si / 1000 Ang^3
#
#
#
# Elastic Constant Matrix: (Units=GPa)
#
#
# Indices 1 2 3 4 5 6 
#
# 1 96.0416 41.6312 40.0190 0.0000 0.0000 0.0000
# 2 41.6312 36.0962 14.7380 0.0000 0.0000 0.0000
# 3 40.0190 14.7380 67.4585 0.0000 0.0000 0.0000
# 4 0.0000 0.0000 0.0000 28.7677 0.0000 0.0000
# 5 0.0000 0.0000 0.0000 0.0000 33.4560 0.0000
# 6 0.0000 0.0000 0.0000 0.0000 0.0000 10.0863
#
#
#
# Elastic Compliance Matrix: (Units=1/GPa)
#
#
# Indices 1 2 3 4 5 6 
#
# 1 0.025380 -0.025389 -0.009510 0.000000 0.000000 0.000000
# 2 -0.025389 0.055815 0.002868 0.000000 0.000000 0.000000
# 3 -0.009510 0.002868 0.019839 0.000000 0.000000 0.000000
# 4 0.000000 0.000000 0.000000 0.034761 0.000000 0.000000
# 5 0.000000 0.000000 0.000000 0.000000 0.029890 0.000000
# 6 0.000000 0.000000 0.000000 0.000000 0.000000 0.099145
#
#
# Mechanical properties :
#
#
# Convention : Reuss Voigt Hill
#
# Bulk Modulus (GPa) = 27.04745 43.59696 35.32221
# Shear Modulus (GPa) = 14.65345 21.34252 17.99798
#
# Velocity S-wave (km/s) = 2.72661 3.29061 3.02180
# Velocity P-wave (km/s) = 4.86159 6.04618 5.48595
#
# Compressibility (1/GPa) = 0.03697206
#
# Stress axis : x y z
#
# Youngs Moduli (GPa) = 39.40089 17.91621 50.40603
#
# Poissons Ratio (x) = 0.45488 0.47934
# Poissons Ratio (y) = 1.00036 -0.14455
# Poissons Ratio (z) = 0.37469 -0.05138
#
# Static dielectric constant tensor:
#      x y z
#    x 1.747460 0.000000 0.000000 
#    y 0.000000 1.786480 0.000000 
#    z 0.000000 0.000000 1.648100 
# 
# From -- ./inp_files/6527.got.cif
#   From: 2010.05.17/outbox.ucp.g08.bks.cvg/sg49_4_cif.got.tgz:6527.got - 2010.06.11 16:40:14.
