data_PCOD9395052
_publ_section_title
;
Structure prediction by ZEFSAII (Michael W. Deem and Ramdas Pophale) SiO2 
 PCOD9395052
Probable space group: P C C M
;
_chemical_formula_sum "Si O2"
_cell_formula_units_Z 64
_cell_length_a 15.110749
_cell_length_b 8.750490
_cell_length_c 23.856923
_cell_angle_alpha 90.000000
_cell_angle_beta 90.000000
_cell_angle_gamma 90.000000
_cell_volume 3154.516427
_symmetry_space_group_name_H-M "P C C M"
_symmetry_group_IT_number 49
_symmetry_cell_setting 'orthorhombic'
loop_
_space_group_symop_operation_xyz
x,y,z
-x,-y,z
x,-y,1/2-z
-x,y,1/2-z
-x,-y,-z
x,y,-z
-x,y,1/2+z
x,-y,1/2+z
loop_
_atom_site_type_symbol
_atom_site_label
_atom_site_fract_x
_atom_site_fract_y
_atom_site_fract_z
Si Si1 0.662601 0.674581 0.148574
Si Si2 0.974235 0.339583 0.407574
Si Si3 0.301594 0.684365 0.141256
Si Si4 0.756451 0.175697 0.250834
Si Si5 0.842673 0.185035 0.067058
Si Si6 0.512557 0.182485 0.816951
Si Si7 0.799172 0.836895 0.935947
Si Si8 0.089274 0.648151 0.717370
O O1 0.677576 0.494506 0.143821
O O2 0.691184 0.728440 0.210469
O O3 0.561547 0.729306 0.146802
O O4 0.727180 0.759583 0.104714
O O5 0.065076 0.242644 0.405896
O O6 0.000000 0.500000 0.435265
O O7 0.892837 0.251163 0.435138
O O8 0.934381 0.382523 0.346567
O O9 0.238696 0.748346 0.190413
O O10 0.243947 0.720660 0.086328
O O11 0.392672 0.771619 0.156988
O O12 0.850077 0.203947 0.279665
O O13 0.729676 0.000000 0.250000
O O14 0.820673 0.009887 0.082238
O O15 0.854906 0.194157 0.000000
O O16 0.500000 0.220627 0.750000
O O17 0.500000 0.000000 0.821229
O O18 0.765804 0.839451 0.000000
O O19 0.129275 0.500000 0.750000
O O20 0.000000 0.678620 0.750000
#
# Coordination Sequence:
#
# PCOD9395052 Si02
#       8
#     8   8   8   8   8   8   8   8
#     4  12  24  42  66  99 135 170 215 272 329 389
#     4  12  23  40  66  95 128 174 220 274 324 389
#     4  12  25  41  69  98 133 172 215 273 329 390
#     4  12  24  39  61  93 129 174 218 263 326 398
#     4  11  26  47  68  93 128 173 226 280 330 386
#     4  11  23  41  68 100 136 175 215 260 320 398
#     4  11  25  46  69  93 129 174 224 279 332 389
#     4  11  22  39  56  86 131 173 213 261 328 384
#
# _framework density 20.288371000000001
#
# number of rings (size 3 to 8) (size 9 to 14) (size 15 to 20)
#    0.000    0.500    3.750    6.000    0.000    4.250 
#    2.250    0.625    0.000    3.750    0.000    0.000 
#    0.000    0.000    0.000    0.000    0.000    0.000 
#
# Total GULP energy -357545.305098 kJ/mol
# GULP energy per Si atom -5586.645392 kJ/mol
# Density = 2.024219 g / cm^3
# Si number density = 20.288371 Si / 1000 Ang^3
#
#
#
# Elastic Constant Matrix: (Units=GPa)
#
#
# Indices 1 2 3 4 5 6 
#
# 1 96.7054 39.6206 13.8172 0.0000 0.0000 0.0000
# 2 39.6206 137.0899 30.9140 0.0000 0.0000 0.0000
# 3 13.8172 30.9140 65.6718 0.0000 0.0000 0.0000
# 4 0.0000 0.0000 0.0000 16.8529 0.0000 0.0000
# 5 0.0000 0.0000 0.0000 0.0000 17.8957 0.0000
# 6 0.0000 0.0000 0.0000 0.0000 0.0000 17.9402
#
#
#
# Elastic Compliance Matrix: (Units=1/GPa)
#
#
# Indices 1 2 3 4 5 6 
#
# 1 0.011786 -0.003185 -0.000980 0.000000 0.000000 0.000000
# 2 -0.003185 0.009022 -0.003577 0.000000 0.000000 0.000000
# 3 -0.000980 -0.003577 0.017117 0.000000 0.000000 0.000000
# 4 0.000000 0.000000 0.000000 0.059337 0.000000 0.000000
# 5 0.000000 0.000000 0.000000 0.000000 0.055879 0.000000
# 6 0.000000 0.000000 0.000000 0.000000 0.000000 0.055741
#
#
# Mechanical properties :
#
#
# Convention : Reuss Voigt Hill
#
# Bulk Modulus (GPa) = 44.56283 52.01897 48.29090
# Shear Modulus (GPa) = 21.56607 24.87878 23.22243
#
# Velocity S-wave (km/s) = 3.26387 3.50560 3.38689
# Velocity P-wave (km/s) = 6.01799 6.48699 6.25689
#
# Compressibility (1/GPa) = 0.02244023
#
# Stress axis : x y z
#
# Youngs Moduli (GPa) = 84.84843 110.84553 58.42101
#
# Poissons Ratio (x) = 0.35306 0.05727
# Poissons Ratio (y) = 0.27025 0.20895
# Poissons Ratio (z) = 0.08318 0.39645
#
# Static dielectric constant tensor:
#      x y z
#    x 1.752160 0.000000 0.000000 
#    y 0.000000 1.736790 0.000000 
#    z 0.000000 0.000000 1.752470 
# 
# From -- ./inp_files/23217.got.cif
#   From: 2010.05.17/outbox.cif.g08.bks.cpg/sg49_12_cif.got.tgz:23217.got - 2010.06.03 21:02:19.
