data_PCOD9395110
_publ_section_title
;
Structure prediction by ZEFSAII (Michael W. Deem and Ramdas Pophale) SiO2 
 PCOD9395110
Probable space group: P C C M
;
_chemical_formula_sum "Si O2"
_cell_formula_units_Z 40
_cell_length_a 12.627008
_cell_length_b 9.030098
_cell_length_c 18.122862
_cell_angle_alpha 90.000000
_cell_angle_beta 90.000000
_cell_angle_gamma 90.000000
_cell_volume 2066.425263
_symmetry_space_group_name_H-M "P C C M"
_symmetry_group_IT_number 49
_symmetry_cell_setting 'orthorhombic'
loop_
_space_group_symop_operation_xyz
x,y,z
-x,-y,z
x,-y,1/2-z
-x,y,1/2-z
-x,-y,-z
x,y,-z
-x,y,1/2+z
x,-y,1/2+z
loop_
_atom_site_type_symbol
_atom_site_label
_atom_site_fract_x
_atom_site_fract_y
_atom_site_fract_z
Si Si1 0.172983 0.318162 0.413582
Si Si2 0.210040 0.599114 0.327551
Si Si3 0.023074 0.832272 0.663593
Si Si4 0.608481 0.814050 0.165721
Si Si5 0.630563 0.854084 0.342939
O O1 0.177117 0.290397 0.500000
O O2 0.179503 0.488904 0.392248
O O3 0.063891 0.262378 0.378842
O O4 0.272776 0.239310 0.374021
O O5 0.202915 0.500000 0.250000
O O6 0.325565 0.665280 0.343911
O O7 0.134349 0.743737 0.334657
O O8 0.000000 0.837646 0.750000
O O9 0.000000 0.000000 0.636141
O O10 0.621579 0.838709 0.254218
O O11 0.488275 0.803169 0.136587
O O12 0.647585 0.973630 0.135810
#
# Coordination Sequence:
#
# PCOD9395110 Si02
#       5
#     8   8   8   8   8
#     4  12  26  41  60  93 135 166 200 258 326 377
#     4  12  22  38  63  93 127 164 207 253 312 368
#     4  11  23  41  68  94 120 163 217 260 299 368
#     4   9  18  36  67  94 120 160 218 262 295 356
#     4   9  18  38  63  95 124 159 212 265 302 358
#
# _framework density 19.357099999999999
#
# number of rings (size 3 to 8) (size 9 to 14) (size 15 to 20)
#    0.000    1.400    4.000    3.000    0.000    6.000 
#    0.000    7.000    0.000    0.000    0.000    0.000 
#    0.000    0.000    0.000    0.000    0.000    0.000 
#
# Total GULP energy -222683.589130 kJ/mol
# GULP energy per Si atom -5567.089728 kJ/mol
# Density = 1.931304 g / cm^3
# Si number density = 19.357100 Si / 1000 Ang^3
#
#
#
# Elastic Constant Matrix: (Units=GPa)
#
#
# Indices 1 2 3 4 5 6 
#
# 1 56.0950 20.4230 17.0762 0.0000 0.0000 0.0000
# 2 20.4230 72.0875 -3.5134 0.0000 0.0000 0.0000
# 3 17.0762 -3.5134 44.1266 0.0000 0.0000 0.0000
# 4 0.0000 0.0000 0.0000 13.4467 0.0000 0.0000
# 5 0.0000 0.0000 0.0000 0.0000 8.5893 0.0000
# 6 0.0000 0.0000 0.0000 0.0000 0.0000 37.1823
#
#
#
# Elastic Compliance Matrix: (Units=1/GPa)
#
#
# Indices 1 2 3 4 5 6 
#
# 1 0.023321 -0.007074 -0.009588 0.000000 0.000000 0.000000
# 2 -0.007074 0.016072 0.004017 0.000000 0.000000 0.000000
# 3 -0.009588 0.004017 0.026692 0.000000 0.000000 0.000000
# 4 0.000000 0.000000 0.000000 0.074368 0.000000 0.000000
# 5 0.000000 0.000000 0.000000 0.000000 0.116424 0.000000
# 6 0.000000 0.000000 0.000000 0.000000 0.000000 0.026895
#
#
# Mechanical properties :
#
#
# Convention : Reuss Voigt Hill
#
# Bulk Modulus (GPa) = 24.51268 26.69785 25.60527
# Shear Modulus (GPa) = 15.49615 21.06521 18.28068
#
# Velocity S-wave (km/s) = 2.83245 3.30243 3.07643
# Velocity P-wave (km/s) = 4.83611 5.32575 5.08682
#
# Compressibility (1/GPa) = 0.04079521
#
# Stress axis : x y z
#
# Youngs Moduli (GPa) = 42.87916 62.21973 37.46390
#
# Poissons Ratio (x) = 0.44017 0.35921
# Poissons Ratio (y) = 0.30335 -0.15051
# Poissons Ratio (z) = 0.41113 -0.24996
#
# Static dielectric constant tensor:
#      x y z
#    x 1.736220 0.000000 0.000000 
#    y 0.000000 1.803010 0.000000 
#    z 0.000000 0.000000 1.669150 
# 
# From -- ./inp_files/15983.got.cif
#   From: 2010.05.17/outbox.cif.g08.bks.cpg/sg49_8_cif.got.tgz:15983.got - 2010.06.03 21:02:19.
