data_PCOD9395414
_publ_section_title
;
Structure prediction by ZEFSAII (Michael W. Deem and Ramdas Pophale) SiO2 
 PCOD9395414
Probable space group: P B A N
;
_chemical_formula_sum "Si O2"
_cell_formula_units_Z 54
_cell_length_a 27.259077
_cell_length_b 17.242469
_cell_length_c 6.722516
_cell_angle_alpha 90.000000
_cell_angle_beta 90.000000
_cell_angle_gamma 90.000000
_cell_volume 3159.675224
_symmetry_space_group_name_H-M "P B A N"
_symmetry_group_IT_number 50
_space_group.IT_coordinate_system_code '2'
_symmetry_cell_setting 'orthorhombic'
loop_
_space_group_symop_operation_xyz
x,y,z
1/2-x,1/2-y,z
x,1/2-y,-z
1/2-x,y,-z
-x,-y,-z
1/2+x,1/2+y,-z
-x,1/2+y,z
1/2+x,-y,z
loop_
_atom_site_type_symbol
_atom_site_label
_atom_site_fract_x
_atom_site_fract_y
_atom_site_fract_z
Si Si1 0.202766 0.532926 0.613887
Si Si2 0.962196 0.549245 0.137986
Si Si3 0.688807 0.885601 0.669226
Si Si4 0.418634 0.416626 0.743517
Si Si5 0.750000 0.974430 0.000000
Si Si6 0.997417 0.341727 0.522311
Si Si7 0.250000 0.250000 0.500000
Si Si8 0.407247 0.558145 0.460980
O O1 0.250000 0.568200 0.500000
O O2 0.196319 0.447427 0.511419
O O3 0.218047 0.522859 0.842253
O O4 0.149921 0.571855 0.583320
O O5 0.987138 0.616615 0.270113
O O6 0.932750 0.493517 0.288118
O O7 0.925180 0.584372 0.978241
O O8 0.000000 0.500000 0.000000
O O9 0.631011 0.873327 0.686572
O O10 0.716368 0.806515 0.627946
O O11 0.712849 0.924856 0.863553
O O12 0.466309 0.381371 0.638134
O O13 0.411882 0.503858 0.657351
O O14 0.003238 0.250000 0.500000
O O15 0.941566 0.367560 0.483908
#
# Coordination Sequence:
#
# PCOD9395414 Si02
#       8
#     8   8   8   8   4   8   2   8
#     4   9  18  34  53  77 103 129 182 231 264 316
#     4  11  18  36  59  81 104 149 191 221 266 336
#     4  10  21  33  51  71 103 142 182 225 264 316
#     4  10  20  37  56  78 104 148 192 223 266 331
#     4  10  16  35  48  76  98 133 182 232 260 308
#     4  11  23  36  53  83 118 139 176 231 288 335
#     4  12  20  38  44  64 110 144 174 222 274 316
#     4  10  19  35  58  79 109 144 181 229 273 328
#
# _framework density 17.090364000000001
#
# number of rings (size 3 to 8) (size 9 to 14) (size 15 to 20)
#    0.000    1.778    5.185    1.778    1.037    0.889 
#    0.000    1.481    0.000    0.444    0.000    0.000 
#    0.000    0.000    0.000    0.000    0.000    0.000 
#
# Total GULP energy -301009.162375 kJ/mol
# GULP energy per Si atom -5574.243748 kJ/mol
# Density = 1.705147 g / cm^3
# Si number density = 17.090364 Si / 1000 Ang^3
#
#
#
# Elastic Constant Matrix: (Units=GPa)
#
#
# Indices 1 2 3 4 5 6 
#
# 1 118.7231 14.6804 20.0044 0.0000 0.0000 0.0000
# 2 14.6804 35.3181 11.5544 0.0000 0.0000 0.0000
# 3 20.0044 11.5544 97.6652 0.0000 0.0000 0.0000
# 4 0.0000 0.0000 0.0000 10.4929 0.0000 0.0000
# 5 0.0000 0.0000 0.0000 0.0000 22.5857 0.0000
# 6 0.0000 0.0000 0.0000 0.0000 0.0000 26.1080
#
#
#
# Elastic Compliance Matrix: (Units=1/GPa)
#
#
# Indices 1 2 3 4 5 6 
#
# 1 0.009078 -0.003292 -0.001470 0.000000 0.000000 0.000000
# 2 -0.003292 0.030648 -0.002951 0.000000 0.000000 0.000000
# 3 -0.001470 -0.002951 0.010889 0.000000 0.000000 0.000000
# 4 0.000000 0.000000 0.000000 0.095303 0.000000 0.000000
# 5 0.000000 0.000000 0.000000 0.000000 0.044276 0.000000
# 6 0.000000 0.000000 0.000000 0.000000 0.000000 0.038302
#
#
# Mechanical properties :
#
#
# Convention : Reuss Voigt Hill
#
# Bulk Modulus (GPa) = 28.41897 38.24275 33.33086
# Shear Modulus (GPa) = 19.55777 25.53514 22.54646
#
# Velocity S-wave (km/s) = 3.38653 3.86958 3.63609
# Velocity P-wave (km/s) = 5.65298 6.51078 6.09699
#
# Compressibility (1/GPa) = 0.03518777
#
# Stress axis : x y z
#
# Youngs Moduli (GPa) = 110.15959 32.62829 91.83319
#
# Poissons Ratio (x) = 0.10743 0.13498
# Poissons Ratio (y) = 0.36269 0.27105
# Poissons Ratio (z) = 0.16192 0.09630
#
# Static dielectric constant tensor:
#      x y z
#    x 1.616100 0.000000 0.000000 
#    y 0.000000 1.552930 0.000000 
#    z 0.000000 0.000000 1.592230 
# 
# From -- ./inp_files/7237.got.cif
#   From: 2010.05.17/outbox.cif.g08.bks.cpg/sg50_4_cif.got.tgz:7237.got - 2010.06.03 11:33:33.
