data_PCOD9395331
_publ_section_title
;
Structure prediction by ZEFSAII (Michael W. Deem and Ramdas Pophale) SiO2 
 PCOD9395331
Probable space group: P B A N
;
_chemical_formula_sum "Si O2"
_cell_formula_units_Z 56
_cell_length_a 5.530345
_cell_length_b 17.994240
_cell_length_c 27.168635
_cell_angle_alpha 90.000000
_cell_angle_beta 90.000000
_cell_angle_gamma 90.000000
_cell_volume 2703.669194
_symmetry_space_group_name_H-M "P B A N"
_symmetry_group_IT_number 50
_space_group.IT_coordinate_system_code '2'
_symmetry_cell_setting 'orthorhombic'
loop_
_space_group_symop_operation_xyz
x,y,z
1/2-x,1/2-y,z
x,1/2-y,-z
1/2-x,y,-z
-x,-y,-z
1/2+x,1/2+y,-z
-x,1/2+y,z
1/2+x,-y,z
loop_
_atom_site_type_symbol
_atom_site_label
_atom_site_fract_x
_atom_site_fract_y
_atom_site_fract_z
Si Si1 0.612059 0.340967 0.133728
Si Si2 0.966984 0.954088 0.370751
Si Si3 0.661703 0.997526 0.905233
Si Si4 0.500326 0.586952 0.480103
Si Si5 0.491965 0.047606 0.260285
Si Si6 0.998657 0.334018 0.980167
Si Si7 0.113916 0.142896 0.833103
O O1 0.654980 0.431473 0.131567
O O2 0.525337 0.326193 0.078230
O O3 0.384678 0.324343 0.168833
O O4 0.883245 0.313026 0.145364
O O5 0.699543 0.990680 0.373164
O O6 0.994320 0.909510 0.421182
O O7 0.985589 0.920751 0.316005
O O8 0.652570 0.924372 0.871996
O O9 0.411728 0.001387 0.933645
O O10 0.750000 0.619728 0.500000
O O11 0.500000 0.500000 0.500000
O O12 0.250000 0.619308 0.500000
O O13 0.466969 0.109664 0.218777
O O14 0.249266 0.995912 0.254823
O O15 0.999907 0.250000 0.000000
O O16 0.250000 0.366982 0.000000
O O17 0.750000 0.368923 0.000000
#
# Coordination Sequence:
#
# PCOD9395331 Si02
#       7
#     8   8   8   8   8   8   8
#     4  10  18  29  49  65  81 107 135 151 187 241
#     4  10  16  22  29  45  61  89 121 164 208 252
#     4   8  14  23  39  57  78 100 130 150 177 210
#     4  10  14  20  31  37  55  81 122 162 208 251
#     4  10  18  25  36  53  79 101 131 167 208 245
#     4  10  21  37  54  71  89 105 125 159 198 234
#     4  10  17  28  43  62  83 109 135 161 190 236
#
# _framework density 20.712593999999999
#
# number of rings (size 3 to 8) (size 9 to 14) (size 15 to 20)
#    0.000    2.286    2.857    4.286    0.000    0.000 
#    0.000    0.000    0.000   23.143    0.000    0.000 
#    0.000    0.000    0.000    0.000    0.000    0.000 
#
# Total GULP energy -312099.713860 kJ/mol
# GULP energy per Si atom -5573.209176 kJ/mol
# Density = 2.066545 g / cm^3
# Si number density = 20.712594 Si / 1000 Ang^3
#
#
#
# Elastic Constant Matrix: (Units=GPa)
#
#
# Indices 1 2 3 4 5 6 
#
# 1 207.5391 7.5191 32.8093 0.0000 0.0000 0.0000
# 2 7.5191 26.3364 4.0807 0.0000 0.0000 0.0000
# 3 32.8093 4.0807 145.8023 0.0000 0.0000 0.0000
# 4 0.0000 0.0000 0.0000 7.9982 0.0000 0.0000
# 5 0.0000 0.0000 0.0000 0.0000 52.9022 0.0000
# 6 0.0000 0.0000 0.0000 0.0000 0.0000 16.2720
#
#
#
# Elastic Compliance Matrix: (Units=1/GPa)
#
#
# Indices 1 2 3 4 5 6 
#
# 1 0.005038 -0.001268 -0.001098 0.000000 0.000000 0.000000
# 2 -0.001268 0.038455 -0.000791 0.000000 0.000000 0.000000
# 3 -0.001098 -0.000791 0.007128 0.000000 0.000000 0.000000
# 4 0.000000 0.000000 0.000000 0.125029 0.000000 0.000000
# 5 0.000000 0.000000 0.000000 0.000000 0.018903 0.000000
# 6 0.000000 0.000000 0.000000 0.000000 0.000000 0.061455
#
#
# Mechanical properties :
#
#
# Convention : Reuss Voigt Hill
#
# Bulk Modulus (GPa) = 22.57020 52.05510 37.31265
# Shear Modulus (GPa) = 18.04465 37.78573 27.91519
#
# Velocity S-wave (km/s) = 2.95480 4.27580 3.67514
# Velocity P-wave (km/s) = 4.74991 7.04012 6.00520
#
# Compressibility (1/GPa) = 0.04430621
#
# Stress axis : x y z
#
# Youngs Moduli (GPa) = 198.49460 26.00446 140.29469
#
# Poissons Ratio (x) = 0.03298 0.15407
# Poissons Ratio (y) = 0.25173 0.11096
# Poissons Ratio (z) = 0.21798 0.02057
#
# Static dielectric constant tensor:
#      x y z
#    x 1.998620 0.000000 0.000000 
#    y 0.000000 1.802820 0.000000 
#    z 0.000000 0.000000 1.713110 
# 
# From -- ./inp_files/32124.got.cif
#   From: 2010.05.17/outbox.cif.g08.bks.cpg/sg50_17_cif.got.tgz:32124.got - 2010.06.03 11:33:33.
