data_PCOD9395119
_publ_section_title
;
Structure prediction by ZEFSAII (Michael W. Deem and Ramdas Pophale) SiO2 
 PCOD9395119
Probable space group: P C C M
;
_chemical_formula_sum "Si O2"
_cell_formula_units_Z 48
_cell_length_a 30.589756
_cell_length_b 8.815824
_cell_length_c 9.650523
_cell_angle_alpha 90.000000
_cell_angle_beta 90.000000
_cell_angle_gamma 90.000000
_cell_volume 2602.494224
_symmetry_space_group_name_H-M "P C C M"
_symmetry_group_IT_number 49
_symmetry_cell_setting 'orthorhombic'
loop_
_space_group_symop_operation_xyz
x,y,z
-x,-y,z
x,-y,1/2-z
-x,y,1/2-z
-x,-y,-z
x,y,-z
-x,y,1/2+z
x,-y,1/2+z
loop_
_atom_site_type_symbol
_atom_site_label
_atom_site_fract_x
_atom_site_fract_y
_atom_site_fract_z
Si Si1 0.184713 0.647350 0.159653
Si Si2 0.936312 0.349399 0.500000
Si Si3 0.635840 0.154772 0.163233
Si Si4 0.459414 0.163096 0.668498
Si Si5 0.901831 0.179182 0.767123
Si Si6 0.731770 0.157126 0.834146
Si Si7 0.960108 0.699246 0.500000
O O1 0.176544 0.500000 0.250000
O O2 0.143354 0.757951 0.172027
O O3 0.228641 0.733683 0.205877
O O4 0.190287 0.602918 0.000000
O O5 0.912732 0.274975 0.630536
O O6 0.937577 0.532206 0.500000
O O7 0.987892 0.310661 0.500000
O O8 0.589006 0.233688 0.189317
O O9 0.683277 0.227297 0.190575
O O10 0.636340 0.000000 0.250000
O O11 0.635032 0.116007 0.000000
O O12 0.500000 0.239071 0.750000
O O13 0.466823 0.148278 0.500000
O O14 0.456264 0.000000 0.750000
O O15 0.898201 0.000000 0.750000
O O16 0.941959 0.214017 0.868109
O O17 0.734799 0.000000 0.750000
O O18 0.735623 0.127585 0.000000
#
# Coordination Sequence:
#
# PCOD9395119 Si02
#       7
#     8   4   8   8   8   8   4
#     4  11  24  41  61  83 112 146 184 227 279 340
#     4  11  25  41  69  89 121 165 189 237 274 333
#     4   8  14  24  39  59  88 125 165 209 261 315
#     4   9  14  19  29  49  79 120 163 204 250 306
#     4  12  25  41  63  92 121 153 193 238 282 328
#     4   9  18  34  54  78 106 137 177 225 274 329
#     4  11  23  45  63  93 125 155 201 225 282 333
#
# _framework density 18.443846000000001
#
# number of rings (size 3 to 8) (size 9 to 14) (size 15 to 20)
#    0.000    2.000    0.833    4.000    1.167    4.667 
#    0.000    0.000    0.000    0.000    0.000    0.000 
#    0.000    0.667    0.000    8.333    0.000    2.500 
#
# Total GULP energy -267396.399079 kJ/mol
# GULP energy per Si atom -5570.758314 kJ/mol
# Density = 1.840187 g / cm^3
# Si number density = 18.443846 Si / 1000 Ang^3
#
#
#
# Elastic Constant Matrix: (Units=GPa)
#
#
# Indices 1 2 3 4 5 6 
#
# 1 107.0450 27.6749 10.9596 0.0000 0.0000 0.0000
# 2 27.6749 66.3866 10.7238 0.0000 0.0000 0.0000
# 3 10.9596 10.7238 62.1785 0.0000 0.0000 0.0000
# 4 0.0000 0.0000 0.0000 14.7653 0.0000 0.0000
# 5 0.0000 0.0000 0.0000 0.0000 24.5545 0.0000
# 6 0.0000 0.0000 0.0000 0.0000 0.0000 -7.2500
#
#
#
# Elastic Compliance Matrix: (Units=1/GPa)
#
#
# Indices 1 2 3 4 5 6 
#
# 1 0.010547 -0.004214 -0.001132 0.000000 0.000000 0.000000
# 2 -0.004214 0.017179 -0.002220 0.000000 0.000000 0.000000
# 3 -0.001132 -0.002220 0.016665 0.000000 0.000000 0.000000
# 4 0.000000 0.000000 0.000000 0.067726 0.000000 0.000000
# 5 0.000000 0.000000 0.000000 0.000000 0.040726 0.000000
# 6 0.000000 0.000000 0.000000 0.000000 0.000000 -0.137931
#
#
# Mechanical properties :
#
#
# Convention : Reuss Voigt Hill
#
# Bulk Modulus (GPa) = 34.17810 37.14741 35.66275
# Shear Modulus (GPa) = 125.63626 18.83076 72.23351
#
# Velocity S-wave (km/s) = 8.26233 3.19874 6.26491
# Velocity P-wave (km/s) = 10.46865 5.81611 8.46817
#
# Compressibility (1/GPa) = 0.02925850
#
# Stress axis : x y z
#
# Youngs Moduli (GPa) = 94.81144 58.21202 60.00534
#
# Poissons Ratio (x) = 0.24530 0.06794
# Poissons Ratio (y) = 0.39953 0.13321
# Poissons Ratio (z) = 0.10735 0.12923
#
# Static dielectric constant tensor:
#      x y z
#    x 1.699530 0.000000 0.000000 
#    y 0.000000 1.589170 0.000000 
#    z 0.000000 0.000000 1.622590 
# 
# From -- ./inp_files/6922.got.cif
#   From: 2010.05.17/outbox.cif.g08.bks.cpg/sg49_4_cif.got.tgz:6922.got - 2010.06.03 21:02:19.
