data_PCOD9395783
_publ_section_title
;
Structure prediction by ZEFSAII (Michael W. Deem and Ramdas Pophale) SiO2 
 PCOD9395783
Probable space group: P B A N
;
_chemical_formula_sum "Si O2"
_cell_formula_units_Z 64
_cell_length_a 8.092273
_cell_length_b 18.446208
_cell_length_c 22.871739
_cell_angle_alpha 90.000000
_cell_angle_beta 90.000000
_cell_angle_gamma 90.000000
_cell_volume 3414.104528
_symmetry_space_group_name_H-M "P B A N"
_symmetry_group_IT_number 50
_space_group.IT_coordinate_system_code '2'
_symmetry_cell_setting 'orthorhombic'
loop_
_space_group_symop_operation_xyz
x,y,z
1/2-x,1/2-y,z
x,1/2-y,-z
1/2-x,y,-z
-x,-y,-z
1/2+x,1/2+y,-z
-x,1/2+y,z
1/2+x,-y,z
loop_
_atom_site_type_symbol
_atom_site_label
_atom_site_fract_x
_atom_site_fract_y
_atom_site_fract_z
Si Si1 0.250000 0.338577 0.567550
Si Si2 0.554371 0.833881 0.768082
Si Si3 0.451868 0.833365 1.000000
Si Si4 0.566836 0.338338 0.358085
Si Si5 0.566836 0.338338 0.641914
Si Si6 0.448121 0.583194 0.116446
Si Si7 0.554371 0.833881 0.231918
Si Si8 0.448121 0.583194 0.883554
O O1 0.250000 0.250000 0.568680
O O2 0.250000 0.360752 0.500000
O O3 0.415234 0.362485 0.601487
O O4 0.084766 0.362485 0.601487
O O5 0.464315 0.859667 0.709237
O O6 0.516581 0.880680 0.824827
O O7 0.505429 0.750000 0.779311
O O8 0.750000 0.834642 0.755778
O O9 0.506388 0.874105 0.941312
O O10 0.505129 0.750000 0.000000
O O11 0.250000 0.834127 0.000000
O O12 0.506388 0.874105 0.058688
O O13 0.562980 0.250000 0.358362
O O14 0.750000 0.361025 0.377355
O O15 0.535685 0.359667 0.290763
O O16 0.250000 0.587937 0.118521
O O17 0.500000 0.500000 0.112447
O O18 0.516581 0.880680 0.175173
#
# Coordination Sequence:
#
# PCOD9395783 Si02
#       8
#     8   8   8   8   8   8   8   8
#     4   9  16  26  40  64 102 141 177 221 269 323
#     4  10  19  33  53  76 103 137 179 228 277 329
#     4   9  19  36  57  79 104 137 182 227 270 329
#     4   9  16  27  44  67  97 137 180 221 271 326
#     4   9  16  27  44  67  97 137 180 221 271 326
#     4  11  22  36  54  77 107 142 177 224 278 332
#     4  10  19  33  53  76 103 137 179 228 277 329
#     4  11  22  36  54  77 107 142 177 224 278 332
#
# _framework density 18.745764000000001
#
# number of rings (size 3 to 8) (size 9 to 14) (size 15 to 20)
#    0.000    2.250    1.250    2.625    0.000    3.000 
#    0.000    4.375    0.000    4.500    0.000    0.000 
#    0.000    1.000    0.500    0.000    0.000    0.000 
#
# Total GULP energy -357232.732259 kJ/mol
# GULP energy per Si atom -5581.761442 kJ/mol
# Density = 1.870310 g / cm^3
# Si number density = 18.745764 Si / 1000 Ang^3
#
#
#
# Elastic Constant Matrix: (Units=GPa)
#
#
# Indices 1 2 3 4 5 6 
#
# 1 104.6095 17.2234 62.8405 0.0000 0.0000 0.0000
# 2 17.2234 64.9640 47.2260 0.0000 0.0000 0.0000
# 3 62.8405 47.2260 155.7179 0.0000 0.0000 0.0000
# 4 0.0000 0.0000 0.0000 -4.3622 0.0000 0.0000
# 5 0.0000 0.0000 0.0000 0.0000 12.0021 0.0000
# 6 0.0000 0.0000 0.0000 0.0000 0.0000 12.0429
#
#
#
# Elastic Compliance Matrix: (Units=1/GPa)
#
#
# Indices 1 2 3 4 5 6 
#
# 1 0.012629 0.000458 -0.005235 0.000000 0.000000 0.000000
# 2 0.000458 0.019763 -0.006178 0.000000 0.000000 0.000000
# 3 -0.005235 -0.006178 0.010408 0.000000 0.000000 0.000000
# 4 0.000000 0.000000 0.000000 -0.229242 0.000000 0.000000
# 5 0.000000 0.000000 0.000000 0.000000 0.083319 0.000000
# 6 0.000000 0.000000 0.000000 0.000000 0.000000 0.083037
#
#
# Mechanical properties :
#
#
# Convention : Reuss Voigt Hill
#
# Bulk Modulus (GPa) = 47.87357 64.43014 56.15185
# Shear Modulus (GPa) = 568.94172 17.13666 293.03919
#
# Velocity S-wave (km/s) = 17.44027 3.02679 12.51648
# Velocity P-wave (km/s) = 20.76402 6.83084 15.45647
#
# Compressibility (1/GPa) = 0.02088835
#
# Stress axis : x y z
#
# Youngs Moduli (GPa) = 79.18351 50.59887 96.07674
#
# Poissons Ratio (x) = -0.02315 0.50298
# Poissons Ratio (y) = -0.03623 0.59360
# Poissons Ratio (z) = 0.41454 0.31262
#
# Static dielectric constant tensor:
#      x y z
#    x 1.669690 0.000000 0.000000 
#    y 0.000000 1.607690 0.000000 
#    z 0.000000 0.000000 1.623430 
# 
# From -- ./inp_files/30729.got.cif
#   From: 2010.05.17/outbox.cif.g08.bks.cpg/sg50_16_cif.got.tgz:30729.got - 2010.06.03 11:33:33.
