data_PCOD9395226
_publ_section_title
;
Structure prediction by ZEFSAII (Michael W. Deem and Ramdas Pophale) SiO2 
 PCOD9395226
Probable space group: P C C M
;
_chemical_formula_sum "Si O2"
_cell_formula_units_Z 64
_cell_length_a 30.000000
_cell_length_b 15.000000
_cell_length_c 9.000000
_cell_angle_alpha 90.000000
_cell_angle_beta 90.000000
_cell_angle_gamma 90.000000
_cell_volume 4050.000000
_symmetry_space_group_name_H-M "P C C M"
_symmetry_group_IT_number 49
_symmetry_cell_setting 'orthorhombic'
loop_
_space_group_symop_operation_xyz
x,y,z
-x,-y,z
x,-y,1/2-z
-x,y,1/2-z
-x,-y,-z
x,y,-z
-x,y,1/2+z
x,-y,1/2+z
loop_
_atom_site_type_symbol
_atom_site_label
_atom_site_fract_x
_atom_site_fract_y
_atom_site_fract_z
Si Si1 0.596964 0.905226 0.178869
Si Si2 0.627924 0.596461 0.820656
Si Si3 0.230611 0.783242 0.320185
Si Si4 0.855057 0.098332 0.321866
Si Si5 0.547319 0.725901 0.177911
Si Si6 0.730469 0.403760 0.321732
Si Si7 0.692816 0.903243 0.679264
Si Si8 0.955464 0.098849 0.678630
O O1 0.561655 0.827636 0.209897
O O2 0.644350 0.879766 0.253042
O O3 0.584245 0.000000 0.250000
O O4 0.602660 0.913184 0.000000
O O5 0.619641 0.500000 0.750000
O O6 0.589033 0.664255 0.773750
O O7 0.679066 0.621838 0.780740
O O8 0.626546 0.590857 0.000000
O O9 0.236430 0.791153 0.500000
O O10 0.183919 0.831858 0.281392
O O11 0.237074 0.678557 0.282783
O O12 0.269908 0.835793 0.237219
O O13 0.853215 0.085894 0.500000
O O14 0.905351 0.133387 0.287814
O O15 0.848570 0.000000 0.250000
O O16 0.500000 0.703228 0.250000
O O17 0.543391 0.716865 0.000000
O O18 0.740318 0.500000 0.250000
O O19 0.731613 0.414238 0.500000
O O20 0.691234 0.907821 0.500000
O O21 0.703508 0.000000 0.750000
O O22 0.960713 0.094380 0.500000
O O23 0.000000 0.142158 0.750000
O O24 0.954133 0.000000 0.750000
#
# Coordination Sequence:
#
# PCOD9395226 Si02
#       8
#     8   8   8   8   8   8   8   8
#     4  10  20  36  54  71  92 121 155 190 224 264
#     4   9  18  34  53  73  93 117 145 177 217 265
#     4  10  19  32  48  67  95 129 157 190 234 278
#     4   9  18  29  42  62  91 126 163 196 232 275
#     4  10  22  37  53  72  96 121 147 179 221 268
#     4   9  18  33  53  72  93 119 151 188 228 273
#     4  11  21  32  48  71  96 124 157 192 226 269
#     4   9  15  24  38  57  81 115 158 199 234 272
#
# _framework density 15.802469
#
# number of rings (size 3 to 8) (size 9 to 14) (size 15 to 20)
#    0.000    2.375    0.000    4.125    0.000    6.500 
#    0.000    5.000    0.000    0.000    0.000    0.000 
#    0.000    0.500    0.000    6.250    0.000    0.000 
#
# Total GULP energy -356746.289202 kJ/mol
# GULP energy per Si atom -5574.160769 kJ/mol
# Density = 1.576650 g / cm^3
# Si number density = 15.802469 Si / 1000 Ang^3
#
#
#
# Elastic Constant Matrix: (Units=GPa)
#
#
# Indices 1 2 3 4 5 6 
#
# 1 97.2354 68.3601 27.1161 0.0000 0.0000 0.0000
# 2 68.3601 79.6134 23.7985 0.0000 0.0000 0.0000
# 3 27.1161 23.7985 45.5589 0.0000 0.0000 0.0000
# 4 0.0000 0.0000 0.0000 23.6010 0.0000 0.0000
# 5 0.0000 0.0000 0.0000 0.0000 -5.8072 0.0000
# 6 0.0000 0.0000 0.0000 0.0000 0.0000 20.3773
#
#
#
# Elastic Compliance Matrix: (Units=1/GPa)
#
#
# Indices 1 2 3 4 5 6 
#
# 1 0.026755 -0.021583 -0.004650 0.000000 0.000000 0.000000
# 2 -0.021583 0.032296 -0.004024 0.000000 0.000000 0.000000
# 3 -0.004650 -0.004024 0.026819 0.000000 0.000000 0.000000
# 4 0.000000 0.000000 0.000000 0.042371 0.000000 0.000000
# 5 0.000000 0.000000 0.000000 0.000000 -0.172201 0.000000
# 6 0.000000 0.000000 0.000000 0.000000 0.000000 0.049074
#
#
# Mechanical properties :
#
#
# Convention : Reuss Voigt Hill
#
# Bulk Modulus (GPa) = 39.43909 51.21745 45.32827
# Shear Modulus (GPa) = 67.49423 14.50975 41.00199
#
# Velocity S-wave (km/s) = 6.54247 3.03346 5.09930
# Velocity P-wave (km/s) = 9.06000 6.68959 7.96349
#
# Compressibility (1/GPa) = 0.02535555
#
# Stress axis : x y z
#
# Youngs Moduli (GPa) = 37.37677 30.96369 37.28647
#
# Poissons Ratio (x) = 0.66829 0.17338
# Poissons Ratio (y) = 0.80670 0.15006
# Poissons Ratio (z) = 0.17380 0.12461
#
# Static dielectric constant tensor:
#      x y z
#    x 1.552930 0.000000 0.000000 
#    y 0.000000 1.518160 0.000000 
#    z 0.000000 0.000000 1.529340 
# 
# From -- ./inp_files/7081.got.cif
#   From: 2010.05.17/outbox.ucp.g08.bks.cvg/sg49_4_cif.got.tgz:7081.got - 2010.06.11 16:40:14.
