data_PCOD9395289
_publ_section_title
;
Structure prediction by ZEFSAII (Michael W. Deem and Ramdas Pophale) SiO2 
 PCOD9395289
Probable space group: P C C M
;
_chemical_formula_sum "Si O2"
_cell_formula_units_Z 64
_cell_length_a 24.000000
_cell_length_b 15.000000
_cell_length_c 9.000000
_cell_angle_alpha 90.000000
_cell_angle_beta 90.000000
_cell_angle_gamma 90.000000
_cell_volume 3240.000000
_symmetry_space_group_name_H-M "P C C M"
_symmetry_group_IT_number 49
_symmetry_cell_setting 'orthorhombic'
loop_
_space_group_symop_operation_xyz
x,y,z
-x,-y,z
x,-y,1/2-z
-x,y,1/2-z
-x,-y,-z
x,y,-z
-x,y,1/2+z
x,-y,1/2+z
loop_
_atom_site_type_symbol
_atom_site_label
_atom_site_fract_x
_atom_site_fract_y
_atom_site_fract_z
Si Si1 0.639728 0.407741 0.177496
Si Si2 0.939926 0.228141 0.320734
Si Si3 0.877669 0.407584 0.677066
Si Si4 0.381018 0.904904 0.820226
Si Si5 0.146918 0.908096 0.178830
Si Si6 0.440509 0.738112 0.320176
Si Si7 0.262961 0.144087 0.826293
Si Si8 0.751561 0.642565 0.172238
O O1 0.620250 0.500000 0.250000
O O2 0.605806 0.330240 0.259950
O O3 0.704565 0.396499 0.220987
O O4 0.632204 0.404773 0.000000
O O5 0.940074 0.215390 0.500000
O O6 0.920243 0.328771 0.287746
O O7 0.893229 0.167310 0.244278
O O8 0.000000 0.210054 0.250000
O O9 0.893405 0.500000 0.750000
O O10 0.876584 0.417010 0.500000
O O11 0.814187 0.381469 0.720229
O O12 0.422184 0.832310 0.749429
O O13 0.318912 0.881604 0.760669
O O14 0.395337 0.000000 0.750000
O O15 0.382655 0.904311 0.000000
O O16 0.209007 0.893594 0.243063
O O17 0.126181 0.000000 0.250000
O O18 0.147072 0.909502 0.000000
O O19 0.500000 0.712941 0.250000
O O20 0.441662 0.740134 0.500000
O O21 0.255881 0.250847 0.827281
O O22 0.265574 0.114446 0.000000
O O23 0.742851 0.612583 0.000000
#
# Coordination Sequence:
#
# PCOD9395289 Si02
#       8
#     8   8   8   8   8   8   8   8
#     4  12  25  42  66  98 133 172 216 265 320 385
#     4  11  24  45  66  91 125 165 214 267 320 376
#     4  10  22  40  63  92 128 166 208 258 313 375
#     4  12  25  43  67  99 133 172 217 264 321 384
#     4  12  25  42  66  96 129 168 212 261 319 383
#     4  12  26  47  70  96 129 169 217 271 324 382
#     4  11  21  39  66  96 134 172 210 261 320 382
#     4  10  20  38  64  94 130 171 209 259 322 381
#
# _framework density 19.753086
#
# number of rings (size 3 to 8) (size 9 to 14) (size 15 to 20)
#    0.000    0.750    2.500    6.000    0.000    4.000 
#    0.000    5.000    0.000    0.000    0.000    0.000 
#    0.000    0.000    0.000    0.000    0.000    0.000 
#
# Total GULP energy -358061.993078 kJ/mol
# GULP energy per Si atom -5594.718642 kJ/mol
# Density = 1.970813 g / cm^3
# Si number density = 19.753086 Si / 1000 Ang^3
#
#
#
# Elastic Constant Matrix: (Units=GPa)
#
#
# Indices 1 2 3 4 5 6 
#
# 1 46.4599 -20.0110 19.4646 0.0000 0.0000 0.0000
# 2 -20.0110 79.1589 27.9810 0.0000 0.0000 0.0000
# 3 19.4646 27.9810 163.8470 0.0000 0.0000 0.0000
# 4 0.0000 0.0000 0.0000 31.6621 0.0000 0.0000
# 5 0.0000 0.0000 0.0000 0.0000 -52.8355 0.0000
# 6 0.0000 0.0000 0.0000 0.0000 0.0000 -14.3808
#
#
#
# Elastic Compliance Matrix: (Units=1/GPa)
#
#
# Indices 1 2 3 4 5 6 
#
# 1 0.027154 0.008519 -0.004681 0.000000 0.000000 0.000000
# 2 0.008519 0.016117 -0.003764 0.000000 0.000000 0.000000
# 3 -0.004681 -0.003764 0.007302 0.000000 0.000000 0.000000
# 4 0.000000 0.000000 0.000000 0.031584 0.000000 0.000000
# 5 0.000000 0.000000 0.000000 0.000000 -0.018927 0.000000
# 6 0.000000 0.000000 0.000000 0.000000 0.000000 -0.069537
#
#
# Mechanical properties :
#
#
# Convention : Reuss Voigt Hill
#
# Bulk Modulus (GPa) = 19.71564 38.25944 28.98754
# Shear Modulus (GPa) = 478.36919 10.35791 244.36355
#
# Velocity S-wave (km/s) = 15.57884 2.29239 11.13452
# Velocity P-wave (km/s) = 18.26480 5.13981 13.41679
#
# Compressibility (1/GPa) = 0.05072117
#
# Stress axis : x y z
#
# Youngs Moduli (GPa) = 36.82672 62.04620 136.94551
#
# Poissons Ratio (x) = -0.52857 0.64100
# Poissons Ratio (y) = -0.31373 0.51552
# Poissons Ratio (z) = 0.17237 0.23357
#
# Static dielectric constant tensor:
#      x y z
#    x 1.677130 0.000000 0.000000 
#    y 0.000000 1.765720 0.000000 
#    z 0.000000 0.000000 1.633540 
# 
# From -- ./inp_files/6546.got.cif
#   From: 2010.05.17/outbox.ucp.g08.bks.cvg/sg49_4_cif.got.tgz:6546.got - 2010.06.11 16:40:14.
