data_PCOD9395423
_publ_section_title
;
Structure prediction by ZEFSAII (Michael W. Deem and Ramdas Pophale) SiO2 
 PCOD9395423
Probable space group: P B A N
;
_chemical_formula_sum "Si O2"
_cell_formula_units_Z 36
_cell_length_a 14.031025
_cell_length_b 8.783987
_cell_length_c 15.668868
_cell_angle_alpha 90.000000
_cell_angle_beta 90.000000
_cell_angle_gamma 90.000000
_cell_volume 1931.161989
_symmetry_space_group_name_H-M "P B A N"
_symmetry_group_IT_number 50
_space_group.IT_coordinate_system_code '2'
_symmetry_cell_setting 'orthorhombic'
loop_
_space_group_symop_operation_xyz
x,y,z
1/2-x,1/2-y,z
x,1/2-y,-z
1/2-x,y,-z
-x,-y,-z
1/2+x,1/2+y,-z
-x,1/2+y,z
1/2+x,-y,z
loop_
_atom_site_type_symbol
_atom_site_label
_atom_site_fract_x
_atom_site_fract_y
_atom_site_fract_z
Si Si1 0.235812 0.992130 0.628514
Si Si2 0.089550 0.964687 0.774231
Si Si3 0.259754 0.069017 0.100331
Si Si4 0.750000 0.750000 0.500000
Si Si5 0.881262 0.397671 0.228858
Si Si6 0.250000 0.750000 0.500000
O O1 0.151837 0.031797 0.694953
O O2 0.318815 0.924491 0.686766
O O3 0.196011 0.864659 0.563250
O O4 0.281964 0.125404 0.571261
O O5 0.101450 0.782521 0.777117
O O6 0.138412 0.024753 0.860472
O O7 0.981367 0.016242 0.767037
O O8 0.250000 0.250000 0.115357
O O9 0.182117 0.970394 0.152778
O O10 0.250000 0.039827 0.000000
#
# Coordination Sequence:
#
# PCOD9395423 Si02
#       6
#     8   8   8   2   8   2
#     4  10  21  40  60  85 120 157 198 246 300 348
#     4  11  23  39  63  89 122 160 198 244 296 354
#     4  10  22  41  65  91 121 156 196 243 294 352
#     4  10  24  34  66  86 114 160 196 250 302 350
#     4  11  23  39  63  89 122 160 198 244 296 354
#     4  10  16  42  62  78 118 156 200 250 294 346
#
# _framework density 18.641627
#
# number of rings (size 3 to 8) (size 9 to 14) (size 15 to 20)
#    0.000    1.556    2.222    3.333    9.333    2.667 
#    0.000    6.667    0.000    0.000    0.000    0.000 
#    0.000    0.000    0.000    0.000    0.000    0.000 
#
# Total GULP energy -200416.507754 kJ/mol
# GULP energy per Si atom -5567.125215 kJ/mol
# Density = 1.859920 g / cm^3
# Si number density = 18.641627 Si / 1000 Ang^3
#
#
#
# Elastic Constant Matrix: (Units=GPa)
#
#
# Indices 1 2 3 4 5 6 
#
# 1 104.6974 26.4595 31.1448 0.0000 0.0000 0.0000
# 2 26.4595 111.3119 56.2740 0.0000 0.0000 0.0000
# 3 31.1448 56.2740 115.9584 0.0000 0.0000 0.0000
# 4 0.0000 0.0000 0.0000 33.0351 0.0000 0.0000
# 5 0.0000 0.0000 0.0000 0.0000 0.6530 0.0000
# 6 0.0000 0.0000 0.0000 0.0000 0.0000 32.9277
#
#
#
# Elastic Compliance Matrix: (Units=1/GPa)
#
#
# Indices 1 2 3 4 5 6 
#
# 1 0.010549 -0.001425 -0.002142 0.000000 0.000000 0.000000
# 2 -0.001425 0.012097 -0.005488 0.000000 0.000000 0.000000
# 3 -0.002142 -0.005488 0.011862 0.000000 0.000000 0.000000
# 4 0.000000 0.000000 0.000000 0.030271 0.000000 0.000000
# 5 0.000000 0.000000 0.000000 0.000000 1.531489 0.000000
# 6 0.000000 0.000000 0.000000 0.000000 0.000000 0.030370
#
#
# Mechanical properties :
#
#
# Convention : Reuss Voigt Hill
#
# Bulk Modulus (GPa) = 60.97955 62.19158 61.58557
# Shear Modulus (GPa) = 3.02991 27.86243 15.44617
#
# Velocity S-wave (km/s) = 1.27627 3.87025 2.88164
# Velocity P-wave (km/s) = 5.91222 7.30793 6.64681
#
# Compressibility (1/GPa) = 0.01639894
#
# Stress axis : x y z
#
# Youngs Moduli (GPa) = 94.80012 82.66625 84.30075
#
# Poissons Ratio (x) = 0.11777 0.18056
# Poissons Ratio (y) = 0.13506 0.46263
# Poissons Ratio (z) = 0.20304 0.45366
#
# Static dielectric constant tensor:
#      x y z
#    x 1.608650 0.000000 0.000000 
#    y 0.000000 1.683970 0.000000 
#    z 0.000000 0.000000 1.648290 
# 
# From -- ./inp_files/24602.got.cif
#   From: 2010.05.17/outbox.cif.g08.bks.cpg/sg50_13_cif.got.tgz:24602.got - 2010.06.03 11:33:33.
