data_PCOD9395549
_publ_section_title
;
Structure prediction by ZEFSAII (Michael W. Deem and Ramdas Pophale) SiO2 
 PCOD9395549
Probable space group: P B A N
;
_chemical_formula_sum "Si O2"
_cell_formula_units_Z 58
_cell_length_a 7.882323
_cell_length_b 24.599550
_cell_length_c 14.347782
_cell_angle_alpha 90.000000
_cell_angle_beta 90.000000
_cell_angle_gamma 90.000000
_cell_volume 2782.057868
_symmetry_space_group_name_H-M "P B A N"
_symmetry_group_IT_number 50
_space_group.IT_coordinate_system_code '2'
_symmetry_cell_setting 'orthorhombic'
loop_
_space_group_symop_operation_xyz
x,y,z
1/2-x,1/2-y,z
x,1/2-y,-z
1/2-x,y,-z
-x,-y,-z
1/2+x,1/2+y,-z
-x,1/2+y,z
1/2+x,-y,z
loop_
_atom_site_type_symbol
_atom_site_label
_atom_site_fract_x
_atom_site_fract_y
_atom_site_fract_z
Si Si1 0.564854 0.346035 0.615088
Si Si2 0.330366 0.140155 0.101146
Si Si3 0.576739 0.549454 0.871323
Si Si4 0.086864 0.886730 0.711990
Si Si5 0.263970 0.189635 0.721394
Si Si6 0.750000 0.250000 0.500000
Si Si7 0.445954 0.559973 0.524779
Si Si8 0.086641 0.564713 0.935221
O O1 0.726682 0.367675 0.676883
O O2 0.398363 0.339503 0.676999
O O3 0.635858 0.291482 0.563109
O O4 0.498749 0.388806 0.537038
O O5 0.242749 0.085673 0.146059
O O6 0.277592 0.187697 0.169009
O O7 0.527416 0.123440 0.100150
O O8 0.250000 0.150400 0.000000
O O9 0.434164 0.580587 0.809873
O O10 0.590035 0.484488 0.861111
O O11 0.551471 0.553550 0.982895
O O12 0.023494 0.928155 0.632562
O O13 0.948632 0.837878 0.709649
O O14 0.250000 0.250000 0.683215
O O15 0.250000 0.560936 0.500000
O O16 0.500000 0.500000 0.500000
O O17 0.250000 0.565424 0.000000
#
# Coordination Sequence:
#
# PCOD9395549 Si02
#       8
#     8   8   8   8   8   2   8   8
#     4  11  24  43  68  95 127 175 220 277 343 389
#     4   9  20  39  57  87 128 162 203 263 322 384
#     4   9  18  33  55  82 127 161 200 254 305 377
#     4  10  22  44  61  92 129 170 214 268 329 387
#     4  11  25  41  66  98 120 164 221 273 329 397
#     4  12  20  48  70  92 136 172 224 306 338 380
#     4  10  23  43  61  90 131 171 211 262 330 398
#     4  10  18  31  56  89 122 167 209 251 315 384
#
# _framework density 20.847875999999999
#
# number of rings (size 3 to 8) (size 9 to 14) (size 15 to 20)
#    0.000    1.931    2.069    2.897    3.862    1.379 
#    9.931    0.000    0.000    0.000    0.000    0.000 
#    0.000    0.000    0.000    0.000    0.000    0.000 
#
# Total GULP energy -322870.035744 kJ/mol
# GULP energy per Si atom -5566.724754 kJ/mol
# Density = 2.080043 g / cm^3
# Si number density = 20.847876 Si / 1000 Ang^3
#
#
#
# Elastic Constant Matrix: (Units=GPa)
#
#
# Indices 1 2 3 4 5 6 
#
# 1 56.0622 4.9755 -0.9935 0.0000 0.0000 0.0000
# 2 4.9755 76.6500 22.9902 0.0000 0.0000 0.0000
# 3 -0.9935 22.9902 71.0516 0.0000 0.0000 0.0000
# 4 0.0000 0.0000 0.0000 29.4732 0.0000 0.0000
# 5 0.0000 0.0000 0.0000 0.0000 24.1882 0.0000
# 6 0.0000 0.0000 0.0000 0.0000 0.0000 19.5871
#
#
#
# Elastic Compliance Matrix: (Units=1/GPa)
#
#
# Indices 1 2 3 4 5 6 
#
# 1 0.017972 -0.001375 0.000696 0.000000 0.000000 0.000000
# 2 -0.001375 0.014554 -0.004728 0.000000 0.000000 0.000000
# 3 0.000696 -0.004728 0.015614 0.000000 0.000000 0.000000
# 4 0.000000 0.000000 0.000000 0.033929 0.000000 0.000000
# 5 0.000000 0.000000 0.000000 0.000000 0.041342 0.000000
# 6 0.000000 0.000000 0.000000 0.000000 0.000000 0.051054
#
#
# Mechanical properties :
#
#
# Convention : Reuss Voigt Hill
#
# Bulk Modulus (GPa) = 26.79205 28.63426 27.71315
# Shear Modulus (GPa) = 25.28809 26.43582 25.86195
#
# Velocity S-wave (km/s) = 3.48657 3.56481 3.52591
# Velocity P-wave (km/s) = 5.39326 5.54153 5.46790
#
# Compressibility (1/GPa) = 0.03732451
#
# Stress axis : x y z
#
# Youngs Moduli (GPa) = 55.64295 68.71048 64.04513
#
# Poissons Ratio (x) = 0.09451 -0.04460
# Poissons Ratio (y) = 0.07653 0.30283
# Poissons Ratio (z) = -0.03875 0.32489
#
# Static dielectric constant tensor:
#      x y z
#    x 1.819040 0.000000 0.000000 
#    y 0.000000 1.767850 0.000000 
#    z 0.000000 0.000000 1.781120 
# 
# From -- ./inp_files/25388.got.cif
#   From: 2010.05.17/outbox.cif.g08.bks.cpg/sg50_13_cif.got.tgz:25388.got - 2010.06.03 11:33:33.
