data_PCOD9395652
_publ_section_title
;
Structure prediction by ZEFSAII (Michael W. Deem and Ramdas Pophale) SiO2 
 PCOD9395652
Probable space group: P B A N
;
_chemical_formula_sum "Si O2"
_cell_formula_units_Z 52
_cell_length_a 5.358025
_cell_length_b 30.562613
_cell_length_c 13.591593
_cell_angle_alpha 90.000000
_cell_angle_beta 90.000000
_cell_angle_gamma 90.000000
_cell_volume 2225.694635
_symmetry_space_group_name_H-M "P B A N"
_symmetry_group_IT_number 50
_space_group.IT_coordinate_system_code '2'
_symmetry_cell_setting 'orthorhombic'
loop_
_space_group_symop_operation_xyz
x,y,z
1/2-x,1/2-y,z
x,1/2-y,-z
1/2-x,y,-z
-x,-y,-z
1/2+x,1/2+y,-z
-x,1/2+y,z
1/2+x,-y,z
loop_
_atom_site_type_symbol
_atom_site_label
_atom_site_fract_x
_atom_site_fract_y
_atom_site_fract_z
Si Si1 0.590611 0.685568 0.597397
Si Si2 0.821077 0.889240 0.184158
Si Si3 0.250000 0.750000 0.315762
Si Si4 0.821166 0.107390 0.313681
Si Si5 0.624690 0.797152 0.798353
Si Si6 0.963781 0.015783 0.388501
Si Si7 0.542543 0.518271 0.109741
O O1 0.750000 0.679740 0.500000
O O2 0.456904 0.731907 0.611462
O O3 0.386102 0.647908 0.614789
O O4 0.752912 0.686524 0.696472
O O5 0.050725 0.890739 0.263059
O O6 0.873506 0.931505 0.116734
O O7 0.545909 0.893674 0.232525
O O8 0.846376 0.840455 0.136205
O O9 0.346949 0.713674 0.238974
O O10 0.850708 0.063501 0.376295
O O11 0.750000 0.750000 0.826612
O O12 0.245603 0.015544 0.347227
O O13 0.000000 0.000000 0.500000
O O14 0.766315 0.488825 0.153662
O O15 0.500000 0.500000 0.000000
#
# Coordination Sequence:
#
# PCOD9395652 Si02
#       7
#     8   8   4   8   8   8   8
#     4  10  22  35  54  77 111 158 212 280 334 386
#     4  11  22  40  63  94 124 163 209 261 319 385
#     4  10  18  39  54  74 110 149 212 274 340 381
#     4  11  23  39  58  85 117 160 216 265 318 378
#     4   9  20  36  56  84 118 157 212 271 322 385
#     4  10  22  38  53  72 102 151 204 257 317 363
#     4  10  22  41  67 101 138 168 202 250 316 390
#
# _framework density 23.363489999999999
#
# number of rings (size 3 to 8) (size 9 to 14) (size 15 to 20)
#    0.000    1.846    1.538    1.846    2.154    7.692 
#    2.769    0.000    0.000    0.000    0.000    2.154 
#    0.000    0.000    0.000    0.000    0.000    0.000 
#
# Total GULP energy -290030.229478 kJ/mol
# GULP energy per Si atom -5577.504413 kJ/mol
# Density = 2.331031 g / cm^3
# Si number density = 23.363490 Si / 1000 Ang^3
#
#
#
# Elastic Constant Matrix: (Units=GPa)
#
#
# Indices 1 2 3 4 5 6 
#
# 1 141.6277 8.3208 1.8072 0.0000 0.0000 0.0000
# 2 8.3208 156.3245 15.9405 0.0000 0.0000 0.0000
# 3 1.8072 15.9405 60.4228 0.0000 0.0000 0.0000
# 4 0.0000 0.0000 0.0000 21.8272 0.0000 0.0000
# 5 0.0000 0.0000 0.0000 0.0000 10.9181 0.0000
# 6 0.0000 0.0000 0.0000 0.0000 0.0000 44.1386
#
#
#
# Elastic Compliance Matrix: (Units=1/GPa)
#
#
# Indices 1 2 3 4 5 6 
#
# 1 0.007084 -0.000365 -0.000116 0.000000 0.000000 0.000000
# 2 -0.000365 0.006593 -0.001728 0.000000 0.000000 0.000000
# 3 -0.000116 -0.001728 0.017009 0.000000 0.000000 0.000000
# 4 0.000000 0.000000 0.000000 0.045814 0.000000 0.000000
# 5 0.000000 0.000000 0.000000 0.000000 0.091591 0.000000
# 6 0.000000 0.000000 0.000000 0.000000 0.000000 0.022656
#
#
# Mechanical properties :
#
#
# Convention : Reuss Voigt Hill
#
# Bulk Modulus (GPa) = 38.06973 45.61246 41.84109
# Shear Modulus (GPa) = 24.51927 37.53053 31.02490
#
# Velocity S-wave (km/s) = 3.24307 4.01231 3.64802
# Velocity P-wave (km/s) = 5.50938 6.40548 5.97425
#
# Compressibility (1/GPa) = 0.02626759
#
# Stress axis : x y z
#
# Youngs Moduli (GPa) = 141.16919 151.68452 58.79086
#
# Poissons Ratio (x) = 0.05541 0.00679
# Poissons Ratio (y) = 0.05156 0.10161
# Poissons Ratio (z) = 0.01631 0.26216
#
# Static dielectric constant tensor:
#      x y z
#    x 2.011740 0.000000 0.000000 
#    y 0.000000 1.991330 0.000000 
#    z 0.000000 0.000000 1.816140 
# 
# From -- ./inp_files/24199.got.cif
#   From: 2010.05.17/outbox.cif.g08.bks.cpg/sg50_13_cif.got.tgz:24199.got - 2010.06.03 11:33:33.
