data_PCOD9395366
_publ_section_title
;
Structure prediction by ZEFSAII (Michael W. Deem and Ramdas Pophale) SiO2 
 PCOD9395366
Probable space group: P B A N
;
_chemical_formula_sum "Si O2"
_cell_formula_units_Z 34
_cell_length_a 5.481133
_cell_length_b 13.487114
_cell_length_c 19.069398
_cell_angle_alpha 90.000000
_cell_angle_beta 90.000000
_cell_angle_gamma 90.000000
_cell_volume 1409.698871
_symmetry_space_group_name_H-M "P B A N"
_symmetry_group_IT_number 50
_space_group.IT_coordinate_system_code '2'
_symmetry_cell_setting 'orthorhombic'
loop_
_space_group_symop_operation_xyz
x,y,z
1/2-x,1/2-y,z
x,1/2-y,-z
1/2-x,y,-z
-x,-y,-z
1/2+x,1/2+y,-z
-x,1/2+y,z
1/2+x,-y,z
loop_
_atom_site_type_symbol
_atom_site_label
_atom_site_fract_x
_atom_site_fract_y
_atom_site_fract_z
Si Si1 0.356391 0.362076 0.571374
Si Si2 0.827313 0.602586 0.280603
Si Si3 0.828154 0.120639 0.772907
Si Si4 0.756585 0.435018 0.922369
Si Si5 0.750000 0.250000 0.500000
O O1 0.250000 0.250000 0.578049
O O2 0.250000 0.407689 0.500000
O O3 0.268022 0.416035 0.640425
O O4 0.628271 0.329613 0.553283
O O5 0.854337 0.497476 0.241819
O O6 0.598115 0.657453 0.245210
O O7 0.095510 0.650042 0.274291
O O8 0.759492 0.133156 0.853953
O O9 0.511640 0.503773 0.918289
O O10 0.750000 0.388147 0.000000
#
# Coordination Sequence:
#
# PCOD9395366 Si02
#       5
#     8   8   8   8   2
#     4   9  20  35  51  70  88 121 164 203 244 275
#     4  10  19  31  50  66  99 127 153 194 239 284
#     4  10  18  32  45  73 102 129 153 186 239 283
#     4  10  16  26  43  66  99 131 160 187 219 275
#     4   8  18  36  52  66  88 112 168 208 248 280
#
# _framework density 24.118628000000001
#
# number of rings (size 3 to 8) (size 9 to 14) (size 15 to 20)
#    0.000    2.588    4.706    0.000    6.588    0.000 
#    0.000    4.706    0.000    0.000    0.000    0.000 
#    0.000   10.353    0.000    0.000    0.000    0.000 
#
# Total GULP energy -189416.065288 kJ/mol
# GULP energy per Si atom -5571.060744 kJ/mol
# Density = 2.406373 g / cm^3
# Si number density = 24.118628 Si / 1000 Ang^3
#
#
#
# Elastic Constant Matrix: (Units=GPa)
#
#
# Indices 1 2 3 4 5 6 
#
# 1 173.1582 6.7963 30.1116 0.0000 0.0000 0.0000
# 2 6.7963 62.2573 -8.1336 0.0000 0.0000 0.0000
# 3 30.1116 -8.1336 208.7428 0.0000 0.0000 0.0000
# 4 0.0000 0.0000 0.0000 9.4253 0.0000 0.0000
# 5 0.0000 0.0000 0.0000 0.0000 52.6902 0.0000
# 6 0.0000 0.0000 0.0000 0.0000 0.0000 -469.1492
#
#
#
# Elastic Compliance Matrix: (Units=1/GPa)
#
#
# Indices 1 2 3 4 5 6 
#
# 1 0.005960 -0.000767 -0.000890 0.000000 0.000000 0.000000
# 2 -0.000767 0.016243 0.000744 0.000000 0.000000 0.000000
# 3 -0.000890 0.000744 0.004948 0.000000 0.000000 0.000000
# 4 0.000000 0.000000 0.000000 0.106097 0.000000 0.000000
# 5 0.000000 0.000000 0.000000 0.000000 0.018979 0.000000
# 6 0.000000 0.000000 0.000000 0.000000 0.000000 -0.002132
#
#
# Mechanical properties :
#
#
# Convention : Reuss Voigt Hill
#
# Bulk Modulus (GPa) = 39.48640 55.74520 47.61580
# Shear Modulus (GPa) = 31.17924 -53.71446 -11.26761
#
# Velocity S-wave (km/s) = 3.59938 -4.72433 -2.16377
# Velocity P-wave (km/s) = 5.80356 2.56826 3.68004
#
# Compressibility (1/GPa) = 0.02532517
#
# Stress axis : x y z
#
# Youngs Moduli (GPa) = 167.78919 61.56412 202.10663
#
# Poissons Ratio (x) = 0.04721 0.17979
# Poissons Ratio (y) = 0.12866 -0.15027
# Poissons Ratio (z) = 0.14927 -0.04577
#
# Static dielectric constant tensor:
#      x y z
#    x 2.152850 0.000000 0.000000 
#    y 0.000000 2.054960 0.000000 
#    z 0.000000 0.000000 1.864900 
# 
# From -- ./inp_files/23889.got.cif
#   From: 2010.05.17/outbox.cif.g08.bks.cpg/sg50_12_cif.got.tgz:23889.got - 2010.06.03 11:33:33.
