data_PCOD9395023
_publ_section_title
;
Structure prediction by ZEFSAII (Michael W. Deem and Ramdas Pophale) SiO2 
 PCOD9395023
Probable space group: P C C M
;
_chemical_formula_sum "Si O2"
_cell_formula_units_Z 64
_cell_length_a 11.235924
_cell_length_b 15.590498
_cell_length_c 17.657371
_cell_angle_alpha 90.000000
_cell_angle_beta 90.000000
_cell_angle_gamma 90.000000
_cell_volume 3093.106139
_symmetry_space_group_name_H-M "P C C M"
_symmetry_group_IT_number 49
_symmetry_cell_setting 'orthorhombic'
loop_
_space_group_symop_operation_xyz
x,y,z
-x,-y,z
x,-y,1/2-z
-x,y,1/2-z
-x,-y,-z
x,y,-z
-x,y,1/2+z
x,-y,1/2+z
loop_
_atom_site_type_symbol
_atom_site_label
_atom_site_fract_x
_atom_site_fract_y
_atom_site_fract_z
Si Si1 0.828044 0.533375 0.170171
Si Si2 0.192709 0.049305 0.590850
Si Si3 0.443294 0.913751 0.164932
Si Si4 0.437039 0.589508 0.328135
Si Si5 0.068433 0.869596 0.589426
Si Si6 0.209779 0.353446 0.410202
Si Si7 0.027195 0.300783 0.161008
Si Si8 0.453943 0.734564 0.910920
O O1 0.876087 0.500000 0.250000
O O2 0.699506 0.572423 0.187549
O O3 0.807538 0.450276 0.118877
O O4 0.908077 0.610346 0.139481
O O5 0.221960 0.061195 0.500000
O O6 0.301400 0.076814 0.645644
O O7 0.067781 0.099071 0.604825
O O8 0.156456 0.949674 0.603131
O O9 0.500000 0.910808 0.250000
O O10 0.479373 0.824599 0.127373
O O11 0.500000 0.000000 0.129911
O O12 0.500000 0.500000 0.351681
O O13 0.500000 0.616319 0.250000
O O14 0.450952 0.662434 0.390002
O O15 0.074364 0.849662 0.500000
O O16 0.095836 0.785024 0.637363
O O17 0.215015 0.354962 0.500000
O O18 0.330110 0.307972 0.382362
O O19 0.097444 0.300127 0.382470
O O20 0.000000 0.302000 0.250000
O O21 0.444543 0.747417 0.000000
#
# Coordination Sequence:
#
# PCOD9395023 Si02
#       8
#     8   8   8   8   8   8   8   8
#     4  12  23  41  61  89 130 175 221 264 329 387
#     4   9  19  43  76  98 130 176 218 269 336 404
#     4  11  25  44  63  98 139 177 218 271 328 403
#     4  11  21  40  68  93 125 172 220 276 329 384
#     4   9  20  43  72 103 130 166 220 279 337 399
#     4  11  24  42  66  93 125 171 221 269 323 391
#     4  12  25  38  60  96 137 173 212 270 326 401
#     4  11  24  43  70  98 126 170 224 273 329 395
#
# _framework density 20.691175000000001
#
# number of rings (size 3 to 8) (size 9 to 14) (size 15 to 20)
#    0.000    1.250    3.750    3.000    0.000    6.250 
#   11.250    1.875    0.000    0.000    0.000    0.000 
#    0.000    0.000    0.000    0.000    0.000    0.000 
#
# Total GULP energy -357487.553010 kJ/mol
# GULP energy per Si atom -5585.743016 kJ/mol
# Density = 2.064408 g / cm^3
# Si number density = 20.691175 Si / 1000 Ang^3
#
#
#
# Elastic Constant Matrix: (Units=GPa)
#
#
# Indices 1 2 3 4 5 6 
#
# 1 74.9800 2.0501 22.1983 0.0000 0.0000 0.0000
# 2 2.0501 127.6670 49.0021 0.0000 0.0000 0.0000
# 3 22.1983 49.0021 61.8498 0.0000 0.0000 0.0000
# 4 0.0000 0.0000 0.0000 32.4456 0.0000 0.0000
# 5 0.0000 0.0000 0.0000 0.0000 41.7117 0.0000
# 6 0.0000 0.0000 0.0000 0.0000 0.0000 57.6061
#
#
#
# Elastic Compliance Matrix: (Units=1/GPa)
#
#
# Indices 1 2 3 4 5 6 
#
# 1 0.015553 0.002720 -0.007737 0.000000 0.000000 0.000000
# 2 0.002720 0.011731 -0.010271 0.000000 0.000000 0.000000
# 3 -0.007737 -0.010271 0.027082 0.000000 0.000000 0.000000
# 4 0.000000 0.000000 0.000000 0.030821 0.000000 0.000000
# 5 0.000000 0.000000 0.000000 0.000000 0.023974 0.000000
# 6 0.000000 0.000000 0.000000 0.000000 0.000000 0.017359
#
#
# Mechanical properties :
#
#
# Convention : Reuss Voigt Hill
#
# Bulk Modulus (GPa) = 42.03239 45.66643 43.84941
# Shear Modulus (GPa) = 30.29807 39.10241 34.70024
#
# Velocity S-wave (km/s) = 3.83077 4.35191 4.09963
# Velocity P-wave (km/s) = 6.31859 6.88263 6.60663
#
# Compressibility (1/GPa) = 0.02379118
#
# Stress axis : x y z
#
# Youngs Moduli (GPa) = 64.29575 85.24155 36.92449
#
# Poissons Ratio (x) = -0.23185 0.28569
# Poissons Ratio (y) = -0.17488 0.37924
# Poissons Ratio (z) = 0.49746 0.87549
#
# Static dielectric constant tensor:
#      x y z
#    x 1.768750 0.000000 0.000000 
#    y 0.000000 1.750230 0.000000 
#    z 0.000000 0.000000 1.732180 
# 
# From -- ./inp_files/17342.got.cif
#   From: 2010.05.17/outbox.cif.g08.bks.cpg/sg49_9_cif.got.tgz:17342.got - 2010.06.03 21:02:19.
