data_PCOD9395115
_publ_section_title
;
Structure prediction by ZEFSAII (Michael W. Deem and Ramdas Pophale) SiO2 
 PCOD9395115
Probable space group: P C C M
;
_chemical_formula_sum "Si O2"
_cell_formula_units_Z 32
_cell_length_a 8.713137
_cell_length_b 10.930639
_cell_length_c 14.594875
_cell_angle_alpha 90.000000
_cell_angle_beta 90.000000
_cell_angle_gamma 90.000000
_cell_volume 1390.018159
_symmetry_space_group_name_H-M "P C C M"
_symmetry_group_IT_number 49
_symmetry_cell_setting 'orthorhombic'
loop_
_space_group_symop_operation_xyz
x,y,z
-x,-y,z
x,-y,1/2-z
-x,y,1/2-z
-x,-y,-z
x,y,-z
-x,y,1/2+z
x,-y,1/2+z
loop_
_atom_site_type_symbol
_atom_site_label
_atom_site_fract_x
_atom_site_fract_y
_atom_site_fract_z
Si Si1 0.026741 0.356637 0.000000
Si Si2 0.686142 0.000410 0.105714
Si Si3 0.359663 0.247929 0.812969
Si Si4 0.601478 0.624483 0.000000
Si Si5 0.870488 0.766000 0.321321
O O1 0.947830 0.297496 0.909701
O O2 0.000000 0.500000 0.000000
O O3 0.212373 0.357108 0.000000
O O4 0.769746 0.118572 0.145576
O O5 0.500000 0.000000 0.110656
O O6 0.727265 0.872974 0.152564
O O7 0.729616 0.993404 0.000000
O O8 0.500000 0.210046 0.750000
O O9 0.243316 0.316264 0.743351
O O10 0.431233 0.312057 0.902302
O O11 0.500000 0.500000 0.000000
O O12 0.000000 0.804271 0.250000
#
# Coordination Sequence:
#
# PCOD9395115 Si02
#       5
#     4   8   8   4   8
#     4  12  30  55  78 109 157 210 275 343 401 471
#     4  11  23  42  76 113 162 211 257 324 402 482
#     4  12  26  47  77 117 161 206 267 327 403 490
#     4  12  30  55  78 111 153 213 278 338 397 478
#     4  12  26  49  78 118 161 208 260 331 412 482
#
# _framework density 23.021283
#
# number of rings (size 3 to 8) (size 9 to 14) (size 15 to 20)
#    0.000    0.250    7.500    0.750    3.500    3.000 
#    0.000    2.500    0.000    0.000    0.000    0.000 
#    0.000    0.000    0.000    0.000    0.000    0.000 
#
# Total GULP energy -178622.926429 kJ/mol
# GULP energy per Si atom -5581.966451 kJ/mol
# Density = 2.296889 g / cm^3
# Si number density = 23.021283 Si / 1000 Ang^3
#
#
#
# Elastic Constant Matrix: (Units=GPa)
#
#
# Indices 1 2 3 4 5 6 
#
# 1 90.8029 52.8409 78.4840 0.0000 0.0000 0.0000
# 2 52.8409 127.7480 92.5841 0.0000 0.0000 0.0000
# 3 78.4840 92.5841 249.8211 0.0000 0.0000 0.0000
# 4 0.0000 0.0000 0.0000 -18.4331 0.0000 0.0000
# 5 0.0000 0.0000 0.0000 0.0000 39.0431 0.0000
# 6 0.0000 0.0000 0.0000 0.0000 0.0000 37.1510
#
#
#
# Elastic Compliance Matrix: (Units=1/GPa)
#
#
# Indices 1 2 3 4 5 6 
#
# 1 0.016637 -0.004230 -0.003659 0.000000 0.000000 0.000000
# 2 -0.004230 0.011778 -0.003036 0.000000 0.000000 0.000000
# 3 -0.003659 -0.003036 0.006278 0.000000 0.000000 0.000000
# 4 0.000000 0.000000 0.000000 -0.054250 0.000000 0.000000
# 5 0.000000 0.000000 0.000000 0.000000 0.025613 0.000000
# 6 0.000000 0.000000 0.000000 0.000000 0.000000 0.026917
#
#
# Mechanical properties :
#
#
# Convention : Reuss Voigt Hill
#
# Bulk Modulus (GPa) = 77.86608 101.79888 89.83248
# Shear Modulus (GPa) = 84.59854 27.84974 56.22414
#
# Velocity S-wave (km/s) = 6.06859 3.48190 4.94729
# Velocity P-wave (km/s) = 9.11047 7.77691 8.46997
#
# Compressibility (1/GPa) = 0.01284256
#
# Stress axis : x y z
#
# Youngs Moduli (GPa) = 60.10714 84.90530 159.29639
#
# Poissons Ratio (x) = 0.35912 0.58289
# Poissons Ratio (y) = 0.25423 0.48364
# Poissons Ratio (z) = 0.21994 0.25778
#
# Static dielectric constant tensor:
#      x y z
#    x 2.020160 0.000000 0.000000 
#    y 0.000000 1.873860 0.000000 
#    z 0.000000 0.000000 1.959780 
# 
# From -- ./inp_files/11328.got.cif
#   From: 2010.05.17/outbox.cif.g08.bks.cpg/sg49_6_cif.got.tgz:11328.got - 2010.06.03 21:02:19.
