data_PCOD9395434
_publ_section_title
;
Structure prediction by ZEFSAII (Michael W. Deem and Ramdas Pophale) SiO2 
 PCOD9395434
Probable space group: P B A N
;
_chemical_formula_sum "Si O2"
_cell_formula_units_Z 34
_cell_length_a 5.578664
_cell_length_b 35.098864
_cell_length_c 7.248592
_cell_angle_alpha 90.000000
_cell_angle_beta 90.000000
_cell_angle_gamma 90.000000
_cell_volume 1419.308882
_symmetry_space_group_name_H-M "P B A N"
_symmetry_group_IT_number 50
_space_group.IT_coordinate_system_code '2'
_symmetry_cell_setting 'orthorhombic'
loop_
_space_group_symop_operation_xyz
x,y,z
1/2-x,1/2-y,z
x,1/2-y,-z
1/2-x,y,-z
-x,-y,-z
1/2+x,1/2+y,-z
-x,1/2+y,z
1/2+x,-y,z
loop_
_atom_site_type_symbol
_atom_site_label
_atom_site_fract_x
_atom_site_fract_y
_atom_site_fract_z
Si Si1 0.215712 0.127028 0.705980
Si Si2 0.250000 0.750000 0.000000
Si Si3 0.136227 0.210976 0.795871
Si Si4 0.713309 0.100731 0.714815
Si Si5 0.457204 0.513722 0.711704
O O1 0.250000 0.109856 0.500000
O O2 0.160686 0.171801 0.692267
O O3 0.480467 0.122598 0.791784
O O4 0.979763 0.107762 0.793760
O O5 0.371464 0.721617 0.145282
O O6 0.250000 0.250000 0.717435
O O7 0.250000 0.205947 0.000000
O O8 0.750000 0.112679 0.500000
O O9 0.636741 0.056780 0.719780
O O10 0.500000 0.500000 0.500000
O O11 0.227880 0.490333 0.789466
#
# Coordination Sequence:
#
# PCOD9395434 Si02
#       5
#     8   2   8   8   8
#     4  10  22  34  52  78 117 145 168 224 277 329
#     4   8  18  36  64  80 104 132 206 238 270 308
#     4   9  20  37  60  79 102 142 191 230 263 321
#     4  10  19  31  45  74 112 148 170 214 275 321
#     4  10  17  25  46  66  99 148 181 212 249 321
#
# _framework density 23.955318999999999
#
# number of rings (size 3 to 8) (size 9 to 14) (size 15 to 20)
#    0.000    2.588    2.353    1.412   13.176    0.471 
#    0.000    0.000    0.000    0.000    0.000    0.000 
#    0.000   18.824    0.000    0.000    0.000    0.000 
#
# Total GULP energy -189373.339854 kJ/mol
# GULP energy per Si atom -5569.804113 kJ/mol
# Density = 2.390080 g / cm^3
# Si number density = 23.955319 Si / 1000 Ang^3
#
#
#
# Elastic Constant Matrix: (Units=GPa)
#
#
# Indices 1 2 3 4 5 6 
#
# 1 237.9388 73.3287 14.6110 0.0000 0.0000 0.0000
# 2 73.3287 145.7654 -3.3514 0.0000 0.0000 0.0000
# 3 14.6110 -3.3514 71.9277 0.0000 0.0000 0.0000
# 4 0.0000 0.0000 0.0000 130.4674 0.0000 0.0000
# 5 0.0000 0.0000 0.0000 0.0000 38.9972 0.0000
# 6 0.0000 0.0000 0.0000 0.0000 0.0000 73.6929
#
#
#
# Elastic Compliance Matrix: (Units=1/GPa)
#
#
# Indices 1 2 3 4 5 6 
#
# 1 0.005067 -0.002575 -0.001149 0.000000 0.000000 0.000000
# 2 -0.002575 0.008177 0.000904 0.000000 0.000000 0.000000
# 3 -0.001149 0.000904 0.014178 0.000000 0.000000 0.000000
# 4 0.000000 0.000000 0.000000 0.007665 0.000000 0.000000
# 5 0.000000 0.000000 0.000000 0.000000 0.025643 0.000000
# 6 0.000000 0.000000 0.000000 0.000000 0.000000 0.013570
#
#
# Mechanical properties :
#
#
# Convention : Reuss Voigt Hill
#
# Bulk Modulus (GPa) = 45.91148 69.42315 57.66732
# Shear Modulus (GPa) = 57.33866 73.36774 65.35320
#
# Velocity S-wave (km/s) = 4.89772 5.54016 5.22882
# Velocity P-wave (km/s) = 7.15476 8.36467 7.78326
#
# Compressibility (1/GPa) = 0.02178104
#
# Stress axis : x y z
#
# Youngs Moduli (GPa) = 197.35361 122.29823 70.52959
#
# Poissons Ratio (x) = 0.31497 0.08106
# Poissons Ratio (y) = 0.50827 -0.06377
# Poissons Ratio (z) = 0.22682 -0.11058
#
# Static dielectric constant tensor:
#      x y z
#    x 1.747830 0.000000 0.000000 
#    y 0.000000 1.852090 0.000000 
#    z 0.000000 0.000000 2.050360 
# 
# From -- ./inp_files/17969.got.cif
#   From: 2010.05.17/outbox.cif.g08.bks.cpg/sg50_9_cif.got.tgz:17969.got - 2010.06.03 11:33:33.
