data_PCOD9395103
_publ_section_title
;
Structure prediction by ZEFSAII (Michael W. Deem and Ramdas Pophale) SiO2 
 PCOD9395103
Probable space group: P C C M
;
_chemical_formula_sum "Si O2"
_cell_formula_units_Z 64
_cell_length_a 8.985034
_cell_length_b 20.078148
_cell_length_c 18.489815
_cell_angle_alpha 90.000000
_cell_angle_beta 90.000000
_cell_angle_gamma 90.000000
_cell_volume 3335.615182
_symmetry_space_group_name_H-M "P C C M"
_symmetry_group_IT_number 49
_symmetry_cell_setting 'orthorhombic'
loop_
_space_group_symop_operation_xyz
x,y,z
-x,-y,z
x,-y,1/2-z
-x,y,1/2-z
-x,-y,-z
x,y,-z
-x,y,1/2+z
x,-y,1/2+z
loop_
_atom_site_type_symbol
_atom_site_label
_atom_site_fract_x
_atom_site_fract_y
_atom_site_fract_z
Si Si1 0.296157 0.802806 0.315525
Si Si2 0.816339 0.706748 0.585825
Si Si3 0.877081 0.905488 0.086916
Si Si4 0.365322 0.828017 0.152388
Si Si5 0.654190 0.582452 0.660136
Si Si6 0.685310 0.429995 0.334728
Si Si7 0.214637 0.947578 0.913788
Si Si8 0.906758 0.321638 0.323887
O O1 0.192908 0.846866 0.366927
O O2 0.305289 0.830056 0.234201
O O3 0.463658 0.805244 0.345415
O O4 0.226695 0.729626 0.308844
O O5 0.817205 0.700143 0.500000
O O6 0.726912 0.772716 0.608706
O O7 0.744093 0.641506 0.623269
O O8 0.980744 0.710300 0.619090
O O9 0.051971 0.916272 0.102961
O O10 0.794746 0.974911 0.106817
O O11 0.863099 0.895574 0.000000
O O12 0.339644 0.901005 0.119917
O O13 0.479808 0.591803 0.641126
O O14 0.700145 0.506730 0.641563
O O15 0.675247 0.580272 0.747280
O O16 0.827679 0.386953 0.355538
O O17 0.230119 0.946031 0.000000
O O18 0.000000 0.334149 0.250000
#
# Coordination Sequence:
#
# PCOD9395103 Si02
#       8
#     8   8   8   8   8   8   8   8
#     4  11  24  38  60  88 118 155 203 255 298 359
#     4  12  25  40  59  89 124 159 195 248 307 362
#     4   9  20  38  61  88 119 155 201 250 302 364
#     4  11  23  40  59  86 120 158 203 248 302 362
#     4   9  18  37  62  92 118 152 203 244 287 354
#     4   9  18  36  65  90 116 155 202 247 287 343
#     4   9  19  38  61  86 119 161 201 245 302 365
#     4  12  22  39  61  88 119 157 203 250 299 358
#
# _framework density 19.186865000000001
#
# number of rings (size 3 to 8) (size 9 to 14) (size 15 to 20)
#    0.000    1.750    2.500    3.375    0.000    6.000 
#    0.000    8.125    0.000    0.000    0.000    0.000 
#    0.000    0.000    0.000    0.000    0.000    0.000 
#
# Total GULP energy -357285.395254 kJ/mol
# GULP energy per Si atom -5582.584301 kJ/mol
# Density = 1.914319 g / cm^3
# Si number density = 19.186865 Si / 1000 Ang^3
#
#
#
# Elastic Constant Matrix: (Units=GPa)
#
#
# Indices 1 2 3 4 5 6 
#
# 1 52.5071 30.1402 14.7203 0.0000 0.0000 0.0000
# 2 30.1402 67.7615 14.0385 0.0000 0.0000 0.0000
# 3 14.7203 14.0385 39.6966 0.0000 0.0000 0.0000
# 4 0.0000 0.0000 0.0000 17.6895 0.0000 0.0000
# 5 0.0000 0.0000 0.0000 0.0000 18.1735 0.0000
# 6 0.0000 0.0000 0.0000 0.0000 0.0000 26.9085
#
#
#
# Elastic Compliance Matrix: (Units=1/GPa)
#
#
# Indices 1 2 3 4 5 6 
#
# 1 0.026919 -0.010689 -0.006202 0.000000 0.000000 0.000000
# 2 -0.010689 0.020169 -0.003169 0.000000 0.000000 0.000000
# 3 -0.006202 -0.003169 0.028612 0.000000 0.000000 0.000000
# 4 0.000000 0.000000 0.000000 0.056531 0.000000 0.000000
# 5 0.000000 0.000000 0.000000 0.000000 0.055025 0.000000
# 6 0.000000 0.000000 0.000000 0.000000 0.000000 0.037163
#
#
# Mechanical properties :
#
#
# Convention : Reuss Voigt Hill
#
# Bulk Modulus (GPa) = 28.10582 30.86259 29.48421
# Shear Modulus (GPa) = 18.08986 19.29206 18.69096
#
# Velocity S-wave (km/s) = 3.07388 3.17438 3.12453
# Velocity P-wave (km/s) = 5.22289 5.43652 5.33077
#
# Compressibility (1/GPa) = 0.03557982
#
# Stress axis : x y z
#
# Youngs Moduli (GPa) = 37.14789 49.58224 34.95075
#
# Poissons Ratio (x) = 0.52997 0.21677
# Poissons Ratio (y) = 0.39707 0.11075
# Poissons Ratio (z) = 0.23040 0.15712
#
# Static dielectric constant tensor:
#      x y z
#    x 1.680400 0.000000 0.000000 
#    y 0.000000 1.674760 0.000000 
#    z 0.000000 0.000000 1.643660 
# 
# From -- ./inp_files/16544.got.cif
#   From: 2010.05.17/outbox.cif.g08.bks.cpg/sg49_9_cif.got.tgz:16544.got - 2010.06.03 21:02:19.
