data_PCOD9395285
_publ_section_title
;
Structure prediction by ZEFSAII (Michael W. Deem and Ramdas Pophale) SiO2 
 PCOD9395285
Probable space group: P C C M
;
_chemical_formula_sum "Si O2"
_cell_formula_units_Z 64
_cell_length_a 12.000000
_cell_length_b 15.000000
_cell_length_c 18.000000
_cell_angle_alpha 90.000000
_cell_angle_beta 90.000000
_cell_angle_gamma 90.000000
_cell_volume 3240.000000
_symmetry_space_group_name_H-M "P C C M"
_symmetry_group_IT_number 49
_symmetry_cell_setting 'orthorhombic'
loop_
_space_group_symop_operation_xyz
x,y,z
-x,-y,z
x,-y,1/2-z
-x,y,1/2-z
-x,-y,-z
x,y,-z
-x,y,1/2+z
x,-y,1/2+z
loop_
_atom_site_type_symbol
_atom_site_label
_atom_site_fract_x
_atom_site_fract_y
_atom_site_fract_z
Si Si1 0.006530 0.101579 0.085807
Si Si2 0.302521 0.476507 0.174892
Si Si3 0.670311 0.651233 0.582893
Si Si4 0.800568 0.794080 0.350222
Si Si5 0.369945 0.106220 0.744232
Si Si6 0.228062 0.194639 0.875499
Si Si7 0.421281 0.676178 0.415812
Si Si8 0.124749 0.338589 0.221704
O O1 0.136052 0.131056 0.088138
O O2 0.917674 0.158468 0.133439
O O3 0.969314 0.105779 0.000000
O O4 0.000000 0.000000 0.112381
O O5 0.365273 0.500000 0.250000
O O6 0.290354 0.567351 0.130507
O O7 0.370458 0.402514 0.131915
O O8 0.188561 0.428180 0.200022
O O9 0.658159 0.616967 0.500000
O O10 0.756414 0.732102 0.584446
O O11 0.549523 0.689308 0.608379
O O12 0.700784 0.860752 0.327022
O O13 0.815810 0.720860 0.285000
O O14 0.500000 0.137711 0.750000
O O15 0.291626 0.142576 0.810141
O O16 0.372963 0.000000 0.750000
O O17 0.333999 0.242095 0.913666
O O18 0.146031 0.274374 0.848415
O O19 0.424725 0.645366 0.500000
O O20 0.000000 0.352686 0.250000
#
# Coordination Sequence:
#
# PCOD9395285 Si02
#       8
#     8   8   8   8   8   8   8   8
#     4  11  23  38  60  89 122 162 208 257 311 377
#     4  11  22  38  58  90 119 156 197 252 306 360
#     4  11  23  40  60  87 122 163 205 248 304 368
#     4  11  21  39  61  85 120 158 200 252 305 364
#     4  10  21  36  58  91 124 154 197 254 318 385
#     4  10  20  37  61  86 119 159 204 254 310 364
#     4  10  22  39  61  86 120 162 207 254 301 365
#     4  10  20  38  59  85 113 152 194 246 301 357
#
# _framework density 19.753086
#
# number of rings (size 3 to 8) (size 9 to 14) (size 15 to 20)
#    0.000    1.500    2.500    3.000    0.000    2.250 
#    0.000    1.875    0.000    0.750    0.000   10.500 
#    0.000    0.000    0.000    0.000    0.000    0.000 
#
# Total GULP energy -356274.462061 kJ/mol
# GULP energy per Si atom -5566.788470 kJ/mol
# Density = 1.970813 g / cm^3
# Si number density = 19.753086 Si / 1000 Ang^3
#
#
#
# Elastic Constant Matrix: (Units=GPa)
#
#
# Indices 1 2 3 4 5 6 
#
# 1 131.9664 58.8219 16.3447 0.0000 0.0000 0.0000
# 2 58.8219 107.7281 44.9173 0.0000 0.0000 0.0000
# 3 16.3447 44.9173 55.8404 0.0000 0.0000 0.0000
# 4 0.0000 0.0000 0.0000 107.6110 0.0000 0.0000
# 5 0.0000 0.0000 0.0000 0.0000 23.3068 0.0000
# 6 0.0000 0.0000 0.0000 0.0000 0.0000 8.7892
#
#
#
# Elastic Compliance Matrix: (Units=1/GPa)
#
#
# Indices 1 2 3 4 5 6 
#
# 1 0.010199 -0.006507 0.002248 0.000000 0.000000 0.000000
# 2 -0.006507 0.018118 -0.012669 0.000000 0.000000 0.000000
# 3 0.002248 -0.012669 0.027441 0.000000 0.000000 0.000000
# 4 0.000000 0.000000 0.000000 0.009293 0.000000 0.000000
# 5 0.000000 0.000000 0.000000 0.000000 0.042906 0.000000
# 6 0.000000 0.000000 0.000000 0.000000 0.000000 0.113776
#
#
# Mechanical properties :
#
#
# Convention : Reuss Voigt Hill
#
# Bulk Modulus (GPa) = 45.65493 59.52252 52.58873
# Shear Modulus (GPa) = 19.01940 39.63813 29.32876
#
# Velocity S-wave (km/s) = 3.10636 4.48446 3.85745
# Velocity P-wave (km/s) = 6.00241 7.55066 6.82061
#
# Compressibility (1/GPa) = 0.02190344
#
# Stress axis : x y z
#
# Youngs Moduli (GPa) = 98.04487 55.19426 36.44175
#
# Poissons Ratio (x) = 0.35913 -0.08194
# Poissons Ratio (y) = 0.63794 0.46169
# Poissons Ratio (z) = -0.22045 0.69927
#
# Static dielectric constant tensor:
#      x y z
#    x 1.696060 0.000000 0.000000 
#    y 0.000000 0.656400 0.000000 
#    z 0.000000 0.000000 1.767680 
# 
# From -- ./inp_files/17332.got.cif
#   From: 2010.05.17/outbox.ucp.g08.bks.cvg/sg49_9_cif.got.tgz:17332.got - 2010.06.11 16:40:14.
