data_PCOD9395730
_publ_section_title
;
Structure prediction by ZEFSAII (Michael W. Deem and Ramdas Pophale) SiO2 
 PCOD9395730
Probable space group: P B A N
;
_chemical_formula_sum "Si O2"
_cell_formula_units_Z 36
_cell_length_a 15.210084
_cell_length_b 20.176264
_cell_length_c 4.856943
_cell_angle_alpha 90.000000
_cell_angle_beta 90.000000
_cell_angle_gamma 90.000000
_cell_volume 1490.511637
_symmetry_space_group_name_H-M "P B A N"
_symmetry_group_IT_number 50
_space_group.IT_coordinate_system_code '2'
_symmetry_cell_setting 'orthorhombic'
loop_
_space_group_symop_operation_xyz
x,y,z
1/2-x,1/2-y,z
x,1/2-y,-z
1/2-x,y,-z
-x,-y,-z
1/2+x,1/2+y,-z
-x,1/2+y,z
1/2+x,-y,z
loop_
_atom_site_type_symbol
_atom_site_label
_atom_site_fract_x
_atom_site_fract_y
_atom_site_fract_z
Si Si1 0.053786 0.750000 0.000000
Si Si2 0.338093 0.869235 0.180118
Si Si3 0.901766 0.057568 0.681680
Si Si4 0.611173 0.820673 0.929600
Si Si5 0.597900 0.911023 0.464324
O O1 0.113688 0.798958 0.829057
O O2 0.985027 0.794526 0.173803
O O3 0.343048 0.895416 0.488516
O O4 0.250000 0.863478 0.000000
O O5 0.393236 0.922670 0.999471
O O6 0.001813 0.070677 0.587419
O O7 0.869400 0.982750 0.632289
O O8 0.594932 0.862206 0.204939
O O9 0.655265 0.750000 0.000000
O O10 0.648710 0.870210 0.702091
#
# Coordination Sequence:
#
# PCOD9395730 Si02
#       5
#     4   8   8   8   8
#     4  10  21  36  54  76 116 150 187 214 252 320
#     4  12  24  38  53  77 112 155 191 218 251 315
#     4  11  21  37  54  76 104 140 196 227 271 309
#     4  10  19  31  54  80 116 135 173 218 277 320
#     4  11  19  34  56  78 104 145 175 234 279 318
#
# _framework density 24.152778999999999
#
# number of rings (size 3 to 8) (size 9 to 14) (size 15 to 20)
#    0.667    0.444    4.444    3.000    0.000    6.222 
#    0.000    2.222    0.000    0.000    0.000    0.000 
#    0.000   62.222    0.000    0.000    0.000    0.000 
#
# Total GULP energy -201122.694855 kJ/mol
# GULP energy per Si atom -5586.741524 kJ/mol
# Density = 2.409781 g / cm^3
# Si number density = 24.152779 Si / 1000 Ang^3
#
#
#
# Elastic Constant Matrix: (Units=GPa)
#
#
# Indices 1 2 3 4 5 6 
#
# 1 35.4779 -13.0687 -17.7931 0.0000 0.0000 0.0000
# 2 -13.0687 177.3429 32.2158 0.0000 0.0000 0.0000
# 3 -17.7931 32.2158 110.4490 0.0000 0.0000 0.0000
# 4 0.0000 0.0000 0.0000 29.9887 0.0000 0.0000
# 5 0.0000 0.0000 0.0000 0.0000 6.5046 0.0000
# 6 0.0000 0.0000 0.0000 0.0000 0.0000 -21.0487
#
#
#
# Elastic Compliance Matrix: (Units=1/GPa)
#
#
# Indices 1 2 3 4 5 6 
#
# 1 0.031016 0.001455 0.004572 0.000000 0.000000 0.000000
# 2 0.001455 0.006023 -0.001522 0.000000 0.000000 0.000000
# 3 0.004572 -0.001522 0.010235 0.000000 0.000000 0.000000
# 4 0.000000 0.000000 0.000000 0.033346 0.000000 0.000000
# 5 0.000000 0.000000 0.000000 0.000000 0.153737 0.000000
# 6 0.000000 0.000000 0.000000 0.000000 0.000000 -0.047509
#
#
# Mechanical properties :
#
#
# Convention : Reuss Voigt Hill
#
# Bulk Modulus (GPa) = 17.76752 36.21976 26.99364
# Shear Modulus (GPa) = 25.43265 24.54998 24.99131
#
# Velocity S-wave (km/s) = 3.24850 3.19163 3.22019
# Velocity P-wave (km/s) = 4.63062 5.34890 5.00266
#
# Compressibility (1/GPa) = 0.05628246
#
# Stress axis : x y z
#
# Youngs Moduli (GPa) = 32.24187 166.04267 97.70848
#
# Poissons Ratio (x) = -0.24160 -0.44674
# Poissons Ratio (y) = -0.04691 0.14874
# Poissons Ratio (z) = -0.14741 0.25276
#
# Static dielectric constant tensor:
#      x y z
#    x 2.043190 0.000000 0.000000 
#    y 0.000000 1.915130 0.000000 
#    z 0.000000 0.000000 1.868620 
# 
# From -- ./inp_files/5116.got.cif
#   From: 2010.05.17/outbox.cif.g08.bks.cpg/sg50_3_cif.got.tgz:5116.got - 2010.06.03 11:33:33.
