data_PCOD9395229
_publ_section_title
;
Structure prediction by ZEFSAII (Michael W. Deem and Ramdas Pophale) SiO2 
 PCOD9395229
Probable space group: P C C M
;
_chemical_formula_sum "Si O2"
_cell_formula_units_Z 64
_cell_length_a 15.000000
_cell_length_b 24.000000
_cell_length_c 9.000000
_cell_angle_alpha 90.000000
_cell_angle_beta 90.000000
_cell_angle_gamma 90.000000
_cell_volume 3240.000000
_symmetry_space_group_name_H-M "P C C M"
_symmetry_group_IT_number 49
_symmetry_cell_setting 'orthorhombic'
loop_
_space_group_symop_operation_xyz
x,y,z
-x,-y,z
x,-y,1/2-z
-x,y,1/2-z
-x,-y,-z
x,y,-z
-x,y,1/2+z
x,-y,1/2+z
loop_
_atom_site_type_symbol
_atom_site_label
_atom_site_fract_x
_atom_site_fract_y
_atom_site_fract_z
Si Si1 0.417175 0.768742 0.170513
Si Si2 0.087542 0.182363 0.324615
Si Si3 0.589961 0.059253 0.673986
Si Si4 0.132065 0.700804 0.328781
Si Si5 0.911594 0.586832 0.323757
Si Si6 0.338609 0.666246 0.669589
Si Si7 0.287778 0.555418 0.823163
Si Si8 0.278070 0.865184 0.831436
O O1 0.500000 0.797615 0.250000
O O2 0.399573 0.712125 0.256442
O O3 0.328975 0.806178 0.175887
O O4 0.438986 0.758654 0.000000
O O5 0.074837 0.192349 0.500000
O O6 0.106405 0.240626 0.241908
O O7 0.174469 0.144534 0.306674
O O8 0.000000 0.157440 0.250000
O O9 0.500000 0.081422 0.750000
O O10 0.575692 0.053940 0.500000
O O11 0.673751 0.096906 0.712665
O O12 0.605246 0.000000 0.750000
O O13 0.101102 0.696479 0.500000
O O14 0.095231 0.650663 0.229876
O O15 0.238526 0.691725 0.329164
O O16 0.918878 0.583313 0.500000
O O17 0.816729 0.561236 0.277120
O O18 0.000000 0.562679 0.250000
O O19 0.363072 0.654815 0.500000
O O20 0.335571 0.610078 0.763181
O O21 0.324786 0.500000 0.750000
O O22 0.290955 0.552917 0.000000
O O23 0.292880 0.886862 0.000000
#
# Coordination Sequence:
#
# PCOD9395229 Si02
#       8
#     8   8   8   8   8   8   8   8
#     4  11  22  37  58  87 121 155 189 229 285 347
#     4  11  22  36  54  79 114 156 200 246 292 343
#     4  11  22  38  63  92 126 163 204 247 294 350
#     4  10  19  32  51  74 103 141 186 232 279 335
#     4  10  20  32  47  68  97 132 173 223 280 338
#     4  10  20  35  56  80 108 142 182 228 279 339
#     4  10  21  36  54  74  98 133 177 226 280 340
#     4  10  22  39  59  86 123 162 201 246 294 343
#
# _framework density 19.753086
#
# number of rings (size 3 to 8) (size 9 to 14) (size 15 to 20)
#    0.000    1.625    1.250    4.500    0.000    5.750 
#    0.000    1.250    0.000    0.750    0.000    5.250 
#    0.000    0.000    0.000    0.000    0.000    0.000 
#
# Total GULP energy -357432.269753 kJ/mol
# GULP energy per Si atom -5584.879215 kJ/mol
# Density = 1.970813 g / cm^3
# Si number density = 19.753086 Si / 1000 Ang^3
#
#
#
# Elastic Constant Matrix: (Units=GPa)
#
#
# Indices 1 2 3 4 5 6 
#
# 1 66.3792 19.4804 32.4914 0.0000 0.0000 0.0000
# 2 19.4804 68.5046 33.4878 0.0000 0.0000 0.0000
# 3 32.4914 33.4878 63.0214 0.0000 0.0000 0.0000
# 4 0.0000 0.0000 0.0000 15.6060 0.0000 0.0000
# 5 0.0000 0.0000 0.0000 0.0000 32.7054 0.0000
# 6 0.0000 0.0000 0.0000 0.0000 0.0000 -106.1905
#
#
#
# Elastic Compliance Matrix: (Units=1/GPa)
#
#
# Indices 1 2 3 4 5 6 
#
# 1 0.020189 -0.000882 -0.009940 0.000000 0.000000 0.000000
# 2 -0.000882 0.019758 -0.010044 0.000000 0.000000 0.000000
# 3 -0.009940 -0.010044 0.026330 0.000000 0.000000 0.000000
# 4 0.000000 0.000000 0.000000 0.064078 0.000000 0.000000
# 5 0.000000 0.000000 0.000000 0.000000 0.030576 0.000000
# 6 0.000000 0.000000 0.000000 0.000000 0.000000 -0.009417
#
#
# Mechanical properties :
#
#
# Convention : Reuss Voigt Hill
#
# Bulk Modulus (GPa) = 40.74249 40.98049 40.86149
# Shear Modulus (GPa) = 24.82268 -4.07945 10.37162
#
# Velocity S-wave (km/s) = 3.54877 -1.43865 2.29391
# Velocity P-wave (km/s) = 6.12065 4.24639 5.26755
#
# Compressibility (1/GPa) = 0.02454440
#
# Stress axis : x y z
#
# Youngs Moduli (GPa) = 49.53114 50.61129 37.97998
#
# Poissons Ratio (x) = 0.04464 0.37753
# Poissons Ratio (y) = 0.04369 0.38148
# Poissons Ratio (z) = 0.49235 0.50836
#
# Static dielectric constant tensor:
#      x y z
#    x 1.722050 0.000000 0.000000 
#    y 0.000000 1.687980 0.000000 
#    z 0.000000 0.000000 1.665800 
# 
# From -- ./inp_files/4394.got.cif
#   From: 2010.05.17/outbox.ucp.g08.bks.cvg/sg49_3_cif.got.tgz:4394.got - 2010.06.11 16:40:14.
