data_PCOD9395491
_publ_section_title
;
Structure prediction by ZEFSAII (Michael W. Deem and Ramdas Pophale) SiO2 
 PCOD9395491
Probable space group: P B A N
;
_chemical_formula_sum "Si O2"
_cell_formula_units_Z 56
_cell_length_a 8.279832
_cell_length_b 21.375483
_cell_length_c 14.372838
_cell_angle_alpha 90.000000
_cell_angle_beta 90.000000
_cell_angle_gamma 90.000000
_cell_volume 2543.782600
_symmetry_space_group_name_H-M "P B A N"
_symmetry_group_IT_number 50
_space_group.IT_coordinate_system_code '2'
_symmetry_cell_setting 'orthorhombic'
loop_
_space_group_symop_operation_xyz
x,y,z
1/2-x,1/2-y,z
x,1/2-y,-z
1/2-x,y,-z
-x,-y,-z
1/2+x,1/2+y,-z
-x,1/2+y,z
1/2+x,-y,z
loop_
_atom_site_type_symbol
_atom_site_label
_atom_site_fract_x
_atom_site_fract_y
_atom_site_fract_z
Si Si1 0.292711 0.144461 0.901715
Si Si2 0.750000 0.750000 0.252727
Si Si3 0.639290 0.133963 0.837572
Si Si4 0.331004 0.056511 0.405092
Si Si5 0.972711 0.962838 0.715600
Si Si6 0.750000 0.250000 0.276057
Si Si7 0.524459 0.081346 0.162242
Si Si8 0.998824 0.332453 0.346219
O O1 0.284118 0.192435 0.816090
O O2 0.480586 0.124969 0.901153
O O3 0.147884 0.093466 0.887891
O O4 0.250000 0.174963 0.000000
O O5 0.889536 0.774171 0.319551
O O6 0.595897 0.089470 0.750082
O O7 0.655365 0.204457 0.797096
O O8 0.809803 0.110085 0.879910
O O9 0.250000 0.036176 0.500000
O O10 0.425620 0.121674 0.421405
O O11 0.193188 0.064562 0.325288
O O12 0.448981 0.003997 0.365593
O O13 0.948523 0.010711 0.802174
O O14 0.672552 0.199788 0.346226
O O15 0.508883 0.122384 0.256233
#
# Coordination Sequence:
#
# PCOD9395491 Si02
#       8
#     8   4   8   8   8   4   8   8
#     4  11  23  38  61  95 130 169 215 282 336 372
#     4  10  17  38  61  84 118 170 222 258 303 396
#     4  11  21  39  68  89 126 171 223 268 316 393
#     4  11  23  38  62 103 131 159 209 281 339 377
#     4  11  20  41  67  90 123 174 218 262 315 405
#     4  10  20  38  64  94 116 166 228 264 300 392
#     4   9  21  38  62  94 119 163 227 257 312 400
#     4   9  19  35  62  89 117 163 216 257 310 393
#
# _framework density 22.014462000000002
#
# number of rings (size 3 to 8) (size 9 to 14) (size 15 to 20)
#    0.000    1.714    2.857    3.214    0.000    0.571 
#    0.000    1.071    0.000    0.857    0.000    0.000 
#    0.000    0.000    0.000    0.000    0.000    0.000 
#
# Total GULP energy -312034.048748 kJ/mol
# GULP energy per Si atom -5572.036585 kJ/mol
# Density = 2.196436 g / cm^3
# Si number density = 22.014462 Si / 1000 Ang^3
#
#
#
# Elastic Constant Matrix: (Units=GPa)
#
#
# Indices 1 2 3 4 5 6 
#
# 1 138.4842 36.7897 21.1737 0.0000 0.0000 0.0000
# 2 36.7897 95.8848 17.1979 0.0000 0.0000 0.0000
# 3 21.1737 17.1979 26.8473 0.0000 0.0000 0.0000
# 4 0.0000 0.0000 0.0000 -13.1566 0.0000 0.0000
# 5 0.0000 0.0000 0.0000 0.0000 26.4832 0.0000
# 6 0.0000 0.0000 0.0000 0.0000 0.0000 40.3064
#
#
#
# Elastic Compliance Matrix: (Units=1/GPa)
#
#
# Indices 1 2 3 4 5 6 
#
# 1 0.008663 -0.002371 -0.005314 0.000000 0.000000 0.000000
# 2 -0.002371 0.012432 -0.006094 0.000000 0.000000 0.000000
# 3 -0.005314 -0.006094 0.045342 0.000000 0.000000 0.000000
# 4 0.000000 0.000000 0.000000 -0.076008 0.000000 0.000000
# 5 0.000000 0.000000 0.000000 0.000000 0.037760 0.000000
# 6 0.000000 0.000000 0.000000 0.000000 0.000000 0.024810
#
#
# Mechanical properties :
#
#
# Convention : Reuss Voigt Hill
#
# Bulk Modulus (GPa) = 25.71994 45.72655 35.72325
# Shear Modulus (GPa) = 53.46667 23.13029 38.29848
#
# Velocity S-wave (km/s) = 4.93354 3.24495 4.17549
# Velocity P-wave (km/s) = 6.64542 5.90388 6.28560
#
# Compressibility (1/GPa) = 0.03888034
#
# Stress axis : x y z
#
# Youngs Moduli (GPa) = 115.42870 80.43852 22.05459
#
# Poissons Ratio (x) = 0.19071 0.11719
# Poissons Ratio (y) = 0.27367 0.13440
# Poissons Ratio (z) = 0.61336 0.49017
#
# Static dielectric constant tensor:
#      x y z
#    x 1.954210 0.000000 0.000000 
#    y 0.000000 1.820260 0.000000 
#    z 0.000000 0.000000 1.803500 
# 
# From -- ./inp_files/25302.got.cif
#   From: 2010.05.17/outbox.cif.g08.bks.cpg/sg50_13_cif.got.tgz:25302.got - 2010.06.03 11:33:33.
