data_PCOD9395529
_publ_section_title
;
Structure prediction by ZEFSAII (Michael W. Deem and Ramdas Pophale) SiO2 
 PCOD9395529
Probable space group: P B A N
;
_chemical_formula_sum "Si O2"
_cell_formula_units_Z 64
_cell_length_a 27.740011
_cell_length_b 12.924678
_cell_length_c 9.623662
_cell_angle_alpha 90.000000
_cell_angle_beta 90.000000
_cell_angle_gamma 90.000000
_cell_volume 3450.378369
_symmetry_space_group_name_H-M "P B A N"
_symmetry_group_IT_number 50
_space_group.IT_coordinate_system_code '2'
_symmetry_cell_setting 'orthorhombic'
loop_
_space_group_symop_operation_xyz
x,y,z
1/2-x,1/2-y,z
x,1/2-y,-z
1/2-x,y,-z
-x,-y,-z
1/2+x,1/2+y,-z
-x,1/2+y,z
1/2+x,-y,z
loop_
_atom_site_type_symbol
_atom_site_label
_atom_site_fract_x
_atom_site_fract_y
_atom_site_fract_z
Si Si1 0.819396 0.677275 0.716652
Si Si2 0.560419 0.966356 0.151065
Si Si3 0.142975 0.928794 0.312903
Si Si4 0.803458 0.273147 0.665868
Si Si5 0.084768 0.259845 0.159231
Si Si6 0.634406 0.467882 0.370318
Si Si7 0.277188 0.395470 0.351516
Si Si8 0.548503 0.972018 0.817931
O O1 0.859333 0.706330 0.830929
O O2 0.845651 0.585660 0.631041
O O3 0.767503 0.627606 0.752955
O O4 0.806581 0.787321 0.646062
O O5 0.575697 0.854672 0.212696
O O6 0.600406 0.041632 0.211067
O O7 0.505948 0.990567 0.195475
O O8 0.561506 0.972859 0.982602
O O9 0.161480 0.814852 0.278025
O O10 0.124294 0.935206 0.471869
O O11 0.188035 0.010175 0.312160
O O12 0.750000 0.250000 0.719957
O O13 0.801643 0.250000 0.500000
O O14 0.824538 0.388009 0.682947
O O15 0.054357 0.351875 0.226479
O O16 0.069548 0.250000 0.000000
O O17 0.587783 0.466104 0.271721
O O18 0.250000 0.412484 0.500000
#
# Coordination Sequence:
#
# PCOD9395529 Si02
#       8
#     8   8   8   8   8   8   8   8
#     4  10  18  30  51  77 111 143 174 214 268 321
#     4  10  20  38  58  82 104 140 189 225 275 331
#     4  11  21  33  58  83 110 142 187 232 263 319
#     4   9  19  34  53  80 113 150 182 218 272 327
#     4   9  18  35  55  77 111 141 177 224 275 328
#     4  10  20  35  54  80 111 144 180 224 275 318
#     4  11  20  29  49  81 113 140 177 218 266 325
#     4   9  21  38  59  76 108 148 177 225 283 335
#
# _framework density 18.548691000000002
#
# number of rings (size 3 to 8) (size 9 to 14) (size 15 to 20)
#    0.000    2.125    2.500    1.500    1.750    1.500 
#    0.000    3.125    0.000    3.000    0.000    0.000 
#    0.000    0.000    0.000    0.000    0.000    0.000 
#
# Total GULP energy -356362.295597 kJ/mol
# GULP energy per Si atom -5568.160869 kJ/mol
# Density = 1.850647 g / cm^3
# Si number density = 18.548691 Si / 1000 Ang^3
#
#
#
# Elastic Constant Matrix: (Units=GPa)
#
#
# Indices 1 2 3 4 5 6 
#
# 1 106.2696 33.6536 27.0214 0.0000 0.0000 0.0000
# 2 33.6536 79.9558 14.2677 0.0000 0.0000 0.0000
# 3 27.0214 14.2677 14.6095 0.0000 0.0000 0.0000
# 4 0.0000 0.0000 0.0000 17.3988 0.0000 0.0000
# 5 0.0000 0.0000 0.0000 0.0000 30.8612 0.0000
# 6 0.0000 0.0000 0.0000 0.0000 0.0000 10.6389
#
#
#
# Elastic Compliance Matrix: (Units=1/GPa)
#
#
# Indices 1 2 3 4 5 6 
#
# 1 0.018021 -0.001983 -0.031394 0.000000 0.000000 0.000000
# 2 -0.001983 0.015365 -0.011338 0.000000 0.000000 0.000000
# 3 -0.031394 -0.011338 0.137588 0.000000 0.000000 0.000000
# 4 0.000000 0.000000 0.000000 0.057475 0.000000 0.000000
# 5 0.000000 0.000000 0.000000 0.000000 0.032403 0.000000
# 6 0.000000 0.000000 0.000000 0.000000 0.000000 0.093995
#
#
# Mechanical properties :
#
#
# Convention : Reuss Voigt Hill
#
# Bulk Modulus (GPa) = 12.26347 38.96893 25.61620
# Shear Modulus (GPa) = 10.60543 20.17259 15.38901
#
# Velocity S-wave (km/s) = 2.39375 3.30138 2.88350
# Velocity P-wave (km/s) = 3.77702 5.96546 4.99262
#
# Compressibility (1/GPa) = 0.08154301
#
# Stress axis : x y z
#
# Youngs Moduli (GPa) = 55.49199 65.08436 7.26810
#
# Poissons Ratio (x) = 0.12905 0.22818
# Poissons Ratio (y) = 0.11003 0.08241
# Poissons Ratio (z) = 1.74213 0.73792
#
# Static dielectric constant tensor:
#      x y z
#    x 1.641030 0.000000 0.000000 
#    y 0.000000 1.679810 0.000000 
#    z 0.000000 0.000000 1.655580 
# 
# From -- ./inp_files/23195.got.cif
#   From: 2010.05.17/outbox.cif.g08.bks.cpg/sg50_12_cif.got.tgz:23195.got - 2010.06.03 11:33:33.
