data_PCOD9395053
_publ_section_title
;
Structure prediction by ZEFSAII (Michael W. Deem and Ramdas Pophale) SiO2 
 PCOD9395053
Probable space group: P C C M
;
_chemical_formula_sum "Si O2"
_cell_formula_units_Z 48
_cell_length_a 9.526377
_cell_length_b 32.071819
_cell_length_c 8.581390
_cell_angle_alpha 90.000000
_cell_angle_beta 90.000000
_cell_angle_gamma 90.000000
_cell_volume 2621.856974
_symmetry_space_group_name_H-M "P C C M"
_symmetry_group_IT_number 49
_symmetry_cell_setting 'orthorhombic'
loop_
_space_group_symop_operation_xyz
x,y,z
-x,-y,z
x,-y,1/2-z
-x,y,1/2-z
-x,-y,-z
x,y,-z
-x,y,1/2+z
x,-y,1/2+z
loop_
_atom_site_type_symbol
_atom_site_label
_atom_site_fract_x
_atom_site_fract_y
_atom_site_fract_z
Si Si1 0.159711 0.457434 0.813640
Si Si2 0.158630 0.365657 0.187875
Si Si3 0.658407 0.955608 0.313408
Si Si4 0.342079 0.286345 0.812172
Si Si5 0.157997 0.210375 0.313393
Si Si6 0.842352 0.879913 0.813338
O O1 0.227295 0.500000 0.750000
O O2 0.215307 0.411728 0.766899
O O3 0.000000 0.456977 0.750000
O O4 0.156402 0.460040 0.000000
O O5 0.257844 0.327943 0.237993
O O6 0.000000 0.360526 0.250000
O O7 0.150681 0.364990 0.000000
O O8 0.500000 0.951634 0.250000
O O9 0.657272 0.956218 0.500000
O O10 0.747714 0.917131 0.250487
O O11 0.713642 0.000000 0.250000
O O12 0.500000 0.287094 0.750000
O O13 0.258935 0.246598 0.746715
O O14 0.342632 0.284674 0.000000
O O15 0.154045 0.209472 0.500000
O O16 0.204977 0.165274 0.249444
O O17 0.000000 0.217593 0.250000
O O18 0.000000 0.885693 0.750000
O O19 0.842916 0.879559 0.000000
#
# Coordination Sequence:
#
# PCOD9395053 Si02
#       6
#     8   8   8   8   8   8
#     4   9  15  25  42  69 100 131 165 210 259 310
#     4   9  19  33  52  76 105 137 175 217 265 319
#     4  11  22  39  60  86 117 154 194 235 279 329
#     4  11  23  39  56  79 108 142 181 226 273 325
#     4  11  22  39  61  86 113 145 181 224 273 328
#     4  11  22  39  61  88 117 149 186 230 278 329
#
# _framework density 18.307635000000001
#
# number of rings (size 3 to 8) (size 9 to 14) (size 15 to 20)
#    0.000    1.667    0.000    8.000    0.000    4.333 
#    0.000    5.000    0.000    0.500    0.000    3.500 
#    0.000    0.000    0.000    0.000    0.000    0.000 
#
# Total GULP energy -268037.731729 kJ/mol
# GULP energy per Si atom -5584.119411 kJ/mol
# Density = 1.826597 g / cm^3
# Si number density = 18.307635 Si / 1000 Ang^3
#
#
#
# Elastic Constant Matrix: (Units=GPa)
#
#
# Indices 1 2 3 4 5 6 
#
# 1 74.1083 100.9408 39.4515 0.0000 0.0000 0.0000
# 2 100.9408 229.2336 77.8649 0.0000 0.0000 0.0000
# 3 39.4515 77.8649 141.7141 0.0000 0.0000 0.0000
# 4 0.0000 0.0000 0.0000 145.2269 0.0000 0.0000
# 5 0.0000 0.0000 0.0000 0.0000 26.3248 0.0000
# 6 0.0000 0.0000 0.0000 0.0000 0.0000 -9.9246
#
#
#
# Elastic Compliance Matrix: (Units=1/GPa)
#
#
# Indices 1 2 3 4 5 6 
#
# 1 0.033981 -0.014446 -0.001522 0.000000 0.000000 0.000000
# 2 -0.014446 0.011505 -0.002300 0.000000 0.000000 0.000000
# 3 -0.001522 -0.002300 0.008744 0.000000 0.000000 0.000000
# 4 0.000000 0.000000 0.000000 0.006886 0.000000 0.000000
# 5 0.000000 0.000000 0.000000 0.000000 0.037987 0.000000
# 6 0.000000 0.000000 0.000000 0.000000 0.000000 -0.100760
#
#
# Mechanical properties :
#
#
# Convention : Reuss Voigt Hill
#
# Bulk Modulus (GPa) = 56.51959 97.95229 77.23594
# Shear Modulus (GPa) = 122.62236 47.44533 85.03384
#
# Velocity S-wave (km/s) = 8.19294 5.09626 6.82261
# Velocity P-wave (km/s) = 10.97443 9.39408 10.21486
#
# Compressibility (1/GPa) = 0.01769298
#
# Stress axis : x y z
#
# Youngs Moduli (GPa) = 29.42863 86.92189 114.36608
#
# Poissons Ratio (x) = 1.25566 0.17412
# Poissons Ratio (y) = 0.42512 0.26300
# Poissons Ratio (z) = 0.04480 0.19989
#
# Static dielectric constant tensor:
#      x y z
#    x 1.561400 0.000000 0.000000 
#    y 0.000000 1.661570 0.000000 
#    z 0.000000 0.000000 1.618380 
# 
# From -- ./inp_files/2071.got.cif
#   From: 2010.05.17/outbox.cif.g08.bks.cpg/sg49_2_cif.got.tgz:2071.got - 2010.06.03 21:02:19.
