data_PCOD9395388
_publ_section_title
;
Structure prediction by ZEFSAII (Michael W. Deem and Ramdas Pophale) SiO2 
 PCOD9395388
Probable space group: P B A N
;
_chemical_formula_sum "Si O2"
_cell_formula_units_Z 32
_cell_length_a 7.394032
_cell_length_b 37.144265
_cell_length_c 5.312289
_cell_angle_alpha 90.000000
_cell_angle_beta 90.000000
_cell_angle_gamma 90.000000
_cell_volume 1458.998309
_symmetry_space_group_name_H-M "P B A N"
_symmetry_group_IT_number 50
_space_group.IT_coordinate_system_code '2'
_symmetry_cell_setting 'orthorhombic'
loop_
_space_group_symop_operation_xyz
x,y,z
1/2-x,1/2-y,z
x,1/2-y,-z
1/2-x,y,-z
-x,-y,-z
1/2+x,1/2+y,-z
-x,1/2+y,z
1/2+x,-y,z
loop_
_atom_site_type_symbol
_atom_site_label
_atom_site_fract_x
_atom_site_fract_y
_atom_site_fract_z
Si Si1 0.459869 0.265838 0.745532
Si Si2 0.965899 0.042485 0.498167
Si Si3 0.136077 0.154795 0.757565
Si Si4 0.531713 0.082346 0.012439
O O1 0.250000 0.250000 0.745303
O O2 0.547019 0.250000 0.500000
O O3 0.471769 0.308686 0.709243
O O4 0.537690 0.250000 0.000000
O O5 0.750000 0.047516 0.500000
O O6 0.033523 0.055934 0.767471
O O7 0.030885 0.066428 0.258631
O O8 0.000000 0.000000 0.500000
O O9 0.250000 0.146465 0.500000
O O10 0.033184 0.120665 0.877681
O O11 0.250000 0.166974 0.000000
O O12 0.750000 0.083134 0.000000
#
# Coordination Sequence:
#
# PCOD9395388 Si02
#       4
#     8   8   8   8
#     4  10  16  30  49  78 114 143 181 231 301 330
#     4  10  21  39  61  81 109 150 188 232 284 348
#     4  12  21  33  57  88 113 147 196 249 281 341
#     4  10  23  40  55  82 120 154 182 226 305 353
#
# _framework density 21.932855
#
# number of rings (size 3 to 8) (size 9 to 14) (size 15 to 20)
#    0.000    1.500    5.000    2.250    0.000    3.000 
#    0.000    0.000    0.000    0.750    0.000    3.500 
#    0.000    0.000    0.000    0.000    0.000    0.000 
#
# Total GULP energy -178244.500660 kJ/mol
# GULP energy per Si atom -5570.140646 kJ/mol
# Density = 2.188293 g / cm^3
# Si number density = 21.932855 Si / 1000 Ang^3
#
#
#
# Elastic Constant Matrix: (Units=GPa)
#
#
# Indices 1 2 3 4 5 6 
#
# 1 54.1671 9.6610 26.6099 0.0000 0.0000 0.0000
# 2 9.6610 194.8943 75.1699 0.0000 0.0000 0.0000
# 3 26.6099 75.1699 230.4121 0.0000 0.0000 0.0000
# 4 0.0000 0.0000 0.0000 48.1071 0.0000 0.0000
# 5 0.0000 0.0000 0.0000 0.0000 -3.5556 0.0000
# 6 0.0000 0.0000 0.0000 0.0000 0.0000 -10.9124
#
#
#
# Elastic Compliance Matrix: (Units=1/GPa)
#
#
# Indices 1 2 3 4 5 6 
#
# 1 0.019574 -0.000113 -0.002224 0.000000 0.000000 0.000000
# 2 -0.000113 0.005870 -0.001902 0.000000 0.000000 0.000000
# 3 -0.002224 -0.001902 0.005217 0.000000 0.000000 0.000000
# 4 0.000000 0.000000 0.000000 0.020787 0.000000 0.000000
# 5 0.000000 0.000000 0.000000 0.000000 -0.281247 0.000000
# 6 0.000000 0.000000 0.000000 0.000000 0.000000 -0.091639
#
#
# Mechanical properties :
#
#
# Convention : Reuss Voigt Hill
#
# Bulk Modulus (GPa) = 45.07639 78.03948 61.55794
# Shear Modulus (GPa) = -16.36314 31.26333 7.45009
#
# Velocity S-wave (km/s) = -2.73437 3.77956 1.84503
# Velocity P-wave (km/s) = 3.26000 7.39629 5.71545
#
# Compressibility (1/GPa) = 0.02218456
#
# Stress axis : x y z
#
# Youngs Moduli (GPa) = 51.08827 170.35200 191.66556
#
# Poissons Ratio (x) = 0.01918 0.42623
# Poissons Ratio (y) = 0.00575 0.36457
# Poissons Ratio (z) = 0.11361 0.32403
#
# Static dielectric constant tensor:
#      x y z
#    x 1.903050 0.000000 0.000000 
#    y 0.000000 1.977380 0.000000 
#    z 0.000000 0.000000 2.136670 
# 
# From -- ./inp_files/1130.got.cif
#   From: 2010.05.17/outbox.cif.g08.bks.cpg/sg50_1_cif.got.tgz:1130.got - 2010.06.03 11:33:33.
