data_PCOD9395386
_publ_section_title
;
Structure prediction by ZEFSAII (Michael W. Deem and Ramdas Pophale) SiO2 
 PCOD9395386
Probable space group: P B A N
;
_chemical_formula_sum "Si O2"
_cell_formula_units_Z 56
_cell_length_a 5.376486
_cell_length_b 17.890679
_cell_length_c 29.529940
_cell_angle_alpha 90.000000
_cell_angle_beta 90.000000
_cell_angle_gamma 90.000000
_cell_volume 2840.454961
_symmetry_space_group_name_H-M "P B A N"
_symmetry_group_IT_number 50
_space_group.IT_coordinate_system_code '2'
_symmetry_cell_setting 'orthorhombic'
loop_
_space_group_symop_operation_xyz
x,y,z
1/2-x,1/2-y,z
x,1/2-y,-z
1/2-x,y,-z
-x,-y,-z
1/2+x,1/2+y,-z
-x,1/2+y,z
1/2+x,-y,z
loop_
_atom_site_type_symbol
_atom_site_label
_atom_site_fract_x
_atom_site_fract_y
_atom_site_fract_z
Si Si1 0.004936 0.955336 0.323335
Si Si2 0.000071 0.032055 0.948885
Si Si3 0.000006 0.293421 0.064698
Si Si4 0.492758 0.956866 0.785918
Si Si5 0.999928 0.792632 0.174041
Si Si6 0.499941 0.335116 0.519468
Si Si7 0.000004 0.299092 0.374631
O O1 0.005702 0.950976 0.268708
O O2 0.001409 0.872299 0.343489
O O3 0.256178 0.999357 0.337059
O O4 0.000003 0.121154 0.951310
O O5 0.750099 0.999981 0.926568
O O6 0.000000 0.000000 0.000000
O O7 0.250000 0.250000 0.050924
O O8 0.750000 0.250000 0.050930
O O9 0.000038 0.295899 0.119429
O O10 0.499842 0.875334 0.806907
O O11 0.739286 0.001841 0.799551
O O12 0.250000 0.750000 0.188533
O O13 0.750000 0.750000 0.188546
O O14 0.499965 0.250000 0.500000
O O15 0.750000 0.371056 0.500000
O O16 0.499587 0.327083 0.573261
O O17 0.250000 0.371110 0.500000
O O18 0.750000 0.250000 0.367717
O O19 0.250000 0.250000 0.367551
#
# Coordination Sequence:
#
# PCOD9395386 Si02
#       7
#     8   8   8   8   8   8   8
#     4  10  23  41  55  77 119 154 176 221 281 336
#     4  10  21  38  56  81 112 145 191 241 278 320
#     4  10  21  38  58  83 115 151 184 228 292 345
#     4  10  21  38  59  81 110 153 190 216 270 340
#     4  10  21  36  58  87 117 144 180 237 287 323
#     4  10  16  30  49  78 105 131 165 234 275 309
#     4  12  21  33  59  88 101 139 193 229 268 322
#
# _framework density 19.715150999999999
#
# number of rings (size 3 to 8) (size 9 to 14) (size 15 to 20)
#    0.000    1.714    2.857    2.571    0.000    2.286 
#    0.000    8.571    0.000    2.571    0.000    0.000 
#    0.000    0.000    0.000    0.000    0.000    0.000 
#
# Total GULP energy -312874.370945 kJ/mol
# GULP energy per Si atom -5587.042338 kJ/mol
# Density = 1.967028 g / cm^3
# Si number density = 19.715151 Si / 1000 Ang^3
#
#
#
# Elastic Constant Matrix: (Units=GPa)
#
#
# Indices 1 2 3 4 5 6 
#
# 1 201.4868 69.4992 22.4932 0.0000 0.0000 0.0000
# 2 69.4992 136.9525 20.1348 0.0000 0.0000 0.0000
# 3 22.4932 20.1348 17.6069 0.0000 0.0000 0.0000
# 4 0.0000 0.0000 0.0000 43.9704 0.0000 0.0000
# 5 0.0000 0.0000 0.0000 0.0000 129.3113 0.0000
# 6 0.0000 0.0000 0.0000 0.0000 0.0000 33.3458
#
#
#
# Elastic Compliance Matrix: (Units=1/GPa)
#
#
# Indices 1 2 3 4 5 6 
#
# 1 0.006413 -0.002464 -0.005375 0.000000 0.000000 0.000000
# 2 -0.002464 0.009724 -0.007972 0.000000 0.000000 0.000000
# 3 -0.005375 -0.007972 0.072780 0.000000 0.000000 0.000000
# 4 0.000000 0.000000 0.000000 0.022743 0.000000 0.000000
# 5 0.000000 0.000000 0.000000 0.000000 0.007733 0.000000
# 6 0.000000 0.000000 0.000000 0.000000 0.000000 0.029989
#
#
# Mechanical properties :
#
#
# Convention : Reuss Voigt Hill
#
# Bulk Modulus (GPa) = 17.45387 64.47784 40.96586
# Shear Modulus (GPa) = 24.98715 57.58677 41.28696
#
# Velocity S-wave (km/s) = 3.56393 5.41044 4.58118
# Velocity P-wave (km/s) = 5.08013 8.47385 6.98619
#
# Compressibility (1/GPa) = 0.05729389
#
# Stress axis : x y z
#
# Youngs Moduli (GPa) = 155.93003 102.83360 13.74013
#
# Poissons Ratio (x) = 0.25341 0.07385
# Poissons Ratio (y) = 0.38425 0.10954
# Poissons Ratio (z) = 0.83810 0.81984
#
# Static dielectric constant tensor:
#      x y z
#    x 1.414960 0.000000 0.000000 
#    y 0.000000 1.627380 0.000000 
#    z 0.000000 0.000000 -1.096820 
# 
# From -- ./inp_files/32374.got.cif
#   From: 2010.05.17/outbox.cif.g08.bks.cpg/sg50_17_cif.got.tgz:32374.got - 2010.06.03 11:33:33.
