data_PCOD9395837
_publ_section_title
;
Structure prediction by ZEFSAII (Michael W. Deem and Ramdas Pophale) SiO2 
 PCOD9395837
Probable space group: P B A N
;
_chemical_formula_sum "Si O2"
_cell_formula_units_Z 32
_cell_length_a 4.831513
_cell_length_b 15.294568
_cell_length_c 20.067734
_cell_angle_alpha 90.000000
_cell_angle_beta 90.000000
_cell_angle_gamma 90.000000
_cell_volume 1482.923348
_symmetry_space_group_name_H-M "P B A N"
_symmetry_group_IT_number 50
_space_group.IT_coordinate_system_code '2'
_symmetry_cell_setting 'orthorhombic'
loop_
_space_group_symop_operation_xyz
x,y,z
1/2-x,1/2-y,z
x,1/2-y,-z
1/2-x,y,-z
-x,-y,-z
1/2+x,1/2+y,-z
-x,1/2+y,z
1/2+x,-y,z
loop_
_atom_site_type_symbol
_atom_site_label
_atom_site_fract_x
_atom_site_fract_y
_atom_site_fract_z
Si Si1 0.000245 0.192476 0.323372
Si Si2 0.818930 0.438751 0.069877
Si Si3 0.220062 0.057412 0.578432
Si Si4 0.739559 0.062484 0.217529
O O1 0.750000 0.250000 0.353319
O O2 0.847562 0.132679 0.269194
O O3 0.250000 0.250000 0.292753
O O4 0.158466 0.134153 0.377647
O O5 0.632776 0.527616 0.068995
O O6 0.747546 0.400436 0.141953
O O7 0.750000 0.392234 0.000000
O O8 0.250000 0.076793 0.500000
O O9 0.407584 0.971367 0.592497
O O10 0.433815 0.023351 0.226053
#
# Coordination Sequence:
#
# PCOD9395837 Si02
#       4
#     8   8   8   8
#     4  12  24  37  55  84 119 150 184 231 283 338
#     4   8  14  25  45  75 103 130 176 233 275 310
#     4  10  21  40  63  83 106 142 188 233 278 335
#     4  10  19  34  56  79 108 148 190 231 276 332
#
# _framework density 21.578999
#
# number of rings (size 3 to 8) (size 9 to 14) (size 15 to 20)
#    0.000    2.000    0.000    4.500    0.000    0.500 
#    0.000    1.250    0.000    0.750    0.000    1.750 
#    0.000    0.000    0.000    0.000    0.000    0.000 
#
# Total GULP energy -178675.302127 kJ/mol
# GULP energy per Si atom -5583.603191 kJ/mol
# Density = 2.152988 g / cm^3
# Si number density = 21.578999 Si / 1000 Ang^3
#
#
#
# Elastic Constant Matrix: (Units=GPa)
#
#
# Indices 1 2 3 4 5 6 
#
# 1 80.3773 2.0198 14.7223 0.0000 0.0000 0.0000
# 2 2.0198 43.1568 45.1513 0.0000 0.0000 0.0000
# 3 14.7223 45.1513 122.7662 0.0000 0.0000 0.0000
# 4 0.0000 0.0000 0.0000 -9.6712 0.0000 0.0000
# 5 0.0000 0.0000 0.0000 0.0000 33.3396 0.0000
# 6 0.0000 0.0000 0.0000 0.0000 0.0000 10.8679
#
#
#
# Elastic Compliance Matrix: (Units=1/GPa)
#
#
# Indices 1 2 3 4 5 6 
#
# 1 0.012791 0.001636 -0.002135 0.000000 0.000000 0.000000
# 2 0.001636 0.037873 -0.014125 0.000000 0.000000 0.000000
# 3 -0.002135 -0.014125 0.013597 0.000000 0.000000 0.000000
# 4 0.000000 0.000000 0.000000 -0.103400 0.000000 0.000000
# 5 0.000000 0.000000 0.000000 0.000000 0.029994 0.000000
# 6 0.000000 0.000000 0.000000 0.000000 0.000000 0.092014
#
#
# Mechanical properties :
#
#
# Convention : Reuss Voigt Hill
#
# Bulk Modulus (GPa) = 28.56275 41.12079 34.84177
# Shear Modulus (GPa) = 40.39131 19.20106 29.79619
#
# Velocity S-wave (km/s) = 4.33111 2.98619 3.71994
# Velocity P-wave (km/s) = 6.18680 5.56661 5.88488
#
# Compressibility (1/GPa) = 0.03501063
#
# Stress axis : x y z
#
# Youngs Moduli (GPa) = 78.17769 26.40428 73.54779
#
# Poissons Ratio (x) = -0.04319 0.15706
# Poissons Ratio (y) = -0.12786 1.03887
# Poissons Ratio (z) = 0.16695 0.37296
#
# Static dielectric constant tensor:
#      x y z
#    x 1.761950 0.000000 0.000000 
#    y 0.000000 1.773600 0.000000 
#    z 0.000000 0.000000 1.835380 
# 
# From -- ./inp_files/30149.got.cif
#   From: 2010.05.17/outbox.cif.g08.bks.cpg/sg50_16_cif.got.tgz:30149.got - 2010.06.03 11:33:33.
