data_PCOD9395383
_publ_section_title
;
Structure prediction by ZEFSAII (Michael W. Deem and Ramdas Pophale) SiO2 
 PCOD9395383
Probable space group: P B A N
;
_chemical_formula_sum "Si O2"
_cell_formula_units_Z 40
_cell_length_a 32.855234
_cell_length_b 5.371974
_cell_length_c 11.128407
_cell_angle_alpha 90.000000
_cell_angle_beta 90.000000
_cell_angle_gamma 90.000000
_cell_volume 1964.135601
_symmetry_space_group_name_H-M "P B A N"
_symmetry_group_IT_number 50
_space_group.IT_coordinate_system_code '2'
_symmetry_cell_setting 'orthorhombic'
loop_
_space_group_symop_operation_xyz
x,y,z
1/2-x,1/2-y,z
x,1/2-y,-z
1/2-x,y,-z
-x,-y,-z
1/2+x,1/2+y,-z
-x,1/2+y,z
1/2+x,-y,z
loop_
_atom_site_type_symbol
_atom_site_label
_atom_site_fract_x
_atom_site_fract_y
_atom_site_fract_z
Si Si1 0.546237 0.500357 0.050895
Si Si2 0.232596 0.504382 0.638210
Si Si3 0.611187 0.671761 0.371678
Si Si4 0.639751 0.168854 0.361388
Si Si5 0.974843 0.002210 0.331705
O O1 0.539978 0.504690 0.193045
O O2 0.565861 0.250000 0.000000
O O3 0.500000 0.500000 0.000000
O O4 0.566082 0.750000 0.000000
O O5 0.250000 0.250000 0.690611
O O6 0.250000 0.504112 0.500000
O O7 0.184510 0.549001 0.641858
O O8 0.250000 0.750000 0.698767
O O9 0.630691 0.750000 0.500000
O O10 0.634481 0.445959 0.305213
O O11 0.566660 0.562384 0.399132
O O12 0.610499 0.948095 0.312966
O O13 0.631393 0.250000 0.500000
O O14 0.005847 0.773118 0.353615
#
# Coordination Sequence:
#
# PCOD9395383 Si02
#       5
#     8   8   8   8   8
#     4  10  16  30  49  74  88 106 132 204 266 295
#     4  10  17  24  44  72  83 107 150 204 230 258
#     4  10  23  34  45  62  90 138 163 194 241 267
#     4  10  18  33  45  60  96 121 157 198 229 288
#     4  12  21  33  52  68  89 116 170 213 234 285
#
# _framework density 20.365195
#
# number of rings (size 3 to 8) (size 9 to 14) (size 15 to 20)
#    0.000    1.600    6.000    2.400    5.600    0.800 
#    0.000    0.000    0.000    0.000    0.000    0.000 
#    0.000    0.000    0.000    0.000    0.000   70.000 
#
# Total GULP energy -222682.612137 kJ/mol
# GULP energy per Si atom -5567.065303 kJ/mol
# Density = 2.031884 g / cm^3
# Si number density = 20.365195 Si / 1000 Ang^3
#
#
#
# Elastic Constant Matrix: (Units=GPa)
#
#
# Indices 1 2 3 4 5 6 
#
# 1 87.8380 45.2102 -5.6963 0.0000 0.0000 0.0000
# 2 45.2102 236.2978 0.0815 0.0000 0.0000 0.0000
# 3 -5.6963 0.0815 29.7411 0.0000 0.0000 0.0000
# 4 0.0000 0.0000 0.0000 9.0205 0.0000 0.0000
# 5 0.0000 0.0000 0.0000 0.0000 -2.7127 0.0000
# 6 0.0000 0.0000 0.0000 0.0000 0.0000 26.9843
#
#
#
# Elastic Compliance Matrix: (Units=1/GPa)
#
#
# Indices 1 2 3 4 5 6 
#
# 1 0.012806 -0.002451 0.002459 0.000000 0.000000 0.000000
# 2 -0.002451 0.004701 -0.000482 0.000000 0.000000 0.000000
# 3 0.002459 -0.000482 0.034096 0.000000 0.000000 0.000000
# 4 0.000000 0.000000 0.000000 0.110859 0.000000 0.000000
# 5 0.000000 0.000000 0.000000 0.000000 -0.368640 0.000000
# 6 0.000000 0.000000 0.000000 0.000000 0.000000 0.037059
#
#
# Mechanical properties :
#
#
# Convention : Reuss Voigt Hill
#
# Bulk Modulus (GPa) = 19.74148 48.11863 33.93005
# Shear Modulus (GPa) = -33.04978 27.61051 -2.71964
#
# Velocity S-wave (km/s) = -4.03284 3.68607 -1.15686
# Velocity P-wave (km/s) = 3.45981 6.46493 3.86167
#
# Compressibility (1/GPa) = 0.05065477
#
# Stress axis : x y z
#
# Youngs Moduli (GPa) = 78.09105 212.71895 29.32907
#
# Poissons Ratio (x) = 0.52135 -0.07213
# Poissons Ratio (y) = 0.19139 0.01415
# Poissons Ratio (z) = -0.19205 0.10260
#
# Static dielectric constant tensor:
#      x y z
#    x 1.721720 0.000000 0.000000 
#    y 0.000000 1.645710 0.000000 
#    z 0.000000 0.000000 1.756840 
# 
# From -- ./inp_files/17999.got.cif
#   From: 2010.05.17/outbox.cif.g08.bks.cpg/sg50_9_cif.got.tgz:17999.got - 2010.06.03 11:33:33.
