data_PCOD9395402
_publ_section_title
;
Structure prediction by ZEFSAII (Michael W. Deem and Ramdas Pophale) SiO2 
 PCOD9395402
Probable space group: P B A N
;
_chemical_formula_sum "Si O2"
_cell_formula_units_Z 56
_cell_length_a 17.180057
_cell_length_b 17.928047
_cell_length_c 9.167977
_cell_angle_alpha 90.000000
_cell_angle_beta 90.000000
_cell_angle_gamma 90.000000
_cell_volume 2823.781558
_symmetry_space_group_name_H-M "P B A N"
_symmetry_group_IT_number 50
_space_group.IT_coordinate_system_code '2'
_symmetry_cell_setting 'orthorhombic'
loop_
_space_group_symop_operation_xyz
x,y,z
1/2-x,1/2-y,z
x,1/2-y,-z
1/2-x,y,-z
-x,-y,-z
1/2+x,1/2+y,-z
-x,1/2+y,z
1/2+x,-y,z
loop_
_atom_site_type_symbol
_atom_site_label
_atom_site_fract_x
_atom_site_fract_y
_atom_site_fract_z
Si Si1 0.172101 0.069990 0.093922
Si Si2 0.567086 0.461255 0.764683
Si Si3 0.566179 0.854721 0.695439
Si Si4 0.497022 0.893085 0.379675
Si Si5 0.167486 0.913469 0.497668
Si Si6 0.564543 0.705726 0.862435
Si Si7 0.780247 0.570060 0.640784
O O1 0.105497 0.005420 0.098778
O O2 0.134075 0.152073 0.078856
O O3 0.206071 0.065786 0.257232
O O4 0.250000 0.057195 0.000000
O O5 0.502295 0.397123 0.784963
O O6 0.524614 0.523001 0.660581
O O7 0.635614 0.426012 0.665627
O O8 0.543742 0.865224 0.523882
O O9 0.580833 0.770765 0.745529
O O10 0.647575 0.895039 0.722566
O O11 0.407077 0.883062 0.419157
O O12 0.512354 0.849481 0.231074
O O13 0.250000 0.871657 0.500000
O O14 0.187300 0.991742 0.578959
O O15 0.531059 0.750000 0.000000
O O16 0.750000 0.614656 0.500000
#
# Coordination Sequence:
#
# PCOD9395402 Si02
#       7
#     8   8   8   8   8   8   8
#     4  11  23  39  56  83 123 161 199 246 303 359
#     4  10  18  35  59  88 116 144 197 258 302 349
#     4  11  20  36  61  86 112 156 198 247 305 365
#     4  10  19  36  60  85 115 149 198 255 301 358
#     4  10  16  31  59  92 114 136 179 255 317 340
#     4  11  25  42  53  79 124 171 203 237 293 363
#     4  11  18  32  57  87 115 143 189 241 307 358
#
# _framework density 19.831562999999999
#
# number of rings (size 3 to 8) (size 9 to 14) (size 15 to 20)
#    0.000    1.429    5.714    3.000    0.000    2.000 
#    2.571    2.857    0.000    6.857    0.000    4.000 
#    0.000    0.000    0.000    0.000    0.000    0.000 
#
# Total GULP energy -311909.467400 kJ/mol
# GULP energy per Si atom -5569.811918 kJ/mol
# Density = 1.978643 g / cm^3
# Si number density = 19.831563 Si / 1000 Ang^3
#
#
#
# Elastic Constant Matrix: (Units=GPa)
#
#
# Indices 1 2 3 4 5 6 
#
# 1 94.0039 10.3198 7.4288 0.0000 0.0000 0.0000
# 2 10.3198 39.8684 12.6300 0.0000 0.0000 0.0000
# 3 7.4288 12.6300 44.1236 0.0000 0.0000 0.0000
# 4 0.0000 0.0000 0.0000 2.3041 0.0000 0.0000
# 5 0.0000 0.0000 0.0000 0.0000 33.6644 0.0000
# 6 0.0000 0.0000 0.0000 0.0000 0.0000 8.4952
#
#
#
# Elastic Compliance Matrix: (Units=1/GPa)
#
#
# Indices 1 2 3 4 5 6 
#
# 1 0.011001 -0.002486 -0.001140 0.000000 0.000000 0.000000
# 2 -0.002486 0.028146 -0.007638 0.000000 0.000000 0.000000
# 3 -0.001140 -0.007638 0.025042 0.000000 0.000000 0.000000
# 4 0.000000 0.000000 0.000000 0.434014 0.000000 0.000000
# 5 0.000000 0.000000 0.000000 0.000000 0.029705 0.000000
# 6 0.000000 0.000000 0.000000 0.000000 0.000000 0.117713
#
#
# Mechanical properties :
#
#
# Convention : Reuss Voigt Hill
#
# Bulk Modulus (GPa) = 24.00423 26.52812 25.26618
# Shear Modulus (GPa) = 7.33099 18.73390 13.03245
#
# Velocity S-wave (km/s) = 1.92475 3.07685 2.56629
# Velocity P-wave (km/s) = 4.13157 5.10181 4.64211
#
# Compressibility (1/GPa) = 0.04165932
#
# Stress axis : x y z
#
# Youngs Moduli (GPa) = 90.90144 35.52938 39.93312
#
# Poissons Ratio (x) = 0.08834 0.04554
# Poissons Ratio (y) = 0.22601 0.30500
# Poissons Ratio (z) = 0.10367 0.27137
#
# Static dielectric constant tensor:
#      x y z
#    x 1.756110 0.000000 0.000000 
#    y 0.000000 1.757820 0.000000 
#    z 0.000000 0.000000 1.781400 
# 
# From -- ./inp_files/13299.got.cif
#   From: 2010.05.17/outbox.cif.g08.bks.cpg/sg50_7_cif.got.tgz:13299.got - 2010.06.03 11:33:33.
