data_PCOD9395231
_publ_section_title
;
Structure prediction by ZEFSAII (Michael W. Deem and Ramdas Pophale) SiO2 
 PCOD9395231
Probable space group: P C C M
;
_chemical_formula_sum "Si O2"
_cell_formula_units_Z 64
_cell_length_a 24.000000
_cell_length_b 15.000000
_cell_length_c 9.000000
_cell_angle_alpha 90.000000
_cell_angle_beta 90.000000
_cell_angle_gamma 90.000000
_cell_volume 3240.000000
_symmetry_space_group_name_H-M "P C C M"
_symmetry_group_IT_number 49
_symmetry_cell_setting 'orthorhombic'
loop_
_space_group_symop_operation_xyz
x,y,z
-x,-y,z
x,-y,1/2-z
-x,y,1/2-z
-x,-y,-z
x,y,-z
-x,y,1/2+z
x,-y,1/2+z
loop_
_atom_site_type_symbol
_atom_site_label
_atom_site_fract_x
_atom_site_fract_y
_atom_site_fract_z
Si Si1 0.052951 0.776310 0.173743
Si Si2 0.719637 0.091047 0.828090
Si Si3 0.081387 0.410433 0.170875
Si Si4 0.320390 0.408597 0.676781
Si Si5 0.208692 0.637294 0.668815
Si Si6 0.439289 0.909234 0.821285
Si Si7 0.173637 0.812323 0.169465
Si Si8 0.358090 0.771245 0.322122
O O1 0.062990 0.678749 0.244996
O O2 0.109474 0.830422 0.197759
O O3 0.000000 0.818492 0.250000
O O4 0.043400 0.765282 0.000000
O O5 0.785718 0.104756 0.827027
O O6 0.694700 0.171733 0.733581
O O7 0.705058 0.000000 0.750000
O O8 0.700156 0.095468 0.000000
O O9 0.062329 0.500000 0.250000
O O10 0.148999 0.410272 0.172909
O O11 0.063193 0.406783 0.000000
O O12 0.340163 0.500000 0.750000
O O13 0.327201 0.406426 0.500000
O O14 0.255029 0.398485 0.719300
O O15 0.350697 0.326617 0.756564
O O16 0.230943 0.632827 0.500000
O O17 0.194182 0.737704 0.716758
O O18 0.500000 0.903743 0.750000
O O19 0.406927 0.824225 0.760425
O O20 0.414751 0.000000 0.750000
O O21 0.440551 0.914600 0.000000
O O22 0.177788 0.774177 0.000000
O O23 0.363443 0.772287 0.500000
#
# Coordination Sequence:
#
# PCOD9395231 Si02
#       8
#     8   8   8   8   8   8   8   8
#     4  10  20  35  53  73  95 129 173 225 280 343
#     4  11  22  37  58  88 121 157 192 235 292 358
#     4  10  20  32  47  70  98 131 172 222 276 338
#     4  12  24  38  56  82 117 160 206 252 299 351
#     4  10  19  32  52  77 106 143 187 232 283 341
#     4  11  22  40  65  96 131 170 212 257 304 359
#     4   9  19  35  55  76 107 144 182 226 283 345
#     4  12  24  40  61  90 126 165 206 253 301 353
#
# _framework density 19.753086
#
# number of rings (size 3 to 8) (size 9 to 14) (size 15 to 20)
#    0.000    1.375    1.250    6.000    0.000    3.750 
#    0.000    1.250    0.000    0.750    0.000    5.250 
#    0.000    0.000    0.000    0.000    0.000    0.000 
#
# Total GULP energy -357353.305804 kJ/mol
# GULP energy per Si atom -5583.645403 kJ/mol
# Density = 1.970813 g / cm^3
# Si number density = 19.753086 Si / 1000 Ang^3
#
#
#
# Elastic Constant Matrix: (Units=GPa)
#
#
# Indices 1 2 3 4 5 6 
#
# 1 108.8977 46.3378 48.0708 0.0000 0.0000 0.0000
# 2 46.3378 97.5732 57.3461 0.0000 0.0000 0.0000
# 3 48.0708 57.3461 174.9958 0.0000 0.0000 0.0000
# 4 0.0000 0.0000 0.0000 20.8089 0.0000 0.0000
# 5 0.0000 0.0000 0.0000 0.0000 20.8876 0.0000
# 6 0.0000 0.0000 0.0000 0.0000 0.0000 574.9412
#
#
#
# Elastic Compliance Matrix: (Units=1/GPa)
#
#
# Indices 1 2 3 4 5 6 
#
# 1 0.011931 -0.004632 -0.001759 0.000000 0.000000 0.000000
# 2 -0.004632 0.014492 -0.003477 0.000000 0.000000 0.000000
# 3 -0.001759 -0.003477 0.007337 0.000000 0.000000 0.000000
# 4 0.000000 0.000000 0.000000 0.048056 0.000000 0.000000
# 5 0.000000 0.000000 0.000000 0.000000 0.047875 0.000000
# 6 0.000000 0.000000 0.000000 0.000000 0.000000 0.001739
#
#
# Mechanical properties :
#
#
# Convention : Reuss Voigt Hill
#
# Bulk Modulus (GPa) = 71.30852 76.10846 73.70849
# Shear Modulus (GPa) = 32.08418 138.64168 85.36293
#
# Velocity S-wave (km/s) = 4.03459 8.38688 6.58094
# Velocity P-wave (km/s) = 7.60803 11.50651 9.75402
#
# Compressibility (1/GPa) = 0.01402357
#
# Stress axis : x y z
#
# Youngs Moduli (GPa) = 83.81878 69.00546 136.29538
#
# Poissons Ratio (x) = 0.31962 0.23980
# Poissons Ratio (y) = 0.38823 0.47384
# Poissons Ratio (z) = 0.14747 0.23990
#
# Static dielectric constant tensor:
#      x y z
#    x 1.804600 0.000000 0.000000 
#    y 0.000000 1.709340 0.000000 
#    z 0.000000 0.000000 1.671110 
# 
# From -- ./inp_files/6522.got.cif
#   From: 2010.05.17/outbox.ucp.g08.bks.cvg/sg49_4_cif.got.tgz:6522.got - 2010.06.11 16:40:14.
