data_PCOD9395756
_publ_section_title
;
Structure prediction by ZEFSAII (Michael W. Deem and Ramdas Pophale) SiO2 
 PCOD9395756
Probable space group: P B A N
;
_chemical_formula_sum "Si O2"
_cell_formula_units_Z 48
_cell_length_a 11.636979
_cell_length_b 25.841978
_cell_length_c 8.399174
_cell_angle_alpha 90.000000
_cell_angle_beta 90.000000
_cell_angle_gamma 90.000000
_cell_volume 2525.821068
_symmetry_space_group_name_H-M "P B A N"
_symmetry_group_IT_number 50
_space_group.IT_coordinate_system_code '2'
_symmetry_cell_setting 'orthorhombic'
loop_
_space_group_symop_operation_xyz
x,y,z
1/2-x,1/2-y,z
x,1/2-y,-z
1/2-x,y,-z
-x,-y,-z
1/2+x,1/2+y,-z
-x,1/2+y,z
1/2+x,-y,z
loop_
_atom_site_type_symbol
_atom_site_label
_atom_site_fract_x
_atom_site_fract_y
_atom_site_fract_z
Si Si1 0.553753 0.554794 0.824716
Si Si2 0.373138 0.027253 0.497466
Si Si3 0.610556 0.252417 0.183621
Si Si4 0.550058 0.560362 0.170531
Si Si5 0.110618 0.857655 0.318786
Si Si6 0.115722 0.635630 0.310324
O O1 0.625004 0.559151 0.661744
O O2 0.515039 0.494933 0.834380
O O3 0.444072 0.591503 0.793544
O O4 0.605623 0.567662 0.997122
O O5 0.250000 0.996604 0.500000
O O6 0.374708 0.057166 0.330178
O O7 0.500000 0.000000 0.500000
O O8 0.750000 0.250000 0.183825
O O9 0.576572 0.201563 0.282033
O O10 0.576014 0.307082 0.258625
O O11 0.572844 0.250000 0.000000
O O12 0.458197 0.604913 0.203327
O O13 0.246713 0.864623 0.291231
O O14 0.088930 0.871718 0.502921
#
# Coordination Sequence:
#
# PCOD9395756 Si02
#       6
#     8   8   8   8   8   8
#     4  10  21  36  54  80 114 156 201 245 295 357
#     4  10  22  40  60  85 118 157 201 250 302 358
#     4   9  17  29  47  77 117 158 201 251 307 368
#     4  10  21  36  54  80 114 156 201 245 295 357
#     4  10  19  32  53  82 119 161 204 253 311 370
#     4  10  19  32  53  82 119 161 204 253 311 370
#
# _framework density 19.003723000000001
#
# number of rings (size 3 to 8) (size 9 to 14) (size 15 to 20)
#    0.000    2.167    1.667    1.500    0.000   10.000 
#    0.000    6.667    0.000    0.000    0.000    2.333 
#    0.000    4.000    0.000    0.000    0.000    0.000 
#
# Total GULP energy -267295.158325 kJ/mol
# GULP energy per Si atom -5568.649132 kJ/mol
# Density = 1.896047 g / cm^3
# Si number density = 19.003723 Si / 1000 Ang^3
#
#
#
# Elastic Constant Matrix: (Units=GPa)
#
#
# Indices 1 2 3 4 5 6 
#
# 1 67.6070 8.9488 21.8384 0.0000 0.0000 0.0000
# 2 8.9488 59.0721 -9.6195 0.0000 0.0000 0.0000
# 3 21.8384 -9.6195 147.2369 0.0000 0.0000 0.0000
# 4 0.0000 0.0000 0.0000 65.7223 0.0000 0.0000
# 5 0.0000 0.0000 0.0000 0.0000 3.4363 0.0000
# 6 0.0000 0.0000 0.0000 0.0000 0.0000 16.8536
#
#
#
# Elastic Compliance Matrix: (Units=1/GPa)
#
#
# Indices 1 2 3 4 5 6 
#
# 1 0.015993 -0.002839 -0.002558 0.000000 0.000000 0.000000
# 2 -0.002839 0.017615 0.001572 0.000000 0.000000 0.000000
# 3 -0.002558 0.001572 0.007274 0.000000 0.000000 0.000000
# 4 0.000000 0.000000 0.000000 0.015216 0.000000 0.000000
# 5 0.000000 0.000000 0.000000 0.000000 0.291010 0.000000
# 6 0.000000 0.000000 0.000000 0.000000 0.000000 0.059335
#
#
# Mechanical properties :
#
#
# Convention : Reuss Voigt Hill
#
# Bulk Modulus (GPa) = 30.09176 35.13905 32.61541
# Shear Modulus (GPa) = 11.76003 34.05232 22.90618
#
# Velocity S-wave (km/s) = 2.49032 4.23765 3.47558
# Velocity P-wave (km/s) = 4.91304 6.51723 5.77115
#
# Compressibility (1/GPa) = 0.03323169
#
# Stress axis : x y z
#
# Youngs Moduli (GPa) = 62.52594 56.77118 137.47906
#
# Poissons Ratio (x) = 0.16119 0.35163
# Poissons Ratio (y) = 0.17753 -0.21611
# Poissons Ratio (z) = 0.15992 -0.08924
#
# Static dielectric constant tensor:
#      x y z
#    x 1.663390 0.000000 0.000000 
#    y 0.000000 1.663910 0.000000 
#    z 0.000000 0.000000 1.716950 
# 
# From -- ./inp_files/11655.got.cif
#   From: 2010.05.17/outbox.cif.g08.bks.cpg/sg50_6_cif.got.tgz:11655.got - 2010.06.03 11:33:33.
