data_PCOD9395303
_publ_section_title
;
Structure prediction by ZEFSAII (Michael W. Deem and Ramdas Pophale) SiO2 
 PCOD9395303
Probable space group: P C C M
;
_chemical_formula_sum "Si O2"
_cell_formula_units_Z 64
_cell_length_a 15.000000
_cell_length_b 24.000000
_cell_length_c 9.000000
_cell_angle_alpha 90.000000
_cell_angle_beta 90.000000
_cell_angle_gamma 90.000000
_cell_volume 3240.000000
_symmetry_space_group_name_H-M "P C C M"
_symmetry_group_IT_number 49
_symmetry_cell_setting 'orthorhombic'
loop_
_space_group_symop_operation_xyz
x,y,z
-x,-y,z
x,-y,1/2-z
-x,y,1/2-z
-x,-y,-z
x,y,-z
-x,y,1/2+z
x,-y,1/2+z
loop_
_atom_site_type_symbol
_atom_site_label
_atom_site_fract_x
_atom_site_fract_y
_atom_site_fract_z
Si Si1 0.250570 0.755390 0.328311
Si Si2 0.903596 0.056061 0.675831
Si Si3 0.766219 0.131323 0.827916
Si Si4 0.585210 0.675485 0.824324
Si Si5 0.083565 0.675358 0.327231
Si Si6 0.589564 0.939947 0.675683
Si Si7 0.856384 0.443477 0.323358
Si Si8 0.356943 0.556327 0.323616
O O1 0.255571 0.775892 0.500000
O O2 0.247276 0.805092 0.213865
O O3 0.332376 0.714987 0.299640
O O4 0.166190 0.715626 0.314650
O O5 0.911539 0.049260 0.500000
O O6 0.840961 0.106343 0.721204
O O7 0.000000 0.063555 0.750000
O O8 0.864545 0.000000 0.750000
O O9 0.674483 0.098662 0.801392
O O10 0.792037 0.123450 0.000000
O O11 0.500000 0.701155 0.750000
O O12 0.602333 0.613406 0.763548
O O13 0.572748 0.670012 0.000000
O O14 0.064544 0.667393 0.500000
O O15 0.103318 0.613926 0.263451
O O16 0.000000 0.702017 0.250000
O O17 0.500000 0.916503 0.750000
O O18 0.575703 0.947038 0.500000
O O19 0.605161 0.000000 0.750000
O O20 0.889745 0.500000 0.250000
O O21 0.870360 0.446657 0.500000
O O22 0.749711 0.439961 0.299686
O O23 0.390303 0.500000 0.250000
O O24 0.371158 0.553135 0.500000
#
# Coordination Sequence:
#
# PCOD9395303 Si02
#       8
#     8   8   8   8   8   8   8   8
#     4  10  22  42  61  78 109 154 195 237 291 344
#     4  11  22  39  64  94 128 164 199 241 291 344
#     4  11  24  40  60  89 121 156 201 248 291 346
#     4  10  21  38  59  81 109 146 189 236 290 350
#     4  10  21  38  59  81 108 144 186 231 283 341
#     4  10  21  37  60  89 123 157 192 236 284 338
#     4   9  17  32  54  79 108 141 178 222 276 340
#     4   9  17  32  54  79 108 142 179 225 280 345
#
# _framework density 19.753086
#
# number of rings (size 3 to 8) (size 9 to 14) (size 15 to 20)
#    0.000    2.000    1.250    3.000    0.000    6.500 
#    0.000    6.250    0.000    0.000    0.000    0.000 
#    0.000    0.000    0.000    0.000    0.000    0.000 
#
# Total GULP energy -357143.992882 kJ/mol
# GULP energy per Si atom -5580.374889 kJ/mol
# Density = 1.970813 g / cm^3
# Si number density = 19.753086 Si / 1000 Ang^3
#
#
#
# Elastic Constant Matrix: (Units=GPa)
#
#
# Indices 1 2 3 4 5 6 
#
# 1 65.7035 14.9829 49.1937 0.0000 0.0000 0.0000
# 2 14.9829 25.2503 39.4655 0.0000 0.0000 0.0000
# 3 49.1937 39.4655 53.9586 0.0000 0.0000 0.0000
# 4 0.0000 0.0000 0.0000 25.7232 0.0000 0.0000
# 5 0.0000 0.0000 0.0000 0.0000 34.8790 0.0000
# 6 0.0000 0.0000 0.0000 0.0000 0.0000-3693.8786
#
#
#
# Elastic Compliance Matrix: (Units=1/GPa)
#
#
# Indices 1 2 3 4 5 6 
#
# 1 0.007002 -0.040671 0.023363 0.000000 0.000000 0.000000
# 2 -0.040671 -0.040392 0.066622 0.000000 0.000000 0.000000
# 3 0.023363 0.066622 -0.051495 0.000000 0.000000 0.000000
# 4 0.000000 0.000000 0.000000 0.038875 0.000000 0.000000
# 5 0.000000 0.000000 0.000000 0.000000 0.028671 0.000000
# 6 0.000000 0.000000 0.000000 0.000000 0.000000 -0.000271
#
#
# Mechanical properties :
#
#
# Convention : Reuss Voigt Hill
#
# Bulk Modulus (GPa) = 72.75935 39.13296 55.94616
# Shear Modulus (GPa) = -44.77949 -723.90394 -384.34172
#
# Velocity S-wave (km/s) = -4.76643 -19.16434 -13.96408
# Velocity P-wave (km/s) = 2.57344 21.67584 15.21873
#
# Compressibility (1/GPa) = 0.01374394
#
# Stress axis : x y z
#
# Youngs Moduli (GPa) = 142.81987 -24.75720 -19.41936
#
# Poissons Ratio (x) = -1.00689 0.45370
# Poissons Ratio (y) = 5.80858 1.29376
# Poissons Ratio (z) = -3.33672 1.64938
#
# Static dielectric constant tensor:
#      x y z
#    x 1.685710 0.000000 0.000000 
#    y 0.000000 1.690660 0.000000 
#    z 0.000000 0.000000 1.674590 
# 
# From -- ./inp_files/4417.got.cif
#   From: 2010.05.17/outbox.ucp.g08.bks.cvg/sg49_3_cif.got.tgz:4417.got - 2010.06.11 16:40:14.
