data_PCOD9395508
_publ_section_title
;
Structure prediction by ZEFSAII (Michael W. Deem and Ramdas Pophale) SiO2 
 PCOD9395508
Probable space group: P B A N
;
_chemical_formula_sum "Si O2"
_cell_formula_units_Z 34
_cell_length_a 19.605857
_cell_length_b 10.336401
_cell_length_c 10.839172
_cell_angle_alpha 90.000000
_cell_angle_beta 90.000000
_cell_angle_gamma 90.000000
_cell_volume 2196.601561
_symmetry_space_group_name_H-M "P B A N"
_symmetry_group_IT_number 50
_space_group.IT_coordinate_system_code '2'
_symmetry_cell_setting 'orthorhombic'
loop_
_space_group_symop_operation_xyz
x,y,z
1/2-x,1/2-y,z
x,1/2-y,-z
1/2-x,y,-z
-x,-y,-z
1/2+x,1/2+y,-z
-x,1/2+y,z
1/2+x,-y,z
loop_
_atom_site_type_symbol
_atom_site_label
_atom_site_fract_x
_atom_site_fract_y
_atom_site_fract_z
Si Si1 0.802161 0.640691 0.739777
Si Si2 0.231784 0.896759 0.145440
Si Si3 0.750000 0.750000 0.500000
Si Si4 0.066799 0.365814 0.098940
Si Si5 0.086112 0.884493 0.071504
O O1 0.750000 0.750000 0.793916
O O2 0.772749 0.502280 0.778213
O O3 0.795654 0.665792 0.593653
O O4 0.877266 0.654595 0.795767
O O5 0.250000 0.750000 0.178558
O O6 0.250000 0.914524 0.000000
O O7 0.150563 0.914093 0.156526
O O8 0.080971 0.500328 0.028035
O O9 0.073125 0.250000 0.000000
O O10 0.987235 0.370933 0.136593
O O11 0.100208 0.750000 0.000000
#
# Coordination Sequence:
#
# PCOD9395508 Si02
#       5
#     8   8   2   8   8
#     4  10  20  34  52  72  99 135 180 223 244 283
#     4  11  18  29  52  80 107 132 156 201 262 328
#     4   8  24  36  52  72  92 132 200 226 236 272
#     4  10  19  28  48  77 105 134 156 202 262 321
#     4  10  18  29  42  79 114 129 152 186 261 335
#
# _framework density 15.478457000000001
#
# number of rings (size 3 to 8) (size 9 to 14) (size 15 to 20)
#    0.706    1.176    4.706    1.412    0.000    0.000 
#    0.000    0.588    0.000    1.412    0.000    0.000 
#    0.000    0.000    0.000    0.000    0.000    0.000 
#
# Total GULP energy -189338.104626 kJ/mol
# GULP energy per Si atom -5568.767783 kJ/mol
# Density = 1.544323 g / cm^3
# Si number density = 15.478457 Si / 1000 Ang^3
#
#
#
# Elastic Constant Matrix: (Units=GPa)
#
#
# Indices 1 2 3 4 5 6 
#
# 1 138.7728 9.3948 50.6289 0.0000 0.0000 0.0000
# 2 9.3948 89.4858 34.0040 0.0000 0.0000 0.0000
# 3 50.6289 34.0040 70.9067 0.0000 0.0000 0.0000
# 4 0.0000 0.0000 0.0000 14.7462 0.0000 0.0000
# 5 0.0000 0.0000 0.0000 0.0000 18.0985 0.0000
# 6 0.0000 0.0000 0.0000 0.0000 0.0000 -57.8172
#
#
#
# Elastic Compliance Matrix: (Units=1/GPa)
#
#
# Indices 1 2 3 4 5 6 
#
# 1 0.010041 0.002042 -0.008149 0.000000 0.000000 0.000000
# 2 0.002042 0.014081 -0.008211 0.000000 0.000000 0.000000
# 3 -0.008149 -0.008211 0.023859 0.000000 0.000000 0.000000
# 4 0.000000 0.000000 0.000000 0.067814 0.000000 0.000000
# 5 0.000000 0.000000 0.000000 0.000000 0.055253 0.000000
# 6 0.000000 0.000000 0.000000 0.000000 0.000000 -0.017296
#
#
# Mechanical properties :
#
#
# Convention : Reuss Voigt Hill
#
# Bulk Modulus (GPa) = 51.69037 54.13563 52.91300
# Shear Modulus (GPa) = 26.47825 8.68134 17.57980
#
# Velocity S-wave (km/s) = 4.14049 2.37083 3.37376
# Velocity P-wave (km/s) = 7.50505 6.52267 7.03104
#
# Compressibility (1/GPa) = 0.01934596
#
# Stress axis : x y z
#
# Youngs Moduli (GPa) = 99.59500 71.01980 41.91309
#
# Poissons Ratio (x) = -0.14504 0.34154
# Poissons Ratio (y) = -0.20340 0.34414
# Poissons Ratio (z) = 0.81157 0.58313
#
# Static dielectric constant tensor:
#      x y z
#    x 1.553640 0.000000 0.000000 
#    y 0.000000 1.543970 0.000000 
#    z 0.000000 0.000000 1.476080 
# 
# From -- ./inp_files/21697.got.cif
#   From: 2010.05.17/outbox.cif.g08.bks.cpg/sg50_11_cif.got.tgz:21697.got - 2010.06.03 11:33:33.
