data_PCOD9395921
_publ_section_title
;
Structure prediction by ZEFSAII (Michael W. Deem and Ramdas Pophale) SiO2 
 PCOD9395921
Probable space group: P B A N
;
_chemical_formula_sum "Si O2"
_cell_formula_units_Z 56
_cell_length_a 14.944503
_cell_length_b 11.120114
_cell_length_c 15.371276
_cell_angle_alpha 90.000000
_cell_angle_beta 90.000000
_cell_angle_gamma 90.000000
_cell_volume 2554.469001
_symmetry_space_group_name_H-M "P B A N"
_symmetry_group_IT_number 50
_space_group.IT_coordinate_system_code '2'
_symmetry_cell_setting 'orthorhombic'
loop_
_space_group_symop_operation_xyz
x,y,z
1/2-x,1/2-y,z
x,1/2-y,-z
1/2-x,y,-z
-x,-y,-z
1/2+x,1/2+y,-z
-x,1/2+y,z
1/2+x,-y,z
loop_
_atom_site_type_symbol
_atom_site_label
_atom_site_fract_x
_atom_site_fract_y
_atom_site_fract_z
Si Si1 0.436121 0.016837 0.705929
Si Si2 0.405119 0.329330 0.122298
Si Si3 0.904985 0.146935 0.068098
Si Si4 0.661537 0.192340 0.216389
Si Si5 0.893014 0.889714 0.243132
Si Si6 0.143490 0.280481 0.596928
Si Si7 0.753913 0.980231 0.119682
O O1 0.407181 0.093706 0.789444
O O2 0.394203 0.088365 0.624992
O O3 0.395796 0.883387 0.716395
O O4 0.540562 0.994323 0.725960
O O5 0.488223 0.371480 0.063438
O O6 0.417285 0.192655 0.157576
O O7 0.308552 0.371413 0.086697
O O8 0.890351 0.206027 0.163359
O O9 0.837641 0.034253 0.064914
O O10 0.880402 0.250000 0.000000
O O11 0.750000 0.250000 0.256317
O O12 0.695216 0.097389 0.143076
O O13 0.890681 0.804742 0.326270
O O14 0.797748 0.939262 0.211780
O O15 0.250000 0.250000 0.597381
O O16 0.111442 0.250000 0.500000
#
# Coordination Sequence:
#
# PCOD9395921 Si02
#       7
#     8   8   8   8   8   8   8
#     4  10  19  35  62  89 119 168 217 261 316 376
#     4  10  20  38  60  92 124 164 217 258 315 385
#     4  11  22  39  61  91 126 166 209 271 328 382
#     4   9  19  34  56  85 120 160 218 264 308 376
#     4  11  19  36  65  89 120 160 213 269 305 378
#     4  10  22  38  57  89 131 169 209 262 323 383
#     4  10  21  37  61  88 120 167 217 260 312 380
#
# _framework density 21.922364999999999
#
# number of rings (size 3 to 8) (size 9 to 14) (size 15 to 20)
#    0.000    1.857    2.857    3.000    0.000    3.143 
#    0.000    7.857    0.000    0.857    0.000    4.000 
#    0.000    0.000    0.000    0.000    0.000    0.000 
#
# Total GULP energy -312193.589799 kJ/mol
# GULP energy per Si atom -5574.885532 kJ/mol
# Density = 2.187247 g / cm^3
# Si number density = 21.922365 Si / 1000 Ang^3
#
#
#
# Elastic Constant Matrix: (Units=GPa)
#
#
# Indices 1 2 3 4 5 6 
#
# 1 118.5789 35.3743 26.7078 0.0000 0.0000 0.0000
# 2 35.3743 66.4697 37.7614 0.0000 0.0000 0.0000
# 3 26.7078 37.7614 88.0903 0.0000 0.0000 0.0000
# 4 0.0000 0.0000 0.0000 18.5477 0.0000 0.0000
# 5 0.0000 0.0000 0.0000 0.0000 13.2630 0.0000
# 6 0.0000 0.0000 0.0000 0.0000 0.0000 42.9820
#
#
#
# Elastic Compliance Matrix: (Units=1/GPa)
#
#
# Indices 1 2 3 4 5 6 
#
# 1 0.010091 -0.004802 -0.001001 0.000000 0.000000 0.000000
# 2 -0.004802 0.022172 -0.008049 0.000000 0.000000 0.000000
# 3 -0.001001 -0.008049 0.015106 0.000000 0.000000 0.000000
# 4 0.000000 0.000000 0.000000 0.053915 0.000000 0.000000
# 5 0.000000 0.000000 0.000000 0.000000 0.075397 0.000000
# 6 0.000000 0.000000 0.000000 0.000000 0.000000 0.023266
#
#
# Mechanical properties :
#
#
# Convention : Reuss Voigt Hill
#
# Bulk Modulus (GPa) = 50.84894 52.53621 51.69257
# Shear Modulus (GPa) = 21.34875 26.51156 23.93016
#
# Velocity S-wave (km/s) = 3.12402 3.48133 3.30750
# Velocity P-wave (km/s) = 6.02146 6.33847 6.18200
#
# Compressibility (1/GPa) = 0.01966610
#
# Stress axis : x y z
#
# Youngs Moduli (GPa) = 99.09720 45.10137 66.19984
#
# Poissons Ratio (x) = 0.21656 0.06628
# Poissons Ratio (y) = 0.47582 0.53283
# Poissons Ratio (z) = 0.09922 0.36301
#
# Static dielectric constant tensor:
#      x y z
#    x 1.924960 0.000000 0.000000 
#    y 0.000000 1.899290 0.000000 
#    z 0.000000 0.000000 1.766010 
# 
# From -- ./inp_files/26505.got.cif
#   From: 2010.05.17/outbox.cif.g08.bks.cpg/sg50_14_cif.got.tgz:26505.got - 2010.06.03 11:33:33.
