data_PCOD9395725
_publ_section_title
;
Structure prediction by ZEFSAII (Michael W. Deem and Ramdas Pophale) SiO2 
 PCOD9395725
Probable space group: P B A N
;
_chemical_formula_sum "Si O2"
_cell_formula_units_Z 48
_cell_length_a 23.310709
_cell_length_b 16.992997
_cell_length_c 5.174615
_cell_angle_alpha 90.000000
_cell_angle_beta 90.000000
_cell_angle_gamma 90.000000
_cell_volume 2049.762326
_symmetry_space_group_name_H-M "P B A N"
_symmetry_group_IT_number 50
_space_group.IT_coordinate_system_code '2'
_symmetry_cell_setting 'orthorhombic'
loop_
_space_group_symop_operation_xyz
x,y,z
1/2-x,1/2-y,z
x,1/2-y,-z
1/2-x,y,-z
-x,-y,-z
1/2+x,1/2+y,-z
-x,1/2+y,z
1/2+x,-y,z
loop_
_atom_site_type_symbol
_atom_site_label
_atom_site_fract_x
_atom_site_fract_y
_atom_site_fract_z
Si Si1 0.026904 0.297244 0.250674
Si Si2 0.369608 0.452383 0.155165
Si Si3 0.650707 0.727719 0.751844
Si Si4 0.940484 0.407273 0.058000
Si Si5 0.121890 0.657649 0.445296
Si Si6 0.809325 0.014429 0.350195
O O1 0.004918 0.250000 0.500000
O O2 0.000138 0.381348 0.191521
O O3 0.095379 0.286901 0.263447
O O4 0.007612 0.250000 0.000000
O O5 0.372722 0.359404 0.201355
O O6 0.425611 0.500405 0.064104
O O7 0.354640 0.480718 0.443860
O O8 0.322725 0.476731 0.931971
O O9 0.684104 0.750000 0.500000
O O10 0.685448 0.750000 0.000000
O O11 0.896447 0.372048 0.270374
O O12 0.924339 0.369695 0.778040
O O13 0.130087 0.750000 0.500000
O O14 0.177279 0.607929 0.348156
O O15 0.750000 0.998194 0.500000
#
# Coordination Sequence:
#
# PCOD9395725 Si02
#       6
#     8   8   8   8   8   8
#     4  10  19  32  51  77 110 149 192 236 276 326
#     4  10  21  38  59  82 113 151 188 234 292 354
#     4  10  21  38  58  82 110 148 190 235 294 344
#     4  10  19  32  52  79 112 151 193 231 278 334
#     4  10  19  31  52  81 114 152 188 227 279 340
#     4  10  21  37  59  86 113 146 188 237 293 350
#
# _framework density 23.417349999999999
#
# number of rings (size 3 to 8) (size 9 to 14) (size 15 to 20)
#    0.000    2.000    0.000    4.500    0.000    0.333 
#    0.000    6.667    0.000   13.500    0.000    2.333 
#    0.000    0.000    0.000    0.000    0.000    0.000 
#
# Total GULP energy -267276.590762 kJ/mol
# GULP energy per Si atom -5568.262308 kJ/mol
# Density = 2.336405 g / cm^3
# Si number density = 23.417350 Si / 1000 Ang^3
#
#
#
# Elastic Constant Matrix: (Units=GPa)
#
#
# Indices 1 2 3 4 5 6 
#
# 1 62.3126 27.2849 0.0315 0.0000 0.0000 0.0000
# 2 27.2849 124.2208 47.4241 0.0000 0.0000 0.0000
# 3 0.0315 47.4241 187.9277 0.0000 0.0000 0.0000
# 4 0.0000 0.0000 0.0000 34.0770 0.0000 0.0000
# 5 0.0000 0.0000 0.0000 0.0000 -10.8189 0.0000
# 6 0.0000 0.0000 0.0000 0.0000 0.0000 38.5374
#
#
#
# Elastic Compliance Matrix: (Units=1/GPa)
#
#
# Indices 1 2 3 4 5 6 
#
# 1 0.017958 -0.004364 0.001098 0.000000 0.000000 0.000000
# 2 -0.004364 0.009969 -0.002515 0.000000 0.000000 0.000000
# 3 0.001098 -0.002515 0.005956 0.000000 0.000000 0.000000
# 4 0.000000 0.000000 0.000000 0.029345 0.000000 0.000000
# 5 0.000000 0.000000 0.000000 0.000000 -0.092430 0.000000
# 6 0.000000 0.000000 0.000000 0.000000 0.000000 0.025949
#
#
# Mechanical properties :
#
#
# Convention : Reuss Voigt Hill
#
# Bulk Modulus (GPa) = 44.79926 58.21579 51.50752
# Shear Modulus (GPa) = 317.49903 32.34046 174.91975
#
# Velocity S-wave (km/s) = 11.65664 3.72028 8.65210
# Velocity P-wave (km/s) = 14.15422 6.58544 11.03879
#
# Compressibility (1/GPa) = 0.02232180
#
# Stress axis : x y z
#
# Youngs Moduli (GPa) = 55.68440 100.31288 167.90746
#
# Poissons Ratio (x) = 0.43774 -0.18440
# Poissons Ratio (y) = 0.24299 0.42228
# Poissons Ratio (z) = -0.06115 0.25228
#
# Static dielectric constant tensor:
#      x y z
#    x 1.933780 0.000000 0.000000 
#    y 0.000000 1.976170 0.000000 
#    z 0.000000 0.000000 1.970810 
# 
# From -- ./inp_files/6603.got.cif
#   From: 2010.05.17/outbox.cif.g08.bks.cpg/sg50_4_cif.got.tgz:6603.got - 2010.06.03 11:33:33.
