data_PCOD9395848
_publ_section_title
;
Structure prediction by ZEFSAII (Michael W. Deem and Ramdas Pophale) SiO2 
 PCOD9395848
Probable space group: P B A N
;
_chemical_formula_sum "Si O2"
_cell_formula_units_Z 48
_cell_length_a 8.558315
_cell_length_b 19.450889
_cell_length_c 15.561084
_cell_angle_alpha 90.000000
_cell_angle_beta 90.000000
_cell_angle_gamma 90.000000
_cell_volume 2590.404404
_symmetry_space_group_name_H-M "P B A N"
_symmetry_group_IT_number 50
_space_group.IT_coordinate_system_code '2'
_symmetry_cell_setting 'orthorhombic'
loop_
_space_group_symop_operation_xyz
x,y,z
1/2-x,1/2-y,z
x,1/2-y,-z
1/2-x,y,-z
-x,-y,-z
1/2+x,1/2+y,-z
-x,1/2+y,z
1/2+x,-y,z
loop_
_atom_site_type_symbol
_atom_site_label
_atom_site_fract_x
_atom_site_fract_y
_atom_site_fract_z
Si Si1 0.437658 0.169963 0.500000
Si Si2 0.940459 0.671491 1.000000
Si Si3 0.561844 0.924000 0.842200
Si Si4 0.063409 0.576395 0.347740
Si Si5 0.936591 0.423605 0.347740
Si Si6 0.561844 0.575999 0.842201
O O1 0.483806 0.250000 0.500000
O O2 0.250000 0.166114 0.500000
O O3 0.501780 0.130487 0.583235
O O4 0.501780 0.130486 0.416766
O O5 0.987601 0.629820 0.915002
O O6 0.995057 0.750000 0.000000
O O7 0.750000 0.672462 0.000000
O O8 0.987601 0.629820 0.084997
O O9 0.496807 0.906758 0.747969
O O10 0.750000 0.926004 0.838198
O O11 0.500000 1.000000 0.864482
O O12 0.250000 0.574349 0.348349
O O13 1.000000 0.500000 0.368846
O O14 0.003195 0.593242 0.252030
#
# Coordination Sequence:
#
# PCOD9395848 Si02
#       6
#     8   8   8   8   8   8
#     4  11  24  41  60  83 113 149 186 225 276 335
#     4   9  19  34  53  79 110 145 184 226 274 329
#     4  10  19  34  57  82 109 143 185 230 276 326
#     4  11  22  38  60  85 114 146 186 232 278 329
#     4  11  22  38  60  85 114 146 186 232 278 329
#     4  10  19  34  57  82 109 143 185 230 276 326
#
# _framework density 18.529924999999999
#
# number of rings (size 3 to 8) (size 9 to 14) (size 15 to 20)
#    0.000    1.667    0.000    7.500    0.000    2.667 
#    0.000    5.833    0.000    7.000    0.000    0.000 
#    0.000    0.000    0.000    0.000    0.000    0.000 
#
# Total GULP energy -268279.785458 kJ/mol
# GULP energy per Si atom -5589.162197 kJ/mol
# Density = 1.848775 g / cm^3
# Si number density = 18.529925 Si / 1000 Ang^3
#
#
#
# Elastic Constant Matrix: (Units=GPa)
#
#
# Indices 1 2 3 4 5 6 
#
# 1 104.9339 61.6597 55.2375 0.0000 0.0000 0.0000
# 2 61.6597 183.2221 154.1649 0.0000 0.0000 0.0000
# 3 55.2375 154.1649 158.4915 0.0000 0.0000 0.0000
# 4 0.0000 0.0000 0.0000 26.9736 0.0000 0.0000
# 5 0.0000 0.0000 0.0000 0.0000 -74.6569 0.0000
# 6 0.0000 0.0000 0.0000 0.0000 0.0000 28.3508
#
#
#
# Elastic Compliance Matrix: (Units=1/GPa)
#
#
# Indices 1 2 3 4 5 6 
#
# 1 0.011934 -0.002845 -0.001392 0.000000 0.000000 0.000000
# 2 -0.002845 0.030739 -0.028909 0.000000 0.000000 0.000000
# 3 -0.001392 -0.028909 0.034914 0.000000 0.000000 0.000000
# 4 0.000000 0.000000 0.000000 0.037073 0.000000 0.000000
# 5 0.000000 0.000000 0.000000 0.000000 -0.013395 0.000000
# 6 0.000000 0.000000 0.000000 0.000000 0.000000 0.035272
#
#
# Mechanical properties :
#
#
# Convention : Reuss Voigt Hill
#
# Bulk Modulus (GPa) = 88.52357 109.86350 99.19353
# Shear Modulus (GPa) = 24.20194 7.83919 16.02057
#
# Velocity S-wave (km/s) = 3.61792 2.05906 2.94356
# Velocity P-wave (km/s) = 8.08267 8.06669 8.07468
#
# Compressibility (1/GPa) = 0.01129643
#
# Stress axis : x y z
#
# Youngs Moduli (GPa) = 83.79210 32.53178 28.64181
#
# Poissons Ratio (x) = 0.09255 0.03987
# Poissons Ratio (y) = 0.23839 0.82799
# Poissons Ratio (z) = 0.11664 0.94045
#
# Static dielectric constant tensor:
#      x y z
#    x 1.627830 0.000000 0.000000 
#    y 0.000000 1.615160 0.000000 
#    z 0.000000 0.000000 1.620550 
# 
# From -- ./inp_files/24963.got.cif
#   From: 2010.05.17/outbox.cif.g08.bks.cpg/sg50_13_cif.got.tgz:24963.got - 2010.06.03 11:33:33.
