data_PCOD9395116
_publ_section_title
;
Structure prediction by ZEFSAII (Michael W. Deem and Ramdas Pophale) SiO2 
 PCOD9395116
Probable space group: P C C M
;
_chemical_formula_sum "Si O2"
_cell_formula_units_Z 34
_cell_length_a 6.578279
_cell_length_b 10.761013
_cell_length_c 23.117179
_cell_angle_alpha 90.000000
_cell_angle_beta 90.000000
_cell_angle_gamma 90.000000
_cell_volume 1636.440732
_symmetry_space_group_name_H-M "P C C M"
_symmetry_group_IT_number 49
_symmetry_cell_setting 'orthorhombic'
loop_
_space_group_symop_operation_xyz
x,y,z
-x,-y,z
x,-y,1/2-z
-x,y,1/2-z
-x,-y,-z
x,y,-z
-x,y,1/2+z
x,-y,1/2+z
loop_
_atom_site_type_symbol
_atom_site_label
_atom_site_fract_x
_atom_site_fract_y
_atom_site_fract_z
Si Si1 0.810996 0.405157 0.500000
Si Si2 0.500000 0.500000 0.096994
Si Si3 0.813062 0.106046 0.500000
Si Si4 0.210705 0.068902 0.691377
Si Si5 0.000000 0.500000 0.250000
Si Si6 0.666333 0.659843 0.698488
Si Si7 0.500000 0.000000 0.908310
O O1 0.674798 0.443756 0.444414
O O2 0.865803 0.255108 0.500000
O O3 0.000000 0.500000 0.500000
O O4 0.434823 0.614538 0.138852
O O5 0.659553 0.077384 0.553333
O O6 0.000000 0.000000 0.500000
O O7 0.210933 0.212450 0.705474
O O8 0.357178 0.071131 0.636451
O O9 0.281110 0.000000 0.750000
O O10 0.000000 0.000000 0.676640
O O11 0.844841 0.564715 0.292235
O O12 0.500000 0.655926 0.750000
#
# Coordination Sequence:
#
# PCOD9395116 Si02
#       7
#     4   4   4   8   2   8   4
#     4  11  28  46  73  99 137 183 235 301 352 418
#     4  11  25  48  68 104 133 183 236 288 354 413
#     4  11  26  48  71 103 135 181 241 291 362 423
#     4  11  24  42  66 106 140 179 225 280 346 416
#     4  12  22  40  66 104 132 184 226 270 342 410
#     4  12  24  44  70 101 144 181 231 283 348 420
#     4  11  23  44  72  96 135 183 226 288 346 417
#
# _framework density 20.776800000000001
#
# number of rings (size 3 to 8) (size 9 to 14) (size 15 to 20)
#    0.000    0.706    2.353    5.294    1.647    7.529 
#    0.000    0.000    0.000    0.000    0.000    0.000 
#    0.000    0.000    0.000    0.000    0.000    0.000 
#
# Total GULP energy -189330.911781 kJ/mol
# GULP energy per Si atom -5568.556229 kJ/mol
# Density = 2.072951 g / cm^3
# Si number density = 20.776800 Si / 1000 Ang^3
#
#
#
# Elastic Constant Matrix: (Units=GPa)
#
#
# Indices 1 2 3 4 5 6 
#
# 1 161.6950 64.6424 51.1621 0.0000 0.0000 0.0000
# 2 64.6424 126.6201 34.0434 0.0000 0.0000 0.0000
# 3 51.1621 34.0434 122.6686 0.0000 0.0000 0.0000
# 4 0.0000 0.0000 0.0000 -12.1509 0.0000 0.0000
# 5 0.0000 0.0000 0.0000 0.0000 26.7940 0.0000
# 6 0.0000 0.0000 0.0000 0.0000 0.0000 25.5622
#
#
#
# Elastic Compliance Matrix: (Units=1/GPa)
#
#
# Indices 1 2 3 4 5 6 
#
# 1 0.008429 -0.003629 -0.002508 0.000000 0.000000 0.000000
# 2 -0.003629 0.010097 -0.001289 0.000000 0.000000 0.000000
# 3 -0.002508 -0.001289 0.009556 0.000000 0.000000 0.000000
# 4 0.000000 0.000000 0.000000 -0.082298 0.000000 0.000000
# 5 0.000000 0.000000 0.000000 0.000000 0.037322 0.000000
# 6 0.000000 0.000000 0.000000 0.000000 0.000000 0.039120
#
#
# Mechanical properties :
#
#
# Convention : Reuss Voigt Hill
#
# Bulk Modulus (GPa) = 75.58640 78.96439 77.27540
# Shear Modulus (GPa) = 120.52072 25.45012 72.98542
#
# Velocity S-wave (km/s) = 7.62452 3.50370 5.93335
# Velocity P-wave (km/s) = 10.67568 7.37946 9.17678
#
# Compressibility (1/GPa) = 0.01322989
#
# Stress axis : x y z
#
# Youngs Moduli (GPa) = 118.64001 99.04286 104.64782
#
# Poissons Ratio (x) = 0.35940 0.26250
# Poissons Ratio (y) = 0.43051 0.13485
# Poissons Ratio (z) = 0.29760 0.12763
#
# Static dielectric constant tensor:
#      x y z
#    x 1.725090 0.000000 0.000000 
#    y 0.000000 1.799690 0.000000 
#    z 0.000000 0.000000 1.953290 
# 
# From -- ./inp_files/21659.got.cif
#   From: 2010.05.17/outbox.cif.g08.bks.cpg/sg49_11_cif.got.tgz:21659.got - 2010.06.03 21:02:19.
