data_PCOD9395002
_publ_section_title
;
Structure prediction by ZEFSAII (Michael W. Deem and Ramdas Pophale) SiO2 
 PCOD9395002
Probable space group: P C C M
;
_chemical_formula_sum "Si O2"
_cell_formula_units_Z 48
_cell_length_a 14.659695
_cell_length_b 20.838693
_cell_length_c 8.620845
_cell_angle_alpha 90.000000
_cell_angle_beta 90.000000
_cell_angle_gamma 90.000000
_cell_volume 2633.572315
_symmetry_space_group_name_H-M "P C C M"
_symmetry_group_IT_number 49
_symmetry_cell_setting 'orthorhombic'
loop_
_space_group_symop_operation_xyz
x,y,z
-x,-y,z
x,-y,1/2-z
-x,y,1/2-z
-x,-y,-z
x,y,-z
-x,y,1/2+z
x,-y,1/2+z
loop_
_atom_site_type_symbol
_atom_site_label
_atom_site_fract_x
_atom_site_fract_y
_atom_site_fract_z
Si Si1 0.597721 0.885939 0.685558
Si Si2 0.899594 0.428920 0.685814
Si Si3 0.786843 0.067239 0.315148
Si Si4 0.897949 0.811889 0.685845
Si Si5 0.596627 0.259002 0.685541
Si Si6 0.220538 0.685473 0.813787
O O1 0.500000 0.908706 0.750000
O O2 0.597531 0.887964 0.500000
O O3 0.684257 0.923291 0.751512
O O4 0.608567 0.812158 0.741869
O O5 0.879290 0.500000 0.750000
O O6 0.902247 0.430131 0.500000
O O7 0.827817 0.377245 0.746663
O O8 0.000000 0.411290 0.750000
O O9 0.785376 0.066270 0.500000
O O10 0.846199 0.126983 0.256206
O O11 0.823265 0.000000 0.250000
O O12 0.899708 0.818103 0.500000
O O13 0.841832 0.747476 0.724591
O O14 0.000000 0.807595 0.750000
O O15 0.500000 0.283446 0.750000
O O16 0.593774 0.253343 0.500000
O O17 0.680880 0.301656 0.740445
O O18 0.227620 0.681361 0.000000
#
# Coordination Sequence:
#
# PCOD9395002 Si02
#       6
#     8   8   8   8   8   8
#     4  11  21  37  59  86 117 151 192 239 295 353
#     4  11  22  38  60  89 126 165 206 247 297 352
#     4  12  25  42  62  84 114 151 195 243 299 359
#     4  11  24  41  62  87 117 151 195 245 296 350
#     4  11  21  35  58  88 121 157 197 242 295 348
#     4  11  22  38  62  91 124 158 199 246 295 348
#
# _framework density 18.226194
#
# number of rings (size 3 to 8) (size 9 to 14) (size 15 to 20)
#    0.000    0.833    1.667    9.000    0.000    4.000 
#    0.000    3.333    0.000    0.500    0.000    3.500 
#    0.000    0.000    0.000    0.000    0.000    0.000 
#
# Total GULP energy -268600.183753 kJ/mol
# GULP energy per Si atom -5595.837162 kJ/mol
# Density = 1.818471 g / cm^3
# Si number density = 18.226194 Si / 1000 Ang^3
#
#
#
# Elastic Constant Matrix: (Units=GPa)
#
#
# Indices 1 2 3 4 5 6 
#
# 1 134.2194 64.0222 61.5508 0.0000 0.0000 0.0000
# 2 64.0222 84.8110 48.2872 0.0000 0.0000 0.0000
# 3 61.5508 48.2872 152.3058 0.0000 0.0000 0.0000
# 4 0.0000 0.0000 0.0000 28.7767 0.0000 0.0000
# 5 0.0000 0.0000 0.0000 0.0000 45.1634 0.0000
# 6 0.0000 0.0000 0.0000 0.0000 0.0000 -14.1808
#
#
#
# Elastic Compliance Matrix: (Units=1/GPa)
#
#
# Indices 1 2 3 4 5 6 
#
# 1 0.012370 -0.007921 -0.002488 0.000000 0.000000 0.000000
# 2 -0.007921 0.019461 -0.002969 0.000000 0.000000 0.000000
# 3 -0.002488 -0.002969 0.008512 0.000000 0.000000 0.000000
# 4 0.000000 0.000000 0.000000 0.034750 0.000000 0.000000
# 5 0.000000 0.000000 0.000000 0.000000 0.022142 0.000000
# 6 0.000000 0.000000 0.000000 0.000000 0.000000 -0.070518
#
#
# Mechanical properties :
#
#
# Convention : Reuss Voigt Hill
#
# Bulk Modulus (GPa) = 73.59637 79.89520 76.74578
# Shear Modulus (GPa) = 86.20511 25.11693 55.66102
#
# Velocity S-wave (km/s) = 6.88477 3.71626 5.53221
# Velocity P-wave (km/s) = 10.18171 7.89586 9.11076
#
# Compressibility (1/GPa) = 0.01358763
#
# Stress axis : x y z
#
# Youngs Moduli (GPa) = 80.84275 51.38526 117.47850
#
# Poissons Ratio (x) = 0.40704 0.29223
# Poissons Ratio (y) = 0.64039 0.34875
# Poissons Ratio (z) = 0.20110 0.15254
#
# Static dielectric constant tensor:
#      x y z
#    x 1.618510 0.000000 0.000000 
#    y 0.000000 1.614320 0.000000 
#    z 0.000000 0.000000 1.603720 
# 
# From -- ./inp_files/3693.got.cif
#   From: 2010.05.17/outbox.cif.g08.bks.cpg/sg49_2_cif.got.tgz:3693.got - 2010.06.03 21:02:19.
