data_PCOD9395104
_publ_section_title
;
Structure prediction by ZEFSAII (Michael W. Deem and Ramdas Pophale) SiO2 
 PCOD9395104
Probable space group: P C C M
;
_chemical_formula_sum "Si O2"
_cell_formula_units_Z 52
_cell_length_a 23.947708
_cell_length_b 5.162400
_cell_length_c 21.654196
_cell_angle_alpha 90.000000
_cell_angle_beta 90.000000
_cell_angle_gamma 90.000000
_cell_volume 2677.057316
_symmetry_space_group_name_H-M "P C C M"
_symmetry_group_IT_number 49
_symmetry_cell_setting 'orthorhombic'
loop_
_space_group_symop_operation_xyz
x,y,z
-x,-y,z
x,-y,1/2-z
-x,y,1/2-z
-x,-y,-z
x,y,-z
-x,y,1/2+z
x,-y,1/2+z
loop_
_atom_site_type_symbol
_atom_site_label
_atom_site_fract_x
_atom_site_fract_y
_atom_site_fract_z
Si Si1 0.560430 0.596762 0.320390
Si Si2 0.429356 0.203971 0.000000
Si Si3 0.133321 0.997559 0.674933
Si Si4 0.500000 0.000000 0.113006
Si Si5 0.680050 0.530282 0.872896
Si Si6 0.262377 0.962698 0.823639
Si Si7 0.064360 0.497436 0.674644
Si Si8 0.354472 0.310626 0.500000
O O1 0.500000 0.500000 0.342690
O O2 0.564069 0.500000 0.250000
O O3 0.615979 0.496732 0.351818
O O4 0.548818 0.893542 0.340641
O O5 0.465149 0.163258 0.061830
O O6 0.407337 0.495734 0.000000
O O7 0.379604 0.982426 0.000000
O O8 0.197936 0.005593 0.656759
O O9 0.099895 0.744698 0.654783
O O10 0.133729 0.000000 0.750000
O O11 0.097928 0.244754 0.654763
O O12 0.701657 0.820148 0.860089
O O13 0.680199 0.404578 0.940799
O O14 0.716933 0.328499 0.834342
O O15 0.267385 0.000000 0.750000
O O16 0.063267 0.500000 0.750000
O O17 0.000000 0.500000 0.654464
#
# Coordination Sequence:
#
# PCOD9395104 Si02
#       8
#     8   4   8   4   8   8   8   4
#     4  11  25  41  60  87 120 151 183 239 299 371
#     4  11  24  42  72  86 118 142 198 236 292 377
#     4   9  17  29  46  71 107 151 197 233 273 332
#     4  11  24  41  66  92 114 156 186 238 300 365
#     4  12  25  43  63  86 116 150 198 247 300 356
#     4  11  23  40  61  85 116 160 202 240 288 356
#     4   9  15  24  42  71 108 151 195 235 273 320
#     4  12  24  45  64  94 110 148 189 258 295 351
#
# _framework density 19.424315
#
# number of rings (size 3 to 8) (size 9 to 14) (size 15 to 20)
#    0.000    1.385    1.538    4.615    2.154    6.154 
#    0.000    0.000    0.000    0.000    0.000    0.000 
#    0.000    0.000    0.000   48.462    0.000   21.538 
#
# Total GULP energy -289993.300046 kJ/mol
# GULP energy per Si atom -5576.794232 kJ/mol
# Density = 1.938010 g / cm^3
# Si number density = 19.424315 Si / 1000 Ang^3
#
#
#
# Elastic Constant Matrix: (Units=GPa)
#
#
# Indices 1 2 3 4 5 6 
#
# 1 122.5111 34.2485 3.7373 0.0000 0.0000 0.0000
# 2 34.2485 90.9370 -1.0366 0.0000 0.0000 0.0000
# 3 3.7373 -1.0366 80.2544 0.0000 0.0000 0.0000
# 4 0.0000 0.0000 0.0000 19.6534 0.0000 0.0000
# 5 0.0000 0.0000 0.0000 0.0000 3.9207 0.0000
# 6 0.0000 0.0000 0.0000 0.0000 0.0000 28.8091
#
#
#
# Elastic Compliance Matrix: (Units=1/GPa)
#
#
# Indices 1 2 3 4 5 6 
#
# 1 0.009141 -0.003448 -0.000470 0.000000 0.000000 0.000000
# 2 -0.003448 0.012299 0.000319 0.000000 0.000000 0.000000
# 3 -0.000470 0.000319 0.012486 0.000000 0.000000 0.000000
# 4 0.000000 0.000000 0.000000 0.050882 0.000000 0.000000
# 5 0.000000 0.000000 0.000000 0.000000 0.255057 0.000000
# 6 0.000000 0.000000 0.000000 0.000000 0.000000 0.034711
#
#
# Mechanical properties :
#
#
# Convention : Reuss Voigt Hill
#
# Bulk Modulus (GPa) = 37.41318 40.84454 39.12886
# Shear Modulus (GPa) = 12.79810 27.59353 20.19582
#
# Velocity S-wave (km/s) = 2.56963 3.77313 3.22796
# Velocity P-wave (km/s) = 5.30159 6.32892 5.83789
#
# Compressibility (1/GPa) = 0.02672855
#
# Stress axis : x y z
#
# Youngs Moduli (GPa) = 109.40022 81.30865 80.08714
#
# Poissons Ratio (x) = 0.28035 0.03766
# Poissons Ratio (y) = 0.37720 -0.02558
# Poissons Ratio (z) = 0.05144 -0.02597
#
# Static dielectric constant tensor:
#      x y z
#    x 1.663690 0.000000 0.000000 
#    y 0.000000 2.218450 0.000000 
#    z 0.000000 0.000000 1.692690 
# 
# From -- ./inp_files/21194.got.cif
#   From: 2010.05.17/outbox.cif.g08.bks.cpg/sg49_11_cif.got.tgz:21194.got - 2010.06.03 21:02:19.
