data_PCOD9395940
_publ_section_title
;
Structure prediction by ZEFSAII (Michael W. Deem and Ramdas Pophale) SiO2 
 PCOD9395940
Probable space group: P B A N
;
_chemical_formula_sum "Si O2"
_cell_formula_units_Z 64
_cell_length_a 25.643858
_cell_length_b 15.730553
_cell_length_c 8.161762
_cell_angle_alpha 90.000000
_cell_angle_beta 90.000000
_cell_angle_gamma 90.000000
_cell_volume 3292.390047
_symmetry_space_group_name_H-M "P B A N"
_symmetry_group_IT_number 50
_space_group.IT_coordinate_system_code '2'
_symmetry_cell_setting 'orthorhombic'
loop_
_space_group_symop_operation_xyz
x,y,z
1/2-x,1/2-y,z
x,1/2-y,-z
1/2-x,y,-z
-x,-y,-z
1/2+x,1/2+y,-z
-x,1/2+y,z
1/2+x,-y,z
loop_
_atom_site_type_symbol
_atom_site_label
_atom_site_fract_x
_atom_site_fract_y
_atom_site_fract_z
Si Si1 0.910066 0.748663 0.194004
Si Si2 0.688291 0.076200 0.195097
Si Si3 0.994670 0.474844 0.311462
Si Si4 0.639168 0.254350 0.303736
Si Si5 0.192917 0.571758 0.200835
Si Si6 0.892535 0.565644 0.195178
Si Si7 0.023957 0.775431 0.309332
Si Si8 0.108500 0.062730 0.801972
O O1 0.885979 0.661422 0.261381
O O2 0.892410 0.840112 0.263103
O O3 0.972393 0.743541 0.218902
O O4 0.899416 0.750000 0.000000
O O5 0.666280 0.168722 0.240144
O O6 0.747302 0.063734 0.255654
O O7 0.648859 0.003545 0.257343
O O8 0.690968 0.070279 0.997426
O O9 0.950815 0.533854 0.232683
O O10 0.975762 0.377494 0.296726
O O11 0.000000 0.500000 0.500000
O O12 0.052343 0.478598 0.235616
O O13 0.637102 0.250000 0.500000
O O14 0.670364 0.337575 0.253273
O O15 0.579076 0.258842 0.244957
O O16 0.154943 0.496639 0.261010
O O17 0.886855 0.568294 0.998545
O O18 0.018547 0.750000 0.500000
#
# Coordination Sequence:
#
# PCOD9395940 Si02
#       8
#     8   8   8   8   8   8   8   8
#     4   9  19  35  55  79 109 141 176 218 268 322
#     4  10  21  40  55  82 107 145 191 221 275 325
#     4  11  21  33  55  79 110 142 179 222 270 325
#     4  11  23  36  54  80 113 145 183 228 273 322
#     4  10  22  37  60  76 110 148 183 232 268 324
#     4  10  19  36  57  78 110 142 177 225 269 321
#     4  10  21  35  48  79 113 141 179 216 264 328
#     4   9  21  36  54  82 107 140 183 221 270 323
#
# _framework density 19.438765
#
# number of rings (size 3 to 8) (size 9 to 14) (size 15 to 20)
#    0.000    2.000    1.250    1.875    5.250    3.000 
#    0.000    0.625    0.000    3.750    0.000    0.000 
#    0.000    5.000    0.000    0.000    0.000    0.000 
#
# Total GULP energy -357314.516914 kJ/mol
# GULP energy per Si atom -5583.039327 kJ/mol
# Density = 1.939452 g / cm^3
# Si number density = 19.438765 Si / 1000 Ang^3
#
#
#
# Elastic Constant Matrix: (Units=GPa)
#
#
# Indices 1 2 3 4 5 6 
#
# 1 123.0450 88.9249 2.7348 0.0000 0.0000 0.0000
# 2 88.9249 160.9909 5.2663 0.0000 0.0000 0.0000
# 3 2.7348 5.2663 9.7795 0.0000 0.0000 0.0000
# 4 0.0000 0.0000 0.0000 11.8417 0.0000 0.0000
# 5 0.0000 0.0000 0.0000 0.0000 -16.7161 0.0000
# 6 0.0000 0.0000 0.0000 0.0000 0.0000 22.5416
#
#
#
# Elastic Compliance Matrix: (Units=1/GPa)
#
#
# Indices 1 2 3 4 5 6 
#
# 1 0.013528 -0.007480 0.000245 0.000000 0.000000 0.000000
# 2 -0.007480 0.010459 -0.003540 0.000000 0.000000 0.000000
# 3 0.000245 -0.003540 0.104092 0.000000 0.000000 0.000000
# 4 0.000000 0.000000 0.000000 0.084447 0.000000 0.000000
# 5 0.000000 0.000000 0.000000 0.000000 -0.059823 0.000000
# 6 0.000000 0.000000 0.000000 0.000000 0.000000 0.044362
#
#
# Mechanical properties :
#
#
# Convention : Reuss Voigt Hill
#
# Bulk Modulus (GPa) = 9.38718 54.18527 31.78622
# Shear Modulus (GPa) = 19.67528 16.65942 18.16735
#
# Velocity S-wave (km/s) = 3.18491 2.93067 3.06043
# Velocity P-wave (km/s) = 4.28538 6.27592 5.37362
#
# Compressibility (1/GPa) = 0.10652822
#
# Stress axis : x y z
#
# Youngs Moduli (GPa) = 73.92332 95.61105 9.60685
#
# Poissons Ratio (x) = 0.71518 -0.00236
# Poissons Ratio (y) = 0.55295 0.03401
# Poissons Ratio (z) = -0.01812 0.33851
#
# Static dielectric constant tensor:
#      x y z
#    x 1.668770 0.000000 0.000000 
#    y 0.000000 1.686950 0.000000 
#    z 0.000000 0.000000 1.669910 
# 
# From -- ./inp_files/16116.got.cif
#   From: 2010.05.17/outbox.cif.g08.bks.cpg/sg50_9_cif.got.tgz:16116.got - 2010.06.03 11:33:33.
