data_PCOD9395463
_publ_section_title
;
Structure prediction by ZEFSAII (Michael W. Deem and Ramdas Pophale) SiO2 
 PCOD9395463
Probable space group: P B A N
;
_chemical_formula_sum "Si O2"
_cell_formula_units_Z 40
_cell_length_a 7.577908
_cell_length_b 27.767520
_cell_length_c 8.981881
_cell_angle_alpha 90.000000
_cell_angle_beta 90.000000
_cell_angle_gamma 90.000000
_cell_volume 1889.964813
_symmetry_space_group_name_H-M "P B A N"
_symmetry_group_IT_number 50
_space_group.IT_coordinate_system_code '2'
_symmetry_cell_setting 'orthorhombic'
loop_
_space_group_symop_operation_xyz
x,y,z
1/2-x,1/2-y,z
x,1/2-y,-z
1/2-x,y,-z
-x,-y,-z
1/2+x,1/2+y,-z
-x,1/2+y,z
1/2+x,-y,z
loop_
_atom_site_type_symbol
_atom_site_label
_atom_site_fract_x
_atom_site_fract_y
_atom_site_fract_z
Si Si1 0.306814 0.662203 0.160169
Si Si2 0.495625 0.561296 0.118704
Si Si3 0.390934 0.037856 0.793316
Si Si4 0.451938 0.701643 0.436061
Si Si5 0.076959 0.611735 0.403440
O O1 0.420656 0.613994 0.138310
O O2 0.419997 0.698895 0.260237
O O3 0.143107 0.642394 0.259250
O O4 0.250000 0.680878 0.000000
O O5 0.390035 0.520088 0.208262
O O6 0.695593 0.556810 0.174607
O O7 0.495027 0.549601 0.942278
O O8 0.472538 0.065700 0.654303
O O9 0.535439 0.750000 0.500000
O O10 0.250000 0.701203 0.500000
O O11 0.525932 0.650914 0.495509
O O12 0.250000 0.597860 0.500000
#
# Coordination Sequence:
#
# PCOD9395463 Si02
#       5
#     8   8   8   8   8
#     4  10  17  31  55  81 106 137 186 223 267 332
#     4  10  20  30  53  77 107 145 185 230 269 325
#     4  10  19  33  49  77 111 149 182 224 278 326
#     4   8  17  34  53  77 109 139 169 229 287 323
#     4   9  18  33  53  75 110 147 174 230 275 330
#
# _framework density 21.164415999999999
#
# number of rings (size 3 to 8) (size 9 to 14) (size 15 to 20)
#    0.000    3.000    2.000    1.200    2.800    0.000 
#    0.000   21.000    0.000    2.400    0.000    2.800 
#    0.000    0.000    0.000    0.000    0.000    0.000 
#
# Total GULP energy -223146.101615 kJ/mol
# GULP energy per Si atom -5578.652540 kJ/mol
# Density = 2.111624 g / cm^3
# Si number density = 21.164416 Si / 1000 Ang^3
#
#
#
# Elastic Constant Matrix: (Units=GPa)
#
#
# Indices 1 2 3 4 5 6 
#
# 1 40.8286 21.8314 21.6420 0.0000 0.0000 0.0000
# 2 21.8314 98.6244 46.3453 0.0000 0.0000 0.0000
# 3 21.6420 46.3453 131.8801 0.0000 0.0000 0.0000
# 4 0.0000 0.0000 0.0000 22.2951 0.0000 0.0000
# 5 0.0000 0.0000 0.0000 0.0000 20.0596 0.0000
# 6 0.0000 0.0000 0.0000 0.0000 0.0000 -7.6161
#
#
#
# Elastic Compliance Matrix: (Units=1/GPa)
#
#
# Indices 1 2 3 4 5 6 
#
# 1 0.028720 -0.004962 -0.002969 0.000000 0.000000 0.000000
# 2 -0.004962 0.013002 -0.003755 0.000000 0.000000 0.000000
# 3 -0.002969 -0.003755 0.009389 0.000000 0.000000 0.000000
# 4 0.000000 0.000000 0.000000 0.044853 0.000000 0.000000
# 5 0.000000 0.000000 0.000000 0.000000 0.049852 0.000000
# 6 0.000000 0.000000 0.000000 0.000000 0.000000 -0.131301
#
#
# Mechanical properties :
#
#
# Convention : Reuss Voigt Hill
#
# Bulk Modulus (GPa) = 36.05029 50.10782 43.07906
# Shear Modulus (GPa) = 106.08029 19.04868 62.56448
#
# Velocity S-wave (km/s) = 7.08737 3.00331 5.44292
# Velocity P-wave (km/s) = 9.16760 5.97941 7.73945
#
# Compressibility (1/GPa) = 0.02773903
#
# Stress axis : x y z
#
# Youngs Moduli (GPa) = 34.81923 76.90873 106.50202
#
# Poissons Ratio (x) = 0.38163 0.31623
# Poissons Ratio (y) = 0.17278 0.39992
# Poissons Ratio (z) = 0.10339 0.28879
#
# Static dielectric constant tensor:
#      x y z
#    x 1.780400 0.000000 0.000000 
#    y 0.000000 1.836720 0.000000 
#    z 0.000000 0.000000 1.815990 
# 
# From -- ./inp_files/9741.got.cif
#   From: 2010.05.17/outbox.cif.g08.bks.cpg/sg50_5_cif.got.tgz:9741.got - 2010.06.03 11:33:33.
