data_PCOD9395718
_publ_section_title
;
Structure prediction by ZEFSAII (Michael W. Deem and Ramdas Pophale) SiO2 
 PCOD9395718
Probable space group: P B A N
;
_chemical_formula_sum "Si O2"
_cell_formula_units_Z 54
_cell_length_a 5.214906
_cell_length_b 15.958785
_cell_length_c 32.223748
_cell_angle_alpha 90.000000
_cell_angle_beta 90.000000
_cell_angle_gamma 90.000000
_cell_volume 2681.775143
_symmetry_space_group_name_H-M "P B A N"
_symmetry_group_IT_number 50
_space_group.IT_coordinate_system_code '2'
_symmetry_cell_setting 'orthorhombic'
loop_
_space_group_symop_operation_xyz
x,y,z
1/2-x,1/2-y,z
x,1/2-y,-z
1/2-x,y,-z
-x,-y,-z
1/2+x,1/2+y,-z
-x,1/2+y,z
1/2+x,-y,z
loop_
_atom_site_type_symbol
_atom_site_label
_atom_site_fract_x
_atom_site_fract_y
_atom_site_fract_z
Si Si1 0.250435 0.647543 0.452317
Si Si2 0.248595 0.148811 0.598359
Si Si3 0.112443 0.444886 0.228453
Si Si4 0.250000 0.250000 0.000000
Si Si5 0.905124 0.330981 0.069002
Si Si6 0.250000 0.556014 0.000000
Si Si7 0.829713 0.556623 0.863964
Si Si8 0.251966 0.442755 0.685032
O O1 0.250000 0.750000 0.453286
O O2 0.250000 0.619245 0.500000
O O3 0.505201 0.621044 0.428493
O O4 0.004144 0.621296 0.425796
O O5 0.250000 0.250000 0.599816
O O6 0.228467 0.113791 0.644566
O O7 0.320521 0.521536 0.229718
O O8 0.150836 0.407161 0.182901
O O9 0.188440 0.397718 0.270803
O O10 0.422545 0.303085 0.969600
O O11 0.750000 0.250000 0.084738
O O12 0.081585 0.375065 0.102893
O O13 0.724819 0.394372 0.043736
O O14 0.500000 0.500000 0.000000
O O15 0.546644 0.516814 0.868071
O O16 0.472959 0.514089 0.684096
#
# Coordination Sequence:
#
# PCOD9395718 Si02
#       8
#     8   8   8   2   8   4   8   8
#     4   9  17  30  49  73 102 140 186 229 273 324
#     4  10  19  31  51  78 105 136 180 234 277 318
#     4   8  16  33  57  82 108 138 179 225 270 322
#     4  12  24  44  60  80 128 162 194 214 286 354
#     4  12  25  41  61  86 121 160 186 234 291 347
#     4  12  24  40  61  87 112 148 202 242 272 318
#     4  10  22  40  64  91 113 146 196 243 276 326
#     4  10  19  33  56  80 108 145 180 219 274 344
#
# _framework density 20.135918
#
# number of rings (size 3 to 8) (size 9 to 14) (size 15 to 20)
#    0.000    1.926    1.481    2.667    2.074    1.778 
#    0.000    0.000    1.630   11.556    0.000    0.000 
#    0.000    0.000    0.000    0.000    0.000    0.000 
#
# Total GULP energy -301361.670269 kJ/mol
# GULP energy per Si atom -5580.771672 kJ/mol
# Density = 2.009009 g / cm^3
# Si number density = 20.135918 Si / 1000 Ang^3
#
#
#
# Elastic Constant Matrix: (Units=GPa)
#
#
# Indices 1 2 3 4 5 6 
#
# 1 117.3359 12.8952 33.6069 0.0000 0.0000 0.0000
# 2 12.8952 25.6363 30.1783 0.0000 0.0000 0.0000
# 3 33.6069 30.1783 192.9892 0.0000 0.0000 0.0000
# 4 0.0000 0.0000 0.0000 29.2179 0.0000 0.0000
# 5 0.0000 0.0000 0.0000 0.0000 29.3350 0.0000
# 6 0.0000 0.0000 0.0000 0.0000 0.0000 -7.2002
#
#
#
# Elastic Compliance Matrix: (Units=1/GPa)
#
#
# Indices 1 2 3 4 5 6 
#
# 1 0.009200 -0.003360 -0.001077 0.000000 0.000000 0.000000
# 2 -0.003360 0.049035 -0.007083 0.000000 0.000000 0.000000
# 3 -0.001077 -0.007083 0.006477 0.000000 0.000000 0.000000
# 4 0.000000 0.000000 0.000000 0.034226 0.000000 0.000000
# 5 0.000000 0.000000 0.000000 0.000000 0.034089 0.000000
# 6 0.000000 0.000000 0.000000 0.000000 0.000000 -0.138885
#
#
# Mechanical properties :
#
#
# Convention : Reuss Voigt Hill
#
# Bulk Modulus (GPa) = 23.99661 54.36913 39.18287
# Shear Modulus (GPa) = 160.92119 27.55594 94.23856
#
# Velocity S-wave (km/s) = 8.94936 3.70333 6.84856
# Velocity P-wave (km/s) = 10.89638 6.73394 9.05751
#
# Compressibility (1/GPa) = 0.04167255
#
# Stress axis : x y z
#
# Youngs Moduli (GPa) = 108.69318 20.39369 154.40108
#
# Poissons Ratio (x) = 0.06853 0.16624
# Poissons Ratio (y) = 0.36525 1.09355
# Poissons Ratio (z) = 0.11702 0.14444
#
# Static dielectric constant tensor:
#      x y z
#    x 1.842140 0.000000 0.000000 
#    y 0.000000 1.667550 0.000000 
#    z 0.000000 0.000000 1.734440 
# 
# From -- ./inp_files/32398.got.cif
#   From: 2010.05.17/outbox.cif.g08.bks.cpg/sg50_17_cif.got.tgz:32398.got - 2010.06.03 11:33:33.
