data_PCOD9395294
_publ_section_title
;
Structure prediction by ZEFSAII (Michael W. Deem and Ramdas Pophale) SiO2 
 PCOD9395294
Probable space group: P C C M
;
_chemical_formula_sum "Si O2"
_cell_formula_units_Z 64
_cell_length_a 15.000000
_cell_length_b 30.000000
_cell_length_c 9.000000
_cell_angle_alpha 90.000000
_cell_angle_beta 90.000000
_cell_angle_gamma 90.000000
_cell_volume 4050.000000
_symmetry_space_group_name_H-M "P C C M"
_symmetry_group_IT_number 49
_symmetry_cell_setting 'orthorhombic'
loop_
_space_group_symop_operation_xyz
x,y,z
-x,-y,z
x,-y,1/2-z
-x,y,1/2-z
-x,-y,-z
x,y,-z
-x,y,1/2+z
x,-y,1/2+z
loop_
_atom_site_type_symbol
_atom_site_label
_atom_site_fract_x
_atom_site_fract_y
_atom_site_fract_z
Si Si1 0.903622 0.871122 0.821211
Si Si2 0.401289 0.455693 0.178213
Si Si3 0.404653 0.191919 0.178864
Si Si4 0.096648 0.768691 0.679279
Si Si5 0.401404 0.355205 0.178988
Si Si6 0.277905 0.727158 0.319189
Si Si7 0.222092 0.046595 0.179464
Si Si8 0.594816 0.910936 0.178575
O O1 0.876598 0.820131 0.783533
O O2 0.836945 0.910545 0.776065
O O3 0.000000 0.878715 0.750000
O O4 0.910262 0.872683 0.000000
O O5 0.357610 0.500000 0.250000
O O6 0.500000 0.454243 0.250000
O O7 0.366387 0.405632 0.209902
O O8 0.406419 0.461227 0.000000
O O9 0.500000 0.202347 0.250000
O O10 0.333654 0.228935 0.225317
O O11 0.382431 0.140663 0.217936
O O12 0.411562 0.193804 0.000000
O O13 0.088923 0.766404 0.500000
O O14 0.175805 0.735523 0.727891
O O15 0.000000 0.760105 0.750000
O O16 0.500000 0.349473 0.250000
O O17 0.332125 0.316912 0.228348
O O18 0.411967 0.351866 0.000000
O O19 0.276655 0.726130 0.500000
O O20 0.323761 0.057744 0.224162
O O21 0.192606 0.000000 0.250000
O O22 0.218734 0.043399 0.000000
O O23 0.500000 0.922105 0.250000
O O24 0.586882 0.912790 0.000000
#
# Coordination Sequence:
#
# PCOD9395294 Si02
#       8
#     8   8   8   8   8   8   8   8
#     4   9  18  33  52  71  89 110 136 167 204 248
#     4   9  15  23  36  53  76 109 149 186 216 246
#     4   9  16  27  44  64  85 111 141 169 200 242
#     4   9  17  31  50  68  86 110 140 172 206 248
#     4   9  17  27  39  59  87 118 150 181 213 251
#     4   9  16  27  44  63  86 116 143 168 207 257
#     4  10  21  35  49  66  88 112 138 168 205 248
#     4   9  18  32  48  65  85 110 141 174 204 238
#
# _framework density 15.802469
#
# number of rings (size 3 to 8) (size 9 to 14) (size 15 to 20)
#    0.000    2.875    0.000    1.875    0.000    5.000 
#    0.000    3.750    0.000    6.000    0.000    0.000 
#    0.000    0.500    0.000    6.250    0.000    0.000 
#
# Total GULP energy -356445.934974 kJ/mol
# GULP energy per Si atom -5569.467734 kJ/mol
# Density = 1.576650 g / cm^3
# Si number density = 15.802469 Si / 1000 Ang^3
#
#
#
# Elastic Constant Matrix: (Units=GPa)
#
#
# Indices 1 2 3 4 5 6 
#
# 1 80.0615 64.2992 16.7390 0.0000 0.0000 0.0000
# 2 64.2992 94.1213 21.1626 0.0000 0.0000 0.0000
# 3 16.7390 21.1626 13.5027 0.0000 0.0000 0.0000
# 4 0.0000 0.0000 0.0000 26.6775 0.0000 0.0000
# 5 0.0000 0.0000 0.0000 0.0000 21.2289 0.0000
# 6 0.0000 0.0000 0.0000 0.0000 0.0000 18.9353
#
#
#
# Elastic Compliance Matrix: (Units=1/GPa)
#
#
# Indices 1 2 3 4 5 6 
#
# 1 0.028137 -0.017571 -0.007342 0.000000 0.000000 0.000000
# 2 -0.017571 0.027379 -0.021128 0.000000 0.000000 0.000000
# 3 -0.007342 -0.021128 0.116274 0.000000 0.000000 0.000000
# 4 0.000000 0.000000 0.000000 0.037485 0.000000 0.000000
# 5 0.000000 0.000000 0.000000 0.000000 0.047105 0.000000
# 6 0.000000 0.000000 0.000000 0.000000 0.000000 0.052811
#
#
# Mechanical properties :
#
#
# Convention : Reuss Voigt Hill
#
# Bulk Modulus (GPa) = 12.54577 43.56524 28.05550
# Shear Modulus (GPa) = 11.68652 19.06734 15.37693
#
# Velocity S-wave (km/s) = 2.72239 3.47739 3.12279
# Velocity P-wave (km/s) = 4.22354 6.61449 5.54931
#
# Compressibility (1/GPa) = 0.07970816
#
# Stress axis : x y z
#
# Youngs Moduli (GPa) = 35.54002 36.52448 8.60037
#
# Poissons Ratio (x) = 0.64178 0.06314
# Poissons Ratio (y) = 0.62448 0.18171
# Poissons Ratio (z) = 0.26093 0.77168
#
# Static dielectric constant tensor:
#      x y z
#    x 1.513070 0.000000 0.000000 
#    y 0.000000 1.559730 0.000000 
#    z 0.000000 0.000000 1.529530 
# 
# From -- ./inp_files/4533.got.cif
#   From: 2010.05.17/outbox.ucp.g08.bks.cvg/sg49_3_cif.got.tgz:4533.got - 2010.06.11 16:40:14.
