data_PCOD9395824
_publ_section_title
;
Structure prediction by ZEFSAII (Michael W. Deem and Ramdas Pophale) SiO2 
 PCOD9395824
Probable space group: P B A N
;
_chemical_formula_sum "Si O2"
_cell_formula_units_Z 36
_cell_length_a 4.882060
_cell_length_b 15.153110
_cell_length_c 22.918923
_cell_angle_alpha 90.000000
_cell_angle_beta 90.000000
_cell_angle_gamma 90.000000
_cell_volume 1695.505075
_symmetry_space_group_name_H-M "P B A N"
_symmetry_group_IT_number 50
_space_group.IT_coordinate_system_code '2'
_symmetry_cell_setting 'orthorhombic'
loop_
_space_group_symop_operation_xyz
x,y,z
1/2-x,1/2-y,z
x,1/2-y,-z
1/2-x,y,-z
-x,-y,-z
1/2+x,1/2+y,-z
-x,1/2+y,z
1/2+x,-y,z
loop_
_atom_site_type_symbol
_atom_site_label
_atom_site_fract_x
_atom_site_fract_y
_atom_site_fract_z
Si Si1 0.235679 0.437575 0.752919
Si Si2 0.277840 0.557230 0.931284
Si Si3 0.499747 0.193151 0.154810
Si Si4 0.250000 0.432284 0.500000
Si Si5 0.673228 0.938324 0.376841
O O1 0.932757 0.476920 0.760668
O O2 0.345934 0.366399 0.797636
O O3 0.243873 0.400792 0.686598
O O4 0.587590 0.528566 0.918901
O O5 0.156564 0.634516 0.892806
O O6 0.250000 0.576735 0.000000
O O7 0.750000 0.250000 0.181642
O O8 0.250000 0.250000 0.128242
O O9 0.500000 0.500000 0.500000
O O10 0.237861 0.386339 0.563321
O O11 0.361481 0.972720 0.378243
#
# Coordination Sequence:
#
# PCOD9395824 Si02
#       5
#     8   8   8   4   8
#     4  10  19  34  54  75 104 144 185 220 263 323
#     4  10  21  40  63  83 105 139 180 219 265 325
#     4  12  24  37  55  83 115 144 177 224 276 319
#     4   8  12  20  34  60  95 122 155 212 270 304
#     4   8  14  23  40  65  94 128 166 213 263 307
#
# _framework density 21.232612
#
# number of rings (size 3 to 8) (size 9 to 14) (size 15 to 20)
#    0.000    2.222    0.000    4.000    0.000    0.444 
#    0.000    1.111    0.000    0.000    0.000    0.778 
#    0.000    1.778    0.000    0.000    0.000    0.000 
#
# Total GULP energy -200771.965285 kJ/mol
# GULP energy per Si atom -5576.999036 kJ/mol
# Density = 2.118429 g / cm^3
# Si number density = 21.232612 Si / 1000 Ang^3
#
#
#
# Elastic Constant Matrix: (Units=GPa)
#
#
# Indices 1 2 3 4 5 6 
#
# 1 91.1274 -2.0421 2.8164 0.0000 0.0000 0.0000
# 2 -2.0421 33.2855 36.9327 0.0000 0.0000 0.0000
# 3 2.8164 36.9327 113.6491 0.0000 0.0000 0.0000
# 4 0.0000 0.0000 0.0000 -9.6124 0.0000 0.0000
# 5 0.0000 0.0000 0.0000 0.0000 28.9959 0.0000
# 6 0.0000 0.0000 0.0000 0.0000 0.0000 9.0018
#
#
#
# Elastic Compliance Matrix: (Units=1/GPa)
#
#
# Indices 1 2 3 4 5 6 
#
# 1 0.011032 0.001533 -0.000772 0.000000 0.000000 0.000000
# 2 0.001533 0.047198 -0.015376 0.000000 0.000000 0.000000
# 3 -0.000772 -0.015376 0.013815 0.000000 0.000000 0.000000
# 4 0.000000 0.000000 0.000000 -0.104032 0.000000 0.000000
# 5 0.000000 0.000000 0.000000 0.000000 0.034488 0.000000
# 6 0.000000 0.000000 0.000000 0.000000 0.000000 0.111088
#
#
# Mechanical properties :
#
#
# Convention : Reuss Voigt Hill
#
# Bulk Modulus (GPa) = 23.35606 34.83067 29.09337
# Shear Modulus (GPa) = 31.82895 19.03407 25.43151
#
# Velocity S-wave (km/s) = 3.87597 2.99733 3.46462
# Velocity P-wave (km/s) = 5.57269 5.33091 5.45314
#
# Compressibility (1/GPa) = 0.04281544
#
# Stress axis : x y z
#
# Youngs Moduli (GPa) = 90.64666 21.18734 72.38563
#
# Poissons Ratio (x) = -0.03248 0.05585
# Poissons Ratio (y) = -0.13895 1.11300
# Poissons Ratio (z) = 0.06994 0.32578
#
# Static dielectric constant tensor:
#      x y z
#    x 1.740910 0.000000 0.000000 
#    y 0.000000 1.757060 0.000000 
#    z 0.000000 0.000000 1.855520 
# 
# From -- ./inp_files/31343.got.cif
#   From: 2010.05.17/outbox.cif.g08.bks.cpg/sg50_16_cif.got.tgz:31343.got - 2010.06.03 11:33:33.
