data_PCOD9395622
_publ_section_title
;
Structure prediction by ZEFSAII (Michael W. Deem and Ramdas Pophale) SiO2 
 PCOD9395622
Probable space group: P B A N
;
_chemical_formula_sum "Si O2"
_cell_formula_units_Z 40
_cell_length_a 28.913762
_cell_length_b 9.228284
_cell_length_c 7.443267
_cell_angle_alpha 90.000000
_cell_angle_beta 90.000000
_cell_angle_gamma 90.000000
_cell_volume 1986.045305
_symmetry_space_group_name_H-M "P B A N"
_symmetry_group_IT_number 50
_space_group.IT_coordinate_system_code '2'
_symmetry_cell_setting 'orthorhombic'
loop_
_space_group_symop_operation_xyz
x,y,z
1/2-x,1/2-y,z
x,1/2-y,-z
1/2-x,y,-z
-x,-y,-z
1/2+x,1/2+y,-z
-x,1/2+y,z
1/2+x,-y,z
loop_
_atom_site_type_symbol
_atom_site_label
_atom_site_fract_x
_atom_site_fract_y
_atom_site_fract_z
Si Si1 0.144290 0.448748 0.181793
Si Si2 0.937141 0.382813 0.617847
Si Si3 0.637500 0.611279 0.773832
Si Si4 0.462523 0.128854 0.651195
Si Si5 0.303555 0.923065 0.484003
O O1 0.097357 0.525891 0.257313
O O2 0.149705 0.281269 0.243538
O O3 0.182864 0.538106 0.282423
O O4 0.149819 0.449813 0.968842
O O5 0.916616 0.250000 0.500000
O O6 0.956014 0.480751 0.456169
O O7 0.985358 0.345686 0.720452
O O8 0.581373 0.622682 0.779535
O O9 0.661938 0.513477 0.619072
O O10 0.453994 0.250000 0.500000
O O11 0.307953 0.750000 0.500000
O O12 0.250000 0.965170 0.500000
#
# Coordination Sequence:
#
# PCOD9395622 Si02
#       5
#     8   8   8   8   8
#     4  11  23  40  63  95 126 160 208 252 306 367
#     4  10  20  34  59  90 124 169 215 252 300 354
#     4  11  23  40  65  92 125 164 205 254 303 368
#     4  10  18  35  60  86 125 172 212 251 297 356
#     4  11  25  46  68  90 120 156 198 255 319 373
#
# _framework density 20.140528
#
# number of rings (size 3 to 8) (size 9 to 14) (size 15 to 20)
#    0.000    1.400    4.000    1.200    0.000    4.000 
#    0.000    4.000    0.000    0.000    0.000    0.000 
#    0.000    0.000    0.000    0.000    0.000    0.000 
#
# Total GULP energy -222683.774808 kJ/mol
# GULP energy per Si atom -5567.094370 kJ/mol
# Density = 2.009469 g / cm^3
# Si number density = 20.140528 Si / 1000 Ang^3
#
#
#
# Elastic Constant Matrix: (Units=GPa)
#
#
# Indices 1 2 3 4 5 6 
#
# 1 116.5033 12.8132 30.9382 0.0000 0.0000 0.0000
# 2 12.8132 92.1916 40.2332 0.0000 0.0000 0.0000
# 3 30.9382 40.2332 79.1199 0.0000 0.0000 0.0000
# 4 0.0000 0.0000 0.0000 24.4102 0.0000 0.0000
# 5 0.0000 0.0000 0.0000 0.0000 11.0944 0.0000
# 6 0.0000 0.0000 0.0000 0.0000 0.0000 18.0721
#
#
#
# Elastic Compliance Matrix: (Units=1/GPa)
#
#
# Indices 1 2 3 4 5 6 
#
# 1 0.009589 0.000390 -0.003948 0.000000 0.000000 0.000000
# 2 0.000390 0.013957 -0.007250 0.000000 0.000000 0.000000
# 3 -0.003948 -0.007250 0.017869 0.000000 0.000000 0.000000
# 4 0.000000 0.000000 0.000000 0.040967 0.000000 0.000000
# 5 0.000000 0.000000 0.000000 0.000000 0.090135 0.000000
# 6 0.000000 0.000000 0.000000 0.000000 0.000000 0.055334
#
#
# Mechanical properties :
#
#
# Convention : Reuss Voigt Hill
#
# Bulk Modulus (GPa) = 50.50498 50.64268 50.57383
# Shear Modulus (GPa) = 19.52628 24.30402 21.91515
#
# Velocity S-wave (km/s) = 3.11706 3.47756 3.30223
# Velocity P-wave (km/s) = 6.17134 6.42836 6.30116
#
# Compressibility (1/GPa) = 0.01980003
#
# Stress axis : x y z
#
# Youngs Moduli (GPa) = 104.28671 71.65098 55.96181
#
# Poissons Ratio (x) = -0.02796 0.22094
# Poissons Ratio (y) = -0.04070 0.40570
# Poissons Ratio (z) = 0.41172 0.51944
#
# Static dielectric constant tensor:
#      x y z
#    x 1.936760 0.000000 0.000000 
#    y 0.000000 1.909730 0.000000 
#    z 0.000000 0.000000 1.704080 
# 
# From -- ./inp_files/16779.got.cif
#   From: 2010.05.17/outbox.cif.g08.bks.cpg/sg50_9_cif.got.tgz:16779.got - 2010.06.03 11:33:33.
