data_PCOD9395957
_publ_section_title
;
Structure prediction by ZEFSAII (Michael W. Deem and Ramdas Pophale) SiO2 
 PCOD9395957
Probable space group: P B A N
;
_chemical_formula_sum "Si O2"
_cell_formula_units_Z 36
_cell_length_a 12.989087
_cell_length_b 8.567184
_cell_length_c 14.817077
_cell_angle_alpha 90.000000
_cell_angle_beta 90.000000
_cell_angle_gamma 90.000000
_cell_volume 1648.842822
_symmetry_space_group_name_H-M "P B A N"
_symmetry_group_IT_number 50
_space_group.IT_coordinate_system_code '2'
_symmetry_cell_setting 'orthorhombic'
loop_
_space_group_symop_operation_xyz
x,y,z
1/2-x,1/2-y,z
x,1/2-y,-z
1/2-x,y,-z
-x,-y,-z
1/2+x,1/2+y,-z
-x,1/2+y,z
1/2+x,-y,z
loop_
_atom_site_type_symbol
_atom_site_label
_atom_site_fract_x
_atom_site_fract_y
_atom_site_fract_z
Si Si1 0.456042 0.428920 0.200233
Si Si2 0.867371 0.220644 0.893104
Si Si3 0.000166 0.250000 0.500000
Si Si4 0.192836 0.913665 0.585182
Si Si5 0.903368 0.852038 0.314442
O O1 0.552014 0.338370 0.154270
O O2 0.398573 0.543278 0.131504
O O3 0.502482 0.545390 0.275383
O O4 0.390723 0.293603 0.248611
O O5 0.750000 0.250000 0.863537
O O6 0.873545 0.250000 0.000000
O O7 0.068174 0.200744 0.584754
O O8 0.919985 0.129388 0.453311
O O9 0.250000 0.750000 0.605077
O O10 0.250000 0.987658 0.500000
O O11 0.188128 0.025756 0.670193
#
# Coordination Sequence:
#
# PCOD9395957 Si02
#       5
#     8   8   4   8   8
#     4  10  23  39  67 105 130 168 221 287 336 409
#     4  10  22  46  74  98 134 176 214 270 353 428
#     4  10  19  36  61  78 118 184 220 256 327 388
#     4   9  20  36  56  83 117 177 235 273 329 390
#     4  11  20  39  61  88 130 168 221 273 335 387
#
# _framework density 21.833494000000002
#
# number of rings (size 3 to 8) (size 9 to 14) (size 15 to 20)
#    0.000    2.222    2.222    1.333    0.000    0.889 
#    4.000    7.222    0.000   12.000    0.000    0.000 
#    0.000    0.000    0.000    0.000    0.000    0.000 
#
# Total GULP energy -201082.550669 kJ/mol
# GULP energy per Si atom -5585.626407 kJ/mol
# Density = 2.178380 g / cm^3
# Si number density = 21.833494 Si / 1000 Ang^3
#
#
#
# Elastic Constant Matrix: (Units=GPa)
#
#
# Indices 1 2 3 4 5 6 
#
# 1 83.6777 57.3386 35.0336 0.0000 0.0000 0.0000
# 2 57.3386 147.8107 70.1669 0.0000 0.0000 0.0000
# 3 35.0336 70.1669 105.8889 0.0000 0.0000 0.0000
# 4 0.0000 0.0000 0.0000 45.4772 0.0000 0.0000
# 5 0.0000 0.0000 0.0000 0.0000 31.7116 0.0000
# 6 0.0000 0.0000 0.0000 0.0000 0.0000 24.1344
#
#
#
# Elastic Compliance Matrix: (Units=1/GPa)
#
#
# Indices 1 2 3 4 5 6 
#
# 1 0.016503 -0.005558 -0.001777 0.000000 0.000000 0.000000
# 2 -0.005558 0.011742 -0.005942 0.000000 0.000000 0.000000
# 3 -0.001777 -0.005942 0.013969 0.000000 0.000000 0.000000
# 4 0.000000 0.000000 0.000000 0.021989 0.000000 0.000000
# 5 0.000000 0.000000 0.000000 0.000000 0.031534 0.000000
# 6 0.000000 0.000000 0.000000 0.000000 0.000000 0.041435
#
#
# Mechanical properties :
#
#
# Convention : Reuss Voigt Hill
#
# Bulk Modulus (GPa) = 63.85605 73.60618 68.73112
# Shear Modulus (GPa) = 29.59498 31.92053 30.75776
#
# Velocity S-wave (km/s) = 3.68569 3.82776 3.75739
# Velocity P-wave (km/s) = 6.88641 7.30215 7.09732
#
# Compressibility (1/GPa) = 0.01566022
#
# Stress axis : x y z
#
# Youngs Moduli (GPa) = 60.59361 85.16174 71.58609
#
# Poissons Ratio (x) = 0.47337 0.12720
# Poissons Ratio (y) = 0.33681 0.42536
# Poissons Ratio (z) = 0.10767 0.50603
#
# Static dielectric constant tensor:
#      x y z
#    x 1.849830 0.000000 0.000000 
#    y 0.000000 1.877810 0.000000 
#    z 0.000000 0.000000 1.779170 
# 
# From -- ./inp_files/26216.got.cif
#   From: 2010.05.17/outbox.cif.g08.bks.cpg/sg50_14_cif.got.tgz:26216.got - 2010.06.03 11:33:33.
