data_PCOD9395565
_publ_section_title
;
Structure prediction by ZEFSAII (Michael W. Deem and Ramdas Pophale) SiO2 
 PCOD9395565
Probable space group: P B A N
;
_chemical_formula_sum "Si O2"
_cell_formula_units_Z 34
_cell_length_a 15.613407
_cell_length_b 8.076956
_cell_length_c 11.564054
_cell_angle_alpha 90.000000
_cell_angle_beta 90.000000
_cell_angle_gamma 90.000000
_cell_volume 1458.328989
_symmetry_space_group_name_H-M "P B A N"
_symmetry_group_IT_number 50
_space_group.IT_coordinate_system_code '2'
_symmetry_cell_setting 'orthorhombic'
loop_
_space_group_symop_operation_xyz
x,y,z
1/2-x,1/2-y,z
x,1/2-y,-z
1/2-x,y,-z
-x,-y,-z
1/2+x,1/2+y,-z
-x,1/2+y,z
1/2+x,-y,z
loop_
_atom_site_type_symbol
_atom_site_label
_atom_site_fract_x
_atom_site_fract_y
_atom_site_fract_z
Si Si1 0.610694 0.012092 0.920339
Si Si2 0.957247 0.770046 0.363210
Si Si3 0.370408 0.881384 0.310157
Si Si4 0.750000 0.250000 0.500000
Si Si5 0.082707 0.373918 0.859284
O O1 0.605745 0.815686 0.891689
O O2 0.664940 0.100584 0.820182
O O3 0.516334 0.090975 0.896161
O O4 0.631087 0.004540 0.057183
O O5 0.950366 0.750000 0.500000
O O6 0.910897 0.635026 0.279617
O O7 0.056473 0.757146 0.325555
O O8 0.919901 0.947710 0.333564
O O9 0.304585 0.859323 0.412445
#
# Coordination Sequence:
#
# PCOD9395565 Si02
#       5
#     8   8   8   2   8
#     4   8  14  27  44  73 106 139 172 232 279 343
#     4  10  18  32  55  83 112 151 196 254 297 369
#     4  10  21  34  55  77 116 156 203 245 317 368
#     4  12  24  36  50  80 118 174 198 260 324 390
#     4   8  14  24  45  75 109 130 175 226 285 323
#
# _framework density 23.314354000000002
#
# number of rings (size 3 to 8) (size 9 to 14) (size 15 to 20)
#    0.000    2.824    1.176    0.706    0.000    0.000 
#    0.000    0.588    0.000    0.000    0.000    3.294 
#    0.000    7.529   86.118    0.000    0.000   45.176 
#
# Total GULP energy -189349.552422 kJ/mol
# GULP energy per Si atom -5569.104483 kJ/mol
# Density = 2.326129 g / cm^3
# Si number density = 23.314354 Si / 1000 Ang^3
#
#
#
# Elastic Constant Matrix: (Units=GPa)
#
#
# Indices 1 2 3 4 5 6 
#
# 1 38.5586 28.5278 45.5866 0.0000 0.0000 0.0000
# 2 28.5278 92.1274 58.6142 0.0000 0.0000 0.0000
# 3 45.5866 58.6142 237.5017 0.0000 0.0000 0.0000
# 4 0.0000 0.0000 0.0000 24.7963 0.0000 0.0000
# 5 0.0000 0.0000 0.0000 0.0000 -55.4248 0.0000
# 6 0.0000 0.0000 0.0000 0.0000 0.0000 -25.3783
#
#
#
# Elastic Compliance Matrix: (Units=1/GPa)
#
#
# Indices 1 2 3 4 5 6 
#
# 1 0.038513 -0.008568 -0.005278 0.000000 0.000000 0.000000
# 2 -0.008568 0.014782 -0.002004 0.000000 0.000000 0.000000
# 3 -0.005278 -0.002004 0.005718 0.000000 0.000000 0.000000
# 4 0.000000 0.000000 0.000000 0.040329 0.000000 0.000000
# 5 0.000000 0.000000 0.000000 0.000000 -0.018042 0.000000
# 6 0.000000 0.000000 0.000000 0.000000 0.000000 -0.039404
#
#
# Mechanical properties :
#
#
# Convention : Reuss Voigt Hill
#
# Bulk Modulus (GPa) = 36.60998 70.40498 53.50748
# Shear Modulus (GPa) = 60.45932 4.49591 32.47761
#
# Velocity S-wave (km/s) = 5.09789 1.39017 3.73638
# Velocity P-wave (km/s) = 7.09847 5.73066 6.45092
#
# Compressibility (1/GPa) = 0.02731495
#
# Stress axis : x y z
#
# Youngs Moduli (GPa) = 25.96497 67.64774 174.88544
#
# Poissons Ratio (x) = 0.57961 0.92301
# Poissons Ratio (y) = 0.22247 0.35041
# Poissons Ratio (z) = 0.13704 0.13554
#
# Static dielectric constant tensor:
#      x y z
#    x 1.939650 0.000000 0.000000 
#    y 0.000000 1.872620 0.000000 
#    z 0.000000 0.000000 2.066210 
# 
# From -- ./inp_files/21571.got.cif
#   From: 2010.05.17/outbox.cif.g08.bks.cpg/sg50_11_cif.got.tgz:21571.got - 2010.06.03 11:33:33.
