data_PCOD9395763
_publ_section_title
;
Structure prediction by ZEFSAII (Michael W. Deem and Ramdas Pophale) SiO2 
 PCOD9395763
Probable space group: P B A N
;
_chemical_formula_sum "Si O2"
_cell_formula_units_Z 64
_cell_length_a 16.982990
_cell_length_b 20.492511
_cell_length_c 7.222386
_cell_angle_alpha 90.000000
_cell_angle_beta 90.000000
_cell_angle_gamma 90.000000
_cell_volume 2513.564455
_symmetry_space_group_name_H-M "P B A N"
_symmetry_group_IT_number 50
_space_group.IT_coordinate_system_code '2'
_symmetry_cell_setting 'orthorhombic'
loop_
_space_group_symop_operation_xyz
x,y,z
1/2-x,1/2-y,z
x,1/2-y,-z
1/2-x,y,-z
-x,-y,-z
1/2+x,1/2+y,-z
-x,1/2+y,z
1/2+x,-y,z
loop_
_atom_site_type_symbol
_atom_site_label
_atom_site_fract_x
_atom_site_fract_y
_atom_site_fract_z
Si Si1 0.870468 0.535023 0.236998
Si Si2 0.025210 0.357363 0.776131
Si Si3 0.900243 0.979937 0.322019
Si Si4 0.229478 0.127181 0.718149
Si Si5 0.988112 0.373899 0.351554
Si Si6 0.391041 0.232338 0.277656
Si Si7 0.318932 0.889969 0.773195
Si Si8 0.353962 0.623764 0.813684
O O1 0.945947 0.572231 0.149276
O O2 0.885117 0.519395 0.456120
O O3 0.806740 0.592519 0.207178
O O4 0.830352 0.467237 0.181368
O O5 0.084764 0.299188 0.819357
O O6 0.024999 0.368817 0.554785
O O7 0.934826 0.336468 0.796507
O O8 0.836913 0.927711 0.254110
O O9 0.984216 0.945464 0.284768
O O10 0.883873 0.050358 0.237206
O O11 0.250000 0.135247 0.500000
O O12 0.187913 0.194100 0.777315
O O13 0.894157 0.369070 0.348770
O O14 0.035080 0.317009 0.248244
O O15 0.384651 0.250000 0.500000
O O16 0.230610 0.872521 0.710890
O O17 0.332846 0.861539 0.975244
#
# Coordination Sequence:
#
# PCOD9395763 Si02
#       8
#     8   8   8   8   8   8   8   8
#     4  10  19  32  55  88 116 145 184 224 287 353
#     4  10  21  35  55  84 114 146 189 234 279 340
#     4   9  17  32  54  82 114 142 177 225 286 343
#     4   9  16  28  53  86 119 150 175 218 279 341
#     4   9  19  35  57  81 109 146 182 229 284 342
#     4   9  18  34  54  83 118 148 185 230 276 335
#     4  11  23  37  54  79 108 149 195 239 291 339
#     4  11  23  37  53  77 112 148 191 243 285 337
#
# _framework density 25.461850999999999
#
# number of rings (size 3 to 8) (size 9 to 14) (size 15 to 20)
#    0.000    2.250    1.250    3.750    0.000    7.250 
#    0.000    1.250    0.000    3.750    0.000    0.000 
#    0.000    2.250    0.000    0.000    0.000    0.000 
#
# Total GULP energy -357092.242779 kJ/mol
# GULP energy per Si atom -5579.566293 kJ/mol
# Density = 2.540390 g / cm^3
# Si number density = 25.461851 Si / 1000 Ang^3
#
#
#
# Elastic Constant Matrix: (Units=GPa)
#
#
# Indices 1 2 3 4 5 6 
#
# 1 90.6969 1.1358 -9.1093 0.0000 0.0000 0.0000
# 2 1.1358 53.6331 -6.7126 0.0000 0.0000 0.0000
# 3 -9.1093 -6.7126 47.2676 0.0000 0.0000 0.0000
# 4 0.0000 0.0000 0.0000 77.9767 0.0000 0.0000
# 5 0.0000 0.0000 0.0000 0.0000 16.0005 0.0000
# 6 0.0000 0.0000 0.0000 0.0000 0.0000 47.2196
#
#
#
# Elastic Compliance Matrix: (Units=1/GPa)
#
#
# Indices 1 2 3 4 5 6 
#
# 1 0.011243 0.000034 0.002172 0.000000 0.000000 0.000000
# 2 0.000034 0.018983 0.002702 0.000000 0.000000 0.000000
# 3 0.002172 0.002702 0.021958 0.000000 0.000000 0.000000
# 4 0.000000 0.000000 0.000000 0.012824 0.000000 0.000000
# 5 0.000000 0.000000 0.000000 0.000000 0.062498 0.000000
# 6 0.000000 0.000000 0.000000 0.000000 0.000000 0.021178
#
#
# Mechanical properties :
#
#
# Convention : Reuss Voigt Hill
#
# Bulk Modulus (GPa) = 16.12913 18.02505 17.07709
# Shear Modulus (GPa) = 31.34087 41.99160 36.66623
#
# Velocity S-wave (km/s) = 3.51222 4.06544 3.79891
# Velocity P-wave (km/s) = 4.77451 5.39737 5.09547
#
# Compressibility (1/GPa) = 0.06199962
#
# Stress axis : x y z
#
# Youngs Moduli (GPa) = 88.94092 52.67957 45.54062
#
# Poissons Ratio (x) = -0.00177 -0.09890
# Poissons Ratio (y) = -0.00300 -0.12306
# Poissons Ratio (z) = -0.19314 -0.14236
#
# Static dielectric constant tensor:
#      x y z
#    x 2.107890 0.000000 0.000000 
#    y 0.000000 2.012920 0.000000 
#    z 0.000000 0.000000 2.058770 
# 
# From -- ./inp_files/13446.got.cif
#   From: 2010.05.17/outbox.cif.g08.bks.cpg/sg50_7_cif.got.tgz:13446.got - 2010.06.03 11:33:33.
