data_PCOD9395720
_publ_section_title
;
Structure prediction by ZEFSAII (Michael W. Deem and Ramdas Pophale) SiO2 
 PCOD9395720
Probable space group: P B A N
;
_chemical_formula_sum "Si O2"
_cell_formula_units_Z 24
_cell_length_a 26.168467
_cell_length_b 5.277661
_cell_length_c 7.267978
_cell_angle_alpha 90.000000
_cell_angle_beta 90.000000
_cell_angle_gamma 90.000000
_cell_volume 1003.768069
_symmetry_space_group_name_H-M "P B A N"
_symmetry_group_IT_number 50
_space_group.IT_coordinate_system_code '2'
_symmetry_cell_setting 'orthorhombic'
loop_
_space_group_symop_operation_xyz
x,y,z
1/2-x,1/2-y,z
x,1/2-y,-z
1/2-x,y,-z
-x,-y,-z
1/2+x,1/2+y,-z
-x,1/2+y,z
1/2+x,-y,z
loop_
_atom_site_type_symbol
_atom_site_label
_atom_site_fract_x
_atom_site_fract_y
_atom_site_fract_z
Si Si1 0.631510 0.242860 0.277420
Si Si2 0.519278 0.066627 0.794382
Si Si3 0.308801 0.260382 0.723900
O O1 0.629177 0.250000 0.500000
O O2 0.575114 0.312354 0.210440
O O3 0.667872 0.472395 0.219276
O O4 0.655493 0.975025 0.218875
O O5 0.516617 0.785367 0.708662
O O6 0.500000 0.000000 0.000000
O O7 0.250000 0.250000 0.783111
O O8 0.308432 0.250000 0.500000
#
# Coordination Sequence:
#
# PCOD9395720 Si02
#       3
#     8   8   8
#     4  10  19  31  51  79 108 139 178 222 266 321
#     4  10  21  36  52  73 101 141 183 221 269 320
#     4   9  17  30  49  77 112 142 168 210 272 332
#
# _framework density 23.909904999999998
#
# number of rings (size 3 to 8) (size 9 to 14) (size 15 to 20)
#    0.000    2.333    0.000    3.000    0.000    5.333 
#    0.000    0.000    0.000    0.000    0.000   70.000 
#    0.000    0.000    0.000    0.000    0.000    0.333 
#
# Total GULP energy -134162.161375 kJ/mol
# GULP energy per Si atom -5590.090057 kJ/mol
# Density = 2.385549 g / cm^3
# Si number density = 23.909905 Si / 1000 Ang^3
#
#
#
# Elastic Constant Matrix: (Units=GPa)
#
#
# Indices 1 2 3 4 5 6 
#
# 1 181.0298 72.5448 12.3399 0.0000 0.0000 0.0000
# 2 72.5448 213.1148 11.7532 0.0000 0.0000 0.0000
# 3 12.3399 11.7532 105.8485 0.0000 0.0000 0.0000
# 4 0.0000 0.0000 0.0000 -8.1956 0.0000 0.0000
# 5 0.0000 0.0000 0.0000 0.0000 19.1937 0.0000
# 6 0.0000 0.0000 0.0000 0.0000 0.0000 52.2637
#
#
#
# Elastic Compliance Matrix: (Units=1/GPa)
#
#
# Indices 1 2 3 4 5 6 
#
# 1 0.006424 -0.002159 -0.000509 0.000000 0.000000 0.000000
# 2 -0.002159 0.005447 -0.000353 0.000000 0.000000 0.000000
# 3 -0.000509 -0.000353 0.009546 0.000000 0.000000 0.000000
# 4 0.000000 0.000000 0.000000 -0.122016 0.000000 0.000000
# 5 0.000000 0.000000 0.000000 0.000000 0.052100 0.000000
# 6 0.000000 0.000000 0.000000 0.000000 0.000000 0.019134
#
#
# Mechanical properties :
#
#
# Convention : Reuss Voigt Hill
#
# Bulk Modulus (GPa) = 65.04273 77.02989 71.03631
# Shear Modulus (GPa) = -274.73467 39.54270 -117.59599
#
# Velocity S-wave (km/s) = -10.73096 4.07113 -7.02066
# Velocity P-wave (km/s) = 11.23725 7.37465 5.99543
#
# Compressibility (1/GPa) = 0.01537451
#
# Stress axis : x y z
#
# Youngs Moduli (GPa) = 155.67433 183.60216 104.75553
#
# Poissons Ratio (x) = 0.39631 0.05334
# Poissons Ratio (y) = 0.33603 0.03699
# Poissons Ratio (z) = 0.07927 0.06484
#
# Static dielectric constant tensor:
#      x y z
#    x 1.869610 0.000000 0.000000 
#    y 0.000000 1.987250 0.000000 
#    z 0.000000 0.000000 2.057840 
# 
# From -- ./inp_files/7628.got.cif
#   From: 2010.05.17/outbox.cif.g08.bks.cpg/sg50_4_cif.got.tgz:7628.got - 2010.06.03 11:33:33.
