data_PCOD9395367
_publ_section_title
;
Structure prediction by ZEFSAII (Michael W. Deem and Ramdas Pophale) SiO2 
 PCOD9395367
Probable space group: P B A N
;
_chemical_formula_sum "Si O2"
_cell_formula_units_Z 36
_cell_length_a 13.253632
_cell_length_b 16.672133
_cell_length_c 7.893429
_cell_angle_alpha 90.000000
_cell_angle_beta 90.000000
_cell_angle_gamma 90.000000
_cell_volume 1744.181922
_symmetry_space_group_name_H-M "P B A N"
_symmetry_group_IT_number 50
_space_group.IT_coordinate_system_code '2'
_symmetry_cell_setting 'orthorhombic'
loop_
_space_group_symop_operation_xyz
x,y,z
1/2-x,1/2-y,z
x,1/2-y,-z
1/2-x,y,-z
-x,-y,-z
1/2+x,1/2+y,-z
-x,1/2+y,z
1/2+x,-y,z
loop_
_atom_site_type_symbol
_atom_site_label
_atom_site_fract_x
_atom_site_fract_y
_atom_site_fract_z
Si Si1 0.250000 0.250000 0.500000
Si Si2 0.914726 0.707916 0.256592
Si Si3 0.861045 0.125718 0.768575
Si Si4 0.406045 0.750000 0.500000
Si Si5 0.750000 0.001014 0.000000
Si Si6 0.419392 0.122201 0.090142
Si Si7 0.750000 0.250000 0.000000
O O1 0.175397 0.305551 0.611265
O O2 0.885784 0.794558 0.177260
O O3 0.019151 0.717443 0.355390
O O4 0.932139 0.645900 0.106768
O O5 0.854356 0.171437 0.586365
O O6 0.823689 0.196939 0.889092
O O7 0.976166 0.102420 0.815101
O O8 0.793766 0.053504 0.843099
O O9 0.836580 0.946387 0.083748
#
# Coordination Sequence:
#
# PCOD9395367 Si02
#       7
#     2   8   8   4   4   8   2
#     4  10  16  26  44  86 116 128 192 252 292 340
#     4   9  18  31  58  83 111 162 203 241 287 342
#     4  10  21  37  60  87 114 153 202 252 298 348
#     4   9  18  36  58  83 112 146 202 260 294 334
#     4  11  22  34  58  91 124 158 190 241 308 362
#     4  10  19  37  58  84 120 160 204 241 285 358
#     4  10  20  38  64  88 108 152 220 258 280 340
#
# _framework density 20.640048
#
# number of rings (size 3 to 8) (size 9 to 14) (size 15 to 20)
#    0.000    2.222    0.000    4.667    0.000    2.222 
#    0.000    1.111    0.000   48.000    0.000    0.000 
#    0.000    0.000    0.000    0.000    0.000    0.000 
#
# Total GULP energy -200580.666709 kJ/mol
# GULP energy per Si atom -5571.685186 kJ/mol
# Density = 2.059307 g / cm^3
# Si number density = 20.640048 Si / 1000 Ang^3
#
#
#
# Elastic Constant Matrix: (Units=GPa)
#
#
# Indices 1 2 3 4 5 6 
#
# 1 110.3218 55.3077 44.2824 0.0000 0.0000 0.0000
# 2 55.3077 107.6489 42.6092 0.0000 0.0000 0.0000
# 3 44.2824 42.6092 101.7917 0.0000 0.0000 0.0000
# 4 0.0000 0.0000 0.0000 22.5170 0.0000 0.0000
# 5 0.0000 0.0000 0.0000 0.0000 25.6624 0.0000
# 6 0.0000 0.0000 0.0000 0.0000 0.0000 -11.9574
#
#
#
# Elastic Compliance Matrix: (Units=1/GPa)
#
#
# Indices 1 2 3 4 5 6 
#
# 1 0.013157 -0.005387 -0.003469 0.000000 0.000000 0.000000
# 2 -0.005387 0.013340 -0.003240 0.000000 0.000000 0.000000
# 3 -0.003469 -0.003240 0.012689 0.000000 0.000000 0.000000
# 4 0.000000 0.000000 0.000000 0.044411 0.000000 0.000000
# 5 0.000000 0.000000 0.000000 0.000000 0.038967 0.000000
# 6 0.000000 0.000000 0.000000 0.000000 0.000000 -0.083630
#
#
# Mechanical properties :
#
#
# Convention : Reuss Voigt Hill
#
# Bulk Modulus (GPa) = 66.69311 67.12899 66.91105
# Shear Modulus (GPa) = 73.39379 19.08195 46.23787
#
# Velocity S-wave (km/s) = 5.96960 3.04388 4.73821
# Velocity P-wave (km/s) = 8.93854 6.70431 7.90080
#
# Compressibility (1/GPa) = 0.01499405
#
# Stress axis : x y z
#
# Youngs Moduli (GPa) = 76.00261 74.96380 78.80534
#
# Poissons Ratio (x) = 0.40383 0.27337
# Poissons Ratio (y) = 0.40942 0.25536
# Poissons Ratio (z) = 0.26365 0.24292
#
# Static dielectric constant tensor:
#      x y z
#    x 1.776930 0.000000 0.000000 
#    y 0.000000 1.750930 0.000000 
#    z 0.000000 0.000000 2.017530 
# 
# From -- ./inp_files/12496.got.cif
#   From: 2010.05.17/outbox.cif.g08.bks.cpg/sg50_7_cif.got.tgz:12496.got - 2010.06.03 11:33:33.
