data_PCOD9395798
_publ_section_title
;
Structure prediction by ZEFSAII (Michael W. Deem and Ramdas Pophale) SiO2 
 PCOD9395798
Probable space group: P B A N
;
_chemical_formula_sum "Si O2"
_cell_formula_units_Z 40
_cell_length_a 5.280879
_cell_length_b 14.572020
_cell_length_c 24.183002
_cell_angle_alpha 90.000000
_cell_angle_beta 90.000000
_cell_angle_gamma 90.000000
_cell_volume 1860.956352
_symmetry_space_group_name_H-M "P B A N"
_symmetry_group_IT_number 50
_space_group.IT_coordinate_system_code '2'
_symmetry_cell_setting 'orthorhombic'
loop_
_space_group_symop_operation_xyz
x,y,z
1/2-x,1/2-y,z
x,1/2-y,-z
1/2-x,y,-z
-x,-y,-z
1/2+x,1/2+y,-z
-x,1/2+y,z
1/2+x,-y,z
loop_
_atom_site_type_symbol
_atom_site_label
_atom_site_fract_x
_atom_site_fract_y
_atom_site_fract_z
Si Si1 0.496422 0.853287 0.975481
Si Si2 0.750913 0.359068 0.373603
Si Si3 0.253610 0.362544 0.563741
Si Si4 0.613557 0.438790 0.865505
Si Si5 0.590991 0.057148 0.260308
O O1 0.459980 0.861568 0.910054
O O2 0.496888 0.750000 0.000000
O O3 0.750000 0.895067 0.000000
O O4 0.250000 0.900310 0.000000
O O5 0.750000 0.250000 0.380223
O O6 0.483925 0.391842 0.398424
O O7 0.818597 0.379835 0.310296
O O8 0.985081 0.394409 0.409541
O O9 0.250000 0.250000 0.563483
O O10 0.250000 0.391912 0.500000
O O11 0.390433 0.515116 0.873032
O O12 0.612198 0.405306 0.802068
O O13 0.299064 0.025055 0.264919
#
# Coordination Sequence:
#
# PCOD9395798 Si02
#       5
#     8   8   8   8   8
#     4  10  21  37  56  82 116 143 178 224 282 332
#     4  10  19  33  55  83 108 140 191 233 277 328
#     4   9  17  30  52  80 112 144 183 233 279 326
#     4  10  21  37  59  83 108 146 193 226 263 333
#     4  10  21  38  58  79 111 149 185 226 279 328
#
# _framework density 21.494323000000001
#
# number of rings (size 3 to 8) (size 9 to 14) (size 15 to 20)
#    0.000    2.200    0.000    3.000    0.000    4.800 
#    3.600    0.000    8.800   12.000    0.000    0.000 
#    0.000    0.000    0.000    0.000    0.000    0.000 
#
# Total GULP energy -223136.768967 kJ/mol
# GULP energy per Si atom -5578.419224 kJ/mol
# Density = 2.144540 g / cm^3
# Si number density = 21.494323 Si / 1000 Ang^3
#
#
#
# Elastic Constant Matrix: (Units=GPa)
#
#
# Indices 1 2 3 4 5 6 
#
# 1 160.7652 6.8963 61.9777 0.0000 0.0000 0.0000
# 2 6.8963 61.3774 31.2340 0.0000 0.0000 0.0000
# 3 61.9777 31.2340 180.9080 0.0000 0.0000 0.0000
# 4 0.0000 0.0000 0.0000 137.5580 0.0000 0.0000
# 5 0.0000 0.0000 0.0000 0.0000 30.3454 0.0000
# 6 0.0000 0.0000 0.0000 0.0000 0.0000 -11.9078
#
#
#
# Elastic Compliance Matrix: (Units=1/GPa)
#
#
# Indices 1 2 3 4 5 6 
#
# 1 0.007180 0.000488 -0.002544 0.000000 0.000000 0.000000
# 2 0.000488 0.017895 -0.003257 0.000000 0.000000 0.000000
# 3 -0.002544 -0.003257 0.006962 0.000000 0.000000 0.000000
# 4 0.000000 0.000000 0.000000 0.007270 0.000000 0.000000
# 5 0.000000 0.000000 0.000000 0.000000 0.032954 0.000000
# 6 0.000000 0.000000 0.000000 0.000000 0.000000 -0.083979
#
#
# Mechanical properties :
#
#
# Convention : Reuss Voigt Hill
#
# Bulk Modulus (GPa) = 46.70525 67.02963 56.86744
# Shear Modulus (GPa) = 827.18436 51.39531 439.28984
#
# Velocity S-wave (km/s) = 19.63858 4.89520 14.31148
# Velocity P-wave (km/s) = 23.15185 7.95004 17.30912
#
# Compressibility (1/GPa) = 0.02141087
#
# Stress axis : x y z
#
# Youngs Moduli (GPa) = 139.27365 55.88113 143.64639
#
# Poissons Ratio (x) = -0.02726 0.36545
# Poissons Ratio (y) = -0.06795 0.46782
# Poissons Ratio (z) = 0.35432 0.18199
#
# Static dielectric constant tensor:
#      x y z
#    x 1.786020 0.000000 0.000000 
#    y 0.000000 1.781440 0.000000 
#    z 0.000000 0.000000 1.858740 
# 
# From -- ./inp_files/28065.got.cif
#   From: 2010.05.17/outbox.cif.g08.bks.cpg/sg50_15_cif.got.tgz:28065.got - 2010.06.03 11:33:33.
