data_PCOD9395128
_publ_section_title
;
Structure prediction by ZEFSAII (Michael W. Deem and Ramdas Pophale) SiO2 
 PCOD9395128
Probable space group: P C C M
;
_chemical_formula_sum "Si O2"
_cell_formula_units_Z 24
_cell_length_a 8.807868
_cell_length_b 13.912231
_cell_length_c 9.703136
_cell_angle_alpha 90.000000
_cell_angle_beta 90.000000
_cell_angle_gamma 90.000000
_cell_volume 1188.994090
_symmetry_space_group_name_H-M "P C C M"
_symmetry_group_IT_number 49
_symmetry_cell_setting 'orthorhombic'
loop_
_space_group_symop_operation_xyz
x,y,z
-x,-y,z
x,-y,1/2-z
-x,y,1/2-z
-x,-y,-z
x,y,-z
-x,y,1/2+z
x,-y,1/2+z
loop_
_atom_site_type_symbol
_atom_site_label
_atom_site_fract_x
_atom_site_fract_y
_atom_site_fract_z
Si Si1 0.348009 0.360624 0.000000
Si Si2 0.343976 0.089844 0.336359
Si Si3 0.301392 0.588534 0.000000
Si Si4 0.179490 0.284221 0.266672
O O1 0.310208 0.474091 0.000000
O O2 0.531014 0.362517 0.000000
O O3 0.273965 0.308757 0.130088
O O4 0.500000 0.108018 0.250000
O O5 0.367944 0.069228 0.500000
O O6 0.243047 0.184604 0.325947
O O7 0.275326 0.000000 0.250000
O O8 0.215224 0.628384 0.131591
O O9 0.000000 0.276806 0.250000
#
# Coordination Sequence:
#
# PCOD9395128 Si02
#       4
#     4   8   4   8
#     4  11  25  41  74  91 134 177 227 278 318 393
#     4  11  24  44  71 101 133 173 225 273 327 396
#     4  11  23  47  64 101 126 179 233 270 326 387
#     4  12  26  42  65 101 139 174 215 274 339 395
#
# _framework density 20.185130999999998
#
# number of rings (size 3 to 8) (size 9 to 14) (size 15 to 20)
#    0.000    0.667    1.667    7.000    4.667    7.333 
#    0.000    1.667    0.000    0.000    0.000    0.000 
#    0.000    0.000    0.000    0.000    0.000    0.000 
#
# Total GULP energy -134158.731271 kJ/mol
# GULP energy per Si atom -5589.947136 kJ/mol
# Density = 2.013919 g / cm^3
# Si number density = 20.185131 Si / 1000 Ang^3
#
#
#
# Elastic Constant Matrix: (Units=GPa)
#
#
# Indices 1 2 3 4 5 6 
#
# 1 87.0959 49.6782 27.3306 0.0000 0.0000 0.0000
# 2 49.6782 91.2445 34.1068 0.0000 0.0000 0.0000
# 3 27.3306 34.1068 168.6702 0.0000 0.0000 0.0000
# 4 0.0000 0.0000 0.0000 44.5647 0.0000 0.0000
# 5 0.0000 0.0000 0.0000 0.0000 26.7153 0.0000
# 6 0.0000 0.0000 0.0000 0.0000 0.0000 -3.1746
#
#
#
# Elastic Compliance Matrix: (Units=1/GPa)
#
#
# Indices 1 2 3 4 5 6 
#
# 1 0.016791 -0.008789 -0.000943 0.000000 0.000000 0.000000
# 2 -0.008789 0.016456 -0.001903 0.000000 0.000000 0.000000
# 3 -0.000943 -0.001903 0.006467 0.000000 0.000000 0.000000
# 4 0.000000 0.000000 0.000000 0.022439 0.000000 0.000000
# 5 0.000000 0.000000 0.000000 0.000000 0.037432 0.000000
# 6 0.000000 0.000000 0.000000 0.000000 0.000000 -0.314995
#
#
# Mechanical properties :
#
#
# Convention : Reuss Voigt Hill
#
# Bulk Modulus (GPa) = 60.82161 63.24908 62.03534
# Shear Modulus (GPa) = -26.78695 29.34741 1.28023
#
# Velocity S-wave (km/s) = -3.64684 3.81716 0.79726
# Velocity P-wave (km/s) = 3.53054 7.12952 5.62560
#
# Compressibility (1/GPa) = 0.01644153
#
# Stress axis : x y z
#
# Youngs Moduli (GPa) = 59.55626 60.76691 154.64297
#
# Poissons Ratio (x) = 0.53409 0.14590
# Poissons Ratio (y) = 0.52345 0.29436
# Poissons Ratio (z) = 0.05619 0.11567
#
# Static dielectric constant tensor:
#      x y z
#    x 1.687920 0.000000 0.000000 
#    y 0.000000 1.700290 0.000000 
#    z 0.000000 0.000000 1.677290 
# 
# From -- ./inp_files/1135.got.cif
#   From: 2010.05.17/outbox.cif.g08.bks.cpg/sg49_1_cif.got.tgz:1135.got - 2010.06.03 21:02:19.
