data_PCOD9395335
_publ_section_title
;
Structure prediction by ZEFSAII (Michael W. Deem and Ramdas Pophale) SiO2 
 PCOD9395335
Probable space group: P B A N
;
_chemical_formula_sum "Si O2"
_cell_formula_units_Z 56
_cell_length_a 24.567055
_cell_length_b 5.246955
_cell_length_c 25.203364
_cell_angle_alpha 90.000000
_cell_angle_beta 90.000000
_cell_angle_gamma 90.000000
_cell_volume 3248.769875
_symmetry_space_group_name_H-M "P B A N"
_symmetry_group_IT_number 50
_space_group.IT_coordinate_system_code '2'
_symmetry_cell_setting 'orthorhombic'
loop_
_space_group_symop_operation_xyz
x,y,z
1/2-x,1/2-y,z
x,1/2-y,-z
1/2-x,y,-z
-x,-y,-z
1/2+x,1/2+y,-z
-x,1/2+y,z
1/2+x,-y,z
loop_
_atom_site_type_symbol
_atom_site_label
_atom_site_fract_x
_atom_site_fract_y
_atom_site_fract_z
Si Si1 0.190222 0.671636 0.856110
Si Si2 0.123031 0.190205 0.847260
Si Si3 0.965951 0.588716 0.641603
Si Si4 0.035408 0.247005 0.936712
Si Si5 0.311146 0.506162 0.023336
Si Si6 0.463693 0.025487 0.240196
Si Si7 0.562899 0.998669 0.523672
O O1 0.250000 0.750000 0.835550
O O2 0.156933 0.440787 0.828555
O O3 0.196121 0.547321 0.914655
O O4 0.159023 0.940765 0.860246
O O5 0.087984 0.265425 0.899258
O O6 0.081420 0.095061 0.802472
O O7 0.941001 0.544143 0.699539
O O8 0.936688 0.520225 0.586868
O O9 0.015667 0.383608 0.639912
O O10 0.996142 0.485151 0.924218
O O11 0.045395 0.250000 0.000000
O O12 0.341993 0.750000 0.000000
O O13 0.250000 0.506828 0.000000
O O14 0.335403 0.250000 0.000000
O O15 0.510079 0.245056 0.234357
O O16 0.589484 0.750000 0.500000
O O17 0.588387 0.250000 0.500000
O O18 0.500000 0.000000 0.500000
#
# Coordination Sequence:
#
# PCOD9395335 Si02
#       7
#     8   8   8   8   8   8   8
#     4  12  25  40  55  80 106 132 157 203 258 327
#     4  12  24  38  59  78 101 132 176 205 262 314
#     4  10  16  25  40  64  91 130 168 219 246 281
#     4  10  21  39  58  75 100 125 160 207 251 295
#     4  10  19  34  55  71  99 125 140 175 241 304
#     4  10  21  36  55  75 101 134 183 229 260 282
#     4  10  14  20  34  56  93 125 169 204 239 286
#
# _framework density 17.237293999999999
#
# number of rings (size 3 to 8) (size 9 to 14) (size 15 to 20)
#    0.000    1.429    4.286    3.857    2.000    1.714 
#    0.000    0.000    0.000    0.000    0.000    0.000 
#    0.000    0.000    0.000    0.000    0.000   10.714 
#
# Total GULP energy -312196.192656 kJ/mol
# GULP energy per Si atom -5574.932012 kJ/mol
# Density = 1.719806 g / cm^3
# Si number density = 17.237294 Si / 1000 Ang^3
#
#
#
# Elastic Constant Matrix: (Units=GPa)
#
#
# Indices 1 2 3 4 5 6 
#
# 1 55.1160 14.7742 18.4595 0.0000 0.0000 0.0000
# 2 14.7742 115.0694 -3.4301 0.0000 0.0000 0.0000
# 3 18.4595 -3.4301 77.6023 0.0000 0.0000 0.0000
# 4 0.0000 0.0000 0.0000 21.5386 0.0000 0.0000
# 5 0.0000 0.0000 0.0000 0.0000 3.4582 0.0000
# 6 0.0000 0.0000 0.0000 0.0000 0.0000 16.7304
#
#
#
# Elastic Compliance Matrix: (Units=1/GPa)
#
#
# Indices 1 2 3 4 5 6 
#
# 1 0.020572 -0.002791 -0.005017 0.000000 0.000000 0.000000
# 2 -0.002791 0.009080 0.001065 0.000000 0.000000 0.000000
# 3 -0.005017 0.001065 0.014127 0.000000 0.000000 0.000000
# 4 0.000000 0.000000 0.000000 0.046428 0.000000 0.000000
# 5 0.000000 0.000000 0.000000 0.000000 0.289168 0.000000
# 6 0.000000 0.000000 0.000000 0.000000 0.000000 0.059771
#
#
# Mechanical properties :
#
#
# Convention : Reuss Voigt Hill
#
# Bulk Modulus (GPa) = 33.00972 34.15499 33.58235
# Shear Modulus (GPa) = 10.80544 22.87770 16.84157
#
# Velocity S-wave (km/s) = 2.50644 3.64706 3.12916
# Velocity P-wave (km/s) = 5.25053 6.13126 5.70791
#
# Compressibility (1/GPa) = 0.03029411
#
# Stress axis : x y z
#
# Youngs Moduli (GPa) = 48.60994 110.12617 70.78799
#
# Poissons Ratio (x) = 0.30735 0.35513
# Poissons Ratio (y) = 0.13566 -0.07541
# Poissons Ratio (z) = 0.24387 -0.11731
#
# Static dielectric constant tensor:
#      x y z
#    x 1.565150 0.000000 0.000000 
#    y 0.000000 1.645620 0.000000 
#    z 0.000000 0.000000 1.608190 
# 
# From -- ./inp_files/31870.got.cif
#   From: 2010.05.17/outbox.cif.g08.bks.cpg/sg50_16_cif.got.tgz:31870.got - 2010.06.03 11:33:33.
