data_PCOD9395563
_publ_section_title
;
Structure prediction by ZEFSAII (Michael W. Deem and Ramdas Pophale) SiO2 
 PCOD9395563
Probable space group: P B A N
;
_chemical_formula_sum "Si O2"
_cell_formula_units_Z 48
_cell_length_a 16.198125
_cell_length_b 18.117071
_cell_length_c 9.421748
_cell_angle_alpha 90.000000
_cell_angle_beta 90.000000
_cell_angle_gamma 90.000000
_cell_volume 2764.930483
_symmetry_space_group_name_H-M "P B A N"
_symmetry_group_IT_number 50
_space_group.IT_coordinate_system_code '2'
_symmetry_cell_setting 'orthorhombic'
loop_
_space_group_symop_operation_xyz
x,y,z
1/2-x,1/2-y,z
x,1/2-y,-z
1/2-x,y,-z
-x,-y,-z
1/2+x,1/2+y,-z
-x,1/2+y,z
1/2+x,-y,z
loop_
_atom_site_type_symbol
_atom_site_label
_atom_site_fract_x
_atom_site_fract_y
_atom_site_fract_z
Si Si1 0.996379 0.950641 0.200176
Si Si2 0.845281 0.451554 0.755469
Si Si3 0.250000 0.614224 0.500000
Si Si4 0.580214 0.902100 0.081859
Si Si5 0.250000 0.461982 0.000000
Si Si6 0.534597 0.179073 0.714105
Si Si7 0.078345 0.663627 0.604323
O O1 0.053321 0.906778 0.306383
O O2 0.917486 0.989132 0.273291
O O3 0.961802 0.898546 0.073964
O O4 0.048235 0.018222 0.136349
O O5 0.786660 0.436261 0.623807
O O6 0.893319 0.373650 0.778643
O O7 0.794658 0.484823 0.886277
O O8 0.174289 0.661882 0.560855
O O9 0.678150 0.910898 0.066087
O O10 0.544510 0.841632 0.190737
O O11 0.529389 0.159568 0.545837
O O12 0.557686 0.264739 0.698717
#
# Coordination Sequence:
#
# PCOD9395563 Si02
#       7
#     8   8   4   8   4   8   8
#     4   9  18  33  52  72 102 138 174 209 254 312
#     4   9  19  32  50  77 105 136 171 214 261 303
#     4  10  20  31  50  78 106 135 172 212 256 305
#     4   9  18  33  52  76 100 132 176 216 255 303
#     4  10  18  32  54  76 102 130 170 230 266 288
#     4   9  20  34  50  74 105 138 173 205 254 318
#     4  10  20  34  52  75 106 141 171 209 253 308
#
# _framework density 17.360292000000001
#
# number of rings (size 3 to 8) (size 9 to 14) (size 15 to 20)
#    0.000    2.667    0.000    2.000    0.000   13.333 
#    0.000    0.000    0.000   14.000    0.000    9.333 
#    0.000    0.000    0.000    0.000    0.000    0.000 
#
# Total GULP energy -267322.042097 kJ/mol
# GULP energy per Si atom -5569.209210 kJ/mol
# Density = 1.732078 g / cm^3
# Si number density = 17.360292 Si / 1000 Ang^3
#
#
#
# Elastic Constant Matrix: (Units=GPa)
#
#
# Indices 1 2 3 4 5 6 
#
# 1 113.6140 44.2174 47.3646 0.0000 0.0000 0.0000
# 2 44.2174 62.0387 40.4069 0.0000 0.0000 0.0000
# 3 47.3646 40.4069 46.2733 0.0000 0.0000 0.0000
# 4 0.0000 0.0000 0.0000 28.9294 0.0000 0.0000
# 5 0.0000 0.0000 0.0000 0.0000 36.9944 0.0000
# 6 0.0000 0.0000 0.0000 0.0000 0.0000 4.2347
#
#
#
# Elastic Compliance Matrix: (Units=1/GPa)
#
#
# Indices 1 2 3 4 5 6 
#
# 1 0.015426 -0.001648 -0.014351 0.000000 0.000000 0.000000
# 2 -0.001648 0.037553 -0.031106 0.000000 0.000000 0.000000
# 3 -0.014351 -0.031106 0.063462 0.000000 0.000000 0.000000
# 4 0.000000 0.000000 0.000000 0.034567 0.000000 0.000000
# 5 0.000000 0.000000 0.000000 0.000000 0.027031 0.000000
# 6 0.000000 0.000000 0.000000 0.000000 0.000000 0.236146
#
#
# Mechanical properties :
#
#
# Convention : Reuss Voigt Hill
#
# Bulk Modulus (GPa) = 44.97875 53.98932 49.48403
# Shear Modulus (GPa) = 9.69362 20.02750 14.86056
#
# Velocity S-wave (km/s) = 2.36557 3.40021 2.92894
# Velocity P-wave (km/s) = 5.78156 6.82511 6.32489
#
# Compressibility (1/GPa) = 0.02223272
#
# Stress axis : x y z
#
# Youngs Moduli (GPa) = 64.82715 26.62915 15.75745
#
# Poissons Ratio (x) = 0.04387 0.22613
# Poissons Ratio (y) = 0.10680 0.49014
# Poissons Ratio (z) = 0.93032 0.82832
#
# Static dielectric constant tensor:
#      x y z
#    x 1.603560 0.000000 0.000000 
#    y 0.000000 1.581250 0.000000 
#    z 0.000000 0.000000 1.614950 
# 
# From -- ./inp_files/13035.got.cif
#   From: 2010.05.17/outbox.cif.g08.bks.cpg/sg50_7_cif.got.tgz:13035.got - 2010.06.03 11:33:33.
