data_PCOD9395648
_publ_section_title
;
Structure prediction by ZEFSAII (Michael W. Deem and Ramdas Pophale) SiO2 
 PCOD9395648
Probable space group: P B A N
;
_chemical_formula_sum "Si O2"
_cell_formula_units_Z 56
_cell_length_a 22.284205
_cell_length_b 7.930991
_cell_length_c 14.912416
_cell_angle_alpha 90.000000
_cell_angle_beta 90.000000
_cell_angle_gamma 90.000000
_cell_volume 2635.558209
_symmetry_space_group_name_H-M "P B A N"
_symmetry_group_IT_number 50
_space_group.IT_coordinate_system_code '2'
_symmetry_cell_setting 'orthorhombic'
loop_
_space_group_symop_operation_xyz
x,y,z
1/2-x,1/2-y,z
x,1/2-y,-z
1/2-x,y,-z
-x,-y,-z
1/2+x,1/2+y,-z
-x,1/2+y,z
1/2+x,-y,z
loop_
_atom_site_type_symbol
_atom_site_label
_atom_site_fract_x
_atom_site_fract_y
_atom_site_fract_z
Si Si1 0.073725 0.695542 0.238447
Si Si2 0.801934 0.374074 0.228131
Si Si3 0.814645 0.049303 0.969504
Si Si4 0.513896 0.595594 0.328817
Si Si5 0.062137 0.564858 0.041088
Si Si6 0.281851 0.067343 0.589526
Si Si7 0.076328 0.378061 0.579806
O O1 0.139871 0.764641 0.251676
O O2 0.028938 0.854177 0.246023
O O3 0.064552 0.593854 0.147271
O O4 0.054638 0.567650 0.316369
O O5 0.750000 0.250000 0.196778
O O6 0.819139 0.472756 0.137850
O O7 0.778360 0.470383 0.315975
O O8 0.813832 0.250000 0.000000
O O9 0.750000 0.980997 0.000000
O O10 0.875545 0.975908 0.012419
O O11 0.465252 0.542003 0.405525
O O12 0.557995 0.754693 0.338743
O O13 0.066696 0.750000 0.000000
O O14 0.000000 0.500000 0.000000
O O15 0.250000 0.250000 0.599751
O O16 0.250000 0.991646 0.500000
O O17 0.353425 0.083470 0.573290
O O18 0.060659 0.250000 0.500000
#
# Coordination Sequence:
#
# PCOD9395648 Si02
#       7
#     8   8   8   8   8   8   8
#     4  11  21  39  58  97 131 166 218 270 325 393
#     4  12  23  39  69  94 124 172 227 271 321 393
#     4  10  18  38  62  91 121 170 213 258 321 388
#     4  10  24  37  63  93 127 167 216 266 334 402
#     4  11  21  35  62  91 129 172 209 265 324 385
#     4  11  25  45  65  90 130 174 214 277 345 397
#     4  11  21  43  64  88 123 165 213 268 337 401
#
# _framework density 21.247869999999999
#
# number of rings (size 3 to 8) (size 9 to 14) (size 15 to 20)
#    0.000    1.143    7.143    1.286    2.000    0.286 
#    0.000    0.000    0.000    0.000    0.000    0.000 
#    0.000    0.000    0.000    0.000    0.000    0.000 
#
# Total GULP energy -312025.564056 kJ/mol
# GULP energy per Si atom -5571.885072 kJ/mol
# Density = 2.119951 g / cm^3
# Si number density = 21.247870 Si / 1000 Ang^3
#
#
#
# Elastic Constant Matrix: (Units=GPa)
#
#
# Indices 1 2 3 4 5 6 
#
# 1 179.8621 23.9949 37.9510 0.0000 0.0000 0.0000
# 2 23.9949 31.2403 5.6119 0.0000 0.0000 0.0000
# 3 37.9510 5.6119 101.6795 0.0000 0.0000 0.0000
# 4 0.0000 0.0000 0.0000 15.6256 0.0000 0.0000
# 5 0.0000 0.0000 0.0000 0.0000 47.5869 0.0000
# 6 0.0000 0.0000 0.0000 0.0000 0.0000 19.2032
#
#
#
# Elastic Compliance Matrix: (Units=1/GPa)
#
#
# Indices 1 2 3 4 5 6 
#
# 1 0.006658 -0.004714 -0.002225 0.000000 0.000000 0.000000
# 2 -0.004714 0.035668 -0.000209 0.000000 0.000000 0.000000
# 3 -0.002225 -0.000209 0.010677 0.000000 0.000000 0.000000
# 4 0.000000 0.000000 0.000000 0.063998 0.000000 0.000000
# 5 0.000000 0.000000 0.000000 0.000000 0.021014 0.000000
# 6 0.000000 0.000000 0.000000 0.000000 0.000000 0.052075
#
#
# Mechanical properties :
#
#
# Convention : Reuss Voigt Hill
#
# Bulk Modulus (GPa) = 25.83520 49.76640 37.80080
# Shear Modulus (GPa) = 23.01084 32.83141 27.92112
#
# Velocity S-wave (km/s) = 3.29442 3.93512 3.62894
# Velocity P-wave (km/s) = 5.16298 6.64226 5.94878
#
# Compressibility (1/GPa) = 0.03870688
#
# Stress axis : x y z
#
# Youngs Moduli (GPa) = 150.19071 28.03599 93.66108
#
# Poissons Ratio (x) = 0.13217 0.20839
# Poissons Ratio (y) = 0.70805 0.01958
# Poissons Ratio (z) = 0.33416 0.00586
#
# Static dielectric constant tensor:
#      x y z
#    x 1.787620 0.000000 0.000000 
#    y 0.000000 1.826150 0.000000 
#    z 0.000000 0.000000 2.117060 
# 
# From -- ./inp_files/27254.got.cif
#   From: 2010.05.17/outbox.cif.g08.bks.cpg/sg50_14_cif.got.tgz:27254.got - 2010.06.03 11:33:33.
