data_PCOD9395993
_publ_section_title
;
Structure prediction by ZEFSAII (Michael W. Deem and Ramdas Pophale) SiO2 
 PCOD9395993
Probable space group: P B A N
;
_chemical_formula_sum "Si O2"
_cell_formula_units_Z 48
_cell_length_a 8.934980
_cell_length_b 29.110287
_cell_length_c 9.040881
_cell_angle_alpha 90.000000
_cell_angle_beta 90.000000
_cell_angle_gamma 90.000000
_cell_volume 2351.531630
_symmetry_space_group_name_H-M "P B A N"
_symmetry_group_IT_number 50
_space_group.IT_coordinate_system_code '2'
_symmetry_cell_setting 'orthorhombic'
loop_
_space_group_symop_operation_xyz
x,y,z
1/2-x,1/2-y,z
x,1/2-y,-z
1/2-x,y,-z
-x,-y,-z
1/2+x,1/2+y,-z
-x,1/2+y,z
1/2+x,-y,z
loop_
_atom_site_type_symbol
_atom_site_label
_atom_site_fract_x
_atom_site_fract_y
_atom_site_fract_z
Si Si1 0.071821 0.388799 0.861721
Si Si2 0.915215 0.109991 0.431908
Si Si3 0.594773 0.645339 0.180148
Si Si4 0.922921 0.799475 0.448484
Si Si5 0.984542 0.946631 0.325404
Si Si6 0.798213 0.512620 0.157239
O O1 0.229658 0.368580 0.799775
O O2 0.108136 0.442252 0.894708
O O3 0.939278 0.389673 0.743715
O O4 0.051865 0.358944 0.009210
O O5 0.750000 0.106583 0.500000
O O6 0.004617 0.066005 0.501226
O O7 0.988721 0.158194 0.480379
O O8 0.569848 0.691494 0.272190
O O9 0.504558 0.604108 0.255901
O O10 0.979686 0.750000 0.500000
O O11 0.750000 0.802655 0.500000
O O12 0.835097 0.968696 0.259729
O O13 0.113037 0.977968 0.259685
O O14 0.750000 0.491011 0.000000
#
# Coordination Sequence:
#
# PCOD9395993 Si02
#       6
#     8   8   8   8   8   8
#     4  10  19  37  60  87 129 169 214 264 326 383
#     4  11  25  41  59  90 129 172 215 273 338 390
#     4   9  18  37  63  91 121 166 206 267 327 382
#     4  10  20  39  69  97 124 156 208 261 328 409
#     4  10  23  37  56  85 122 170 218 271 322 383
#     4  11  21  36  60  88 123 168 224 282 323 380
#
# _framework density 20.412227999999999
#
# number of rings (size 3 to 8) (size 9 to 14) (size 15 to 20)
#    0.000    1.833    5.000    0.500    2.333    1.000 
#    0.000    3.333    0.000    0.000    0.000    4.667 
#    0.000    0.000    0.000    0.000    0.000    0.000 
#
# Total GULP energy -267781.565907 kJ/mol
# GULP energy per Si atom -5578.782623 kJ/mol
# Density = 2.036577 g / cm^3
# Si number density = 20.412228 Si / 1000 Ang^3
#
#
#
# Elastic Constant Matrix: (Units=GPa)
#
#
# Indices 1 2 3 4 5 6 
#
# 1 63.3938 26.4449 39.8395 0.0000 0.0000 0.0000
# 2 26.4449 100.9389 51.4618 0.0000 0.0000 0.0000
# 3 39.8395 51.4618 128.1744 0.0000 0.0000 0.0000
# 4 0.0000 0.0000 0.0000 32.2599 0.0000 0.0000
# 5 0.0000 0.0000 0.0000 0.0000 26.6421 0.0000
# 6 0.0000 0.0000 0.0000 0.0000 0.0000 8.1703
#
#
#
# Elastic Compliance Matrix: (Units=1/GPa)
#
#
# Indices 1 2 3 4 5 6 
#
# 1 0.020141 -0.002622 -0.005208 0.000000 0.000000 0.000000
# 2 -0.002622 0.012798 -0.004324 0.000000 0.000000 0.000000
# 3 -0.005208 -0.004324 0.011156 0.000000 0.000000 0.000000
# 4 0.000000 0.000000 0.000000 0.030998 0.000000 0.000000
# 5 0.000000 0.000000 0.000000 0.000000 0.037535 0.000000
# 6 0.000000 0.000000 0.000000 0.000000 0.000000 0.122395
#
#
# Mechanical properties :
#
#
# Convention : Reuss Voigt Hill
#
# Bulk Modulus (GPa) = 50.53151 58.66661 54.59906
# Shear Modulus (GPa) = 18.80229 25.06519 21.93374
#
# Velocity S-wave (km/s) = 3.03830 3.50801 3.28157
# Velocity P-wave (km/s) = 6.09242 6.72395 6.41596
#
# Compressibility (1/GPa) = 0.01978963
#
# Stress axis : x y z
#
# Youngs Moduli (GPa) = 49.65064 78.13658 89.63464
#
# Poissons Ratio (x) = 0.20485 0.46678
# Poissons Ratio (y) = 0.13017 0.38754
# Poissons Ratio (z) = 0.25856 0.33783
#
# Static dielectric constant tensor:
#      x y z
#    x 1.768730 0.000000 0.000000 
#    y 0.000000 1.701790 0.000000 
#    z 0.000000 0.000000 1.826920 
# 
# From -- ./inp_files/10126.got.cif
#   From: 2010.05.17/outbox.cif.g08.bks.cpg/sg50_6_cif.got.tgz:10126.got - 2010.06.03 11:33:33.
