data_PCOD9395233
_publ_section_title
;
Structure prediction by ZEFSAII (Michael W. Deem and Ramdas Pophale) SiO2 
 PCOD9395233
Probable space group: P C C M
;
_chemical_formula_sum "Si O2"
_cell_formula_units_Z 64
_cell_length_a 21.000000
_cell_length_b 21.000000
_cell_length_c 9.000000
_cell_angle_alpha 90.000000
_cell_angle_beta 90.000000
_cell_angle_gamma 90.000000
_cell_volume 3969.000000
_symmetry_space_group_name_H-M "P C C M"
_symmetry_group_IT_number 49
_symmetry_cell_setting 'orthorhombic'
loop_
_space_group_symop_operation_xyz
x,y,z
-x,-y,z
x,-y,1/2-z
-x,y,1/2-z
-x,-y,-z
x,y,-z
-x,y,1/2+z
x,-y,1/2+z
loop_
_atom_site_type_symbol
_atom_site_label
_atom_site_fract_x
_atom_site_fract_y
_atom_site_fract_z
Si Si1 0.243009 0.385746 0.677073
Si Si2 0.068716 0.289520 0.318821
Si Si3 0.430100 0.070392 0.180587
Si Si4 0.432190 0.706032 0.820747
Si Si5 0.103522 0.434619 0.675310
Si Si6 0.382431 0.566099 0.822296
Si Si7 0.337469 0.191014 0.178880
Si Si8 0.204327 0.746489 0.678480
O O1 0.245518 0.369771 0.500000
O O2 0.179548 0.427000 0.700699
O O3 0.308052 0.421418 0.715910
O O4 0.234145 0.320915 0.768822
O O5 0.068440 0.284585 0.500000
O O6 0.076507 0.365163 0.278382
O O7 0.133249 0.254329 0.255706
O O8 0.000000 0.268738 0.250000
O O9 0.500000 0.088338 0.250000
O O10 0.375295 0.124132 0.213155
O O11 0.415373 0.000000 0.250000
O O12 0.435702 0.065650 0.000000
O O13 0.500000 0.724041 0.750000
O O14 0.417268 0.632146 0.780209
O O15 0.377810 0.753004 0.758172
O O16 0.433868 0.710562 0.000000
O O17 0.080768 0.500000 0.750000
O O18 0.092046 0.440158 0.500000
O O19 0.404585 0.500000 0.750000
O O20 0.387349 0.559736 0.000000
O O21 0.261442 0.202071 0.215397
O O22 0.341893 0.198892 0.000000
O O23 0.195220 0.747864 0.500000
#
# Coordination Sequence:
#
# PCOD9395233 Si02
#       8
#     8   8   8   8   8   8   8   8
#     4   9  17  32  47  66  93 120 157 204 256 313
#     4  10  21  36  51  70  98 131 166 209 258 314
#     4  10  20  35  54  81 116 152 187 219 254 303
#     4  11  23  37  53  72  97 129 169 216 266 318
#     4   9  18  29  44  64  89 118 153 198 248 308
#     4  10  21  34  49  67  89 121 161 211 268 323
#     4  10  21  36  56  82 109 138 177 218 257 305
#     4  10  19  32  53  78 101 129 165 209 257 303
#
# _framework density 16.124969
#
# number of rings (size 3 to 8) (size 9 to 14) (size 15 to 20)
#    0.000    2.125    1.250    3.375    0.000    7.000 
#    0.000    2.500    0.000    0.000    0.000    0.000 
#    0.000    0.500    0.000    5.750    0.000    1.750 
#
# Total GULP energy -356795.518856 kJ/mol
# GULP energy per Si atom -5574.929982 kJ/mol
# Density = 1.608827 g / cm^3
# Si number density = 16.124969 Si / 1000 Ang^3
#
#
#
# Elastic Constant Matrix: (Units=GPa)
#
#
# Indices 1 2 3 4 5 6 
#
# 1 120.4164 39.3167 37.5620 0.0000 0.0000 0.0000
# 2 39.3167 83.6724 30.4876 0.0000 0.0000 0.0000
# 3 37.5620 30.4876 54.1716 0.0000 0.0000 0.0000
# 4 0.0000 0.0000 0.0000 22.8203 0.0000 0.0000
# 5 0.0000 0.0000 0.0000 0.0000 23.5486 0.0000
# 6 0.0000 0.0000 0.0000 0.0000 0.0000 20.6266
#
#
#
# Elastic Compliance Matrix: (Units=1/GPa)
#
#
# Indices 1 2 3 4 5 6 
#
# 1 0.011185 -0.003057 -0.006035 0.000000 0.000000 0.000000
# 2 -0.003057 0.015870 -0.006812 0.000000 0.000000 0.000000
# 3 -0.006035 -0.006812 0.026478 0.000000 0.000000 0.000000
# 4 0.000000 0.000000 0.000000 0.043821 0.000000 0.000000
# 5 0.000000 0.000000 0.000000 0.000000 0.042465 0.000000
# 6 0.000000 0.000000 0.000000 0.000000 0.000000 0.048481
#
#
# Mechanical properties :
#
#
# Convention : Reuss Voigt Hill
#
# Bulk Modulus (GPa) = 46.02925 52.55480 49.29202
# Shear Modulus (GPa) = 21.99250 23.45872 22.72561
#
# Velocity S-wave (km/s) = 3.69708 3.81833 3.75819
# Velocity P-wave (km/s) = 6.84338 7.21820 7.03329
#
# Compressibility (1/GPa) = 0.02172532
#
# Stress axis : x y z
#
# Youngs Moduli (GPa) = 89.40393 63.01296 37.76650
#
# Poissons Ratio (x) = 0.19261 0.22794
# Poissons Ratio (y) = 0.27328 0.25726
# Poissons Ratio (z) = 0.53959 0.42924
#
# Static dielectric constant tensor:
#      x y z
#    x 1.571300 0.000000 0.000000 
#    y 0.000000 1.532440 0.000000 
#    z 0.000000 0.000000 1.544640 
# 
# From -- ./inp_files/6099.got.cif
#   From: 2010.05.17/outbox.ucp.g08.bks.cvg/sg49_4_cif.got.tgz:6099.got - 2010.06.11 16:40:14.
