data_PCOD9395409
_publ_section_title
;
Structure prediction by ZEFSAII (Michael W. Deem and Ramdas Pophale) SiO2 
 PCOD9395409
Probable space group: P B A N
;
_chemical_formula_sum "Si O2"
_cell_formula_units_Z 48
_cell_length_a 24.862465
_cell_length_b 14.941931
_cell_length_c 5.328484
_cell_angle_alpha 90.000000
_cell_angle_beta 90.000000
_cell_angle_gamma 90.000000
_cell_volume 1979.495767
_symmetry_space_group_name_H-M "P B A N"
_symmetry_group_IT_number 50
_space_group.IT_coordinate_system_code '2'
_symmetry_cell_setting 'orthorhombic'
loop_
_space_group_symop_operation_xyz
x,y,z
1/2-x,1/2-y,z
x,1/2-y,-z
1/2-x,y,-z
-x,-y,-z
1/2+x,1/2+y,-z
-x,1/2+y,z
1/2+x,-y,z
loop_
_atom_site_type_symbol
_atom_site_label
_atom_site_fract_x
_atom_site_fract_y
_atom_site_fract_z
Si Si1 0.990538 0.183750 0.310206
Si Si2 0.393972 0.750000 0.000000
Si Si3 0.080485 0.403234 0.978717
Si Si4 0.806754 0.906459 0.883513
Si Si5 0.750000 0.477522 0.500000
Si Si6 0.330253 0.588267 0.826153
Si Si7 0.575612 0.480017 0.480334
O O1 0.019948 0.250000 0.500000
O O2 0.971985 0.090872 0.437806
O O3 0.028654 0.156261 0.081813
O O4 0.936413 0.234569 0.223183
O O5 0.355400 0.835826 0.002344
O O6 0.137373 0.353772 0.912787
O O7 0.077156 0.479666 0.758275
O O8 0.075242 0.445763 0.255919
O O9 0.792343 0.950957 0.616486
O O10 0.750000 0.871635 0.000000
O O11 0.824586 0.993385 0.040131
O O12 0.728624 0.409260 0.291130
O O13 0.370912 0.576114 0.592384
#
# Coordination Sequence:
#
# PCOD9395409 Si02
#       7
#     8   4   8   8   4   8   8
#     4  11  26  38  61  88 131 173 219 264 329 400
#     4  10  24  40  53  84 127 182 210 256 322 388
#     4  11  22  41  64  93 125 166 218 276 327 391
#     4   9  19  34  59  89 118 150 209 270 327 375
#     4  10  16  34  57  86 109 154 206 270 312 374
#     4   9  19  35  57  82 123 158 210 262 312 381
#     4  10  22  39  64  89 124 165 217 270 323 382
#
# _framework density 24.2486
#
# number of rings (size 3 to 8) (size 9 to 14) (size 15 to 20)
#    0.000    2.000    1.667    1.000    9.333    0.000 
#    0.000    4.583    0.000    6.000    0.000    3.500 
#    0.000    0.000    0.000    0.000    0.000    0.000 
#
# Total GULP energy -267649.156095 kJ/mol
# GULP energy per Si atom -5576.024085 kJ/mol
# Density = 2.419341 g / cm^3
# Si number density = 24.248600 Si / 1000 Ang^3
#
#
#
# Elastic Constant Matrix: (Units=GPa)
#
#
# Indices 1 2 3 4 5 6 
#
# 1 75.1156 16.0562 15.0351 0.0000 0.0000 0.0000
# 2 16.0562 58.0234 14.1760 0.0000 0.0000 0.0000
# 3 15.0351 14.1760 87.2133 0.0000 0.0000 0.0000
# 4 0.0000 0.0000 0.0000 30.8671 0.0000 0.0000
# 5 0.0000 0.0000 0.0000 0.0000 41.2399 0.0000
# 6 0.0000 0.0000 0.0000 0.0000 0.0000 14.7229
#
#
#
# Elastic Compliance Matrix: (Units=1/GPa)
#
#
# Indices 1 2 3 4 5 6 
#
# 1 0.014451 -0.003530 -0.001917 0.000000 0.000000 0.000000
# 2 -0.003530 0.018810 -0.002449 0.000000 0.000000 0.000000
# 3 -0.001917 -0.002449 0.012195 0.000000 0.000000 0.000000
# 4 0.000000 0.000000 0.000000 0.032397 0.000000 0.000000
# 5 0.000000 0.000000 0.000000 0.000000 0.024248 0.000000
# 6 0.000000 0.000000 0.000000 0.000000 0.000000 0.067921
#
#
# Mechanical properties :
#
#
# Convention : Reuss Voigt Hill
#
# Bulk Modulus (GPa) = 33.71290 34.54300 34.12795
# Shear Modulus (GPa) = 25.54889 29.03830 27.29359
#
# Velocity S-wave (km/s) = 3.24948 3.46428 3.35860
# Velocity P-wave (km/s) = 5.29264 5.50254 5.39861
#
# Compressibility (1/GPa) = 0.02966224
#
# Stress axis : x y z
#
# Youngs Moduli (GPa) = 69.19805 53.16415 82.00259
#
# Poissons Ratio (x) = 0.18770 0.15724
# Poissons Ratio (y) = 0.24430 0.20081
# Poissons Ratio (z) = 0.13268 0.13019
#
# Static dielectric constant tensor:
#      x y z
#    x 2.197660 0.000000 0.000000 
#    y 0.000000 1.994210 0.000000 
#    z 0.000000 0.000000 1.944390 
# 
# From -- ./inp_files/6630.got.cif
#   From: 2010.05.17/outbox.cif.g08.bks.cpg/sg50_4_cif.got.tgz:6630.got - 2010.06.03 11:33:33.
