data_PCOD9395701
_publ_section_title
;
Structure prediction by ZEFSAII (Michael W. Deem and Ramdas Pophale) SiO2 
 PCOD9395701
Probable space group: P B A N
;
_chemical_formula_sum "Si O2"
_cell_formula_units_Z 64
_cell_length_a 28.866828
_cell_length_b 8.914093
_cell_length_c 13.409924
_cell_angle_alpha 90.000000
_cell_angle_beta 90.000000
_cell_angle_gamma 90.000000
_cell_volume 3450.662958
_symmetry_space_group_name_H-M "P B A N"
_symmetry_group_IT_number 50
_space_group.IT_coordinate_system_code '2'
_symmetry_cell_setting 'orthorhombic'
loop_
_space_group_symop_operation_xyz
x,y,z
1/2-x,1/2-y,z
x,1/2-y,-z
1/2-x,y,-z
-x,-y,-z
1/2+x,1/2+y,-z
-x,1/2+y,z
1/2+x,-y,z
loop_
_atom_site_type_symbol
_atom_site_label
_atom_site_fract_x
_atom_site_fract_y
_atom_site_fract_z
Si Si1 0.032907 0.496025 0.348792
Si Si2 0.174034 0.564703 0.297619
Si Si3 0.894594 0.785538 0.292230
Si Si4 0.651917 0.509601 0.756536
Si Si5 0.937128 0.553575 0.433738
Si Si6 0.194593 0.733669 0.886106
Si Si7 0.101498 0.728403 0.635148
Si Si8 0.762141 0.924070 0.617289
O O1 0.057583 0.377093 0.275491
O O2 0.041696 0.419253 0.457703
O O3 0.061249 0.651952 0.341818
O O4 0.978741 0.530787 0.354129
O O5 0.143655 0.414084 0.306647
O O6 0.173449 0.641549 0.188925
O O7 0.149203 0.680803 0.372354
O O8 0.226118 0.529624 0.325869
O O9 0.873339 0.664754 0.216570
O O10 0.903535 0.678541 0.388743
O O11 0.680629 0.428002 0.842179
O O12 0.612946 0.389666 0.723798
O O13 0.687321 0.539994 0.663222
O O14 0.912792 0.391794 0.447631
O O15 0.250000 0.750000 0.882890
O O16 0.179101 0.750000 0.000000
O O17 0.750000 0.750000 0.639404
O O18 0.750000 0.944355 0.500000
#
# Coordination Sequence:
#
# PCOD9395701 Si02
#       8
#     8   8   8   8   8   8   8   8
#     4  10  19  31  47  71 104 142 188 229 261 306
#     4  10  20  37  52  75 110 135 183 231 257 320
#     4  10  20  32  51  70 105 146 171 218 275 303
#     4  10  20  37  52  75 110 135 183 231 257 320
#     4  10  19  31  47  71 104 142 188 229 261 306
#     4  10  20  37  63  81  99 135 173 223 301 345
#     4   9  20  31  46  67  96 137 170 221 270 298
#     4  11  22  33  49  72 106 156 189 213 249 291
#
# _framework density 18.547160000000002
#
# number of rings (size 3 to 8) (size 9 to 14) (size 15 to 20)
#    0.000    2.000    2.500    1.500    0.000    8.000 
#    0.000    5.000    0.000    2.250    0.000    0.000 
#    0.000  226.000    0.000    0.000    0.000    0.000 
#
# Total GULP energy -356357.747793 kJ/mol
# GULP energy per Si atom -5568.089809 kJ/mol
# Density = 1.850495 g / cm^3
# Si number density = 18.547160 Si / 1000 Ang^3
#
#
#
# Elastic Constant Matrix: (Units=GPa)
#
#
# Indices 1 2 3 4 5 6 
#
# 1 96.8181 34.0973 27.8651 0.0000 0.0000 0.0000
# 2 34.0973 114.5998 27.1606 0.0000 0.0000 0.0000
# 3 27.8651 27.1606 64.8898 0.0000 0.0000 0.0000
# 4 0.0000 0.0000 0.0000 12.7865 0.0000 0.0000
# 5 0.0000 0.0000 0.0000 0.0000 11.3602 0.0000
# 6 0.0000 0.0000 0.0000 0.0000 0.0000 27.9223
#
#
#
# Elastic Compliance Matrix: (Units=1/GPa)
#
#
# Indices 1 2 3 4 5 6 
#
# 1 0.012504 -0.002717 -0.004232 0.000000 0.000000 0.000000
# 2 -0.002717 0.010277 -0.003135 0.000000 0.000000 0.000000
# 3 -0.004232 -0.003135 0.018540 0.000000 0.000000 0.000000
# 4 0.000000 0.000000 0.000000 0.078208 0.000000 0.000000
# 5 0.000000 0.000000 0.000000 0.000000 0.088027 0.000000
# 6 0.000000 0.000000 0.000000 0.000000 0.000000 0.035814
#
#
# Mechanical properties :
#
#
# Convention : Reuss Voigt Hill
#
# Bulk Modulus (GPa) = 47.27467 50.50595 48.89031
# Shear Modulus (GPa) = 18.47821 22.89276 20.68548
#
# Velocity S-wave (km/s) = 3.15982 3.51707 3.34322
# Velocity P-wave (km/s) = 6.23353 6.61689 6.42807
#
# Compressibility (1/GPa) = 0.02115298
#
# Stress axis : x y z
#
# Youngs Moduli (GPa) = 79.97691 97.30004 53.93676
#
# Poissons Ratio (x) = 0.26439 0.22826
# Poissons Ratio (y) = 0.21732 0.16909
# Poissons Ratio (z) = 0.33846 0.30503
#
# Static dielectric constant tensor:
#      x y z
#    x 1.684510 0.000000 0.000000 
#    y 0.000000 1.712330 0.000000 
#    z 0.000000 0.000000 1.645730 
# 
# From -- ./inp_files/27800.got.cif
#   From: 2010.05.17/outbox.cif.g08.bks.cpg/sg50_14_cif.got.tgz:27800.got - 2010.06.03 11:33:33.
