data_PCOD9395845
_publ_section_title
;
Structure prediction by ZEFSAII (Michael W. Deem and Ramdas Pophale) SiO2 
 PCOD9395845
Probable space group: P B A N
;
_chemical_formula_sum "Si O2"
_cell_formula_units_Z 48
_cell_length_a 14.681544
_cell_length_b 5.173433
_cell_length_c 30.847798
_cell_angle_alpha 90.000000
_cell_angle_beta 90.000000
_cell_angle_gamma 90.000000
_cell_volume 2343.013163
_symmetry_space_group_name_H-M "P B A N"
_symmetry_group_IT_number 50
_space_group.IT_coordinate_system_code '2'
_symmetry_cell_setting 'orthorhombic'
loop_
_space_group_symop_operation_xyz
x,y,z
1/2-x,1/2-y,z
x,1/2-y,-z
1/2-x,y,-z
-x,-y,-z
1/2+x,1/2+y,-z
-x,1/2+y,z
1/2+x,-y,z
loop_
_atom_site_type_symbol
_atom_site_label
_atom_site_fract_x
_atom_site_fract_y
_atom_site_fract_z
Si Si1 0.435716 0.810592 0.359800
Si Si2 0.061412 0.789626 0.453665
Si Si3 0.806854 0.495099 0.716688
Si Si4 0.147658 0.498317 0.019847
Si Si5 0.940276 0.522795 0.794682
Si Si6 0.063077 0.072529 0.892285
O O1 0.490409 0.541751 0.355418
O O2 0.392942 0.785825 0.408173
O O3 0.362298 0.876774 0.323672
O O4 0.109508 0.750000 0.500000
O O5 0.977095 0.582317 0.453598
O O6 0.750000 0.750000 0.703901
O O7 0.872996 0.577343 0.755509
O O8 0.750000 0.250000 0.733495
O O9 0.138710 0.478882 0.071244
O O10 0.103730 0.750000 0.000000
O O11 0.250000 0.498673 0.000000
O O12 0.101313 0.250000 0.000000
O O13 0.900865 0.555185 0.843097
O O14 0.021101 0.732793 0.791244
O O15 0.986301 0.849151 0.897343
#
# Coordination Sequence:
#
# PCOD9395845 Si02
#       6
#     8   8   8   8   8   8
#     4  10  19  34  57  81 109 153 192 231 286 338
#     4   8  14  25  45  76 106 133 181 237 274 314
#     4  12  24  38  55  87 118 149 190 238 291 343
#     4  10  21  37  53  81 113 145 175 215 273 328
#     4  10  21  41  63  83 112 148 192 237 286 343
#     4  10  21  37  60  85 107 141 185 229 270 323
#
# _framework density 20.486442
#
# number of rings (size 3 to 8) (size 9 to 14) (size 15 to 20)
#    0.000    2.000    0.000    4.000    0.000    2.000 
#    6.000    0.000    0.000    0.500    0.000    1.167 
#    0.000    0.000    0.000    0.000    0.000    0.000 
#
# Total GULP energy -267594.117132 kJ/mol
# GULP energy per Si atom -5574.877440 kJ/mol
# Density = 2.043981 g / cm^3
# Si number density = 20.486442 Si / 1000 Ang^3
#
#
#
# Elastic Constant Matrix: (Units=GPa)
#
#
# Indices 1 2 3 4 5 6 
#
# 1 38.7129 -8.3138 37.0876 0.0000 0.0000 0.0000
# 2 -8.3138 104.4489 -16.2148 0.0000 0.0000 0.0000
# 3 37.0876 -16.2148 142.2114 0.0000 0.0000 0.0000
# 4 0.0000 0.0000 0.0000 25.3063 0.0000 0.0000
# 5 0.0000 0.0000 0.0000 0.000017679.4860 0.0000
# 6 0.0000 0.0000 0.0000 0.0000 0.0000 -64.2560
#
#
#
# Elastic Compliance Matrix: (Units=1/GPa)
#
#
# Indices 1 2 3 4 5 6 
#
# 1 0.034628 0.001379 -0.008874 0.000000 0.000000 0.000000
# 2 0.001379 0.009801 0.000758 0.000000 0.000000 0.000000
# 3 -0.008874 0.000758 0.009432 0.000000 0.000000 0.000000
# 4 0.000000 0.000000 0.000000 0.039516 0.000000 0.000000
# 5 0.000000 0.000000 0.000000 0.000000 0.000057 0.000000
# 6 0.000000 0.000000 0.000000 0.000000 0.000000 -0.015563
#
#
# Mechanical properties :
#
#
# Convention : Reuss Voigt Hill
#
# Bulk Modulus (GPa) = 24.75957 34.49904 29.62930
# Shear Modulus (GPa) = 47.70614 3546.29488 1797.00051
#
# Velocity S-wave (km/s) = 4.83086 41.65096 29.64911
# Velocity P-wave (km/s) = 6.57483 48.26952 34.44688
#
# Compressibility (1/GPa) = 0.04038842
#
# Stress axis : x y z
#
# Youngs Moduli (GPa) = 28.87813 102.02548 106.01786
#
# Poissons Ratio (x) = -0.14067 0.94076
# Poissons Ratio (y) = -0.03982 -0.08036
# Poissons Ratio (z) = 0.25625 -0.07733
#
# Static dielectric constant tensor:
#      x y z
#    x 1.693390 0.000000 0.000000 
#    y 0.000000 1.738950 0.000000 
#    z 0.000000 0.000000 1.782010 
# 
# From -- ./inp_files/32487.got.cif
#   From: 2010.05.17/outbox.cif.g08.bks.cpg/sg50_17_cif.got.tgz:32487.got - 2010.06.03 11:33:33.
