data_PCOD9395313
_publ_section_title
;
Structure prediction by ZEFSAII (Michael W. Deem and Ramdas Pophale) SiO2 
 PCOD9395313
Probable space group: P C C M
;
_chemical_formula_sum "Si O2"
_cell_formula_units_Z 48
_cell_length_a 18.000000
_cell_length_b 9.000000
_cell_length_c 15.000000
_cell_angle_alpha 90.000000
_cell_angle_beta 90.000000
_cell_angle_gamma 90.000000
_cell_volume 2430.000000
_symmetry_space_group_name_H-M "P C C M"
_symmetry_group_IT_number 49
_symmetry_cell_setting 'orthorhombic'
loop_
_space_group_symop_operation_xyz
x,y,z
-x,-y,z
x,-y,1/2-z
-x,y,1/2-z
-x,-y,-z
x,y,-z
-x,y,1/2+z
x,-y,1/2+z
loop_
_atom_site_type_symbol
_atom_site_label
_atom_site_fract_x
_atom_site_fract_y
_atom_site_fract_z
Si Si1 0.588244 0.258551 0.750001
Si Si2 0.588347 0.500001 0.599005
Si Si3 1.000000 0.171092 0.108408
Si Si4 0.748889 0.834746 0.750001
Si Si5 0.154965 0.676958 0.894453
Si Si6 0.154963 0.323043 0.105547
O O1 0.500000 0.212097 0.750000
O O2 0.601602 0.359019 0.662034
O O3 0.601602 0.359012 0.837969
O O4 0.659752 0.155096 0.749999
O O5 0.500000 0.500000 0.587346
O O6 0.623230 0.499999 0.500000
O O7 0.075622 0.254397 0.134538
O O8 0.924376 0.254396 0.134538
O O9 1.000000 0.171585 0.000000
O O10 0.000000 0.000000 0.137944
O O11 0.780487 0.748501 0.664351
O O12 0.780489 0.748501 0.835649
O O13 0.780889 0.000000 0.750000
O O14 0.153709 0.500000 0.882117
O O15 0.164932 0.707554 0.000000
O O16 0.164931 0.292447 0.000000
#
# Coordination Sequence:
#
# PCOD9395313 Si02
#       6
#     8   8   8   8   8   8
#     4   9  20  37  57  84 116 150 195 243 291 354
#     4   8  15  31  58  87 111 138 179 236 293 345
#     4   9  17  34  61  90 122 157 193 236 295 360
#     4  12  26  40  57  85 122 159 200 246 298 359
#     4  10  22  40  63  89 119 156 200 249 295 346
#     4  10  22  40  63  89 119 156 200 249 295 346
#
# _framework density 19.753086
#
# number of rings (size 3 to 8) (size 9 to 14) (size 15 to 20)
#    0.000    2.333    0.000    3.000    4.667    6.333 
#    0.000    3.333    0.000    0.000    0.000    7.000 
#    0.000    0.000    0.000    0.000    0.000    0.000 
#
# Total GULP energy -267664.066590 kJ/mol
# GULP energy per Si atom -5576.334721 kJ/mol
# Density = 1.970813 g / cm^3
# Si number density = 19.753086 Si / 1000 Ang^3
#
#
#
# Elastic Constant Matrix: (Units=GPa)
#
#
# Indices 1 2 3 4 5 6 
#
# 1 139.7039 61.5446 40.0786 0.0000 0.0000 0.0000
# 2 61.5446 113.6410 58.3895 0.0000 0.0000 0.0000
# 3 40.0786 58.3895 118.3742 0.0000 0.0000 0.0000
# 4 0.0000 0.0000 0.0000 8.3017 0.0000 0.0000
# 5 0.0000 0.0000 0.0000 0.0000 29.7034 0.0000
# 6 0.0000 0.0000 0.0000 0.0000 0.0000 64.0010
#
#
#
# Elastic Compliance Matrix: (Units=1/GPa)
#
#
# Indices 1 2 3 4 5 6 
#
# 1 0.009473 -0.004665 -0.000906 0.000000 0.000000 0.000000
# 2 -0.004665 0.014084 -0.005368 0.000000 0.000000 0.000000
# 3 -0.000906 -0.005368 0.011402 0.000000 0.000000 0.000000
# 4 0.000000 0.000000 0.000000 0.120457 0.000000 0.000000
# 5 0.000000 0.000000 0.000000 0.000000 0.033666 0.000000
# 6 0.000000 0.000000 0.000000 0.000000 0.000000 0.015625
#
#
# Mechanical properties :
#
#
# Convention : Reuss Voigt Hill
#
# Bulk Modulus (GPa) = 76.44262 76.86050 76.65156
# Shear Modulus (GPa) = 21.65019 34.51498 28.08258
#
# Velocity S-wave (km/s) = 3.31424 4.18463 3.77461
# Velocity P-wave (km/s) = 7.30949 7.89578 7.60828
#
# Compressibility (1/GPa) = 0.01308171
#
# Stress axis : x y z
#
# Youngs Moduli (GPa) = 105.56393 71.00379 87.70100
#
# Poissons Ratio (x) = 0.33120 0.07950
# Poissons Ratio (y) = 0.49240 0.47075
# Poissons Ratio (z) = 0.09569 0.38113
#
# Static dielectric constant tensor:
#      x y z
#    x 1.682810 0.000000 0.000000 
#    y 0.000000 1.675330 0.000000 
#    z 0.000000 0.000000 1.744890 
# 
# From -- ./inp_files/11838.got.cif
#   From: 2010.05.17/outbox.ucp.g08.bks.cvg/sg49_6_cif.got.tgz:11838.got - 2010.06.11 16:40:14.
