data_PCOD9395535
_publ_section_title
;
Structure prediction by ZEFSAII (Michael W. Deem and Ramdas Pophale) SiO2 
 PCOD9395535
Probable space group: P B A N
;
_chemical_formula_sum "Si O2"
_cell_formula_units_Z 40
_cell_length_a 13.528624
_cell_length_b 10.063038
_cell_length_c 12.397685
_cell_angle_alpha 90.000000
_cell_angle_beta 90.000000
_cell_angle_gamma 90.000000
_cell_volume 1687.809150
_symmetry_space_group_name_H-M "P B A N"
_symmetry_group_IT_number 50
_space_group.IT_coordinate_system_code '2'
_symmetry_cell_setting 'orthorhombic'
loop_
_space_group_symop_operation_xyz
x,y,z
1/2-x,1/2-y,z
x,1/2-y,-z
1/2-x,y,-z
-x,-y,-z
1/2+x,1/2+y,-z
-x,1/2+y,z
1/2+x,-y,z
loop_
_atom_site_type_symbol
_atom_site_label
_atom_site_fract_x
_atom_site_fract_y
_atom_site_fract_z
Si Si1 0.416792 0.199381 0.381763
Si Si2 0.127997 0.431353 0.777570
Si Si3 0.150157 0.704225 0.673451
Si Si4 0.593195 0.597024 0.010807
Si Si5 0.393308 0.527676 0.768795
O O1 0.389164 0.250000 0.500000
O O2 0.369442 0.299979 0.294625
O O3 0.538602 0.201616 0.376160
O O4 0.380117 0.054778 0.342610
O O5 0.173028 0.558888 0.719891
O O6 0.156713 0.420546 0.902413
O O7 0.011573 0.464161 0.777785
O O8 0.250000 0.750000 0.613105
O O9 0.140146 0.819932 0.764004
O O10 0.560359 0.750000 0.000000
O O11 0.500000 0.500000 0.000000
O O12 0.636886 0.558097 0.127061
#
# Coordination Sequence:
#
# PCOD9395535 Si02
#       5
#     8   8   8   8   8
#     4  10  20  38  62  86 111 149 199 246 287 339
#     4   9  19  34  57  84 114 150 192 237 282 342
#     4  10  22  38  56  84 122 155 188 236 293 347
#     4  10  18  30  56  87 117 151 193 237 281 339
#     4   9  19  34  57  84 114 150 192 237 282 342
#
# _framework density 23.699362000000001
#
# number of rings (size 3 to 8) (size 9 to 14) (size 15 to 20)
#    0.000    2.400    2.000    0.000    8.400    7.600 
#    0.000    3.000    0.000    2.400    0.000    0.000 
#    0.000    0.000    0.000    0.000    0.000    0.000 
#
# Total GULP energy -222976.707496 kJ/mol
# GULP energy per Si atom -5574.417687 kJ/mol
# Density = 2.364542 g / cm^3
# Si number density = 23.699362 Si / 1000 Ang^3
#
#
#
# Elastic Constant Matrix: (Units=GPa)
#
#
# Indices 1 2 3 4 5 6 
#
# 1 100.5417 16.3705 -13.3802 0.0000 0.0000 0.0000
# 2 16.3705 121.7551 18.9388 0.0000 0.0000 0.0000
# 3 -13.3802 18.9388 128.0396 0.0000 0.0000 0.0000
# 4 0.0000 0.0000 0.0000 11.0977 0.0000 0.0000
# 5 0.0000 0.0000 0.0000 0.0000 4.7957 0.0000
# 6 0.0000 0.0000 0.0000 0.0000 0.0000 23.4565
#
#
#
# Elastic Compliance Matrix: (Units=1/GPa)
#
#
# Indices 1 2 3 4 5 6 
#
# 1 0.010383 -0.001602 0.001322 0.000000 0.000000 0.000000
# 2 -0.001602 0.008654 -0.001447 0.000000 0.000000 0.000000
# 3 0.001322 -0.001447 0.008162 0.000000 0.000000 0.000000
# 4 0.000000 0.000000 0.000000 0.090108 0.000000 0.000000
# 5 0.000000 0.000000 0.000000 0.000000 0.208521 0.000000
# 6 0.000000 0.000000 0.000000 0.000000 0.000000 0.042632
#
#
# Mechanical properties :
#
#
# Convention : Reuss Voigt Hill
#
# Bulk Modulus (GPa) = 42.11476 43.79940 42.95708
# Shear Modulus (GPa) = 13.16382 29.76381 21.46381
#
# Velocity S-wave (km/s) = 2.35936 3.54770 3.01270
# Velocity P-wave (km/s) = 5.02305 5.94163 5.50155
#
# Compressibility (1/GPa) = 0.02374465
#
# Stress axis : x y z
#
# Youngs Moduli (GPa) = 96.31291 115.55767 122.51426
#
# Poissons Ratio (x) = 0.18508 -0.16195
# Poissons Ratio (y) = 0.15426 0.17732
# Poissons Ratio (z) = -0.12732 0.16726
#
# Static dielectric constant tensor:
#      x y z
#    x 4.534820 0.000000 0.000000 
#    y 0.000000 1.870910 0.000000 
#    z 0.000000 0.000000 1.916410 
# 
# From -- ./inp_files/20893.got.cif
#   From: 2010.05.17/outbox.cif.g08.bks.cpg/sg50_11_cif.got.tgz:20893.got - 2010.06.03 11:33:33.
