data_PCOD9395004
_publ_section_title
;
Structure prediction by ZEFSAII (Michael W. Deem and Ramdas Pophale) SiO2 
 PCOD9395004
Probable space group: P C C M
;
_chemical_formula_sum "Si O2"
_cell_formula_units_Z 48
_cell_length_a 15.123491
_cell_length_b 19.321720
_cell_length_c 8.560039
_cell_angle_alpha 90.000000
_cell_angle_beta 90.000000
_cell_angle_gamma 90.000000
_cell_volume 2501.344905
_symmetry_space_group_name_H-M "P C C M"
_symmetry_group_IT_number 49
_symmetry_cell_setting 'orthorhombic'
loop_
_space_group_symop_operation_xyz
x,y,z
-x,-y,z
x,-y,1/2-z
-x,y,1/2-z
-x,-y,-z
x,y,-z
-x,y,1/2+z
x,-y,1/2+z
loop_
_atom_site_type_symbol
_atom_site_label
_atom_site_fract_x
_atom_site_fract_y
_atom_site_fract_z
Si Si1 0.914249 0.704408 0.683518
Si Si2 0.405165 0.725823 0.313460
Si Si3 0.846993 0.431210 0.682748
Si Si4 0.350302 0.425016 0.684823
Si Si5 0.771489 0.194314 0.311650
Si Si6 0.901537 0.921828 0.688584
O O1 0.920443 0.692496 0.500000
O O2 0.905418 0.634318 0.780204
O O3 0.828601 0.747197 0.726752
O O4 0.000000 0.742429 0.750000
O O5 0.500000 0.748181 0.250000
O O6 0.406559 0.720518 0.500000
O O7 0.387383 0.647414 0.251272
O O8 0.328894 0.782095 0.273277
O O9 0.889765 0.500000 0.750000
O O10 0.828529 0.437480 0.500000
O O11 0.753816 0.422982 0.772173
O O12 0.383061 0.500000 0.750000
O O13 0.362999 0.425539 0.500000
O O14 0.780790 0.197999 0.500000
O O15 0.820388 0.124791 0.252834
O O16 0.902502 0.918994 0.500000
O O17 0.000000 0.900925 0.750000
O O18 0.889126 0.000000 0.750000
#
# Coordination Sequence:
#
# PCOD9395004 Si02
#       6
#     8   8   8   8   8   8
#     4  12  24  38  57  83 114 153 198 245 296 356
#     4  11  24  41  63  89 121 157 204 256 311 370
#     4  11  21  36  55  78 108 147 194 244 300 358
#     4  11  21  36  59  84 114 151 199 253 316 375
#     4  11  23  41  63  89 124 162 199 245 300 358
#     4  11  22  39  65  98 135 170 207 246 291 349
#
# _framework density 19.189677
#
# number of rings (size 3 to 8) (size 9 to 14) (size 15 to 20)
#    0.000    0.833    1.667    9.000    0.000    2.667 
#    0.000    3.333    0.000    0.500    0.000    3.500 
#    0.000    0.000    0.000    0.000    0.000    0.000 
#
# Total GULP energy -268105.168540 kJ/mol
# GULP energy per Si atom -5585.524345 kJ/mol
# Density = 1.914600 g / cm^3
# Si number density = 19.189677 Si / 1000 Ang^3
#
#
#
# Elastic Constant Matrix: (Units=GPa)
#
#
# Indices 1 2 3 4 5 6 
#
# 1 127.3532 46.8028 40.9962 0.0000 0.0000 0.0000
# 2 46.8028 113.9099 32.8059 0.0000 0.0000 0.0000
# 3 40.9962 32.8059 128.5650 0.0000 0.0000 0.0000
# 4 0.0000 0.0000 0.0000 38.5898 0.0000 0.0000
# 5 0.0000 0.0000 0.0000 0.0000 31.1479 0.0000
# 6 0.0000 0.0000 0.0000 0.0000 0.0000 25.6649
#
#
#
# Elastic Compliance Matrix: (Units=1/GPa)
#
#
# Indices 1 2 3 4 5 6 
#
# 1 0.009826 -0.003384 -0.002270 0.000000 0.000000 0.000000
# 2 -0.003384 0.010640 -0.001636 0.000000 0.000000 0.000000
# 3 -0.002270 -0.001636 0.008920 0.000000 0.000000 0.000000
# 4 0.000000 0.000000 0.000000 0.025914 0.000000 0.000000
# 5 0.000000 0.000000 0.000000 0.000000 0.032105 0.000000
# 6 0.000000 0.000000 0.000000 0.000000 0.000000 0.038964
#
#
# Mechanical properties :
#
#
# Convention : Reuss Voigt Hill
#
# Bulk Modulus (GPa) = 67.53709 67.89309 67.71509
# Shear Modulus (GPa) = 34.27392 35.69542 34.98467
#
# Velocity S-wave (km/s) = 4.23077 4.31761 4.27441
# Velocity P-wave (km/s) = 7.69004 7.76611 7.72817
#
# Compressibility (1/GPa) = 0.01480668
#
# Stress axis : x y z
#
# Youngs Moduli (GPa) = 101.76638 93.98193 112.11391
#
# Poissons Ratio (x) = 0.31800 0.25450
# Poissons Ratio (y) = 0.34435 0.18343
# Poissons Ratio (z) = 0.23101 0.15377
#
# Static dielectric constant tensor:
#      x y z
#    x 1.684650 0.000000 0.000000 
#    y 0.000000 1.709330 0.000000 
#    z 0.000000 0.000000 1.634390 
# 
# From -- ./inp_files/3678.got.cif
#   From: 2010.05.17/outbox.cif.g08.bks.cpg/sg49_2_cif.got.tgz:3678.got - 2010.06.03 21:02:19.
