data_PCOD9395012
_publ_section_title
;
Structure prediction by ZEFSAII (Michael W. Deem and Ramdas Pophale) SiO2 
 PCOD9395012
Probable space group: P C C M
;
_chemical_formula_sum "Si O2"
_cell_formula_units_Z 32
_cell_length_a 8.448450
_cell_length_b 10.103810
_cell_length_c 18.088363
_cell_angle_alpha 90.000000
_cell_angle_beta 90.000000
_cell_angle_gamma 90.000000
_cell_volume 1544.050406
_symmetry_space_group_name_H-M "P C C M"
_symmetry_group_IT_number 49
_symmetry_cell_setting 'orthorhombic'
loop_
_space_group_symop_operation_xyz
x,y,z
-x,-y,z
x,-y,1/2-z
-x,y,1/2-z
-x,-y,-z
x,y,-z
-x,y,1/2+z
x,-y,1/2+z
loop_
_atom_site_type_symbol
_atom_site_label
_atom_site_fract_x
_atom_site_fract_y
_atom_site_fract_z
Si Si1 0.887391 0.664178 0.584800
Si Si2 0.829574 0.068728 0.847061
Si Si3 0.800042 0.431748 0.330574
Si Si4 0.661917 0.833979 0.205856
O O1 0.931885 0.643958 0.500000
O O2 0.823414 0.811324 0.595995
O O3 0.767514 0.551383 0.613066
O O4 0.040043 0.638627 0.637837
O O5 0.796946 0.141102 0.768397
O O6 0.700663 0.951167 0.851423
O O7 0.000000 0.000000 0.851328
O O8 0.816307 0.500000 0.250000
O O9 0.676533 0.312736 0.325124
O O10 0.500000 0.850157 0.250000
#
# Coordination Sequence:
#
# PCOD9395012 Si02
#       4
#     8   8   8   8
#     4  11  23  38  61  97 131 160 207 266 322 372
#     4  11  21  37  63  91 125 156 211 262 311 362
#     4  11  21  37  63  92 124 158 208 268 315 366
#     4  11  23  38  61  95 127 159 206 268 317 370
#
# _framework density 20.724712
#
# number of rings (size 3 to 8) (size 9 to 14) (size 15 to 20)
#    0.000    1.000    5.000    6.000    0.000    1.000 
#    0.000    0.000    0.000    7.500    0.000    0.000 
#    0.000    0.000    0.000    0.000    0.000    0.000 
#
# Total GULP energy -178525.745590 kJ/mol
# GULP energy per Si atom -5578.929550 kJ/mol
# Density = 2.067754 g / cm^3
# Si number density = 20.724712 Si / 1000 Ang^3
#
#
#
# Elastic Constant Matrix: (Units=GPa)
#
#
# Indices 1 2 3 4 5 6 
#
# 1 75.8965 69.1146 13.3513 0.0000 0.0000 0.0000
# 2 69.1146 189.8314 46.2054 0.0000 0.0000 0.0000
# 3 13.3513 46.2054 80.2039 0.0000 0.0000 0.0000
# 4 0.0000 0.0000 0.0000 17.5763 0.0000 0.0000
# 5 0.0000 0.0000 0.0000 0.0000 3.5149 0.0000
# 6 0.0000 0.0000 0.0000 0.0000 0.0000 17.6309
#
#
#
# Elastic Compliance Matrix: (Units=1/GPa)
#
#
# Indices 1 2 3 4 5 6 
#
# 1 0.019779 -0.007444 0.000996 0.000000 0.000000 0.000000
# 2 -0.007444 0.008928 -0.003904 0.000000 0.000000 0.000000
# 3 0.000996 -0.003904 0.014552 0.000000 0.000000 0.000000
# 4 0.000000 0.000000 0.000000 0.056895 0.000000 0.000000
# 5 0.000000 0.000000 0.000000 0.000000 0.284501 0.000000
# 6 0.000000 0.000000 0.000000 0.000000 0.000000 0.056719
#
#
# Mechanical properties :
#
#
# Convention : Reuss Voigt Hill
#
# Bulk Modulus (GPa) = 44.33710 67.03048 55.68379
# Shear Modulus (GPa) = 10.64743 22.22846 16.43795
#
# Velocity S-wave (km/s) = 2.26908 3.27855 2.81936
# Velocity P-wave (km/s) = 5.32022 6.83705 6.12577
#
# Compressibility (1/GPa) = 0.02255447
#
# Stress axis : x y z
#
# Youngs Moduli (GPa) = 50.55829 112.00355 68.71984
#
# Poissons Ratio (x) = 0.83371 -0.06842
# Poissons Ratio (y) = 0.37634 0.26831
# Poissons Ratio (z) = -0.05034 0.43731
#
# Static dielectric constant tensor:
#      x y z
#    x 1.776220 0.000000 0.000000 
#    y 0.000000 1.827070 0.000000 
#    z 0.000000 0.000000 1.722440 
# 
# From -- ./inp_files/11195.got.cif
#   From: 2010.05.17/outbox.cif.g08.bks.cpg/sg49_6_cif.got.tgz:11195.got - 2010.06.03 21:02:19.
