data_PCOD9395951
_publ_section_title
;
Structure prediction by ZEFSAII (Michael W. Deem and Ramdas Pophale) SiO2 
 PCOD9395951
Probable space group: P B A N
;
_chemical_formula_sum "Si O2"
_cell_formula_units_Z 42
_cell_length_a 5.572337
_cell_length_b 13.647767
_cell_length_c 23.510002
_cell_angle_alpha 90.000000
_cell_angle_beta 90.000000
_cell_angle_gamma 90.000000
_cell_volume 1787.934642
_symmetry_space_group_name_H-M "P B A N"
_symmetry_group_IT_number 50
_space_group.IT_coordinate_system_code '2'
_symmetry_cell_setting 'orthorhombic'
loop_
_space_group_symop_operation_xyz
x,y,z
1/2-x,1/2-y,z
x,1/2-y,-z
1/2-x,y,-z
-x,-y,-z
1/2+x,1/2+y,-z
-x,1/2+y,z
1/2+x,-y,z
loop_
_atom_site_type_symbol
_atom_site_label
_atom_site_fract_x
_atom_site_fract_y
_atom_site_fract_z
Si Si1 0.121807 0.380174 0.728419
Si Si2 0.750000 0.750000 0.500000
Si Si3 0.997154 0.860269 0.976344
Si Si4 0.864527 0.359184 0.441728
Si Si5 0.126776 0.897801 0.315936
Si Si6 0.444409 0.436386 0.147695
O O1 0.129896 0.497843 0.715970
O O2 0.380254 0.347046 0.704697
O O3 0.079527 0.371210 0.795580
O O4 0.878680 0.346696 0.697987
O O5 0.627566 0.826513 0.542035
O O6 0.996490 0.750000 0.000000
O O7 0.250000 0.899280 0.000000
O O8 0.750000 0.903855 0.000000
O O9 0.974696 0.871954 0.908884
O O10 0.750000 0.250000 0.433427
O O11 0.750000 0.401344 0.500000
O O12 0.864528 0.416699 0.383541
O O13 0.691770 0.501689 0.148046
#
# Coordination Sequence:
#
# PCOD9395951 Si02
#       6
#     8   2   8   8   8   8
#     4  10  20  37  57  88 114 156 190 242 303 347
#     4   8  18  36  52  78 108 152 206 240 302 348
#     4  10  23  42  63  89 128 167 197 251 317 362
#     4   9  20  35  56  83 111 158 204 249 302 355
#     4  10  19  36  60  80 121 148 195 247 293 358
#     4  12  21  38  66  94 121 159 214 254 295 379
#
# _framework density 23.490791000000002
#
# number of rings (size 3 to 8) (size 9 to 14) (size 15 to 20)
#    0.000    2.095    3.810    1.143    5.333    2.286 
#    0.000    3.810   12.571    0.000    0.000    0.000 
#    0.000    0.000    0.000    0.000    0.000    0.000 
#
# Total GULP energy -234178.428087 kJ/mol
# GULP energy per Si atom -5575.676859 kJ/mol
# Density = 2.343733 g / cm^3
# Si number density = 23.490791 Si / 1000 Ang^3
#
#
#
# Elastic Constant Matrix: (Units=GPa)
#
#
# Indices 1 2 3 4 5 6 
#
# 1 225.5780 27.7882 59.6372 0.0000 0.0000 0.0000
# 2 27.7882 61.6827 7.2905 0.0000 0.0000 0.0000
# 3 59.6372 7.2905 229.1891 0.0000 0.0000 0.0000
# 4 0.0000 0.0000 0.0000 194.2241 0.0000 0.0000
# 5 0.0000 0.0000 0.0000 0.0000 54.2467 0.0000
# 6 0.0000 0.0000 0.0000 0.0000 0.0000 -67.7552
#
#
#
# Elastic Compliance Matrix: (Units=1/GPa)
#
#
# Indices 1 2 3 4 5 6 
#
# 1 0.005021 -0.002116 -0.001239 0.000000 0.000000 0.000000
# 2 -0.002116 0.017165 0.000005 0.000000 0.000000 0.000000
# 3 -0.001239 0.000005 0.004686 0.000000 0.000000 0.000000
# 4 0.000000 0.000000 0.000000 0.005149 0.000000 0.000000
# 5 0.000000 0.000000 0.000000 0.000000 0.018434 0.000000
# 6 0.000000 0.000000 0.000000 0.000000 0.000000 -0.014759
#
#
# Mechanical properties :
#
#
# Convention : Reuss Voigt Hill
#
# Bulk Modulus (GPa) = 49.57719 78.43128 64.00424
# Shear Modulus (GPa) = 101.79201 64.25873 83.02537
#
# Velocity S-wave (km/s) = 6.58990 5.23586 5.95151
# Velocity P-wave (km/s) = 8.89118 8.36737 8.63325
#
# Compressibility (1/GPa) = 0.02017057
#
# Stress axis : x y z
#
# Youngs Moduli (GPa) = 199.15104 58.25955 213.42247
#
# Poissons Ratio (x) = 0.12326 0.26449
# Poissons Ratio (y) = 0.42133 -0.00096
# Poissons Ratio (z) = 0.24681 -0.00026
#
# Static dielectric constant tensor:
#      x y z
#    x 1.959130 0.000000 0.000000 
#    y 0.000000 1.926760 0.000000 
#    z 0.000000 0.000000 1.813740 
# 
# From -- ./inp_files/30365.got.cif
#   From: 2010.05.17/outbox.cif.g08.bks.cpg/sg50_16_cif.got.tgz:30365.got - 2010.06.03 11:33:33.
