data_PCOD9395871
_publ_section_title
;
Structure prediction by ZEFSAII (Michael W. Deem and Ramdas Pophale) SiO2 
 PCOD9395871
Probable space group: P B A N
;
_chemical_formula_sum "Si O2"
_cell_formula_units_Z 40
_cell_length_a 17.897228
_cell_length_b 14.066155
_cell_length_c 7.340510
_cell_angle_alpha 90.000000
_cell_angle_beta 90.000000
_cell_angle_gamma 90.000000
_cell_volume 1847.938034
_symmetry_space_group_name_H-M "P B A N"
_symmetry_group_IT_number 50
_space_group.IT_coordinate_system_code '2'
_symmetry_cell_setting 'orthorhombic'
loop_
_space_group_symop_operation_xyz
x,y,z
1/2-x,1/2-y,z
x,1/2-y,-z
1/2-x,y,-z
-x,-y,-z
1/2+x,1/2+y,-z
-x,1/2+y,z
1/2+x,-y,z
loop_
_atom_site_type_symbol
_atom_site_label
_atom_site_fract_x
_atom_site_fract_y
_atom_site_fract_z
Si Si1 0.176399 0.797122 0.700798
Si Si2 0.670389 0.508330 0.441738
Si Si3 0.069340 0.386899 0.153205
Si Si4 0.010652 0.713946 0.293151
Si Si5 0.066947 0.021679 0.218127
O O1 0.250000 0.750000 0.787557
O O2 0.172317 0.750000 0.500000
O O3 0.184493 0.909484 0.664689
O O4 0.094713 0.779486 0.784408
O O5 0.750000 0.549757 0.500000
O O6 0.622000 0.576244 0.313914
O O7 0.624509 0.490642 0.627657
O O8 0.049670 0.277137 0.186205
O O9 0.987329 0.435522 0.167717
O O10 0.100326 0.428896 0.963068
O O11 0.010771 0.750000 0.500000
O O12 0.986531 0.604480 0.296118
#
# Coordination Sequence:
#
# PCOD9395871 Si02
#       5
#     8   8   8   8   8
#     4  10  19  34  62 102 129 166 204 258 326 396
#     4  12  23  41  67  91 134 171 211 263 327 382
#     4  11  24  40  65  96 129 172 218 268 316 381
#     4  11  20  38  70  92 128 167 219 265 327 376
#     4  11  23  42  64  96 130 168 223 267 313 384
#
# _framework density 21.645748000000001
#
# number of rings (size 3 to 8) (size 9 to 14) (size 15 to 20)
#    0.000    1.000    6.000    3.600    0.000    0.800 
#    0.000    2.000    0.000    6.000    0.000    0.000 
#    0.000    0.000    0.000    0.000    0.000    0.000 
#
# Total GULP energy -223520.441249 kJ/mol
# GULP energy per Si atom -5588.011031 kJ/mol
# Density = 2.159648 g / cm^3
# Si number density = 21.645748 Si / 1000 Ang^3
#
#
#
# Elastic Constant Matrix: (Units=GPa)
#
#
# Indices 1 2 3 4 5 6 
#
# 1 93.5605 11.7980 26.0057 0.0000 0.0000 0.0000
# 2 11.7980 63.9074 -14.1011 0.0000 0.0000 0.0000
# 3 26.0057 -14.1011 95.3149 0.0000 0.0000 0.0000
# 4 0.0000 0.0000 0.0000 12.8210 0.0000 0.0000
# 5 0.0000 0.0000 0.0000 0.0000 -0.3922 0.0000
# 6 0.0000 0.0000 0.0000 0.0000 0.0000 16.5776
#
#
#
# Elastic Compliance Matrix: (Units=1/GPa)
#
#
# Indices 1 2 3 4 5 6 
#
# 1 0.012120 -0.003067 -0.003761 0.000000 0.000000 0.000000
# 2 -0.003067 0.016952 0.003345 0.000000 0.000000 0.000000
# 3 -0.003761 0.003345 0.012012 0.000000 0.000000 0.000000
# 4 0.000000 0.000000 0.000000 0.077997 0.000000 0.000000
# 5 0.000000 0.000000 0.000000 0.000000 -2.549696 0.000000
# 6 0.000000 0.000000 0.000000 0.000000 0.000000 0.060322
#
#
# Mechanical properties :
#
#
# Convention : Reuss Voigt Hill
#
# Bulk Modulus (GPa) = 29.30986 33.35424 31.33205
# Shear Modulus (GPa) = -2.12589 21.07330 9.47370
#
# Velocity S-wave (km/s) = -0.99210 3.12357 2.09433
# Velocity P-wave (km/s) = 3.50111 5.33399 4.51161
#
# Compressibility (1/GPa) = 0.03411821
#
# Stress axis : x y z
#
# Youngs Moduli (GPa) = 82.50573 58.99038 83.24703
#
# Poissons Ratio (x) = 0.18094 0.31307
# Poissons Ratio (y) = 0.25307 -0.27844
# Poissons Ratio (z) = 0.31028 -0.19731
#
# Static dielectric constant tensor:
#      x y z
#    x 1.795100 0.000000 0.000000 
#    y 0.000000 1.774870 0.000000 
#    z 0.000000 0.000000 1.877130 
# 
# From -- ./inp_files/12575.got.cif
#   From: 2010.05.17/outbox.cif.g08.bks.cpg/sg50_7_cif.got.tgz:12575.got - 2010.06.03 11:33:33.
