data_PCOD9395370
_publ_section_title
;
Structure prediction by ZEFSAII (Michael W. Deem and Ramdas Pophale) SiO2 
 PCOD9395370
Probable space group: P B A N
;
_chemical_formula_sum "Si O2"
_cell_formula_units_Z 64
_cell_length_a 29.956370
_cell_length_b 7.390377
_cell_length_c 12.072497
_cell_angle_alpha 90.000000
_cell_angle_beta 90.000000
_cell_angle_gamma 90.000000
_cell_volume 2672.716443
_symmetry_space_group_name_H-M "P B A N"
_symmetry_group_IT_number 50
_space_group.IT_coordinate_system_code '2'
_symmetry_cell_setting 'orthorhombic'
loop_
_space_group_symop_operation_xyz
x,y,z
1/2-x,1/2-y,z
x,1/2-y,-z
1/2-x,y,-z
-x,-y,-z
1/2+x,1/2+y,-z
-x,1/2+y,z
1/2+x,-y,z
loop_
_atom_site_type_symbol
_atom_site_label
_atom_site_fract_x
_atom_site_fract_y
_atom_site_fract_z
Si Si1 0.142435 0.470316 0.988249
Si Si2 0.335137 0.493565 0.772750
Si Si3 0.477914 0.202613 0.716454
Si Si4 0.414060 0.440315 0.449100
Si Si5 0.249967 0.470451 0.627168
Si Si6 0.571011 0.416261 0.316134
Si Si7 0.157777 0.444730 0.737487
Si Si8 0.546662 0.944580 0.050354
O O1 0.156556 0.512889 0.863375
O O2 0.091311 0.542247 0.989465
O O3 0.143534 0.250000 0.000000
O O4 0.170005 0.529003 0.095987
O O5 0.292453 0.536350 0.697348
O O6 0.380798 0.593250 0.739034
O O7 0.343315 0.276593 0.750155
O O8 0.461761 0.107305 0.604137
O O9 0.531328 0.218863 0.716336
O O10 0.452056 0.392581 0.718801
O O11 0.460054 0.087873 0.820022
O O12 0.395641 0.250000 0.500000
O O13 0.420000 0.569870 0.552972
O O14 0.381635 0.493870 0.348544
O O15 0.250000 0.250000 0.626696
O O16 0.250000 0.530434 0.500000
O O17 0.203348 0.513408 0.684249
O O18 0.554074 0.750000 0.000000
O O19 0.500000 0.000000 0.000000
#
# Coordination Sequence:
#
# PCOD9395370 Si02
#       8
#     8   8   8   8   8   8   8   8
#     4   9  17  28  44  61  90 130 163 199 250 306
#     4  10  17  30  43  66  95 129 162 204 259 300
#     4  11  20  34  48  74  96 134 179 210 252 305
#     4  10  18  30  49  67  96 131 167 207 255 298
#     4   9  18  25  42  66  90 127 164 202 248 316
#     4  11  21  33  53  71 102 138 171 214 256 299
#     4  10  16  29  45  65  95 129 163 203 255 310
#     4  11  20  32  49  70  97 137 177 209 249 303
#
# _framework density 23.945675000000001
#
# number of rings (size 3 to 8) (size 9 to 14) (size 15 to 20)
#    0.000    1.875    3.750    4.125    1.750    0.500 
#    0.000    2.500    0.000    0.000    0.000    0.000 
#    0.000    1.000    0.250   15.125    1.500    5.375 
#
# Total GULP energy -357830.663913 kJ/mol
# GULP energy per Si atom -5591.104124 kJ/mol
# Density = 2.389117 g / cm^3
# Si number density = 23.945675 Si / 1000 Ang^3
#
#
#
# Elastic Constant Matrix: (Units=GPa)
#
#
# Indices 1 2 3 4 5 6 
#
# 1 179.6439 7.3659 89.8394 0.0000 0.0000 0.0000
# 2 7.3659 68.5645 17.4096 0.0000 0.0000 0.0000
# 3 89.8394 17.4096 208.0967 0.0000 0.0000 0.0000
# 4 0.0000 0.0000 0.0000 8.6713 0.0000 0.0000
# 5 0.0000 0.0000 0.0000 0.0000 17.5772 0.0000
# 6 0.0000 0.0000 0.0000 0.0000 0.0000 -13.9427
#
#
#
# Elastic Compliance Matrix: (Units=1/GPa)
#
#
# Indices 1 2 3 4 5 6 
#
# 1 0.007099 0.000016 -0.003066 0.000000 0.000000 0.000000
# 2 0.000016 0.014901 -0.001254 0.000000 0.000000 0.000000
# 3 -0.003066 -0.001254 0.006234 0.000000 0.000000 0.000000
# 4 0.000000 0.000000 0.000000 0.115323 0.000000 0.000000
# 5 0.000000 0.000000 0.000000 0.000000 0.056892 0.000000
# 6 0.000000 0.000000 0.000000 0.000000 0.000000 -0.071722
#
#
# Mechanical properties :
#
#
# Convention : Reuss Voigt Hill
#
# Bulk Modulus (GPa) = 50.95015 76.17055 63.56035
# Shear Modulus (GPa) = 34.75184 25.24051 29.99618
#
# Velocity S-wave (km/s) = 3.81370 3.25017 3.54316
# Velocity P-wave (km/s) = 6.38091 6.77965 6.58330
#
# Compressibility (1/GPa) = 0.01962703
#
# Stress axis : x y z
#
# Youngs Moduli (GPa) = 140.85805 67.10787 160.40824
#
# Poissons Ratio (x) = -0.00107 0.49185
# Poissons Ratio (y) = -0.00224 0.20108
# Poissons Ratio (z) = 0.43191 0.08412
#
# Static dielectric constant tensor:
#      x y z
#    x 1.692920 0.000000 0.000000 
#    y 0.000000 2.129610 0.000000 
#    z 0.000000 0.000000 1.881090 
# 
# From -- ./inp_files/23416.got.cif
#   From: 2010.05.17/outbox.cif.g08.bks.cpg/sg50_12_cif.got.tgz:23416.got - 2010.06.03 11:33:33.
