data_PCOD9395816
_publ_section_title
;
Structure prediction by ZEFSAII (Michael W. Deem and Ramdas Pophale) SiO2 
 PCOD9395816
Probable space group: P B A N
;
_chemical_formula_sum "Si O2"
_cell_formula_units_Z 56
_cell_length_a 14.514082
_cell_length_b 20.668510
_cell_length_c 10.398336
_cell_angle_alpha 90.000000
_cell_angle_beta 90.000000
_cell_angle_gamma 90.000000
_cell_volume 3119.339095
_symmetry_space_group_name_H-M "P B A N"
_symmetry_group_IT_number 50
_space_group.IT_coordinate_system_code '2'
_symmetry_cell_setting 'orthorhombic'
loop_
_space_group_symop_operation_xyz
x,y,z
1/2-x,1/2-y,z
x,1/2-y,-z
1/2-x,y,-z
-x,-y,-z
1/2+x,1/2+y,-z
-x,1/2+y,z
1/2+x,-y,z
loop_
_atom_site_type_symbol
_atom_site_label
_atom_site_fract_x
_atom_site_fract_y
_atom_site_fract_z
Si Si1 0.647637 0.536352 0.998978
Si Si2 0.146219 0.746996 0.652901
Si Si3 0.501197 0.645863 0.730839
Si Si4 0.499615 0.640211 0.284211
Si Si5 0.499277 0.503323 0.787986
Si Si6 0.583742 0.824199 0.991870
Si Si7 0.355239 0.172858 0.507514
O O1 0.589961 0.517496 0.873113
O O2 0.651301 0.614391 0.007249
O O3 0.750000 0.509478 0.000000
O O4 0.585732 0.511070 0.116329
O O5 0.250000 0.750000 0.707247
O O6 0.152678 0.750000 0.500000
O O7 0.081535 0.806835 0.692973
O O8 0.090600 0.681692 0.684241
O O9 0.478426 0.570041 0.716104
O O10 0.524116 0.662661 0.879404
O O11 0.589692 0.657602 0.638978
O O12 0.484232 0.563339 0.285538
O O13 0.580638 0.653080 0.387299
O O14 0.529882 0.664832 0.142194
O O15 0.618093 0.750000 0.000000
O O16 0.349119 0.250000 0.500000
O O17 0.250000 0.146900 0.500000
#
# Coordination Sequence:
#
# PCOD9395816 Si02
#       7
#     8   8   8   8   8   8   8
#     4   9  19  37  54  81 124 162 191 231 297 365
#     4  11  22  39  63  87 118 164 205 242 293 349
#     4  11  20  41  59  88 122 155 197 249 291 355
#     4  11  20  41  59  88 122 155 197 249 291 355
#     4   9  22  35  60  84 118 162 196 242 304 344
#     4  10  19  33  63  90 117 149 186 246 303 346
#     4  11  22  39  64  88 116 156 191 238 307 363
#
# _framework density 17.952521000000001
#
# number of rings (size 3 to 8) (size 9 to 14) (size 15 to 20)
#    0.000    1.714    4.286    0.857    0.000    6.571 
#    0.000    1.429    0.000    0.000    0.000    0.000 
#    0.000    0.000    0.000    0.000    0.000    0.000 
#
# Total GULP energy -312045.850041 kJ/mol
# GULP energy per Si atom -5572.247322 kJ/mol
# Density = 1.791166 g / cm^3
# Si number density = 17.952521 Si / 1000 Ang^3
#
#
#
# Elastic Constant Matrix: (Units=GPa)
#
#
# Indices 1 2 3 4 5 6 
#
# 1 96.2364 -6.3363 -6.5882 0.0000 0.0000 0.0000
# 2 -6.3363 92.0651 -26.2835 0.0000 0.0000 0.0000
# 3 -6.5882 -26.2835 48.8934 0.0000 0.0000 0.0000
# 4 0.0000 0.0000 0.0000 38.3063 0.0000 0.0000
# 5 0.0000 0.0000 0.0000 0.0000 1.2190 0.0000
# 6 0.0000 0.0000 0.0000 0.0000 0.0000 -2.9133
#
#
#
# Elastic Compliance Matrix: (Units=1/GPa)
#
#
# Indices 1 2 3 4 5 6 
#
# 1 0.010627 0.001347 0.002156 0.000000 0.000000 0.000000
# 2 0.001347 0.013002 0.007171 0.000000 0.000000 0.000000
# 3 0.002156 0.007171 0.024598 0.000000 0.000000 0.000000
# 4 0.000000 0.000000 0.000000 0.026105 0.000000 0.000000
# 5 0.000000 0.000000 0.000000 0.000000 0.820374 0.000000
# 6 0.000000 0.000000 0.000000 0.000000 0.000000 -0.343254
#
#
# Mechanical properties :
#
#
# Convention : Reuss Voigt Hill
#
# Bulk Modulus (GPa) = 14.37299 17.64207 16.00753
# Shear Modulus (GPa) = 9.03676 25.74926 17.39301
#
# Velocity S-wave (km/s) = 2.24602 3.79132 3.11599
# Velocity P-wave (km/s) = 3.84053 5.38645 4.67780
#
# Compressibility (1/GPa) = 0.06957497
#
# Stress axis : x y z
#
# Youngs Moduli (GPa) = 94.09665 76.91254 40.65369
#
# Poissons Ratio (x) = -0.10360 -0.08765
# Poissons Ratio (y) = -0.12674 -0.29152
# Poissons Ratio (z) = -0.20288 -0.55153
#
# Static dielectric constant tensor:
#      x y z
#    x 1.612670 0.000000 0.000000 
#    y 0.000000 1.628010 0.000000 
#    z 0.000000 0.000000 1.620760 
# 
# From -- ./inp_files/13310.got.cif
#   From: 2010.05.17/outbox.cif.g08.bks.cpg/sg50_7_cif.got.tgz:13310.got - 2010.06.03 11:33:33.
