data_PCOD9395729
_publ_section_title
;
Structure prediction by ZEFSAII (Michael W. Deem and Ramdas Pophale) SiO2 
 PCOD9395729
Probable space group: P B A N
;
_chemical_formula_sum "Si O2"
_cell_formula_units_Z 56
_cell_length_a 8.735797
_cell_length_b 19.757634
_cell_length_c 14.509939
_cell_angle_alpha 90.000000
_cell_angle_beta 90.000000
_cell_angle_gamma 90.000000
_cell_volume 2504.396316
_symmetry_space_group_name_H-M "P B A N"
_symmetry_group_IT_number 50
_space_group.IT_coordinate_system_code '2'
_symmetry_cell_setting 'orthorhombic'
loop_
_space_group_symop_operation_xyz
x,y,z
1/2-x,1/2-y,z
x,1/2-y,-z
1/2-x,y,-z
-x,-y,-z
1/2+x,1/2+y,-z
-x,1/2+y,z
1/2+x,-y,z
loop_
_atom_site_type_symbol
_atom_site_label
_atom_site_fract_x
_atom_site_fract_y
_atom_site_fract_z
Si Si1 0.056709 0.660430 0.694390
Si Si2 0.755222 0.906546 0.391681
Si Si3 0.017577 0.004256 0.162260
Si Si4 0.414253 0.290194 0.286643
Si Si5 0.569245 0.849080 0.095561
Si Si6 0.931495 0.639915 0.896417
Si Si7 0.268567 0.543625 0.706382
O O1 0.211357 0.618065 0.678815
O O2 0.919763 0.616231 0.649505
O O3 0.029178 0.737588 0.664386
O O4 0.017583 0.662576 0.804129
O O5 0.750000 0.895335 0.500000
O O6 0.633072 0.857326 0.342017
O O7 0.733823 0.985405 0.367557
O O8 0.936292 0.029590 0.256008
O O9 0.037160 0.071232 0.104044
O O10 0.937487 0.941840 0.111220
O O11 0.175157 0.974068 0.200140
O O12 0.250000 0.250000 0.277222
O O13 0.483815 0.311713 0.187782
O O14 0.753020 0.840332 0.103468
O O15 0.510055 0.831612 0.993840
#
# Coordination Sequence:
#
# PCOD9395729 Si02
#       7
#     8   8   8   8   8   8   8
#     4  10  21  38  54  85 122 153 199 246 307 359
#     4  11  21  37  63  88 117 154 204 255 312 361
#     4  11  18  37  57  84 123 155 196 246 302 354
#     4  10  19  37  55  85 121 154 197 250 297 368
#     4  11  19  32  55  85 118 156 199 244 298 356
#     4  10  19  31  53  89 114 154 194 248 298 345
#     4  11  20  38  62  84 122 157 196 255 297 369
#
# _framework density 22.360679999999999
#
# number of rings (size 3 to 8) (size 9 to 14) (size 15 to 20)
#    0.000    1.429    8.571    0.429    0.000    3.714 
#    0.000    0.714    0.000    0.000    0.000    4.000 
#    0.000    0.000    0.000    0.000    0.000    0.000 
#
# Total GULP energy -312395.947375 kJ/mol
# GULP energy per Si atom -5578.499060 kJ/mol
# Density = 2.230979 g / cm^3
# Si number density = 22.360680 Si / 1000 Ang^3
#
#
#
# Elastic Constant Matrix: (Units=GPa)
#
#
# Indices 1 2 3 4 5 6 
#
# 1 10.4680 2.7060 2.2642 0.0000 0.0000 0.0000
# 2 2.7060 96.6146 17.9370 0.0000 0.0000 0.0000
# 3 2.2642 17.9370 114.4852 0.0000 0.0000 0.0000
# 4 0.0000 0.0000 0.0000 -168.2334 0.0000 0.0000
# 5 0.0000 0.0000 0.0000 0.0000 3.7294 0.0000
# 6 0.0000 0.0000 0.0000 0.0000 0.0000 20.1912
#
#
#
# Elastic Compliance Matrix: (Units=1/GPa)
#
#
# Indices 1 2 3 4 5 6 
#
# 1 0.096485 -0.002418 -0.001529 0.000000 0.000000 0.000000
# 2 -0.002418 0.010721 -0.001632 0.000000 0.000000 0.000000
# 3 -0.001529 -0.001632 0.009021 0.000000 0.000000 0.000000
# 4 0.000000 0.000000 0.000000 -0.005944 0.000000 0.000000
# 5 0.000000 0.000000 0.000000 0.000000 0.268138 0.000000
# 6 0.000000 0.000000 0.000000 0.000000 0.000000 0.049527
#
#
# Mechanical properties :
#
#
# Convention : Reuss Voigt Hill
#
# Bulk Modulus (GPa) = 9.51767 29.70915 19.61341
# Shear Modulus (GPa) = 10.54565 -15.61853 -2.53644
#
# Velocity S-wave (km/s) = 2.17403 -2.64575 -1.06621
# Velocity P-wave (km/s) = 3.25077 1.99546 2.69717
#
# Compressibility (1/GPa) = 0.10506769
#
# Stress axis : x y z
#
# Youngs Moduli (GPa) = 10.36427 93.27389 110.85635
#
# Poissons Ratio (x) = 0.22558 0.16954
# Poissons Ratio (y) = 0.02507 0.18091
# Poissons Ratio (z) = 0.01585 0.15221
#
# Static dielectric constant tensor:
#      x y z
#    x 1.886940 0.000000 0.000000 
#    y 0.000000 1.885140 0.000000 
#    z 0.000000 0.000000 1.827560 
# 
# From -- ./inp_files/25270.got.cif
#   From: 2010.05.17/outbox.cif.g08.bks.cpg/sg50_13_cif.got.tgz:25270.got - 2010.06.03 11:33:33.
