data_PCOD9395591
_publ_section_title
;
Structure prediction by ZEFSAII (Michael W. Deem and Ramdas Pophale) SiO2 
 PCOD9395591
Probable space group: P B A N
;
_chemical_formula_sum "Si O2"
_cell_formula_units_Z 32
_cell_length_a 15.005910
_cell_length_b 20.342209
_cell_length_c 4.865008
_cell_angle_alpha 90.000000
_cell_angle_beta 90.000000
_cell_angle_gamma 90.000000
_cell_volume 1485.060026
_symmetry_space_group_name_H-M "P B A N"
_symmetry_group_IT_number 50
_space_group.IT_coordinate_system_code '2'
_symmetry_cell_setting 'orthorhombic'
loop_
_space_group_symop_operation_xyz
x,y,z
1/2-x,1/2-y,z
x,1/2-y,-z
1/2-x,y,-z
-x,-y,-z
1/2+x,1/2+y,-z
-x,1/2+y,z
1/2+x,-y,z
loop_
_atom_site_type_symbol
_atom_site_label
_atom_site_fract_x
_atom_site_fract_y
_atom_site_fract_z
Si Si1 0.809049 0.062198 0.733649
Si Si2 0.992167 0.393043 0.027271
Si Si3 0.899809 0.930225 0.557795
Si Si4 0.107900 0.205964 0.232428
O O1 0.750000 0.097172 0.500000
O O2 0.843499 0.995035 0.594024
O O3 0.895897 0.099872 0.843397
O O4 0.750000 0.047251 0.000000
O O5 0.064362 0.412798 0.258204
O O6 0.013788 0.437717 0.760459
O O7 0.017480 0.321424 0.910806
O O8 0.851465 0.864319 0.675008
O O9 0.094382 0.250000 0.500000
O O10 0.153005 0.250000 0.000000
#
# Coordination Sequence:
#
# PCOD9395591 Si02
#       4
#     8   8   8   8
#     4  12  24  36  56  88 125 156 190 239 306 364
#     4  10  20  36  60  84 116 148 199 243 290 344
#     4  10  20  36  60  82 119 148 198 244 292 346
#     4  10  18  33  60  87 106 142 202 253 279 331
#
# _framework density 21.547951999999999
#
# number of rings (size 3 to 8) (size 9 to 14) (size 15 to 20)
#    1.500    0.000    2.500    4.500    0.000    0.000 
#    0.000    0.000    0.000    5.250    6.500    0.000 
#    0.000    0.000    0.000    0.000    0.000    0.000 
#
# Total GULP energy -178449.713894 kJ/mol
# GULP energy per Si atom -5576.553559 kJ/mol
# Density = 2.149891 g / cm^3
# Si number density = 21.547952 Si / 1000 Ang^3
#
#
#
# Elastic Constant Matrix: (Units=GPa)
#
#
# Indices 1 2 3 4 5 6 
#
# 1 91.2505 20.5704 36.9879 0.0000 0.0000 0.0000
# 2 20.5704 65.3755 20.3420 0.0000 0.0000 0.0000
# 3 36.9879 20.3420 160.4306 0.0000 0.0000 0.0000
# 4 0.0000 0.0000 0.0000 25.9434 0.0000 0.0000
# 5 0.0000 0.0000 0.0000 0.0000 24.9011 0.0000
# 6 0.0000 0.0000 0.0000 0.0000 0.0000 -9.1083
#
#
#
# Elastic Compliance Matrix: (Units=1/GPa)
#
#
# Indices 1 2 3 4 5 6 
#
# 1 0.012705 -0.003213 -0.002522 0.000000 0.000000 0.000000
# 2 -0.003213 0.016737 -0.001381 0.000000 0.000000 0.000000
# 3 -0.002522 -0.001381 0.006990 0.000000 0.000000 0.000000
# 4 0.000000 0.000000 0.000000 0.038545 0.000000 0.000000
# 5 0.000000 0.000000 0.000000 0.000000 0.040159 0.000000
# 6 0.000000 0.000000 0.000000 0.000000 0.000000 -0.109790
#
#
# Mechanical properties :
#
#
# Convention : Reuss Voigt Hill
#
# Bulk Modulus (GPa) = 45.04588 52.53969 48.79278
# Shear Modulus (GPa) = 185.32626 24.29098 104.80862
#
# Velocity S-wave (km/s) = 9.28403 3.36117 6.98178
# Velocity P-wave (km/s) = 11.65652 6.28481 9.36412
#
# Compressibility (1/GPa) = 0.02219959
#
# Stress axis : x y z
#
# Youngs Moduli (GPa) = 78.70682 59.74758 143.06537
#
# Poissons Ratio (x) = 0.19197 0.36079
# Poissons Ratio (y) = 0.25289 0.19763
# Poissons Ratio (z) = 0.19849 0.08254
#
# Static dielectric constant tensor:
#      x y z
#    x 1.842370 0.000000 0.000000 
#    y 0.000000 1.828760 0.000000 
#    z 0.000000 0.000000 1.771910 
# 
# From -- ./inp_files/3297.got.cif
#   From: 2010.05.17/outbox.cif.g08.bks.cpg/sg50_2_cif.got.tgz:3297.got - 2010.06.03 11:33:33.
