data_PCOD9395543
_publ_section_title
;
Structure prediction by ZEFSAII (Michael W. Deem and Ramdas Pophale) SiO2 
 PCOD9395543
Probable space group: P B A N
;
_chemical_formula_sum "Si O2"
_cell_formula_units_Z 64
_cell_length_a 31.306477
_cell_length_b 5.266453
_cell_length_c 18.904359
_cell_angle_alpha 90.000000
_cell_angle_beta 90.000000
_cell_angle_gamma 90.000000
_cell_volume 3116.838982
_symmetry_space_group_name_H-M "P B A N"
_symmetry_group_IT_number 50
_space_group.IT_coordinate_system_code '2'
_symmetry_cell_setting 'orthorhombic'
loop_
_space_group_symop_operation_xyz
x,y,z
1/2-x,1/2-y,z
x,1/2-y,-z
1/2-x,y,-z
-x,-y,-z
1/2+x,1/2+y,-z
-x,1/2+y,z
1/2+x,-y,z
loop_
_atom_site_type_symbol
_atom_site_label
_atom_site_fract_x
_atom_site_fract_y
_atom_site_fract_z
Si Si1 0.395162 0.774180 0.419890
Si Si2 0.878799 0.631317 0.209995
Si Si3 0.485294 0.770237 0.374491
Si Si4 0.798201 0.004676 0.030942
Si Si5 0.351345 0.214970 0.627131
Si Si6 0.169099 0.877652 0.821854
Si Si7 0.275735 0.495478 0.685339
Si Si8 0.479076 0.343247 0.215214
O O1 0.410471 0.750000 0.500000
O O2 0.435147 0.715539 0.369023
O O3 0.359146 0.556094 0.409841
O O4 0.380574 0.059508 0.403311
O O5 0.863856 0.657724 0.291623
O O6 0.852519 0.398560 0.175927
O O7 0.929451 0.595005 0.207796
O O8 0.866255 0.901336 0.176647
O O9 0.508657 0.539229 0.411628
O O10 0.508291 0.816292 0.298761
O O11 0.799155 0.048435 0.114483
O O12 0.818183 0.750000 0.000000
O O13 0.750000 0.003256 0.000000
O O14 0.821214 0.250000 0.000000
O O15 0.304979 0.349576 0.627675
O O16 0.194049 0.900345 0.747811
O O17 0.250000 0.750000 0.662120
O O18 0.250000 0.250000 0.715210
O O19 0.507592 0.570921 0.185280
#
# Coordination Sequence:
#
# PCOD9395543 Si02
#       8
#     8   8   8   8   8   8   8   8
#     4  12  24  39  61  84 117 159 205 251 306 396
#     4  11  21  37  59  86 122 165 201 260 301 353
#     4  10  20  33  52  81 113 154 191 237 290 369
#     4  10  22  37  58  87 126 178 203 234 277 355
#     4  11  22  41  59  83 115 153 202 252 326 372
#     4  11  23  37  59  91 127 161 213 241 286 357
#     4  11  23  37  62  88 115 148 191 260 301 359
#     4  10  18  31  53  81 115 155 194 238 309 364
#
# _framework density 20.533625000000001
#
# number of rings (size 3 to 8) (size 9 to 14) (size 15 to 20)
#    0.000    1.250    0.000    9.375    3.500    0.500 
#    0.000    0.000    0.000    5.625    0.000    0.000 
#    0.000   35.000    0.000    0.000    0.000    0.000 
#
# Total GULP energy -356889.492657 kJ/mol
# GULP energy per Si atom -5576.398323 kJ/mol
# Density = 2.048689 g / cm^3
# Si number density = 20.533625 Si / 1000 Ang^3
#
#
#
# Elastic Constant Matrix: (Units=GPa)
#
#
# Indices 1 2 3 4 5 6 
#
# 1 73.9450 15.6941 -2.1319 0.0000 0.0000 0.0000
# 2 15.6941 168.1658 -0.0727 0.0000 0.0000 0.0000
# 3 -2.1319 -0.0727 25.3978 0.0000 0.0000 0.0000
# 4 0.0000 0.0000 0.0000 14.4691 0.0000 0.0000
# 5 0.0000 0.0000 0.0000 0.0000 3.6747 0.0000
# 6 0.0000 0.0000 0.0000 0.0000 0.0000 16.4994
#
#
#
# Elastic Compliance Matrix: (Units=1/GPa)
#
#
# Indices 1 2 3 4 5 6 
#
# 1 0.013831 -0.001290 0.001157 0.000000 0.000000 0.000000
# 2 -0.001290 0.006067 -0.000091 0.000000 0.000000 0.000000
# 3 0.001157 -0.000091 0.039470 0.000000 0.000000 0.000000
# 4 0.000000 0.000000 0.000000 0.069113 0.000000 0.000000
# 5 0.000000 0.000000 0.000000 0.000000 0.272130 0.000000
# 6 0.000000 0.000000 0.000000 0.000000 0.000000 0.060608
#
#
# Mechanical properties :
#
#
# Convention : Reuss Voigt Hill
#
# Bulk Modulus (GPa) = 16.97210 32.72084 24.84647
# Shear Modulus (GPa) = 10.38837 23.86325 17.12581
#
# Velocity S-wave (km/s) = 2.25171 3.41274 2.89110
# Velocity P-wave (km/s) = 3.87862 5.61239 4.82403
#
# Compressibility (1/GPa) = 0.05892022
#
# Stress axis : x y z
#
# Youngs Moduli (GPa) = 72.30257 164.82914 25.33546
#
# Poissons Ratio (x) = 0.21267 -0.02932
# Poissons Ratio (y) = 0.09329 0.00230
# Poissons Ratio (z) = -0.08367 0.01499
#
# Static dielectric constant tensor:
#      x y z
#    x 1.789580 0.000000 0.000000 
#    y 0.000000 1.809440 0.000000 
#    z 0.000000 0.000000 1.774970 
# 
# From -- ./inp_files/30109.got.cif
#   From: 2010.05.17/outbox.cif.g08.bks.cpg/sg50_16_cif.got.tgz:30109.got - 2010.06.03 11:33:33.
