data_PCOD9395017
_publ_section_title
;
Structure prediction by ZEFSAII (Michael W. Deem and Ramdas Pophale) SiO2 
 PCOD9395017
Probable space group: P C C M
;
_chemical_formula_sum "Si O2"
_cell_formula_units_Z 48
_cell_length_a 9.240792
_cell_length_b 8.240264
_cell_length_c 29.433822
_cell_angle_alpha 90.000000
_cell_angle_beta 90.000000
_cell_angle_gamma 90.000000
_cell_volume 2241.284459
_symmetry_space_group_name_H-M "P C C M"
_symmetry_group_IT_number 49
_symmetry_cell_setting 'orthorhombic'
loop_
_space_group_symop_operation_xyz
x,y,z
-x,-y,z
x,-y,1/2-z
-x,y,1/2-z
-x,-y,-z
x,y,-z
-x,y,1/2+z
x,-y,1/2+z
loop_
_atom_site_type_symbol
_atom_site_label
_atom_site_fract_x
_atom_site_fract_y
_atom_site_fract_z
Si Si1 0.467578 0.672090 0.650917
Si Si2 0.058498 0.685016 0.797002
Si Si3 0.169658 0.161636 0.858088
Si Si4 0.553398 0.746146 0.449052
Si Si5 0.675921 0.894770 0.703464
Si Si6 0.251838 0.949029 0.451051
O O1 0.500000 0.500000 0.673523
O O2 0.296596 0.703052 0.645631
O O3 0.542545 0.665777 0.600702
O O4 0.532574 0.822890 0.679495
O O5 0.978123 0.775028 0.837618
O O6 0.000000 0.500000 0.798753
O O7 0.000000 0.758054 0.750000
O O8 0.226224 0.730612 0.793383
O O9 0.156883 0.109112 0.909823
O O10 0.235256 0.011602 0.830094
O O11 0.564566 0.667861 0.500000
O O12 0.402007 0.845677 0.450171
O O13 0.687923 0.869280 0.446188
O O14 0.661362 0.000000 0.750000
O O15 0.182921 0.926485 0.500000
#
# Coordination Sequence:
#
# PCOD9395017 Si02
#       6
#     8   8   8   8   8   8
#     4  11  23  38  58  92 129 159 193 247 310 352
#     4  11  24  43  63  86 114 150 196 248 305 361
#     4  11  21  38  64  89 116 158 203 247 289 354
#     4   8  14  28  52  84 121 157 195 240 290 351
#     4  12  24  42  62  86 116 157 201 247 294 356
#     4   8  14  28  54  86 117 152 198 245 290 343
#
# _framework density 21.416291000000001
#
# number of rings (size 3 to 8) (size 9 to 14) (size 15 to 20)
#    0.000    1.833    3.333    3.000    0.000    1.667 
#    0.000    0.833    0.000    3.500    0.000    0.000 
#    0.000    0.000    0.000    0.000    0.000    0.000 
#
# Total GULP energy -267647.686175 kJ/mol
# GULP energy per Si atom -5575.993462 kJ/mol
# Density = 2.136755 g / cm^3
# Si number density = 21.416291 Si / 1000 Ang^3
#
#
#
# Elastic Constant Matrix: (Units=GPa)
#
#
# Indices 1 2 3 4 5 6 
#
# 1 71.1089 14.1197 31.0424 0.0000 0.0000 0.0000
# 2 14.1197 94.6073 33.5448 0.0000 0.0000 0.0000
# 3 31.0424 33.5448 158.8487 0.0000 0.0000 0.0000
# 4 0.0000 0.0000 0.0000 -13.9266 0.0000 0.0000
# 5 0.0000 0.0000 0.0000 0.0000 26.8139 0.0000
# 6 0.0000 0.0000 0.0000 0.0000 0.0000 24.8985
#
#
#
# Elastic Compliance Matrix: (Units=1/GPa)
#
#
# Indices 1 2 3 4 5 6 
#
# 1 0.015531 -0.001342 -0.002752 0.000000 0.000000 0.000000
# 2 -0.001342 0.011542 -0.002175 0.000000 0.000000 0.000000
# 3 -0.002752 -0.002175 0.007292 0.000000 0.000000 0.000000
# 4 0.000000 0.000000 0.000000 -0.071805 0.000000 0.000000
# 5 0.000000 0.000000 0.000000 0.000000 0.037294 0.000000
# 6 0.000000 0.000000 0.000000 0.000000 0.000000 0.040163
#
#
# Mechanical properties :
#
#
# Convention : Reuss Voigt Hill
#
# Bulk Modulus (GPa) = 45.81502 53.55318 49.68410
# Shear Modulus (GPa) = 83.57041 23.94769 53.75905
#
# Velocity S-wave (km/s) = 6.25353 3.34758 5.01562
# Velocity P-wave (km/s) = 8.57795 6.32470 7.53601
#
# Compressibility (1/GPa) = 0.02182690
#
# Stress axis : x y z
#
# Youngs Moduli (GPa) = 64.38878 86.64373 137.13073
#
# Poissons Ratio (x) = 0.11630 0.37732
# Poissons Ratio (y) = 0.08643 0.29826
# Poissons Ratio (z) = 0.17717 0.18845
#
# Static dielectric constant tensor:
#      x y z
#    x 1.849560 0.000000 0.000000 
#    y 0.000000 1.828220 0.000000 
#    z 0.000000 0.000000 1.805940 
# 
# From -- ./inp_files/26257.got.cif
#   From: 2010.05.17/outbox.cif.g08.bks.cpg/sg49_14_cif.got.tgz:26257.got - 2010.06.03 21:02:19.
