data_PCOD9395480
_publ_section_title
;
Structure prediction by ZEFSAII (Michael W. Deem and Ramdas Pophale) SiO2 
 PCOD9395480
Probable space group: P B A N
;
_chemical_formula_sum "Si O2"
_cell_formula_units_Z 40
_cell_length_a 8.918968
_cell_length_b 27.167826
_cell_length_c 7.464428
_cell_angle_alpha 90.000000
_cell_angle_beta 90.000000
_cell_angle_gamma 90.000000
_cell_volume 1808.697866
_symmetry_space_group_name_H-M "P B A N"
_symmetry_group_IT_number 50
_space_group.IT_coordinate_system_code '2'
_symmetry_cell_setting 'orthorhombic'
loop_
_space_group_symop_operation_xyz
x,y,z
1/2-x,1/2-y,z
x,1/2-y,-z
1/2-x,y,-z
-x,-y,-z
1/2+x,1/2+y,-z
-x,1/2+y,z
1/2+x,-y,z
loop_
_atom_site_type_symbol
_atom_site_label
_atom_site_fract_x
_atom_site_fract_y
_atom_site_fract_z
Si Si1 0.600181 0.839281 0.925447
Si Si2 0.680094 0.933135 0.688039
Si Si3 0.524742 0.512754 0.791318
Si Si4 0.642947 0.108544 0.831494
Si Si5 0.690821 0.300586 0.792238
O O1 0.651120 0.886141 0.809701
O O2 0.487296 0.805671 0.810936
O O3 0.750000 0.814737 0.000000
O O4 0.499719 0.862486 0.085095
O O5 0.750000 0.917678 0.500000
O O6 0.805568 0.969740 0.768130
O O7 0.528735 0.965362 0.680817
O O8 0.420872 0.559699 0.743828
O O9 0.500000 0.500000 0.000000
O O10 0.737525 0.148743 0.720807
O O11 0.750000 0.094039 0.000000
O O12 0.750000 0.250000 0.711200
O O13 0.750000 0.300271 0.000000
#
# Coordination Sequence:
#
# PCOD9395480 Si02
#       5
#     8   8   8   8   8
#     4  10  17  34  57  81 113 155 192 230 290 364
#     4  12  25  36  51  85 124 155 199 248 290 337
#     4  12  21  37  58  78 111 162 204 235 288 354
#     4   9  17  30  55  80 108 143 198 227 293 343
#     4   8  17  32  54  87 119 131 181 252 305 335
#
# _framework density 22.115359000000002
#
# number of rings (size 3 to 8) (size 9 to 14) (size 15 to 20)
#    0.000    2.200    4.000    2.400    2.800    0.000 
#    0.000    8.000    0.000    0.000    0.000    5.600 
#    0.000    0.000    0.000    0.000    0.000    0.000 
#
# Total GULP energy -223381.004228 kJ/mol
# GULP energy per Si atom -5584.525106 kJ/mol
# Density = 2.206502 g / cm^3
# Si number density = 22.115359 Si / 1000 Ang^3
#
#
#
# Elastic Constant Matrix: (Units=GPa)
#
#
# Indices 1 2 3 4 5 6 
#
# 1 146.7075 42.5108 18.9876 0.0000 0.0000 0.0000
# 2 42.5108 106.0025 8.8507 0.0000 0.0000 0.0000
# 3 18.9876 8.8507 43.1915 0.0000 0.0000 0.0000
# 4 0.0000 0.0000 0.0000 -0.6434 0.0000 0.0000
# 5 0.0000 0.0000 0.0000 0.0000 11.6129 0.0000
# 6 0.0000 0.0000 0.0000 0.0000 0.0000 17.2691
#
#
#
# Elastic Compliance Matrix: (Units=1/GPa)
#
#
# Indices 1 2 3 4 5 6 
#
# 1 0.008062 -0.002988 -0.002932 0.000000 0.000000 0.000000
# 2 -0.002988 0.010706 -0.000880 0.000000 0.000000 0.000000
# 3 -0.002932 -0.000880 0.024622 0.000000 0.000000 0.000000
# 4 0.000000 0.000000 0.000000 -1.554257 0.000000 0.000000
# 5 0.000000 0.000000 0.000000 0.000000 0.086111 0.000000
# 6 0.000000 0.000000 0.000000 0.000000 0.000000 0.057907
#
#
# Mechanical properties :
#
#
# Convention : Reuss Voigt Hill
#
# Bulk Modulus (GPa) = 33.56930 48.51107 41.04019
# Shear Modulus (GPa) = -3.72212 20.68456 8.48122
#
# Velocity S-wave (km/s) = -1.29873 3.06159 1.96044
# Velocity P-wave (km/s) = 3.60044 5.87204 4.87053
#
# Compressibility (1/GPa) = 0.02978912
#
# Stress axis : x y z
#
# Youngs Moduli (GPa) = 124.04495 93.40902 40.61432
#
# Poissons Ratio (x) = 0.27913 0.11907
# Poissons Ratio (y) = 0.37067 0.03574
# Poissons Ratio (z) = 0.36366 0.08221
#
# Static dielectric constant tensor:
#      x y z
#    x 1.865920 0.000000 0.000000 
#    y 0.000000 1.847030 0.000000 
#    z 0.000000 0.000000 1.866660 
# 
# From -- ./inp_files/9912.got.cif
#   From: 2010.05.17/outbox.cif.g08.bks.cpg/sg50_5_cif.got.tgz:9912.got - 2010.06.03 11:33:33.
