data_PCOD9395545
_publ_section_title
;
Structure prediction by ZEFSAII (Michael W. Deem and Ramdas Pophale) SiO2 
 PCOD9395545
Probable space group: P B A N
;
_chemical_formula_sum "Si O2"
_cell_formula_units_Z 64
_cell_length_a 31.454728
_cell_length_b 12.358048
_cell_length_c 7.367954
_cell_angle_alpha 90.000000
_cell_angle_beta 90.000000
_cell_angle_gamma 90.000000
_cell_volume 2864.063994
_symmetry_space_group_name_H-M "P B A N"
_symmetry_group_IT_number 50
_space_group.IT_coordinate_system_code '2'
_symmetry_cell_setting 'orthorhombic'
loop_
_space_group_symop_operation_xyz
x,y,z
1/2-x,1/2-y,z
x,1/2-y,-z
1/2-x,y,-z
-x,-y,-z
1/2+x,1/2+y,-z
-x,1/2+y,z
1/2+x,-y,z
loop_
_atom_site_type_symbol
_atom_site_label
_atom_site_fract_x
_atom_site_fract_y
_atom_site_fract_z
Si Si1 0.546839 0.476929 0.228458
Si Si2 0.374553 0.382494 0.195803
Si Si3 0.802219 0.011541 0.303280
Si Si4 0.452673 0.527492 0.214802
Si Si5 0.209331 0.517091 0.738302
Si Si6 0.585671 0.251179 0.780302
Si Si7 0.817183 0.246162 0.707523
Si Si8 0.617598 0.640152 0.232558
O O1 0.497652 0.483345 0.281360
O O2 0.569453 0.365280 0.282893
O O3 0.575084 0.577937 0.294576
O O4 0.546869 0.476291 0.006613
O O5 0.411397 0.459646 0.272841
O O6 0.329197 0.442397 0.197035
O O7 0.375805 0.264615 0.287110
O O8 0.385296 0.363319 0.985660
O O9 0.756776 0.975670 0.223764
O O10 0.796433 0.020061 0.520055
O O11 0.811795 0.131279 0.225047
O O12 0.841267 0.931630 0.276408
O O13 0.445848 0.651910 0.267945
O O14 0.204770 0.642681 0.798568
O O15 0.632572 0.276810 0.709607
O O16 0.589031 0.250000 0.000000
O O17 0.801619 0.250000 0.500000
#
# Coordination Sequence:
#
# PCOD9395545 Si02
#       8
#     8   8   8   8   8   8   8   8
#     4   9  18  31  51  80 109 137 173 217 261 308
#     4  10  21  36  54  78 109 141 175 219 267 311
#     4  10  21  37  57  79 104 138 178 218 264 319
#     4   9  18  31  51  80 109 137 173 217 261 308
#     4  10  21  37  57  79 104 138 178 218 264 319
#     4  10  18  31  55  81 106 138 177 217 262 316
#     4  10  19  34  56  80 108 136 170 219 271 315
#     4  10  21  36  54  78 109 141 175 219 267 311
#
# _framework density 22.345867999999999
#
# number of rings (size 3 to 8) (size 9 to 14) (size 15 to 20)
#    0.000    2.250    2.500    0.375    1.750    3.000 
#    0.000    2.500    0.000    5.250    0.000    0.000 
#    0.000    0.000    0.000    0.000    0.000    0.000 
#
# Total GULP energy -357539.557171 kJ/mol
# GULP energy per Si atom -5586.555581 kJ/mol
# Density = 2.229501 g / cm^3
# Si number density = 22.345868 Si / 1000 Ang^3
#
#
#
# Elastic Constant Matrix: (Units=GPa)
#
#
# Indices 1 2 3 4 5 6 
#
# 1 120.6029 27.1673 -34.1326 0.0000 0.0000 0.0000
# 2 27.1673 116.1785 -22.0673 0.0000 0.0000 0.0000
# 3 -34.1326 -22.0673 54.0747 0.0000 0.0000 0.0000
# 4 0.0000 0.0000 0.0000 10.3215 0.0000 0.0000
# 5 0.0000 0.0000 0.0000 0.0000 24.5846 0.0000
# 6 0.0000 0.0000 0.0000 0.0000 0.0000 19.6164
#
#
#
# Elastic Compliance Matrix: (Units=1/GPa)
#
#
# Indices 1 2 3 4 5 6 
#
# 1 0.010265 -0.001268 0.005962 0.000000 0.000000 0.000000
# 2 -0.001268 0.009487 0.003071 0.000000 0.000000 0.000000
# 3 0.005962 0.003071 0.023509 0.000000 0.000000 0.000000
# 4 0.000000 0.000000 0.000000 0.096885 0.000000 0.000000
# 5 0.000000 0.000000 0.000000 0.000000 0.040676 0.000000
# 6 0.000000 0.000000 0.000000 0.000000 0.000000 0.050978
#
#
# Mechanical properties :
#
#
# Convention : Reuss Voigt Hill
#
# Bulk Modulus (GPa) = 17.00927 25.86569 21.43748
# Shear Modulus (GPa) = 21.19843 32.23042 26.71442
#
# Velocity S-wave (km/s) = 3.08336 3.80194 3.46135
# Velocity P-wave (km/s) = 4.50605 5.55637 5.05855
#
# Compressibility (1/GPa) = 0.05879146
#
# Stress axis : x y z
#
# Youngs Moduli (GPa) = 97.42285 105.40394 42.53623
#
# Poissons Ratio (x) = 0.13364 -0.25359
# Poissons Ratio (y) = 0.12352 -0.13064
# Poissons Ratio (z) = -0.58080 -0.32373
#
# Static dielectric constant tensor:
#      x y z
#    x 1.774110 0.000000 0.000000 
#    y 0.000000 1.808280 0.000000 
#    z 0.000000 0.000000 1.910870 
# 
# From -- ./inp_files/17097.got.cif
#   From: 2010.05.17/outbox.cif.g08.bks.cpg/sg50_9_cif.got.tgz:17097.got - 2010.06.03 11:33:33.
