data_PCOD9395758
_publ_section_title
;
Structure prediction by ZEFSAII (Michael W. Deem and Ramdas Pophale) SiO2 
 PCOD9395758
Probable space group: P B A N
;
_chemical_formula_sum "Si O2"
_cell_formula_units_Z 56
_cell_length_a 33.040380
_cell_length_b 5.036907
_cell_length_c 15.764477
_cell_angle_alpha 90.000000
_cell_angle_beta 90.000000
_cell_angle_gamma 90.000000
_cell_volume 2623.545092
_symmetry_space_group_name_H-M "P B A N"
_symmetry_group_IT_number 50
_space_group.IT_coordinate_system_code '2'
_symmetry_cell_setting 'orthorhombic'
loop_
_space_group_symop_operation_xyz
x,y,z
1/2-x,1/2-y,z
x,1/2-y,-z
1/2-x,y,-z
-x,-y,-z
1/2+x,1/2+y,-z
-x,1/2+y,z
1/2+x,-y,z
loop_
_atom_site_type_symbol
_atom_site_label
_atom_site_fract_x
_atom_site_fract_y
_atom_site_fract_z
Si Si1 0.667506 0.831499 0.590661
Si Si2 0.385375 0.821532 0.631362
Si Si3 0.475275 0.962971 0.626234
Si Si4 0.524319 0.478765 0.830906
Si Si5 0.703857 0.751868 0.235650
Si Si6 0.346239 0.758313 0.194952
Si Si7 0.099566 0.506328 0.943706
O O1 0.684782 0.750000 0.500000
O O2 0.635857 0.604457 0.618881
O O3 0.699636 0.844249 0.666556
O O4 0.641463 0.099381 0.585319
O O5 0.431296 0.854669 0.601391
O O6 0.380555 0.738517 0.731033
O O7 0.509902 0.753944 0.600427
O O8 0.472292 0.981801 0.729035
O O9 0.489057 0.683743 0.855177
O O10 0.565108 0.568444 0.876076
O O11 0.750000 0.750000 0.207199
O O12 0.674256 0.545970 0.187345
O O13 0.686936 0.048612 0.227869
O O14 0.364103 0.637123 0.109538
O O15 0.083490 0.750000 0.000000
O O16 0.109824 0.250000 0.000000
#
# Coordination Sequence:
#
# PCOD9395758 Si02
#       7
#     8   8   8   8   8   8   8
#     4  10  21  35  58  89 119 148 178 223 285 352
#     4  10  19  36  58  78 112 155 194 233 278 332
#     4  10  19  32  54  79 105 145 200 250 283 320
#     4  10  21  35  52  78 114 151 192 242 295 340
#     4  10  21  38  65  90 114 147 180 227 284 340
#     4  10  21  39  58  85 115 146 196 231 272 348
#     4  12  24  37  57  82 117 158 193 241 293 336
#
# _framework density 21.345164
#
# number of rings (size 3 to 8) (size 9 to 14) (size 15 to 20)
#    0.000    1.714    1.429    3.429    0.000    2.000 
#    0.000    0.000    0.000   20.143    0.000    0.000 
#    0.000    0.000    0.000    0.000    0.000    0.000 
#
# Total GULP energy -312874.618449 kJ/mol
# GULP energy per Si atom -5587.046758 kJ/mol
# Density = 2.129658 g / cm^3
# Si number density = 21.345164 Si / 1000 Ang^3
#
#
#
# Elastic Constant Matrix: (Units=GPa)
#
#
# Indices 1 2 3 4 5 6 
#
# 1 47.4741 -11.7888 1.5307 0.0000 0.0000 0.0000
# 2 -11.7888 90.8102 9.4048 0.0000 0.0000 0.0000
# 3 1.5307 9.4048 76.4895 0.0000 0.0000 0.0000
# 4 0.0000 0.0000 0.0000 23.8024 0.0000 0.0000
# 5 0.0000 0.0000 0.0000 0.0000 -10.5631 0.0000
# 6 0.0000 0.0000 0.0000 0.0000 0.0000 19.9477
#
#
#
# Elastic Compliance Matrix: (Units=1/GPa)
#
#
# Indices 1 2 3 4 5 6 
#
# 1 0.021813 0.002914 -0.000795 0.000000 0.000000 0.000000
# 2 0.002914 0.011543 -0.001478 0.000000 0.000000 0.000000
# 3 -0.000795 -0.001478 0.013271 0.000000 0.000000 0.000000
# 4 0.000000 0.000000 0.000000 0.042013 0.000000 0.000000
# 5 0.000000 0.000000 0.000000 0.000000 -0.094670 0.000000
# 6 0.000000 0.000000 0.000000 0.000000 0.000000 0.050131
#
#
# Mechanical properties :
#
#
# Convention : Reuss Voigt Hill
#
# Bulk Modulus (GPa) = 20.87194 23.67414 22.27304
# Shear Modulus (GPa) = 85.04945 21.01254 53.03100
#
# Velocity S-wave (km/s) = 6.31912 3.14095 4.98983
# Velocity P-wave (km/s) = 7.93986 4.92638 6.60721
#
# Compressibility (1/GPa) = 0.04791121
#
# Stress axis : x y z
#
# Youngs Moduli (GPa) = 45.84347 86.63022 75.35068
#
# Poissons Ratio (x) = -0.25245 0.05989
# Poissons Ratio (y) = -0.13359 0.11134
# Poissons Ratio (z) = 0.03644 0.12801
#
# Static dielectric constant tensor:
#      x y z
#    x 1.728740 0.000000 0.000000 
#    y 0.000000 1.732380 0.000000 
#    z 0.000000 0.000000 1.833820 
# 
# From -- ./inp_files/24202.got.cif
#   From: 2010.05.17/outbox.cif.g08.bks.cpg/sg50_13_cif.got.tgz:24202.got - 2010.06.03 11:33:33.
