data_PCOD9395695
_publ_section_title
;
Structure prediction by ZEFSAII (Michael W. Deem and Ramdas Pophale) SiO2 
 PCOD9395695
Probable space group: P B A N
;
_chemical_formula_sum "Si O2"
_cell_formula_units_Z 56
_cell_length_a 7.021610
_cell_length_b 21.742836
_cell_length_c 14.696411
_cell_angle_alpha 90.000000
_cell_angle_beta 90.000000
_cell_angle_gamma 90.000000
_cell_volume 2243.696874
_symmetry_space_group_name_H-M "P B A N"
_symmetry_group_IT_number 50
_space_group.IT_coordinate_system_code '2'
_symmetry_cell_setting 'orthorhombic'
loop_
_space_group_symop_operation_xyz
x,y,z
1/2-x,1/2-y,z
x,1/2-y,-z
1/2-x,y,-z
-x,-y,-z
1/2+x,1/2+y,-z
-x,1/2+y,z
1/2+x,-y,z
loop_
_atom_site_type_symbol
_atom_site_label
_atom_site_fract_x
_atom_site_fract_y
_atom_site_fract_z
Si Si1 0.530728 0.354553 0.191590
Si Si2 0.369225 0.051378 0.358360
Si Si3 0.576136 0.619111 0.191382
Si Si4 0.518644 0.677229 0.004499
Si Si5 0.022551 0.337251 0.479259
Si Si6 0.572664 0.415002 0.363396
Si Si7 0.975843 0.736515 0.689630
O O1 0.304712 0.369939 0.186453
O O2 0.630398 0.402190 0.259292
O O3 0.553815 0.291231 0.248214
O O4 0.577875 0.349170 0.086248
O O5 0.444174 0.058594 0.254489
O O6 0.484253 0.098377 0.421935
O O7 0.155891 0.076956 0.361110
O O8 0.357876 0.981847 0.391968
O O9 0.491027 0.633675 0.092550
O O10 0.501539 0.674954 0.252694
O O11 0.466610 0.750000 0.000000
O O12 0.750000 0.678745 0.000000
O O13 0.250000 0.327462 0.500000
O O14 0.963512 0.282188 0.412054
O O15 0.908914 0.356511 0.570076
O O16 0.750000 0.750000 0.682891
#
# Coordination Sequence:
#
# PCOD9395695 Si02
#       7
#     8   8   8   8   8   8   8
#     4   9  16  23  38  64  93 116 141 180 227 275
#     4   9  18  31  46  62  88 119 157 187 219 258
#     4   8  14  24  39  61  87 118 147 177 217 271
#     4   9  13  21  38  61  91 121 140 167 225 284
#     4   9  17  27  41  62  87 119 149 181 221 269
#     4  10  19  31  44  64  90 120 154 188 219 259
#     4   9  14  22  37  61  92 116 137 174 233 279
#
# _framework density 24.958807
#
# number of rings (size 3 to 8) (size 9 to 14) (size 15 to 20)
#    0.000    3.000    1.429    3.000    0.000    2.000 
#    0.000    0.714    0.000    0.000    0.000    4.000 
#    0.000   33.143    0.000    0.000    0.000    0.000 
#
# Total GULP energy -312701.602966 kJ/mol
# GULP energy per Si atom -5583.957196 kJ/mol
# Density = 2.490200 g / cm^3
# Si number density = 24.958807 Si / 1000 Ang^3
#
#
#
# Elastic Constant Matrix: (Units=GPa)
#
#
# Indices 1 2 3 4 5 6 
#
# 1 104.5043 9.0493 7.6727 0.0000 0.0000 0.0000
# 2 9.0493 90.4513 42.5173 0.0000 0.0000 0.0000
# 3 7.6727 42.5173 203.0492 0.0000 0.0000 0.0000
# 4 0.0000 0.0000 0.0000 27.5117 0.0000 0.0000
# 5 0.0000 0.0000 0.0000 0.0000 -7.2192 0.0000
# 6 0.0000 0.0000 0.0000 0.0000 0.0000 15.1087
#
#
#
# Elastic Compliance Matrix: (Units=1/GPa)
#
#
# Indices 1 2 3 4 5 6 
#
# 1 0.009659 -0.000882 -0.000180 0.000000 0.000000 0.000000
# 2 -0.000882 0.012343 -0.002551 0.000000 0.000000 0.000000
# 3 -0.000180 -0.002551 0.005466 0.000000 0.000000 0.000000
# 4 0.000000 0.000000 0.000000 0.036348 0.000000 0.000000
# 5 0.000000 0.000000 0.000000 0.000000 -0.138519 0.000000
# 6 0.000000 0.000000 0.000000 0.000000 0.000000 0.066187
#
#
# Mechanical properties :
#
#
# Convention : Reuss Voigt Hill
#
# Bulk Modulus (GPa) = 49.40395 57.38703 53.39549
# Shear Modulus (GPa) = 916.29419 29.66461 472.97940
#
# Velocity S-wave (km/s) = 19.18123 3.45126 13.78098
# Velocity P-wave (km/s) = 22.59196 6.23893 16.57288
#
# Compressibility (1/GPa) = 0.02024130
#
# Stress axis : x y z
#
# Youngs Moduli (GPa) = 103.53511 81.01694 182.95080
#
# Poissons Ratio (x) = 0.07142 0.03300
# Poissons Ratio (y) = 0.09127 0.46675
# Poissons Ratio (z) = 0.01868 0.20670
#
# Static dielectric constant tensor:
#      x y z
#    x 2.091180 0.000000 0.000000 
#    y 0.000000 1.934960 0.000000 
#    z 0.000000 0.000000 2.040910 
# 
# From -- ./inp_files/25249.got.cif
#   From: 2010.05.17/outbox.cif.g08.bks.cpg/sg50_13_cif.got.tgz:25249.got - 2010.06.03 11:33:33.
