data_PCOD9395121
_publ_section_title
;
Structure prediction by ZEFSAII (Michael W. Deem and Ramdas Pophale) SiO2 
 PCOD9395121
Probable space group: P C C M
;
_chemical_formula_sum "Si O2"
_cell_formula_units_Z 34
_cell_length_a 7.385668
_cell_length_b 20.240209
_cell_length_c 10.351453
_cell_angle_alpha 90.000000
_cell_angle_beta 90.000000
_cell_angle_gamma 90.000000
_cell_volume 1547.412457
_symmetry_space_group_name_H-M "P C C M"
_symmetry_group_IT_number 49
_symmetry_cell_setting 'orthorhombic'
loop_
_space_group_symop_operation_xyz
x,y,z
-x,-y,z
x,-y,1/2-z
-x,y,1/2-z
-x,-y,-z
x,y,-z
-x,y,1/2+z
x,-y,1/2+z
loop_
_atom_site_type_symbol
_atom_site_label
_atom_site_fract_x
_atom_site_fract_y
_atom_site_fract_z
Si Si1 0.500000 0.500000 0.250000
Si Si2 0.749335 0.057200 0.500000
Si Si3 0.639347 0.711837 0.857644
Si Si4 0.842065 0.581948 0.853453
Si Si5 0.676410 0.091177 0.000000
Si Si6 0.799910 0.846956 0.769105
O O1 0.352337 0.454163 0.174108
O O2 0.534237 0.072175 0.500000
O O3 0.816586 0.092689 0.629935
O O4 0.780418 0.979048 0.500000
O O5 0.500000 0.691071 0.750000
O O6 0.803496 0.660581 0.849410
O O7 0.688924 0.787717 0.832485
O O8 0.558278 0.705803 0.000000
O O9 0.000000 0.567865 0.750000
O O10 0.897400 0.565583 0.000000
O O11 0.721457 0.129727 0.131736
O O12 0.000000 0.819917 0.750000
#
# Coordination Sequence:
#
# PCOD9395121 Si02
#       6
#     2   4   8   8   4   8
#     4  12  24  48  76 112 150 200 236 294 350 418
#     4  11  23  45  63  95 129 171 232 273 340 419
#     4  11  24  45  71 101 136 182 235 288 346 412
#     4  11  26  47  75 111 150 193 244 296 353 423
#     4  11  25  41  69  91 129 179 220 281 342 413
#     4  12  25  41  64  97 132 173 221 284 345 409
#
# _framework density 21.972163999999999
#
# number of rings (size 3 to 8) (size 9 to 14) (size 15 to 20)
#    0.000    0.706    2.353    4.941    1.647    8.471 
#    0.000    0.000    0.000    0.000    0.000    0.000 
#    0.000    0.000    0.000    0.000    0.000    0.000 
#
# Total GULP energy -190071.201973 kJ/mol
# GULP energy per Si atom -5590.329470 kJ/mol
# Density = 2.192215 g / cm^3
# Si number density = 21.972164 Si / 1000 Ang^3
#
#
#
# Elastic Constant Matrix: (Units=GPa)
#
#
# Indices 1 2 3 4 5 6 
#
# 1 90.4021 1.9646 55.9776 0.0000 0.0000 0.0000
# 2 1.9646 116.1513 47.9758 0.0000 0.0000 0.0000
# 3 55.9776 47.9758 210.7778 0.0000 0.0000 0.0000
# 4 0.0000 0.0000 0.0000-2451.9935 0.0000 0.0000
# 5 0.0000 0.0000 0.0000 0.0000 25.8248 0.0000
# 6 0.0000 0.0000 0.0000 0.0000 0.0000 29.7589
#
#
#
# Elastic Compliance Matrix: (Units=1/GPa)
#
#
# Indices 1 2 3 4 5 6 
#
# 1 0.013435 0.001376 -0.003881 0.000000 0.000000 0.000000
# 2 0.001376 0.009644 -0.002560 0.000000 0.000000 0.000000
# 3 -0.003881 -0.002560 0.006358 0.000000 0.000000 0.000000
# 4 0.000000 0.000000 0.000000 -0.000408 0.000000 0.000000
# 5 0.000000 0.000000 0.000000 0.000000 0.038722 0.000000
# 6 0.000000 0.000000 0.000000 0.000000 0.000000 0.033603
#
#
# Mechanical properties :
#
#
# Convention : Reuss Voigt Hill
#
# Bulk Modulus (GPa) = 51.79962 69.90745 60.85354
# Shear Modulus (GPa) = 42.40115 -458.52108 -208.05997
#
# Velocity S-wave (km/s) = 4.39768 -14.46153 -9.74157
# Velocity P-wave (km/s) = 7.02939 15.71503 9.93856
#
# Compressibility (1/GPa) = 0.01930516
#
# Stress axis : x y z
#
# Youngs Moduli (GPa) = 74.43215 103.69383 157.28516
#
# Poissons Ratio (x) = -0.14267 0.61046
# Poissons Ratio (y) = -0.10241 0.40272
# Poissons Ratio (z) = 0.28889 0.26550
#
# Static dielectric constant tensor:
#      x y z
#    x 1.813070 0.000000 0.000000 
#    y 0.000000 1.812010 0.000000 
#    z 0.000000 0.000000 1.818180 
# 
# From -- ./inp_files/1563.got.cif
#   From: 2010.05.17/outbox.cif.g08.bks.cpg/sg49_1_cif.got.tgz:1563.got - 2010.06.03 21:02:19.
