data_PCOD9395682
_publ_section_title
;
Structure prediction by ZEFSAII (Michael W. Deem and Ramdas Pophale) SiO2 
 PCOD9395682
Probable space group: P B A N
;
_chemical_formula_sum "Si O2"
_cell_formula_units_Z 40
_cell_length_a 12.726245
_cell_length_b 34.771738
_cell_length_c 4.976634
_cell_angle_alpha 90.000000
_cell_angle_beta 90.000000
_cell_angle_gamma 90.000000
_cell_volume 2202.228510
_symmetry_space_group_name_H-M "P B A N"
_symmetry_group_IT_number 50
_space_group.IT_coordinate_system_code '2'
_symmetry_cell_setting 'orthorhombic'
loop_
_space_group_symop_operation_xyz
x,y,z
1/2-x,1/2-y,z
x,1/2-y,-z
1/2-x,y,-z
-x,-y,-z
1/2+x,1/2+y,-z
-x,1/2+y,z
1/2+x,-y,z
loop_
_atom_site_type_symbol
_atom_site_label
_atom_site_fract_x
_atom_site_fract_y
_atom_site_fract_z
Si Si1 0.180665 0.456658 0.744141
Si Si2 0.124129 0.656224 0.972524
Si Si3 0.871524 0.461978 0.502553
Si Si4 0.025491 0.926543 0.995767
Si Si5 0.876690 0.293360 0.530004
O O1 0.250000 0.438891 0.500000
O O2 0.131265 0.494277 0.601050
O O3 0.092051 0.430813 0.884233
O O4 0.250000 0.469674 0.000000
O O5 0.067584 0.616484 0.035625
O O6 0.097848 0.689548 0.182431
O O7 0.250000 0.649491 0.000000
O O8 0.094076 0.674282 0.686847
O O9 0.750000 0.448023 0.500000
O O10 0.910079 0.455580 0.803762
O O11 0.947471 0.438963 0.299812
O O12 0.917826 0.250000 0.500000
O O13 0.750000 0.290764 0.500000
#
# Coordination Sequence:
#
# PCOD9395682 Si02
#       5
#     8   8   8   8   8
#     4  11  23  39  54  72  98 137 186 226 261 310
#     4  10  19  30  47  75 103 131 166 202 246 302
#     4  11  21  35  53  76 102 135 173 214 266 322
#     4  12  22  35  54  76 105 136 171 221 271 307
#     4   9  17  30  47  68 101 139 166 190 231 298
#
# _framework density 18.163419000000001
#
# number of rings (size 3 to 8) (size 9 to 14) (size 15 to 20)
#    0.000    1.400    0.000    8.400    0.000    4.000 
#    0.000    0.000    0.000    0.000    0.000    0.000 
#    0.000   12.000    0.000    0.000    0.000    0.000 
#
# Total GULP energy -223292.920555 kJ/mol
# GULP energy per Si atom -5582.323014 kJ/mol
# Density = 1.812208 g / cm^3
# Si number density = 18.163419 Si / 1000 Ang^3
#
#
#
# Elastic Constant Matrix: (Units=GPa)
#
#
# Indices 1 2 3 4 5 6 
#
# 1 54.5924 31.7954 9.2183 0.0000 0.0000 0.0000
# 2 31.7954 92.1070 -1.5218 0.0000 0.0000 0.0000
# 3 9.2183 -1.5218 54.3148 0.0000 0.0000 0.0000
# 4 0.0000 0.0000 0.0000 -164.8651 0.0000 0.0000
# 5 0.0000 0.0000 0.0000 0.0000 30.3765 0.0000
# 6 0.0000 0.0000 0.0000 0.0000 0.0000 4.5087
#
#
#
# Elastic Compliance Matrix: (Units=1/GPa)
#
#
# Indices 1 2 3 4 5 6 
#
# 1 0.023885 -0.008316 -0.004287 0.000000 0.000000 0.000000
# 2 -0.008316 0.013757 0.001797 0.000000 0.000000 0.000000
# 3 -0.004287 0.001797 0.019189 0.000000 0.000000 0.000000
# 4 0.000000 0.000000 0.000000 -0.006066 0.000000 0.000000
# 5 0.000000 0.000000 0.000000 0.000000 0.032920 0.000000
# 6 0.000000 0.000000 0.000000 0.000000 0.000000 0.221792
#
#
# Mechanical properties :
#
#
# Convention : Reuss Voigt Hill
#
# Bulk Modulus (GPa) = 28.39330 31.11089 29.75210
# Shear Modulus (GPa) = 14.75670 -15.22783 -0.23556
#
# Velocity S-wave (km/s) = 2.85343 -2.89862 -0.36052
# Velocity P-wave (km/s) = 5.14996 2.44190 4.03020
#
# Compressibility (1/GPa) = 0.03521957
#
# Stress axis : x y z
#
# Youngs Moduli (GPa) = 41.86788 72.68890 52.11303
#
# Poissons Ratio (x) = 0.60447 0.22339
# Poissons Ratio (y) = 0.34817 -0.09364
# Poissons Ratio (z) = 0.17947 -0.13061
#
# Static dielectric constant tensor:
#      x y z
#    x 1.675120 0.000000 0.000000 
#    y 0.000000 1.597900 0.000000 
#    z 0.000000 0.000000 1.639240 
# 
# From -- ./inp_files/2535.got.cif
#   From: 2010.05.17/outbox.cif.g08.bks.cpg/sg50_2_cif.got.tgz:2535.got - 2010.06.03 11:33:33.
