data_PCOD9395024
_publ_section_title
;
Structure prediction by ZEFSAII (Michael W. Deem and Ramdas Pophale) SiO2 
 PCOD9395024
Probable space group: P C C M
;
_chemical_formula_sum "Si O2"
_cell_formula_units_Z 26
_cell_length_a 6.469082
_cell_length_b 8.733778
_cell_length_c 25.064237
_cell_angle_alpha 90.000000
_cell_angle_beta 90.000000
_cell_angle_gamma 90.000000
_cell_volume 1416.117511
_symmetry_space_group_name_H-M "P C C M"
_symmetry_group_IT_number 49
_symmetry_cell_setting 'orthorhombic'
loop_
_space_group_symop_operation_xyz
x,y,z
-x,-y,z
x,-y,1/2-z
-x,y,1/2-z
-x,-y,-z
x,y,-z
-x,y,1/2+z
x,-y,1/2+z
loop_
_atom_site_type_symbol
_atom_site_label
_atom_site_fract_x
_atom_site_fract_y
_atom_site_fract_z
Si Si1 0.620142 0.342323 0.302484
Si Si2 0.346612 0.648430 0.000000
Si Si3 0.000000 0.500000 0.750000
Si Si4 0.930374 0.821147 0.000000
Si Si5 0.417975 0.172392 0.912141
O O1 0.500000 0.500000 0.316396
O O2 0.500000 0.280921 0.250000
O O3 0.613673 0.233074 0.352806
O O4 0.848768 0.394187 0.285064
O O5 0.500000 0.500000 0.000000
O O6 0.414876 0.732498 0.945702
O O7 0.100208 0.684893 0.000000
O O8 0.787707 0.808134 0.947575
O O9 0.000000 0.000000 0.000000
O O10 0.500000 0.000000 0.912160
#
# Coordination Sequence:
#
# PCOD9395024 Si02
#       5
#     8   4   2   4   8
#     4   9  20  38  60  83 116 151 196 253 305 362
#     4  11  23  39  59  89 119 153 207 251 302 368
#     4   8  18  40  60  86 116 152 206 254 300 372
#     4  11  21  41  59  84 123 163 199 250 315 365
#     4  11  22  37  61  85 118 160 197 250 307 372
#
# _framework density 18.360059
#
# number of rings (size 3 to 8) (size 9 to 14) (size 15 to 20)
#    0.000    2.154    3.077    1.846    0.000   10.462 
#    0.000    0.000    0.000    0.000    0.000    0.000 
#    0.000    0.000    0.000    0.000    0.000    0.000 
#
# Total GULP energy -144818.804169 kJ/mol
# GULP energy per Si atom -5569.954007 kJ/mol
# Density = 1.831827 g / cm^3
# Si number density = 18.360059 Si / 1000 Ang^3
#
#
#
# Elastic Constant Matrix: (Units=GPa)
#
#
# Indices 1 2 3 4 5 6 
#
# 1 144.7611 52.3585 68.0198 0.0000 0.0000 0.0000
# 2 52.3585 102.0087 70.8238 0.0000 0.0000 0.0000
# 3 68.0198 70.8238 172.7543 0.0000 0.0000 0.0000
# 4 0.0000 0.0000 0.0000 37.9091 0.0000 0.0000
# 5 0.0000 0.0000 0.0000 0.0000 -101.2226 0.0000
# 6 0.0000 0.0000 0.0000 0.0000 0.0000 22.2666
#
#
#
# Elastic Compliance Matrix: (Units=1/GPa)
#
#
# Indices 1 2 3 4 5 6 
#
# 1 0.009110 -0.003055 -0.002334 0.000000 0.000000 0.000000
# 2 -0.003055 0.014728 -0.004835 0.000000 0.000000 0.000000
# 3 -0.002334 -0.004835 0.008690 0.000000 0.000000 0.000000
# 4 0.000000 0.000000 0.000000 0.026379 0.000000 0.000000
# 5 0.000000 0.000000 0.000000 0.000000 -0.009879 0.000000
# 6 0.000000 0.000000 0.000000 0.000000 0.000000 0.044910
#
#
# Mechanical properties :
#
#
# Convention : Reuss Voigt Hill
#
# Bulk Modulus (GPa) = 82.79064 89.10316 85.94690
# Shear Modulus (GPa) = 42.22488 7.01209 24.61849
#
# Velocity S-wave (km/s) = 4.80085 1.95640 3.66576
# Velocity P-wave (km/s) = 8.71330 7.33073 8.05175
#
# Compressibility (1/GPa) = 0.01207866
#
# Stress axis : x y z
#
# Youngs Moduli (GPa) = 109.77191 67.89674 115.07505
#
# Poissons Ratio (x) = 0.20743 0.26863
# Poissons Ratio (y) = 0.33536 0.55641
# Poissons Ratio (z) = 0.25625 0.32830
#
# Static dielectric constant tensor:
#      x y z
#    x 2.103600 0.000000 0.000000 
#    y 0.000000 1.718190 0.000000 
#    z 0.000000 0.000000 1.596770 
# 
# From -- ./inp_files/21477.got.cif
#   From: 2010.05.17/outbox.cif.g08.bks.cpg/sg49_11_cif.got.tgz:21477.got - 2010.06.03 21:02:19.
