data_PCOD9395475
_publ_section_title
;
Structure prediction by ZEFSAII (Michael W. Deem and Ramdas Pophale) SiO2 
 PCOD9395475
Probable space group: P B A N
;
_chemical_formula_sum "Si O2"
_cell_formula_units_Z 38
_cell_length_a 27.524408
_cell_length_b 5.695430
_cell_length_c 11.038690
_cell_angle_alpha 90.000000
_cell_angle_beta 90.000000
_cell_angle_gamma 90.000000
_cell_volume 1730.461903
_symmetry_space_group_name_H-M "P B A N"
_symmetry_group_IT_number 50
_space_group.IT_coordinate_system_code '2'
_symmetry_cell_setting 'orthorhombic'
loop_
_space_group_symop_operation_xyz
x,y,z
1/2-x,1/2-y,z
x,1/2-y,-z
1/2-x,y,-z
-x,-y,-z
1/2+x,1/2+y,-z
-x,1/2+y,z
1/2+x,-y,z
loop_
_atom_site_type_symbol
_atom_site_label
_atom_site_fract_x
_atom_site_fract_y
_atom_site_fract_z
Si Si1 0.893425 0.874244 0.375537
Si Si2 0.298288 0.104122 0.683914
Si Si3 0.750000 0.250000 0.500000
Si Si4 0.306740 0.995873 0.954966
Si Si5 0.951564 0.250000 0.500000
Si Si6 0.986917 0.822786 0.257308
O O1 0.907971 0.750000 0.500000
O O2 0.839344 0.792204 0.350991
O O3 0.929537 0.785084 0.273206
O O4 0.912025 0.132075 0.407663
O O5 0.250000 0.250000 0.706722
O O6 0.284461 0.915220 0.581841
O O7 0.310506 0.985205 0.810468
O O8 0.328720 0.750000 0.000000
O O9 0.250000 0.995292 0.000000
O O10 0.326133 0.250000 0.000000
O O11 0.988027 0.148544 0.606088
O O12 0.006060 0.580854 0.201373
#
# Coordination Sequence:
#
# PCOD9395475 Si02
#       6
#     8   8   2   8   4   8
#     4  11  20  34  53  84 123 170 209 243 311 389
#     4  12  26  42  59  90 128 173 214 258 320 396
#     4  12  26  46  54  82 148 180 198 240 338 424
#     4  10  20  43  71  84 103 157 222 283 314 343
#     4  10  18  35  54  79 119 170 214 263 298 370
#     4  10  17  33  54  78 111 167 210 254 297 356
#
# _framework density 21.959454000000001
#
# number of rings (size 3 to 8) (size 9 to 14) (size 15 to 20)
#    0.000    1.263    5.263    4.105    0.000    3.368 
#    0.000    0.000    0.000    0.000    0.000    0.000 
#    0.000   20.211    0.000    0.000    0.000    0.421 
#
# Total GULP energy -211570.474674 kJ/mol
# GULP energy per Si atom -5567.644070 kJ/mol
# Density = 2.190947 g / cm^3
# Si number density = 21.959454 Si / 1000 Ang^3
#
#
#
# Elastic Constant Matrix: (Units=GPa)
#
#
# Indices 1 2 3 4 5 6 
#
# 1 111.7935 25.0862 5.9117 0.0000 0.0000 0.0000
# 2 25.0862 127.4240 29.6220 0.0000 0.0000 0.0000
# 3 5.9117 29.6220 81.4710 0.0000 0.0000 0.0000
# 4 0.0000 0.0000 0.0000 29.3997 0.0000 0.0000
# 5 0.0000 0.0000 0.0000 0.0000 -11.4524 0.0000
# 6 0.0000 0.0000 0.0000 0.0000 0.0000 31.4142
#
#
#
# Elastic Compliance Matrix: (Units=1/GPa)
#
#
# Indices 1 2 3 4 5 6 
#
# 1 0.009359 -0.001840 -0.000010 0.000000 0.000000 0.000000
# 2 -0.001840 0.008934 -0.003115 0.000000 0.000000 0.000000
# 3 -0.000010 -0.003115 0.013408 0.000000 0.000000 0.000000
# 4 0.000000 0.000000 0.000000 0.034014 0.000000 0.000000
# 5 0.000000 0.000000 0.000000 0.000000 -0.087318 0.000000
# 6 0.000000 0.000000 0.000000 0.000000 0.000000 0.031833
#
#
# Mechanical properties :
#
#
# Convention : Reuss Voigt Hill
#
# Bulk Modulus (GPa) = 45.93418 49.10315 47.51866
# Shear Modulus (GPa) = 182.37851 27.21021 104.79436
#
# Velocity S-wave (km/s) = 9.12319 3.52392 6.91559
# Velocity P-wave (km/s) = 11.48652 6.24233 9.24410
#
# Compressibility (1/GPa) = 0.02177028
#
# Stress axis : x y z
#
# Youngs Moduli (GPa) = 106.85468 111.92977 74.58482
#
# Poissons Ratio (x) = 0.20596 0.00075
# Poissons Ratio (y) = 0.19662 0.23232
# Poissons Ratio (z) = 0.00107 0.34864
#
# Static dielectric constant tensor:
#      x y z
#    x 1.798440 0.000000 0.000000 
#    y 0.000000 5.551020 0.000000 
#    z 0.000000 0.000000 3.643600 
# 
# From -- ./inp_files/22989.got.cif
#   From: 2010.05.17/outbox.cif.g08.bks.cpg/sg50_12_cif.got.tgz:22989.got - 2010.06.03 11:33:33.
