data_PCOD9395237
_publ_section_title
;
Structure prediction by ZEFSAII (Michael W. Deem and Ramdas Pophale) SiO2 
 PCOD9395237
Probable space group: P C C M
;
_chemical_formula_sum "Si O2"
_cell_formula_units_Z 56
_cell_length_a 21.000000
_cell_length_b 15.000000
_cell_length_c 9.000000
_cell_angle_alpha 90.000000
_cell_angle_beta 90.000000
_cell_angle_gamma 90.000000
_cell_volume 2835.000000
_symmetry_space_group_name_H-M "P C C M"
_symmetry_group_IT_number 49
_symmetry_cell_setting 'orthorhombic'
loop_
_space_group_symop_operation_xyz
x,y,z
-x,-y,z
x,-y,1/2-z
-x,y,1/2-z
-x,-y,-z
x,y,-z
-x,y,1/2+z
x,-y,1/2+z
loop_
_atom_site_type_symbol
_atom_site_label
_atom_site_fract_x
_atom_site_fract_y
_atom_site_fract_z
Si Si1 0.173976 0.209284 0.823438
Si Si2 0.191968 0.587795 0.323723
Si Si3 0.706982 0.908451 0.179417
Si Si4 0.562934 0.885624 0.164597
Si Si5 0.669771 0.588086 0.324364
Si Si6 0.935204 0.097175 0.822943
Si Si7 0.562015 0.325606 0.333693
O O1 0.163289 0.314541 0.800885
O O2 0.245256 0.173398 0.786635
O O3 0.124363 0.155741 0.725223
O O4 0.164542 0.190975 0.000000
O O5 0.161159 0.500000 0.250000
O O6 0.198788 0.573031 0.500000
O O7 0.261254 0.596045 0.248703
O O8 0.633590 0.898864 0.231745
O O9 0.732795 0.000000 0.250000
O O10 0.705428 0.914909 0.000000
O O11 0.500000 0.913379 0.250000
O O12 0.554633 0.779736 0.149399
O O13 0.563763 0.926416 0.000000
O O14 0.640215 0.500000 0.250000
O O15 0.674345 0.581354 0.500000
O O16 0.623274 0.663808 0.269078
O O17 0.000000 0.134426 0.750000
O O18 0.926728 0.000000 0.750000
O O19 0.941427 0.090049 0.000000
O O20 0.500000 0.362293 0.250000
O O21 0.570680 0.363424 0.500000
#
# Coordination Sequence:
#
# PCOD9395237 Si02
#       7
#     8   8   8   8   8   8   8
#     4  10  21  38  60  86 119 157 195 239 293 345
#     4  10  20  36  58  83 113 148 187 235 286 339
#     4  10  21  36  53  77 109 145 185 231 284 339
#     4   9  19  35  53  71  96 133 177 224 276 333
#     4  11  21  33  49  70  97 130 170 217 273 338
#     4  11  22  38  62  92 128 166 204 242 284 339
#     4  10  19  33  50  68  90 120 162 214 274 337
#
# _framework density 19.753086
#
# number of rings (size 3 to 8) (size 9 to 14) (size 15 to 20)
#    0.000    1.857    0.000    6.000    0.000    6.857 
#    0.000    4.286    0.000    0.429    0.000    3.000 
#    0.000    0.000    0.000    0.000    0.000    0.000 
#
# Total GULP energy -312267.474611 kJ/mol
# GULP energy per Si atom -5576.204904 kJ/mol
# Density = 1.970813 g / cm^3
# Si number density = 19.753086 Si / 1000 Ang^3
#
#
#
# Elastic Constant Matrix: (Units=GPa)
#
#
# Indices 1 2 3 4 5 6 
#
# 1 83.3382 30.7270 51.0877 0.0000 0.0000 0.0000
# 2 30.7270 70.1861 51.8737 0.0000 0.0000 0.0000
# 3 51.0877 51.8737 105.7328 0.0000 0.0000 0.0000
# 4 0.0000 0.0000 0.0000 23.4677 0.0000 0.0000
# 5 0.0000 0.0000 0.0000 0.0000 -0.5269 0.0000
# 6 0.0000 0.0000 0.0000 0.0000 0.0000 14.0547
#
#
#
# Elastic Compliance Matrix: (Units=1/GPa)
#
#
# Indices 1 2 3 4 5 6 
#
# 1 0.017260 -0.002185 -0.007268 0.000000 0.000000 0.000000
# 2 -0.002185 0.022630 -0.010047 0.000000 0.000000 0.000000
# 3 -0.007268 -0.010047 0.017899 0.000000 0.000000 0.000000
# 4 0.000000 0.000000 0.000000 0.042612 0.000000 0.000000
# 5 0.000000 0.000000 0.000000 0.000000 -1.897895 0.000000
# 6 0.000000 0.000000 0.000000 0.000000 0.000000 0.071150
#
#
# Mechanical properties :
#
#
# Convention : Reuss Voigt Hill
#
# Bulk Modulus (GPa) = 53.22086 58.51488 55.86787
# Shear Modulus (GPa) = -2.97427 15.77035 6.39804
#
# Velocity S-wave (km/s) = -1.22841 2.82862 1.80168
# Velocity P-wave (km/s) = 4.99896 6.35260 5.71599
#
# Compressibility (1/GPa) = 0.01878963
#
# Stress axis : x y z
#
# Youngs Moduli (GPa) = 57.93690 44.18954 55.87047
#
# Poissons Ratio (x) = 0.09655 0.40606
# Poissons Ratio (y) = 0.12658 0.56132
# Poissons Ratio (z) = 0.42108 0.44396
#
# Static dielectric constant tensor:
#      x y z
#    x 1.689350 0.000000 0.000000 
#    y 0.000000 1.746940 0.000000 
#    z 0.000000 0.000000 1.695510 
# 
# From -- ./inp_files/4085.got.cif
#   From: 2010.05.17/outbox.ucp.g08.bks.cvg/sg49_3_cif.got.tgz:4085.got - 2010.06.11 16:40:14.
