data_PCOD9395252
_publ_section_title
;
Structure prediction by ZEFSAII (Michael W. Deem and Ramdas Pophale) SiO2 
 PCOD9395252
Probable space group: P C C M
;
_chemical_formula_sum "Si O2"
_cell_formula_units_Z 56
_cell_length_a 21.000000
_cell_length_b 15.000000
_cell_length_c 9.000000
_cell_angle_alpha 90.000000
_cell_angle_beta 90.000000
_cell_angle_gamma 90.000000
_cell_volume 2835.000000
_symmetry_space_group_name_H-M "P C C M"
_symmetry_group_IT_number 49
_symmetry_cell_setting 'orthorhombic'
loop_
_space_group_symop_operation_xyz
x,y,z
-x,-y,z
x,-y,1/2-z
-x,y,1/2-z
-x,-y,-z
x,y,-z
-x,y,1/2+z
x,-y,1/2+z
loop_
_atom_site_type_symbol
_atom_site_label
_atom_site_fract_x
_atom_site_fract_y
_atom_site_fract_z
Si Si1 0.331412 0.089951 0.822207
Si Si2 0.060829 0.405080 0.826673
Si Si3 0.179563 0.278634 0.826150
Si Si4 0.414472 0.410221 0.332074
Si Si5 0.182540 0.911964 0.676807
Si Si6 0.562669 0.774631 0.822940
Si Si7 0.738399 0.410711 0.834604
O O1 0.257334 0.097340 0.781161
O O2 0.374347 0.172466 0.776330
O O3 0.356979 0.000000 0.750000
O O4 0.333931 0.082964 0.000000
O O5 0.069471 0.500000 0.750000
O O6 0.123471 0.348124 0.808746
O O7 0.000000 0.360874 0.750000
O O8 0.048294 0.416993 0.000000
O O9 0.155404 0.182614 0.775252
O O10 0.238918 0.321078 0.743406
O O11 0.196813 0.269903 0.000000
O O12 0.433272 0.500000 0.250000
O O13 0.439545 0.404398 0.500000
O O14 0.432225 0.324969 0.236987
O O15 0.337692 0.412195 0.340211
O O16 0.178195 0.921993 0.500000
O O17 0.155727 0.000000 0.750000
O O18 0.500000 0.816496 0.750000
O O19 0.557623 0.775650 0.000000
O O20 0.759359 0.500000 0.750000
O O21 0.764969 0.414024 0.000000
#
# Coordination Sequence:
#
# PCOD9395252 Si02
#       7
#     8   8   8   8   8   8   8
#     4   9  19  35  56  78 103 134 165 203 255 310
#     4  10  20  34  52  75 105 143 181 219 258 301
#     4  10  20  33  52  77 107 140 175 216 261 306
#     4  10  21  37  55  76 102 134 170 210 255 307
#     4   9  18  34  54  78 105 133 167 209 257 309
#     4  11  23  38  55  76 101 132 170 213 258 306
#     4  10  20  32  50  77 107 136 168 207 255 309
#
# _framework density 19.753086
#
# number of rings (size 3 to 8) (size 9 to 14) (size 15 to 20)
#    0.000    2.143    0.000    3.429    0.000    7.429 
#    0.000    5.714    0.000    0.429    0.000    3.000 
#    0.000    0.000    0.000    0.000    0.000    0.000 
#
# Total GULP energy -312357.750423 kJ/mol
# GULP energy per Si atom -5577.816972 kJ/mol
# Density = 1.970813 g / cm^3
# Si number density = 19.753086 Si / 1000 Ang^3
#
#
#
# Elastic Constant Matrix: (Units=GPa)
#
#
# Indices 1 2 3 4 5 6 
#
# 1 22.4086 14.3531 34.2255 0.0000 0.0000 0.0000
# 2 14.3531 92.2910 35.7572 0.0000 0.0000 0.0000
# 3 34.2255 35.7572 46.2952 0.0000 0.0000 0.0000
# 4 0.0000 0.0000 0.0000 23.2511 0.0000 0.0000
# 5 0.0000 0.0000 0.0000 0.0000 9.8865 0.0000
# 6 0.0000 0.0000 0.0000 0.0000 0.0000 6.3748
#
#
#
# Elastic Compliance Matrix: (Units=1/GPa)
#
#
# Indices 1 2 3 4 5 6 
#
# 1 -0.194141 -0.036268 0.171539 0.000000 0.000000 0.000000
# 2 -0.036268 0.008687 0.020103 0.000000 0.000000 0.000000
# 3 0.171539 0.020103 -0.120743 0.000000 0.000000 0.000000
# 4 0.000000 0.000000 0.000000 0.043009 0.000000 0.000000
# 5 0.000000 0.000000 0.000000 0.000000 0.101148 0.000000
# 6 0.000000 0.000000 0.000000 0.000000 0.000000 0.156868
#
#
# Mechanical properties :
#
#
# Convention : Reuss Voigt Hill
#
# Bulk Modulus (GPa) = 219.78011 36.62961 128.20486
# Shear Modulus (GPa) = -15.90316 13.01308 -1.44504
#
# Velocity S-wave (km/s) = -2.84050 2.56947 -0.85624
# Velocity P-wave (km/s) = 10.03729 5.23325 8.00419
#
# Compressibility (1/GPa) = 0.00455000
#
# Stress axis : x y z
#
# Youngs Moduli (GPa) = -5.15089 115.11403 -8.28205
#
# Poissons Ratio (x) = 4.17497 1.42069
# Poissons Ratio (y) = -0.18681 0.16649
# Poissons Ratio (z) = 0.88358 -2.31413
#
# Static dielectric constant tensor:
#      x y z
#    x 1.711030 0.000000 0.000000 
#    y 0.000000 1.711580 0.000000 
#    z 0.000000 0.000000 1.682490 
# 
# From -- ./inp_files/4055.got.cif
#   From: 2010.05.17/outbox.ucp.g08.bks.cvg/sg49_3_cif.got.tgz:4055.got - 2010.06.11 16:40:14.
