data_PCOD9395441
_publ_section_title
;
Structure prediction by ZEFSAII (Michael W. Deem and Ramdas Pophale) SiO2 
 PCOD9395441
Probable space group: P B A N
;
_chemical_formula_sum "Si O2"
_cell_formula_units_Z 52
_cell_length_a 23.193469
_cell_length_b 8.897516
_cell_length_c 13.266431
_cell_angle_alpha 90.000000
_cell_angle_beta 90.000000
_cell_angle_gamma 90.000000
_cell_volume 2737.717236
_symmetry_space_group_name_H-M "P B A N"
_symmetry_group_IT_number 50
_space_group.IT_coordinate_system_code '2'
_symmetry_cell_setting 'orthorhombic'
loop_
_space_group_symop_operation_xyz
x,y,z
1/2-x,1/2-y,z
x,1/2-y,-z
1/2-x,y,-z
-x,-y,-z
1/2+x,1/2+y,-z
-x,1/2+y,z
1/2+x,-y,z
loop_
_atom_site_type_symbol
_atom_site_label
_atom_site_fract_x
_atom_site_fract_y
_atom_site_fract_z
Si Si1 0.663514 0.750000 0.000000
Si Si2 0.216832 0.994495 0.863699
Si Si3 0.250000 0.000589 0.500000
Si Si4 0.837594 0.130240 0.341392
Si Si5 0.153236 0.990633 0.359834
Si Si6 0.845456 0.250000 0.000000
Si Si7 0.561141 0.073811 0.523063
Si Si8 0.856239 0.999775 0.860166
O O1 0.698519 0.850172 0.918000
O O2 0.627812 0.631837 0.935976
O O3 0.285835 0.988857 0.855948
O O4 0.187724 0.953160 0.756683
O O5 0.192957 0.867850 0.938731
O O6 0.203810 0.908069 0.564665
O O7 0.209230 0.069397 0.411324
O O8 0.834918 0.312257 0.335532
O O9 0.901811 0.073489 0.372391
O O10 0.103901 0.998946 0.442062
O O11 0.129647 0.045247 0.253161
O O12 0.877336 0.346435 0.087058
O O13 0.555952 0.250000 0.500000
O O14 0.500000 0.000000 0.500000
#
# Coordination Sequence:
#
# PCOD9395441 Si02
#       8
#     4   8   4   8   8   4   8   8
#     4  10  23  34  42  66 115 162 173 208 242 311
#     4  11  18  30  47  72 109 145 179 205 256 305
#     4  10  17  28  46  83 114 129 160 221 264 315
#     4  10  18  29  54  82 106 135 170 216 267 305
#     4  10  18  29  54  82 106 135 170 216 267 305
#     4  10  19  26  46  74 103 138 179 214 244 313
#     4   9  20  39  57  79 106 133 176 222 264 311
#     4  11  18  30  47  72 109 145 179 205 256 305
#
# _framework density 18.993925999999998
#
# number of rings (size 3 to 8) (size 9 to 14) (size 15 to 20)
#    0.000    1.846    3.077    6.000    0.000    0.000 
#    2.769    0.000    0.000    0.923    0.000    6.462 
#    0.000    0.000    0.000    0.000    0.000    0.000 
#
# Total GULP energy -289472.060451 kJ/mol
# GULP energy per Si atom -5566.770393 kJ/mol
# Density = 1.895070 g / cm^3
# Si number density = 18.993926 Si / 1000 Ang^3
#
#
#
# Elastic Constant Matrix: (Units=GPa)
#
#
# Indices 1 2 3 4 5 6 
#
# 1 68.3233 6.8558 18.5678 0.0000 0.0000 0.0000
# 2 6.8558 44.6425 15.8166 0.0000 0.0000 0.0000
# 3 18.5678 15.8166 125.1149 0.0000 0.0000 0.0000
# 4 0.0000 0.0000 0.0000 20.5983 0.0000 0.0000
# 5 0.0000 0.0000 0.0000 0.0000 10.9054 0.0000
# 6 0.0000 0.0000 0.0000 0.0000 0.0000 12.5790
#
#
#
# Elastic Compliance Matrix: (Units=1/GPa)
#
#
# Indices 1 2 3 4 5 6 
#
# 1 0.015363 -0.001624 -0.002075 0.000000 0.000000 0.000000
# 2 -0.001624 0.023622 -0.002745 0.000000 0.000000 0.000000
# 3 -0.002075 -0.002745 0.008648 0.000000 0.000000 0.000000
# 4 0.000000 0.000000 0.000000 0.048548 0.000000 0.000000
# 5 0.000000 0.000000 0.000000 0.000000 0.091697 0.000000
# 6 0.000000 0.000000 0.000000 0.000000 0.000000 0.079498
#
#
# Mechanical properties :
#
#
# Convention : Reuss Voigt Hill
#
# Bulk Modulus (GPa) = 28.78140 35.61790 32.19965
# Shear Modulus (GPa) = 17.13235 21.93924 19.53579
#
# Velocity S-wave (km/s) = 3.00657 3.40231 3.21055
# Velocity P-wave (km/s) = 5.21905 5.85041 5.54373
#
# Compressibility (1/GPa) = 0.03474466
#
# Stress axis : x y z
#
# Youngs Moduli (GPa) = 65.09101 42.33298 115.63931
#
# Poissons Ratio (x) = 0.06876 0.23991
# Poissons Ratio (y) = 0.10573 0.31745
# Poissons Ratio (z) = 0.13504 0.11621
#
# Static dielectric constant tensor:
#      x y z
#    x 1.664970 0.000000 0.000000 
#    y 0.000000 1.712130 0.000000 
#    z 0.000000 0.000000 1.771330 
# 
# From -- ./inp_files/27456.got.cif
#   From: 2010.05.17/outbox.cif.g08.bks.cpg/sg50_14_cif.got.tgz:27456.got - 2010.06.03 11:33:33.
