data_PCOD9395413
_publ_section_title
;
Structure prediction by ZEFSAII (Michael W. Deem and Ramdas Pophale) SiO2 
 PCOD9395413
Probable space group: P B A N
;
_chemical_formula_sum "Si O2"
_cell_formula_units_Z 44
_cell_length_a 30.181839
_cell_length_b 9.335717
_cell_length_c 8.635747
_cell_angle_alpha 90.000000
_cell_angle_beta 90.000000
_cell_angle_gamma 90.000000
_cell_volume 2433.286724
_symmetry_space_group_name_H-M "P B A N"
_symmetry_group_IT_number 50
_space_group.IT_coordinate_system_code '2'
_symmetry_cell_setting 'orthorhombic'
loop_
_space_group_symop_operation_xyz
x,y,z
1/2-x,1/2-y,z
x,1/2-y,-z
1/2-x,y,-z
-x,-y,-z
1/2+x,1/2+y,-z
-x,1/2+y,z
1/2+x,-y,z
loop_
_atom_site_type_symbol
_atom_site_label
_atom_site_fract_x
_atom_site_fract_y
_atom_site_fract_z
Si Si1 0.383634 0.161458 0.842801
Si Si2 0.530810 0.763482 0.316441
Si Si3 0.250000 0.250000 0.500000
Si Si4 0.533423 0.463512 0.141478
Si Si5 0.134774 0.591289 0.051436
Si Si6 0.812441 0.616162 0.749550
Si Si7 0.250000 0.250000 0.000000
O O1 0.427485 0.141955 0.742246
O O2 0.350143 0.261450 0.749471
O O3 0.395773 0.250000 0.000000
O O4 0.360634 0.019297 0.907513
O O5 0.528761 0.750000 0.500000
O O6 0.537124 0.607112 0.242798
O O7 0.488061 0.838005 0.242911
O O8 0.218443 0.354011 0.397875
O O9 0.582213 0.418173 0.087311
O O10 0.500000 0.500000 0.000000
O O11 0.162262 0.528550 0.198156
O O12 0.147293 0.750000 0.000000
O O13 0.780732 0.653576 0.893166
#
# Coordination Sequence:
#
# PCOD9395413 Si02
#       7
#     8   8   2   8   8   8   2
#     4  10  18  38  61  85 118 162 213 253 303 366
#     4  12  24  37  56  88 126 167 212 268 315 361
#     4  10  24  38  72 100 124 154 200 268 332 402
#     4  12  22  39  60  87 123 174 223 259 297 368
#     4  11  21  37  64  93 122 165 217 257 304 364
#     4  10  20  38  64  95 120 154 204 257 319 373
#     4  10  16  34  66  90 108 142 210 258 284 378
#
# _framework density 18.082538
#
# number of rings (size 3 to 8) (size 9 to 14) (size 15 to 20)
#    0.000    1.091    8.182    2.182    1.273    0.000 
#    0.000    0.455    0.000    1.091    0.000    0.000 
#    0.000    0.000    0.000    0.000    0.000    0.000 
#
# Total GULP energy -245478.835898 kJ/mol
# GULP energy per Si atom -5579.064452 kJ/mol
# Density = 1.804138 g / cm^3
# Si number density = 18.082538 Si / 1000 Ang^3
#
#
#
# Elastic Constant Matrix: (Units=GPa)
#
#
# Indices 1 2 3 4 5 6 
#
# 1 97.2676 13.3249 37.1269 0.0000 0.0000 0.0000
# 2 13.3249 109.2580 26.1630 0.0000 0.0000 0.0000
# 3 37.1269 26.1630 103.2878 0.0000 0.0000 0.0000
# 4 0.0000 0.0000 0.0000 17.6285 0.0000 0.0000
# 5 0.0000 0.0000 0.0000 0.0000 32.6144 0.0000
# 6 0.0000 0.0000 0.0000 0.0000 0.0000 20.1559
#
#
#
# Elastic Compliance Matrix: (Units=1/GPa)
#
#
# Indices 1 2 3 4 5 6 
#
# 1 0.011937 -0.000456 -0.004175 0.000000 0.000000 0.000000
# 2 -0.000456 0.009761 -0.002309 0.000000 0.000000 0.000000
# 3 -0.004175 -0.002309 0.011767 0.000000 0.000000 0.000000
# 4 0.000000 0.000000 0.000000 0.056726 0.000000 0.000000
# 5 0.000000 0.000000 0.000000 0.000000 0.030661 0.000000
# 6 0.000000 0.000000 0.000000 0.000000 0.000000 0.049613
#
#
# Mechanical properties :
#
#
# Convention : Reuss Voigt Hill
#
# Bulk Modulus (GPa) = 51.05775 51.44921 51.25348
# Shear Modulus (GPa) = 26.19516 29.62631 27.91074
#
# Velocity S-wave (km/s) = 3.81023 4.05210 3.93303
# Velocity P-wave (km/s) = 6.90322 7.09978 7.00219
#
# Compressibility (1/GPa) = 0.01958567
#
# Stress axis : x y z
#
# Youngs Moduli (GPa) = 83.77257 102.44765 84.98149
#
# Poissons Ratio (x) = 0.04672 0.35482
# Poissons Ratio (y) = 0.03820 0.19619
# Poissons Ratio (z) = 0.34977 0.23651
#
# Static dielectric constant tensor:
#      x y z
#    x 1.657460 0.000000 0.000000 
#    y 0.000000 1.633390 0.000000 
#    z 0.000000 0.000000 1.622300 
# 
# From -- ./inp_files/16877.got.cif
#   From: 2010.05.17/outbox.cif.g08.bks.cpg/sg50_9_cif.got.tgz:16877.got - 2010.06.03 11:33:33.
