data_PCOD9395706
_publ_section_title
;
Structure prediction by ZEFSAII (Michael W. Deem and Ramdas Pophale) SiO2 
 PCOD9395706
Probable space group: P B A N
;
_chemical_formula_sum "Si O2"
_cell_formula_units_Z 48
_cell_length_a 15.835079
_cell_length_b 14.141914
_cell_length_c 10.895472
_cell_angle_alpha 90.000000
_cell_angle_beta 90.000000
_cell_angle_gamma 90.000000
_cell_volume 2439.913754
_symmetry_space_group_name_H-M "P B A N"
_symmetry_group_IT_number 50
_space_group.IT_coordinate_system_code '2'
_symmetry_cell_setting 'orthorhombic'
loop_
_space_group_symop_operation_xyz
x,y,z
1/2-x,1/2-y,z
x,1/2-y,-z
1/2-x,y,-z
-x,-y,-z
1/2+x,1/2+y,-z
-x,1/2+y,z
1/2+x,-y,z
loop_
_atom_site_type_symbol
_atom_site_label
_atom_site_fract_x
_atom_site_fract_y
_atom_site_fract_z
Si Si1 0.405668 0.033653 0.770760
Si Si2 0.246799 0.137239 0.646578
Si Si3 0.489151 0.224130 0.855587
Si Si4 0.825021 0.302734 0.868557
Si Si5 0.662956 0.999329 0.980371
Si Si6 0.430839 0.082277 0.241725
O O1 0.325649 0.072075 0.692908
O O2 0.438049 0.129523 0.833747
O O3 0.487848 0.979692 0.714820
O O4 0.374025 0.972376 0.887673
O O5 0.250000 0.250000 0.688809
O O6 0.250000 0.140401 0.500000
O O7 0.158671 0.087350 0.687409
O O8 0.583997 0.204321 0.811603
O O9 0.456942 0.309701 0.774368
O O10 0.486636 0.250000 0.000000
O O11 0.750000 0.250000 0.800012
O O12 0.808343 0.410538 0.901174
O O13 0.832557 0.250000 0.000000
O O14 0.592910 0.952352 0.895670
O O15 0.750000 0.940923 0.000000
#
# Coordination Sequence:
#
# PCOD9395706 Si02
#       6
#     8   8   8   8   8   8
#     4  12  23  39  64  93 125 163 202 251 308 369
#     4  11  26  47  67  86 115 163 219 263 307 359
#     4  11  21  34  56  90 131 165 195 238 304 369
#     4  10  19  31  48  77 129 169 194 230 289 365
#     4  12  21  34  56  93 127 160 201 235 298 387
#     4  12  24  38  64  94 124 162 203 252 307 370
#
# _framework density 19.672827999999999
#
# number of rings (size 3 to 8) (size 9 to 14) (size 15 to 20)
#    0.000    0.667    8.333    2.500    0.000    0.667 
#    0.000    2.500    0.000    0.000    0.000    1.167 
#    0.000    0.000    0.000    0.000    0.000    0.000 
#
# Total GULP energy -267427.931476 kJ/mol
# GULP energy per Si atom -5571.415239 kJ/mol
# Density = 1.962805 g / cm^3
# Si number density = 19.672828 Si / 1000 Ang^3
#
#
#
# Elastic Constant Matrix: (Units=GPa)
#
#
# Indices 1 2 3 4 5 6 
#
# 1 166.7261 39.6673 36.7784 0.0000 0.0000 0.0000
# 2 39.6673 88.2646 13.5640 0.0000 0.0000 0.0000
# 3 36.7784 13.5640 46.0051 0.0000 0.0000 0.0000
# 4 0.0000 0.0000 0.0000 6.5366 0.0000 0.0000
# 5 0.0000 0.0000 0.0000 0.0000 9.5461 0.0000
# 6 0.0000 0.0000 0.0000 0.0000 0.0000 27.0015
#
#
#
# Elastic Compliance Matrix: (Units=1/GPa)
#
#
# Indices 1 2 3 4 5 6 
#
# 1 0.007845 -0.002684 -0.005481 0.000000 0.000000 0.000000
# 2 -0.002684 0.012785 -0.001624 0.000000 0.000000 0.000000
# 3 -0.005481 -0.001624 0.026597 0.000000 0.000000 0.000000
# 4 0.000000 0.000000 0.000000 0.152985 0.000000 0.000000
# 5 0.000000 0.000000 0.000000 0.000000 0.104755 0.000000
# 6 0.000000 0.000000 0.000000 0.000000 0.000000 0.037035
#
#
# Mechanical properties :
#
#
# Convention : Reuss Voigt Hill
#
# Bulk Modulus (GPa) = 36.16543 53.44616 44.80579
# Shear Modulus (GPa) = 13.48450 22.68258 18.08354
#
# Velocity S-wave (km/s) = 2.62093 3.39925 3.03514
# Velocity P-wave (km/s) = 5.25189 6.52940 5.92518
#
# Compressibility (1/GPa) = 0.02765071
#
# Stress axis : x y z
#
# Youngs Moduli (GPa) = 127.46456 78.21547 37.59816
#
# Poissons Ratio (x) = 0.20990 0.20606
# Poissons Ratio (y) = 0.34206 0.06107
# Poissons Ratio (z) = 0.69859 0.12704
#
# Static dielectric constant tensor:
#      x y z
#    x 1.834780 0.000000 0.000000 
#    y 0.000000 1.755240 0.000000 
#    z 0.000000 0.000000 1.675460 
# 
# From -- ./inp_files/21062.got.cif
#   From: 2010.05.17/outbox.cif.g08.bks.cpg/sg50_11_cif.got.tgz:21062.got - 2010.06.03 11:33:33.
