data_PCOD9395496
_publ_section_title
;
Structure prediction by ZEFSAII (Michael W. Deem and Ramdas Pophale) SiO2 
 PCOD9395496
Probable space group: P B A N
;
_chemical_formula_sum "Si O2"
_cell_formula_units_Z 34
_cell_length_a 34.154578
_cell_length_b 5.384455
_cell_length_c 8.298216
_cell_angle_alpha 90.000000
_cell_angle_beta 90.000000
_cell_angle_gamma 90.000000
_cell_volume 1526.073358
_symmetry_space_group_name_H-M "P B A N"
_symmetry_group_IT_number 50
_space_group.IT_coordinate_system_code '2'
_symmetry_cell_setting 'orthorhombic'
loop_
_space_group_symop_operation_xyz
x,y,z
1/2-x,1/2-y,z
x,1/2-y,-z
1/2-x,y,-z
-x,-y,-z
1/2+x,1/2+y,-z
-x,1/2+y,z
1/2+x,-y,z
loop_
_atom_site_type_symbol
_atom_site_label
_atom_site_fract_x
_atom_site_fract_y
_atom_site_fract_z
Si Si1 0.105008 0.481940 0.194956
Si Si2 0.863008 0.486826 0.169217
Si Si3 0.273936 0.497693 0.203050
Si Si4 0.982796 0.705573 0.807387
Si Si5 0.250000 0.250000 0.500000
O O1 0.129091 0.245993 0.256570
O O2 0.059879 0.413083 0.216256
O O3 0.120208 0.745318 0.257507
O O4 0.114294 0.498687 0.002181
O O5 0.817011 0.472757 0.133460
O O6 0.250000 0.750000 0.179071
O O7 0.276534 0.431311 0.392480
O O8 0.250000 0.250000 0.153430
O O9 0.011558 0.487095 0.744040
O O10 0.988882 0.750000 0.000000
#
# Coordination Sequence:
#
# PCOD9395496 Si02
#       5
#     8   8   8   8   2
#     4  10  19  32  42  68 102 137 160 192 230 270
#     4  10  19  31  47  64  97 129 159 192 242 274
#     4  10  20  36  53  73  87 119 158 201 249 291
#     4  10  18  26  43  62  89 135 178 196 215 258
#     4   8  22  36  62  66  94 104 162 208 258 286
#
# _framework density 22.279399999999999
#
# number of rings (size 3 to 8) (size 9 to 14) (size 15 to 20)
#    0.706    1.412    2.353    3.176    6.588    0.000 
#    0.000   14.118    0.000    0.000    0.000    0.000 
#    0.000    0.000    0.000   36.000    0.000    0.000 
#
# Total GULP energy -189376.205870 kJ/mol
# GULP energy per Si atom -5569.888408 kJ/mol
# Density = 2.222869 g / cm^3
# Si number density = 22.279400 Si / 1000 Ang^3
#
#
#
# Elastic Constant Matrix: (Units=GPa)
#
#
# Indices 1 2 3 4 5 6 
#
# 1 145.0773 78.2243 -4.4560 0.0000 0.0000 0.0000
# 2 78.2243 264.2835 -6.4925 0.0000 0.0000 0.0000
# 3 -4.4560 -6.4925 17.6662 0.0000 0.0000 0.0000
# 4 0.0000 0.0000 0.0000 35.2846 0.0000 0.0000
# 5 0.0000 0.0000 0.0000 0.0000 68.0239 0.0000
# 6 0.0000 0.0000 0.0000 0.0000 0.0000 39.6078
#
#
#
# Elastic Compliance Matrix: (Units=1/GPa)
#
#
# Indices 1 2 3 4 5 6 
#
# 1 0.008227 -0.002406 0.001191 0.000000 0.000000 0.000000
# 2 -0.002406 0.004522 0.001055 0.000000 0.000000 0.000000
# 3 0.001191 0.001055 0.057293 0.000000 0.000000 0.000000
# 4 0.000000 0.000000 0.000000 0.028341 0.000000 0.000000
# 5 0.000000 0.000000 0.000000 0.000000 0.014701 0.000000
# 6 0.000000 0.000000 0.000000 0.000000 0.000000 0.025248
#
#
# Mechanical properties :
#
#
# Convention : Reuss Voigt Hill
#
# Bulk Modulus (GPa) = 14.34267 62.39762 38.37014
# Shear Modulus (GPa) = 30.88496 52.56668 41.72582
#
# Velocity S-wave (km/s) = 3.72729 4.86267 4.33233
# Velocity P-wave (km/s) = 4.99751 7.71978 6.50270
#
# Compressibility (1/GPa) = 0.06972205
#
# Stress axis : x y z
#
# Youngs Moduli (GPa) = 121.55704 221.15140 17.45406
#
# Poissons Ratio (x) = 0.53202 -0.02079
# Poissons Ratio (y) = 0.29243 -0.01841
# Poissons Ratio (z) = -0.14476 -0.23332
#
# Static dielectric constant tensor:
#      x y z
#    x 1.858260 0.000000 0.000000 
#    y 0.000000 1.809580 0.000000 
#    z 0.000000 0.000000 1.828450 
# 
# From -- ./inp_files/23254.got.cif
#   From: 2010.05.17/outbox.cif.g08.bks.cpg/sg50_12_cif.got.tgz:23254.got - 2010.06.03 11:33:33.
