data_PCOD9395785
_publ_section_title
;
Structure prediction by ZEFSAII (Michael W. Deem and Ramdas Pophale) SiO2 
 PCOD9395785
Probable space group: P B A N
;
_chemical_formula_sum "Si O2"
_cell_formula_units_Z 48
_cell_length_a 9.231860
_cell_length_b 24.990569
_cell_length_c 10.031828
_cell_angle_alpha 90.000000
_cell_angle_beta 90.000000
_cell_angle_gamma 90.000000
_cell_volume 2314.437363
_symmetry_space_group_name_H-M "P B A N"
_symmetry_group_IT_number 50
_space_group.IT_coordinate_system_code '2'
_symmetry_cell_setting 'orthorhombic'
loop_
_space_group_symop_operation_xyz
x,y,z
1/2-x,1/2-y,z
x,1/2-y,-z
1/2-x,y,-z
-x,-y,-z
1/2+x,1/2+y,-z
-x,1/2+y,z
1/2+x,-y,z
loop_
_atom_site_type_symbol
_atom_site_label
_atom_site_fract_x
_atom_site_fract_y
_atom_site_fract_z
Si Si1 0.314330 0.309534 0.138983
Si Si2 0.913435 0.326775 0.559832
Si Si3 0.089201 0.540590 0.671550
Si Si4 0.584028 0.250938 0.201159
Si Si5 0.087215 0.940417 0.650421
Si Si6 0.928049 0.648400 0.706948
O O1 0.250000 0.250000 0.164624
O O2 0.482442 0.294021 0.127300
O O3 0.240114 0.344686 0.254370
O O4 0.250000 0.329635 0.000000
O O5 0.750000 0.331897 0.500000
O O6 0.921153 0.273445 0.646557
O O7 0.935372 0.377243 0.658235
O O8 0.030577 0.334370 0.443519
O O9 0.255671 0.547059 0.709877
O O10 0.089082 0.548346 0.509970
O O11 0.028449 0.482254 0.705058
O O12 0.989349 0.588767 0.724597
O O13 0.750000 0.250000 0.159005
O O14 0.517509 0.191574 0.204862
#
# Coordination Sequence:
#
# PCOD9395785 Si02
#       6
#     8   8   8   8   8   8
#     4   9  21  40  54  74 109 142 189 241 274 325
#     4  11  18  31  51  81 118 145 180 219 269 350
#     4   9  16  28  45  70 101 142 183 213 266 325
#     4  11  20  32  58  81 109 148 181 221 284 339
#     4   9  16  28  44  68 107 146 175 219 261 328
#     4  10  19  33  53  77 111 149 175 225 285 328
#
# _framework density 20.739383
#
# number of rings (size 3 to 8) (size 9 to 14) (size 15 to 20)
#    0.000    2.167    5.000    0.500    0.000    2.000 
#    0.000   12.500    0.000    0.000    0.000    4.667 
#    0.000    0.000    0.000    0.000    0.000    0.000 
#
# Total GULP energy -267600.120640 kJ/mol
# GULP energy per Si atom -5575.002513 kJ/mol
# Density = 2.069218 g / cm^3
# Si number density = 20.739383 Si / 1000 Ang^3
#
#
#
# Elastic Constant Matrix: (Units=GPa)
#
#
# Indices 1 2 3 4 5 6 
#
# 1 127.2040 28.5114 23.1092 0.0000 0.0000 0.0000
# 2 28.5114 99.5451 4.5548 0.0000 0.0000 0.0000
# 3 23.1092 4.5548 46.7890 0.0000 0.0000 0.0000
# 4 0.0000 0.0000 0.0000 5.6408 0.0000 0.0000
# 5 0.0000 0.0000 0.0000 0.0000 10.1360 0.0000
# 6 0.0000 0.0000 0.0000 0.0000 0.0000 29.5785
#
#
#
# Elastic Compliance Matrix: (Units=1/GPa)
#
#
# Indices 1 2 3 4 5 6 
#
# 1 0.009189 -0.002435 -0.004301 0.000000 0.000000 0.000000
# 2 -0.002435 0.010736 0.000158 0.000000 0.000000 0.000000
# 3 -0.004301 0.000158 0.023482 0.000000 0.000000 0.000000
# 4 0.000000 0.000000 0.000000 0.177279 0.000000 0.000000
# 5 0.000000 0.000000 0.000000 0.000000 0.098658 0.000000
# 6 0.000000 0.000000 0.000000 0.000000 0.000000 0.033808
#
#
# Mechanical properties :
#
#
# Convention : Reuss Voigt Hill
#
# Bulk Modulus (GPa) = 33.05921 42.87654 37.96788
# Shear Modulus (GPa) = 13.28402 23.56190 18.42296
#
# Velocity S-wave (km/s) = 2.53360 3.37426 2.98368
# Velocity P-wave (km/s) = 4.95315 5.99163 5.49697
#
# Compressibility (1/GPa) = 0.03024875
#
# Stress axis : x y z
#
# Youngs Moduli (GPa) = 108.83095 93.14548 42.58651
#
# Poissons Ratio (x) = 0.22680 0.18317
# Poissons Ratio (y) = 0.26500 -0.00671
# Poissons Ratio (z) = 0.46811 -0.01467
#
# Static dielectric constant tensor:
#      x y z
#    x 1.803000 0.000000 0.000000 
#    y 0.000000 1.746280 0.000000 
#    z 0.000000 0.000000 1.784220 
# 
# From -- ./inp_files/19289.got.cif
#   From: 2010.05.17/outbox.cif.g08.bks.cpg/sg50_10_cif.got.tgz:19289.got - 2010.06.03 11:33:33.
