data_PCOD9395709
_publ_section_title
;
Structure prediction by ZEFSAII (Michael W. Deem and Ramdas Pophale) SiO2 
 PCOD9395709
Probable space group: P B A N
;
_chemical_formula_sum "Si O2"
_cell_formula_units_Z 64
_cell_length_a 18.085182
_cell_length_b 24.326090
_cell_length_c 8.480923
_cell_angle_alpha 90.000000
_cell_angle_beta 90.000000
_cell_angle_gamma 90.000000
_cell_volume 3731.112233
_symmetry_space_group_name_H-M "P B A N"
_symmetry_group_IT_number 50
_space_group.IT_coordinate_system_code '2'
_symmetry_cell_setting 'orthorhombic'
loop_
_space_group_symop_operation_xyz
x,y,z
1/2-x,1/2-y,z
x,1/2-y,-z
1/2-x,y,-z
-x,-y,-z
1/2+x,1/2+y,-z
-x,1/2+y,z
1/2+x,-y,z
loop_
_atom_site_type_symbol
_atom_site_label
_atom_site_fract_x
_atom_site_fract_y
_atom_site_fract_z
Si Si1 0.761589 0.126833 0.309355
Si Si2 0.089527 0.808426 0.695100
Si Si3 0.609432 0.314596 0.681819
Si Si4 0.004160 0.100214 0.173323
Si Si5 0.357682 0.476243 0.127908
Si Si6 0.961038 0.079753 0.820096
Si Si7 0.294825 0.996002 0.221131
Si Si8 0.558883 0.998948 0.641552
O O1 0.750000 0.118212 0.500000
O O2 0.836088 0.158567 0.259841
O O3 0.691494 0.165193 0.271068
O O4 0.767656 0.067363 0.228141
O O5 0.098278 0.808967 0.505745
O O6 0.091648 0.745335 0.750470
O O7 0.017034 0.841239 0.752556
O O8 0.559496 0.365731 0.729339
O O9 0.086659 0.074612 0.158870
O O10 0.957361 0.056330 0.273300
O O11 0.972588 0.096553 0.998711
O O12 0.400712 0.530829 0.187509
O O13 0.280541 0.469573 0.218621
O O14 0.336424 0.489135 0.944410
O O15 0.033373 0.051570 0.749189
O O16 0.352450 0.004087 0.365196
O O17 0.500000 0.000000 0.500000
#
# Coordination Sequence:
#
# PCOD9395709 Si02
#       8
#     8   8   8   8   8   8   8   8
#     4  10  19  31  50  74 108 146 189 221 264 332
#     4  10  20  36  53  72 111 147 188 230 278 327
#     4  10  21  34  52  79 104 148 189 230 276 330
#     4  11  20  36  52  76 107 147 185 232 278 333
#     4  10  20  33  54  77 110 145 187 229 282 340
#     4  11  19  34  50  76 107 139 184 231 272 329
#     4  11  19  34  53  80 109 151 177 228 288 334
#     4  11  21  32  53  79 110 143 184 224 282 337
#
# _framework density 17.153063
#
# number of rings (size 3 to 8) (size 9 to 14) (size 15 to 20)
#    0.000    1.500    5.000    1.875    1.750    2.000 
#    0.000    0.000    0.000    1.500    0.000    0.875 
#    0.000    2.000    0.000    0.000    0.000    0.000 
#
# Total GULP energy -356542.203364 kJ/mol
# GULP energy per Si atom -5570.971928 kJ/mol
# Density = 1.711402 g / cm^3
# Si number density = 17.153063 Si / 1000 Ang^3
#
#
#
# Elastic Constant Matrix: (Units=GPa)
#
#
# Indices 1 2 3 4 5 6 
#
# 1 111.9575 54.0444 12.5434 0.0000 0.0000 0.0000
# 2 54.0444 105.8468 10.5734 0.0000 0.0000 0.0000
# 3 12.5434 10.5734 21.9336 0.0000 0.0000 0.0000
# 4 0.0000 0.0000 0.0000 -9.6215 0.0000 0.0000
# 5 0.0000 0.0000 0.0000 0.0000 19.2870 0.0000
# 6 0.0000 0.0000 0.0000 0.0000 0.0000 16.4346
#
#
#
# Elastic Compliance Matrix: (Units=1/GPa)
#
#
# Indices 1 2 3 4 5 6 
#
# 1 0.012207 -0.005816 -0.004178 0.000000 0.000000 0.000000
# 2 -0.005816 0.012696 -0.002795 0.000000 0.000000 0.000000
# 3 -0.004178 -0.002795 0.049328 0.000000 0.000000 0.000000
# 4 0.000000 0.000000 0.000000 -0.103933 0.000000 0.000000
# 5 0.000000 0.000000 0.000000 0.000000 0.051848 0.000000
# 6 0.000000 0.000000 0.000000 0.000000 0.000000 0.060847
#
#
# Mechanical properties :
#
#
# Convention : Reuss Voigt Hill
#
# Bulk Modulus (GPa) = 20.55235 43.78451 32.16843
# Shear Modulus (GPa) = 40.06787 16.05846 28.06317
#
# Velocity S-wave (km/s) = 4.83836 3.06304 4.04919
# Velocity P-wave (km/s) = 6.57425 6.17177 6.37619
#
# Compressibility (1/GPa) = 0.04865624
#
# Stress axis : x y z
#
# Youngs Moduli (GPa) = 81.91779 78.76377 20.27233
#
# Poissons Ratio (x) = 0.45806 0.08469
# Poissons Ratio (y) = 0.47641 0.05665
# Poissons Ratio (z) = 0.34222 0.22011
#
# Static dielectric constant tensor:
#      x y z
#    x 1.625800 0.000000 0.000000 
#    y 0.000000 1.550640 0.000000 
#    z 0.000000 0.000000 1.643440 
# 
# From -- ./inp_files/14672.got.cif
#   From: 2010.05.17/outbox.cif.g08.bks.cpg/sg50_8_cif.got.tgz:14672.got - 2010.06.03 11:33:33.
