data_PCOD9395800
_publ_section_title
;
Structure prediction by ZEFSAII (Michael W. Deem and Ramdas Pophale) SiO2 
 PCOD9395800
Probable space group: P B A N
;
_chemical_formula_sum "Si O2"
_cell_formula_units_Z 56
_cell_length_a 19.084179
_cell_length_b 5.301125
_cell_length_c 27.145391
_cell_angle_alpha 90.000000
_cell_angle_beta 90.000000
_cell_angle_gamma 90.000000
_cell_volume 2746.234558
_symmetry_space_group_name_H-M "P B A N"
_symmetry_group_IT_number 50
_space_group.IT_coordinate_system_code '2'
_symmetry_cell_setting 'orthorhombic'
loop_
_space_group_symop_operation_xyz
x,y,z
1/2-x,1/2-y,z
x,1/2-y,-z
1/2-x,y,-z
-x,-y,-z
1/2+x,1/2+y,-z
-x,1/2+y,z
1/2+x,-y,z
loop_
_atom_site_type_symbol
_atom_site_label
_atom_site_fract_x
_atom_site_fract_y
_atom_site_fract_z
Si Si1 0.174156 0.707663 0.303333
Si Si2 0.333706 0.252958 0.117269
Si Si3 0.826776 0.792040 0.631262
Si Si4 0.039051 0.268470 0.181871
Si Si5 0.020930 0.764818 0.289473
Si Si6 0.954311 0.728005 0.557212
Si Si7 0.334814 0.746916 0.943993
O O1 0.250000 0.750000 0.278190
O O2 0.169546 0.428822 0.326972
O O3 0.101981 0.750599 0.274209
O O4 0.171586 0.929414 0.344501
O O5 0.250000 0.250000 0.126480
O O6 0.380828 0.243836 0.165887
O O7 0.352932 0.503995 0.086772
O O8 0.352555 0.008588 0.084652
O O9 0.750000 0.750000 0.608179
O O10 0.888814 0.757011 0.593224
O O11 0.002257 0.522778 0.163236
O O12 0.027297 0.268367 0.240738
O O13 0.997402 0.517390 0.317921
O O14 0.931499 0.750000 0.500000
O O15 0.991484 0.458388 0.564475
O O16 0.250000 0.750000 0.947037
O O17 0.361847 0.750000 0.000000
#
# Coordination Sequence:
#
# PCOD9395800 Si02
#       7
#     8   8   8   8   8   8   8
#     4  10  21  37  56  81 111 140 180 229 274 327
#     4  10  19  33  56  81 106 141 182 223 265 311
#     4  10  21  36  56  82 110 143 182 227 277 325
#     4  10  21  38  55  76 107 143 179 219 267 323
#     4  10  21  37  56  80 106 139 179 220 274 328
#     4  10  21  36  54  80 113 148 188 229 267 316
#     4   9  17  30  52  83 112 138 176 224 268 312
#
# _framework density 20.391558
#
# number of rings (size 3 to 8) (size 9 to 14) (size 15 to 20)
#    0.000    2.143    0.000    3.000    0.000    5.429 
#    0.000    5.714    0.000   13.714    0.000    0.000 
#    0.000    0.000    0.000    0.000    0.000    0.000 
#
# Total GULP energy -312568.032136 kJ/mol
# GULP energy per Si atom -5581.572002 kJ/mol
# Density = 2.034515 g / cm^3
# Si number density = 20.391558 Si / 1000 Ang^3
#
#
#
# Elastic Constant Matrix: (Units=GPa)
#
#
# Indices 1 2 3 4 5 6 
#
# 1 91.7675 5.7713 28.1836 0.0000 0.0000 0.0000
# 2 5.7713 141.2630 -2.0229 0.0000 0.0000 0.0000
# 3 28.1836 -2.0229 56.0341 0.0000 0.0000 0.0000
# 4 0.0000 0.0000 0.0000 10.5491 0.0000 0.0000
# 5 0.0000 0.0000 0.0000 0.0000 22.5000 0.0000
# 6 0.0000 0.0000 0.0000 0.0000 0.0000 19.3130
#
#
#
# Elastic Compliance Matrix: (Units=1/GPa)
#
#
# Indices 1 2 3 4 5 6 
#
# 1 0.012942 -0.000622 -0.006532 0.000000 0.000000 0.000000
# 2 -0.000622 0.007113 0.000570 0.000000 0.000000 0.000000
# 3 -0.006532 0.000570 0.021152 0.000000 0.000000 0.000000
# 4 0.000000 0.000000 0.000000 0.094794 0.000000 0.000000
# 5 0.000000 0.000000 0.000000 0.000000 0.044444 0.000000
# 6 0.000000 0.000000 0.000000 0.000000 0.000000 0.051779
#
#
# Mechanical properties :
#
#
# Convention : Reuss Voigt Hill
#
# Bulk Modulus (GPa) = 35.66588 39.21427 37.44007
# Shear Modulus (GPa) = 19.62786 27.61461 23.62123
#
# Velocity S-wave (km/s) = 3.10586 3.68396 3.40719
# Velocity P-wave (km/s) = 5.51274 6.11292 5.82057
#
# Compressibility (1/GPa) = 0.02803800
#
# Stress axis : x y z
#
# Youngs Moduli (GPa) = 77.26552 140.59595 47.27610
#
# Poissons Ratio (x) = 0.08749 0.30881
# Poissons Ratio (y) = 0.04808 -0.02694
# Poissons Ratio (z) = 0.50471 -0.08011
#
# Static dielectric constant tensor:
#      x y z
#    x 1.738320 0.000000 0.000000 
#    y 0.000000 1.827710 0.000000 
#    z 0.000000 0.000000 1.712610 
# 
# From -- ./inp_files/32510.got.cif
#   From: 2010.05.17/outbox.cif.g08.bks.cpg/sg50_17_cif.got.tgz:32510.got - 2010.06.03 11:33:33.
