data_PCOD9395812
_publ_section_title
;
Structure prediction by ZEFSAII (Michael W. Deem and Ramdas Pophale) SiO2 
 PCOD9395812
Probable space group: P B A N
;
_chemical_formula_sum "Si O2"
_cell_formula_units_Z 56
_cell_length_a 21.906318
_cell_length_b 7.827401
_cell_length_c 14.577220
_cell_angle_alpha 90.000000
_cell_angle_beta 90.000000
_cell_angle_gamma 90.000000
_cell_volume 2499.549141
_symmetry_space_group_name_H-M "P B A N"
_symmetry_group_IT_number 50
_space_group.IT_coordinate_system_code '2'
_symmetry_cell_setting 'orthorhombic'
loop_
_space_group_symop_operation_xyz
x,y,z
1/2-x,1/2-y,z
x,1/2-y,-z
1/2-x,y,-z
-x,-y,-z
1/2+x,1/2+y,-z
-x,1/2+y,z
1/2+x,-y,z
loop_
_atom_site_type_symbol
_atom_site_label
_atom_site_fract_x
_atom_site_fract_y
_atom_site_fract_z
Si Si1 0.738526 0.044755 0.689368
Si Si2 0.821692 0.459001 0.000592
Si Si3 0.419196 0.101343 0.626773
Si Si4 0.622320 0.429684 0.189686
Si Si5 0.662289 0.435486 0.473458
Si Si6 0.140657 0.980416 0.199917
Si Si7 0.446831 0.011581 0.357938
O O1 0.750000 0.250000 0.684156
O O2 0.681159 0.007958 0.754027
O O3 0.714774 0.981775 0.590358
O O4 0.797321 0.981591 0.743504
O O5 0.864148 0.495309 0.912614
O O6 0.819386 0.250000 0.000000
O O7 0.750000 0.512103 0.000000
O O8 0.850322 0.528993 0.094477
O O9 0.425818 0.301358 0.612900
O O10 0.365777 0.029301 0.561683
O O11 0.407915 0.067354 0.734340
O O12 0.485124 0.019400 0.608741
O O13 0.626579 0.223030 0.195190
O O14 0.563886 0.486736 0.248957
O O15 0.684859 0.250000 0.500000
O O16 0.603584 0.395306 0.407765
#
# Coordination Sequence:
#
# PCOD9395812 Si02
#       7
#     8   8   8   8   8   8   8
#     4   9  17  31  56  88 120 152 191 233 282 346
#     4   9  15  29  59  95 121 152 196 239 283 346
#     4  12  24  40  59  84 115 156 202 249 299 355
#     4   9  17  34  59  89 121 152 193 246 287 342
#     4  11  22  38  61  88 116 153 196 241 293 347
#     4  10  19  33  59  92 122 155 196 236 291 347
#     4  11  24  42  61  82 114 155 202 253 297 348
#
# _framework density 22.404040999999999
#
# number of rings (size 3 to 8) (size 9 to 14) (size 15 to 20)
#    0.000    1.857    1.429    5.143    0.000    2.000 
#    0.000    4.286    0.000   11.143    0.000    0.000 
#    0.000    0.000    0.000    0.000    0.000    0.000 
#
# Total GULP energy -312654.168500 kJ/mol
# GULP energy per Si atom -5583.110152 kJ/mol
# Density = 2.235305 g / cm^3
# Si number density = 22.404041 Si / 1000 Ang^3
#
#
#
# Elastic Constant Matrix: (Units=GPa)
#
#
# Indices 1 2 3 4 5 6 
#
# 1 79.4437 19.8830 42.2785 0.0000 0.0000 0.0000
# 2 19.8830 42.0824 18.4759 0.0000 0.0000 0.0000
# 3 42.2785 18.4759 184.3920 0.0000 0.0000 0.0000
# 4 0.0000 0.0000 0.0000 18.4461 0.0000 0.0000
# 5 0.0000 0.0000 0.0000 0.0000 -2.8109 0.0000
# 6 0.0000 0.0000 0.0000 0.0000 0.0000 7.1075
#
#
#
# Elastic Compliance Matrix: (Units=1/GPa)
#
#
# Indices 1 2 3 4 5 6 
#
# 1 0.015707 -0.006109 -0.002989 0.000000 0.000000 0.000000
# 2 -0.006109 0.027232 -0.001328 0.000000 0.000000 0.000000
# 3 -0.002989 -0.001328 0.006242 0.000000 0.000000 0.000000
# 4 0.000000 0.000000 0.000000 0.054212 0.000000 0.000000
# 5 0.000000 0.000000 0.000000 0.000000 -0.355755 0.000000
# 6 0.000000 0.000000 0.000000 0.000000 0.000000 0.140697
#
#
# Mechanical properties :
#
#
# Convention : Reuss Voigt Hill
#
# Bulk Modulus (GPa) = 35.29972 51.91033 43.60502
# Shear Modulus (GPa) = -61.44822 19.56723 -20.94049
#
# Velocity S-wave (km/s) = -5.24279 2.95851 -3.06056
# Velocity P-wave (km/s) = 4.56716 5.90684 2.64875
#
# Compressibility (1/GPa) = 0.02832884
#
# Stress axis : x y z
#
# Youngs Moduli (GPa) = 63.66443 36.72112 160.21252
#
# Poissons Ratio (x) = 0.22433 0.47893
# Poissons Ratio (y) = 0.38892 0.21275
# Poissons Ratio (z) = 0.19032 0.04876
#
# Static dielectric constant tensor:
#      x y z
#    x 1.853520 0.000000 0.000000 
#    y 0.000000 1.844030 0.000000 
#    z 0.000000 0.000000 1.864460 
# 
# From -- ./inp_files/27237.got.cif
#   From: 2010.05.17/outbox.cif.g08.bks.cpg/sg50_14_cif.got.tgz:27237.got - 2010.06.03 11:33:33.
