data_PCOD9395931
_publ_section_title
;
Structure prediction by ZEFSAII (Michael W. Deem and Ramdas Pophale) SiO2 
 PCOD9395931
Probable space group: P B A N
;
_chemical_formula_sum "Si O2"
_cell_formula_units_Z 56
_cell_length_a 19.091638
_cell_length_b 25.522053
_cell_length_c 5.785600
_cell_angle_alpha 90.000000
_cell_angle_beta 90.000000
_cell_angle_gamma 90.000000
_cell_volume 2819.078710
_symmetry_space_group_name_H-M "P B A N"
_symmetry_group_IT_number 50
_space_group.IT_coordinate_system_code '2'
_symmetry_cell_setting 'orthorhombic'
loop_
_space_group_symop_operation_xyz
x,y,z
1/2-x,1/2-y,z
x,1/2-y,-z
1/2-x,y,-z
-x,-y,-z
1/2+x,1/2+y,-z
-x,1/2+y,z
1/2+x,-y,z
loop_
_atom_site_type_symbol
_atom_site_label
_atom_site_fract_x
_atom_site_fract_y
_atom_site_fract_z
Si Si1 0.373324 0.300474 0.871579
Si Si2 0.524548 0.276702 0.743164
Si Si3 0.934945 0.885777 0.780080
Si Si4 0.322369 0.389756 0.609063
Si Si5 0.432264 0.459678 0.842725
Si Si6 0.913945 0.080172 0.262357
Si Si7 0.922163 0.104423 0.757251
O O1 0.439810 0.280851 0.724363
O O2 0.315263 0.335629 0.748283
O O3 0.344568 0.250000 0.000000
O O4 0.412500 0.342319 0.036959
O O5 0.548414 0.250000 0.500000
O O6 0.557381 0.334632 0.752646
O O7 0.537325 0.250000 0.000000
O O8 0.882144 0.877980 0.575828
O O9 0.016332 0.883382 0.722671
O O10 0.926936 0.944124 0.887588
O O11 0.250000 0.405990 0.500000
O O12 0.360222 0.434886 0.751765
O O13 0.433788 0.519129 0.765775
O O14 0.503721 0.429123 0.765822
O O15 0.882788 0.088653 0.519152
O O16 0.884695 0.093507 0.005398
#
# Coordination Sequence:
#
# PCOD9395931 Si02
#       7
#     8   8   8   8   8   8   8
#     4  10  22  34  52  69  92 132 182 235 277 318
#     4  11  21  31  52  74 102 140 177 217 263 320
#     4  10  19  36  52  70 102 125 169 224 275 319
#     4  11  23  38  54  69  98 138 182 235 281 319
#     4  10  21  32  52  78  97 129 166 225 270 327
#     4  11  20  32  55  80 103 127 166 227 271 321
#     4  11  19  33  49  78 105 130 168 219 261 317
#
# _framework density 19.864647000000001
#
# number of rings (size 3 to 8) (size 9 to 14) (size 15 to 20)
#    0.000    1.429    5.714    3.000    8.000    2.286 
#    0.000    2.143    0.000    0.000    0.000    0.000 
#    0.000    0.000    0.000    0.000    0.000   12.143 
#
# Total GULP energy -311782.807938 kJ/mol
# GULP energy per Si atom -5567.550142 kJ/mol
# Density = 1.981943 g / cm^3
# Si number density = 19.864647 Si / 1000 Ang^3
#
#
#
# Elastic Constant Matrix: (Units=GPa)
#
#
# Indices 1 2 3 4 5 6 
#
# 1 16.9870 6.1883 4.4358 0.0000 0.0000 0.0000
# 2 6.1883 110.7110 41.1512 0.0000 0.0000 0.0000
# 3 4.4358 41.1512 120.4673 0.0000 0.0000 0.0000
# 4 0.0000 0.0000 0.0000 20.9767 0.0000 0.0000
# 5 0.0000 0.0000 0.0000 0.0000 12.3025 0.0000
# 6 0.0000 0.0000 0.0000 0.0000 0.0000 8.0913
#
#
#
# Elastic Compliance Matrix: (Units=1/GPa)
#
#
# Indices 1 2 3 4 5 6 
#
# 1 0.060249 -0.002913 -0.001223 0.000000 0.000000 0.000000
# 2 -0.002913 0.010487 -0.003475 0.000000 0.000000 0.000000
# 3 -0.001223 -0.003475 0.009533 0.000000 0.000000 0.000000
# 4 0.000000 0.000000 0.000000 0.047672 0.000000 0.000000
# 5 0.000000 0.000000 0.000000 0.000000 0.081284 0.000000
# 6 0.000000 0.000000 0.000000 0.000000 0.000000 0.123589
#
#
# Mechanical properties :
#
#
# Convention : Reuss Voigt Hill
#
# Bulk Modulus (GPa) = 15.37363 39.07954 27.22658
# Shear Modulus (GPa) = 13.52375 21.36677 17.44526
#
# Velocity S-wave (km/s) = 2.61204 3.28322 2.96667
# Velocity P-wave (km/s) = 4.10524 5.83852 5.04685
#
# Compressibility (1/GPa) = 0.06504647
#
# Stress axis : x y z
#
# Youngs Moduli (GPa) = 16.59775 95.35591 104.89731
#
# Poissons Ratio (x) = 0.27776 0.12833
# Poissons Ratio (y) = 0.04835 0.36453
# Poissons Ratio (z) = 0.02031 0.33137
#
# Static dielectric constant tensor:
#      x y z
#    x 1.640090 0.000000 0.000000 
#    y 0.000000 1.771750 0.000000 
#    z 0.000000 0.000000 1.903620 
# 
# From -- ./inp_files/5425.got.cif
#   From: 2010.05.17/outbox.cif.g08.bks.cpg/sg50_3_cif.got.tgz:5425.got - 2010.06.03 11:33:33.
