data_PCOD9395176
_publ_section_title
;
Structure prediction by ZEFSAII (Michael W. Deem and Ramdas Pophale) SiO2 
 PCOD9395176
Probable space group: P C C M
;
_chemical_formula_sum "Si O2"
_cell_formula_units_Z 48
_cell_length_a 7.134725
_cell_length_b 18.589288
_cell_length_c 13.482275
_cell_angle_alpha 90.000000
_cell_angle_beta 90.000000
_cell_angle_gamma 90.000000
_cell_volume 1788.146824
_symmetry_space_group_name_H-M "P C C M"
_symmetry_group_IT_number 49
_symmetry_cell_setting 'orthorhombic'
loop_
_space_group_symop_operation_xyz
x,y,z
-x,-y,z
x,-y,1/2-z
-x,y,1/2-z
-x,-y,-z
x,y,-z
-x,y,1/2+z
x,-y,1/2+z
loop_
_atom_site_type_symbol
_atom_site_label
_atom_site_fract_x
_atom_site_fract_y
_atom_site_fract_z
Si Si1 0.335632 0.603401 0.884424
Si Si2 0.768237 0.448903 0.614576
Si Si3 0.227870 0.163869 0.158505
Si Si4 0.781846 0.008299 0.367825
Si Si5 0.805836 0.693931 0.211171
Si Si6 0.782700 0.148838 0.891167
O O1 0.550891 0.577059 0.878276
O O2 0.223266 0.531371 0.849905
O O3 0.305979 0.667944 0.808238
O O4 0.294399 0.618911 0.000000
O O5 0.816928 0.453807 0.500000
O O6 0.867443 0.379764 0.658512
O O7 0.299535 0.087906 0.114957
O O8 0.279630 0.246954 0.135890
O O9 0.277146 0.166982 0.277421
O O10 0.009316 0.153543 0.125440
O O11 0.780210 0.000000 0.250000
O O12 0.706007 0.932382 0.402069
O O13 0.000000 0.000000 0.397140
O O14 0.000000 0.726660 0.250000
O O15 0.743255 0.184379 0.000000
#
# Coordination Sequence:
#
# PCOD9395176 Si02
#       6
#     8   8   8   8   8   8
#     4   9  20  40  62  77  96 136 192 233 259 305
#     4   9  20  40  61  78  97 135 190 236 260 302
#     4   9  18  30  36  66 106 136 163 205 258 317
#     4   7  12  23  40  53  80 126 175 206 229 275
#     4  12  22  32  49  82 119 147 165 205 285 342
#     4   9  15  27  44  58  85 140 186 206 238 296
#
# _framework density 26.843433000000001
#
# number of rings (size 3 to 8) (size 9 to 14) (size 15 to 20)
#    0.000    2.833    1.667    4.000    0.000    7.667 
#    0.000    1.667    0.000    0.000    0.000    0.000 
#    0.000   24.000    0.000   39.000    8.000    0.000 
#
# Total GULP energy -267237.815458 kJ/mol
# GULP energy per Si atom -5567.454489 kJ/mol
# Density = 2.678234 g / cm^3
# Si number density = 26.843433 Si / 1000 Ang^3
#
#
#
# Elastic Constant Matrix: (Units=GPa)
#
#
# Indices 1 2 3 4 5 6 
#
# 1 75.4199 38.3884 10.1645 0.0000 0.0000 0.0000
# 2 38.3884 213.7888 32.1570 0.0000 0.0000 0.0000
# 3 10.1645 32.1570 132.7790 0.0000 0.0000 0.0000
# 4 0.0000 0.0000 0.0000 -10.9677 0.0000 0.0000
# 5 0.0000 0.0000 0.0000 0.0000 7.0002 0.0000
# 6 0.0000 0.0000 0.0000 0.0000 0.0000 -69.5775
#
#
#
# Elastic Compliance Matrix: (Units=1/GPa)
#
#
# Indices 1 2 3 4 5 6 
#
# 1 0.014625 -0.002551 -0.000502 0.000000 0.000000 0.000000
# 2 -0.002551 0.005299 -0.001088 0.000000 0.000000 0.000000
# 3 -0.000502 -0.001088 0.007833 0.000000 0.000000 0.000000
# 4 0.000000 0.000000 0.000000 -0.091177 0.000000 0.000000
# 5 0.000000 0.000000 0.000000 0.000000 0.142853 0.000000
# 6 0.000000 0.000000 0.000000 0.000000 0.000000 -0.014372
#
#
# Mechanical properties :
#
#
# Convention : Reuss Voigt Hill
#
# Bulk Modulus (GPa) = 51.34458 64.82304 58.08381
# Shear Modulus (GPa) = 62.62958 8.04286 35.33622
#
# Velocity S-wave (km/s) = 4.83550 1.73283 3.63213
# Velocity P-wave (km/s) = 7.09543 5.31080 6.26696
#
# Compressibility (1/GPa) = 0.01947625
#
# Stress axis : x y z
#
# Youngs Moduli (GPa) = 68.37609 188.70852 127.66080
#
# Poissons Ratio (x) = 0.48132 0.06407
# Poissons Ratio (y) = 0.17440 0.13891
# Poissons Ratio (z) = 0.03431 0.20534
#
# Static dielectric constant tensor:
#      x y z
#    x 2.266820 0.000000 0.000000 
#    y 0.000000 2.233450 0.000000 
#    z 0.000000 0.000000 2.175810 
# 
# From -- ./inp_files/11784.got.cif
#   From: 2010.05.17/outbox.cif.g08.bks.cpg/sg49_6_cif.got.tgz:11784.got - 2010.06.03 21:02:19.
