data_PCOD9395393
_publ_section_title
;
Structure prediction by ZEFSAII (Michael W. Deem and Ramdas Pophale) SiO2 
 PCOD9395393
Probable space group: P B A N
;
_chemical_formula_sum "Si O2"
_cell_formula_units_Z 48
_cell_length_a 27.031017
_cell_length_b 5.471136
_cell_length_c 13.583294
_cell_angle_alpha 90.000000
_cell_angle_beta 90.000000
_cell_angle_gamma 90.000000
_cell_volume 2008.838379
_symmetry_space_group_name_H-M "P B A N"
_symmetry_group_IT_number 50
_space_group.IT_coordinate_system_code '2'
_symmetry_cell_setting 'orthorhombic'
loop_
_space_group_symop_operation_xyz
x,y,z
1/2-x,1/2-y,z
x,1/2-y,-z
1/2-x,y,-z
-x,-y,-z
1/2+x,1/2+y,-z
-x,1/2+y,z
1/2+x,-y,z
loop_
_atom_site_type_symbol
_atom_site_label
_atom_site_fract_x
_atom_site_fract_y
_atom_site_fract_z
Si Si1 0.517102 0.607623 0.122362
Si Si2 0.693069 0.999468 0.460274
Si Si3 0.020013 0.595713 0.647908
Si Si4 0.372430 0.463904 0.287600
Si Si5 0.123213 0.538073 0.168631
Si Si6 0.230715 0.499457 0.111160
O O1 0.483279 0.385261 0.084928
O O2 0.499796 0.629343 0.238107
O O3 0.571581 0.497961 0.115740
O O4 0.670819 0.250000 0.500000
O O5 0.750000 0.998842 0.500000
O O6 0.670025 0.750000 0.500000
O O7 0.678940 0.993323 0.346528
O O8 0.077509 0.517470 0.650254
O O9 0.010694 0.866388 0.605741
O O10 0.374144 0.687325 0.210441
O O11 0.375683 0.187831 0.246720
O O12 0.172020 0.499307 0.105956
O O13 0.250000 0.750000 0.159299
O O14 0.250000 0.250000 0.159803
O O15 0.250000 0.499641 0.000000
#
# Coordination Sequence:
#
# PCOD9395393 Si02
#       6
#     8   8   8   8   8   8
#     4  10  16  30  51  87 136 148 177 251 319 357
#     4  10  23  45  59  75 113 170 201 253 320 367
#     4  10  16  30  51  84 126 154 175 249 321 351
#     4  12  21  35  63  90 121 155 210 261 299 371
#     4  12  21  35  62 103 116 156 211 254 302 365
#     4  10  23  45  62  84 130 170 202 250 309 364
#
# _framework density 23.894406
#
# number of rings (size 3 to 8) (size 9 to 14) (size 15 to 20)
#    0.000    1.333    6.667    2.000    0.000    0.000 
#   18.000    0.000    0.000    3.000    0.000   14.000 
#    0.000    0.000    0.000    0.000    0.000    0.000 
#
# Total GULP energy -267926.586338 kJ/mol
# GULP energy per Si atom -5581.803882 kJ/mol
# Density = 2.384002 g / cm^3
# Si number density = 23.894406 Si / 1000 Ang^3
#
#
#
# Elastic Constant Matrix: (Units=GPa)
#
#
# Indices 1 2 3 4 5 6 
#
# 1 121.3340 -19.6972 14.5191 0.0000 0.0000 0.0000
# 2 -19.6972 171.4805 8.3756 0.0000 0.0000 0.0000
# 3 14.5191 8.3756 23.7415 0.0000 0.0000 0.0000
# 4 0.0000 0.0000 0.0000 28.8798 0.0000 0.0000
# 5 0.0000 0.0000 0.0000 0.0000 36.8826 0.0000
# 6 0.0000 0.0000 0.0000 0.0000 0.0000 4.3240
#
#
#
# Elastic Compliance Matrix: (Units=1/GPa)
#
#
# Indices 1 2 3 4 5 6 
#
# 1 0.009191 0.001354 -0.006098 0.000000 0.000000 0.000000
# 2 0.001354 0.006133 -0.002991 0.000000 0.000000 0.000000
# 3 -0.006098 -0.002991 0.046905 0.000000 0.000000 0.000000
# 4 0.000000 0.000000 0.000000 0.034626 0.000000 0.000000
# 5 0.000000 0.000000 0.000000 0.000000 0.027113 0.000000
# 6 0.000000 0.000000 0.000000 0.000000 0.000000 0.231267
#
#
# Mechanical properties :
#
#
# Convention : Reuss Voigt Hill
#
# Bulk Modulus (GPa) = 21.38715 35.88344 28.63530
# Shear Modulus (GPa) = 12.94351 34.90784 23.92568
#
# Velocity S-wave (km/s) = 2.32996 3.82635 3.16778
# Velocity P-wave (km/s) = 4.02597 5.87974 5.03884
#
# Compressibility (1/GPa) = 0.04675704
#
# Stress axis : x y z
#
# Youngs Moduli (GPa) = 108.79967 163.04796 21.31958
#
# Poissons Ratio (x) = -0.22070 0.13002
# Poissons Ratio (y) = -0.14727 0.06378
# Poissons Ratio (z) = 0.66351 0.48776
#
# Static dielectric constant tensor:
#      x y z
#    x 1.895320 0.000000 0.000000 
#    y 0.000000 2.248040 0.000000 
#    z 0.000000 0.000000 2.173690 
# 
# From -- ./inp_files/27611.got.cif
#   From: 2010.05.17/outbox.cif.g08.bks.cpg/sg50_14_cif.got.tgz:27611.got - 2010.06.03 11:33:33.
