data_PCOD9395751
_publ_section_title
;
Structure prediction by ZEFSAII (Michael W. Deem and Ramdas Pophale) SiO2 
 PCOD9395751
Probable space group: P B A N
;
_chemical_formula_sum "Si O2"
_cell_formula_units_Z 58
_cell_length_a 24.344659
_cell_length_b 15.138455
_cell_length_c 7.630910
_cell_angle_alpha 90.000000
_cell_angle_beta 90.000000
_cell_angle_gamma 90.000000
_cell_volume 2812.299576
_symmetry_space_group_name_H-M "P B A N"
_symmetry_group_IT_number 50
_space_group.IT_coordinate_system_code '2'
_symmetry_cell_setting 'orthorhombic'
loop_
_space_group_symop_operation_xyz
x,y,z
1/2-x,1/2-y,z
x,1/2-y,-z
1/2-x,y,-z
-x,-y,-z
1/2+x,1/2+y,-z
-x,1/2+y,z
1/2+x,-y,z
loop_
_atom_site_type_symbol
_atom_site_label
_atom_site_fract_x
_atom_site_fract_y
_atom_site_fract_z
Si Si1 0.629095 0.515827 0.814794
Si Si2 0.531907 0.636459 0.800662
Si Si3 0.538961 0.659907 0.220233
Si Si4 0.640949 0.545382 0.219275
Si Si5 0.913109 0.162722 0.711860
Si Si6 0.592959 0.361056 0.306710
Si Si7 0.250000 0.250000 0.000000
Si Si8 0.238609 0.419791 0.809361
O O1 0.576637 0.566168 0.737633
O O2 0.615079 0.413090 0.824302
O O3 0.686856 0.534625 0.720428
O O4 0.637004 0.556132 0.008483
O O5 0.549554 0.735988 0.752478
O O6 0.470983 0.615928 0.731734
O O7 0.530613 0.638303 0.013186
O O8 0.589404 0.601899 0.289540
O O9 0.478496 0.645801 0.295839
O O10 0.630244 0.442227 0.249215
O O11 0.701356 0.577666 0.276992
O O12 0.895346 0.151166 0.511832
O O13 0.901618 0.262557 0.773546
O O14 0.221853 0.319972 0.868732
O O15 0.250000 0.466017 0.000000
#
# Coordination Sequence:
#
# PCOD9395751 Si02
#       8
#     8   8   8   8   8   8   2   8
#     4  10  19  32  52  78 105 131 169 210 252 300
#     4   9  18  30  50  78 106 133 165 206 255 307
#     4   9  18  30  50  78 106 133 165 206 255 307
#     4  10  19  32  52  78 105 131 169 210 252 300
#     4  10  21  36  51  70  99 138 176 212 257 305
#     4  10  21  36  51  70  99 138 176 212 257 305
#     4   8  16  32  56  80 112 140 160 204 246 302
#     4   8  18  30  52  80 108 130 165 198 247 296
#
# _framework density 20.623691999999998
#
# number of rings (size 3 to 8) (size 9 to 14) (size 15 to 20)
#    0.414    2.207    0.000    1.655    1.931    6.069 
#    0.000    1.379    0.000    4.138    0.000    0.966 
#    0.000    0.000    0.000    0.000    0.000    0.000 
#
# Total GULP energy -323048.523633 kJ/mol
# GULP energy per Si atom -5569.802132 kJ/mol
# Density = 2.057675 g / cm^3
# Si number density = 20.623692 Si / 1000 Ang^3
#
#
#
# Elastic Constant Matrix: (Units=GPa)
#
#
# Indices 1 2 3 4 5 6 
#
# 1 49.6139 53.8171 -8.7258 0.0000 0.0000 0.0000
# 2 53.8171 100.7228 -1.9873 0.0000 0.0000 0.0000
# 3 -8.7258 -1.9873 21.1053 0.0000 0.0000 0.0000
# 4 0.0000 0.0000 0.0000 2.3325 0.0000 0.0000
# 5 0.0000 0.0000 0.0000 0.0000 -65.7678 0.0000
# 6 0.0000 0.0000 0.0000 0.0000 0.0000 10.7960
#
#
#
# Elastic Compliance Matrix: (Units=1/GPa)
#
#
# Indices 1 2 3 4 5 6 
#
# 1 0.055338 -0.029170 0.020132 0.000000 0.000000 0.000000
# 2 -0.029170 0.025323 -0.009676 0.000000 0.000000 0.000000
# 3 0.020132 -0.009676 0.054794 0.000000 0.000000 0.000000
# 4 0.000000 0.000000 0.000000 0.428720 0.000000 0.000000
# 5 0.000000 0.000000 0.000000 0.000000 -0.015205 0.000000
# 6 0.000000 0.000000 0.000000 0.000000 0.000000 0.092627
#
#
# Mechanical properties :
#
#
# Convention : Reuss Voigt Hill
#
# Bulk Modulus (GPa) = 10.20122 28.62776 19.41449
# Shear Modulus (GPa) = 7.02543 -1.97197 2.52673
#
# Velocity S-wave (km/s) = 1.84767 -0.97890 1.10807
# Velocity P-wave (km/s) = 3.08366 3.55436 3.32734
#
# Compressibility (1/GPa) = 0.09802750
#
# Stress axis : x y z
#
# Youngs Moduli (GPa) = 18.07079 39.48939 18.25021
#
# Poissons Ratio (x) = 1.15192 -0.36742
# Poissons Ratio (y) = 0.52713 0.17658
# Poissons Ratio (z) = -0.36380 0.38209
#
# Static dielectric constant tensor:
#      x y z
#    x 1.779770 0.000000 0.000000 
#    y 0.000000 1.735660 0.000000 
#    z 0.000000 0.000000 1.811550 
# 
# From -- ./inp_files/16107.got.cif
#   From: 2010.05.17/outbox.cif.g08.bks.cpg/sg50_9_cif.got.tgz:16107.got - 2010.06.03 11:33:33.
