data_PCOD9395044
_publ_section_title
;
Structure prediction by ZEFSAII (Michael W. Deem and Ramdas Pophale) SiO2 
 PCOD9395044
Probable space group: P C C M
;
_chemical_formula_sum "Si O2"
_cell_formula_units_Z 34
_cell_length_a 7.980801
_cell_length_b 8.739500
_cell_length_c 21.360246
_cell_angle_alpha 90.000000
_cell_angle_beta 90.000000
_cell_angle_gamma 90.000000
_cell_volume 1489.838931
_symmetry_space_group_name_H-M "P C C M"
_symmetry_group_IT_number 49
_symmetry_cell_setting 'orthorhombic'
loop_
_space_group_symop_operation_xyz
x,y,z
-x,-y,z
x,-y,1/2-z
-x,y,1/2-z
-x,-y,-z
x,y,-z
-x,y,1/2+z
x,-y,1/2+z
loop_
_atom_site_type_symbol
_atom_site_label
_atom_site_fract_x
_atom_site_fract_y
_atom_site_fract_z
Si Si1 0.767358 0.562729 0.572145
Si Si2 0.732497 0.049328 0.679458
Si Si3 0.417701 0.742309 0.424815
Si Si4 0.060458 0.752534 0.161028
Si Si5 0.000000 0.500000 0.750000
O O1 0.793260 0.538247 0.500000
O O2 0.705537 0.397187 0.595540
O O3 0.603479 0.671746 0.579670
O O4 0.925139 0.656593 0.597772
O O5 0.614891 0.126630 0.626975
O O6 0.888470 0.169359 0.683293
O O7 0.677665 0.000000 0.750000
O O8 0.813260 0.892513 0.655312
O O9 0.391306 0.781540 0.500000
O O10 0.108085 0.615099 0.208208
#
# Coordination Sequence:
#
# PCOD9395044 Si02
#       5
#     8   8   8   8   2
#     4   9  20  40  66  98 126 164 216 267 321 390
#     4  11  22  41  59  91 131 171 215 268 327 393
#     4   9  20  41  67  93 132 170 211 270 329 387
#     4  11  22  37  63  86 124 167 215 267 322 384
#     4  12  20  38  62  86 112 178 216 268 324 374
#
# _framework density 22.821256999999999
#
# number of rings (size 3 to 8) (size 9 to 14) (size 15 to 20)
#    0.000    1.882    2.353    3.529    0.000    2.824 
#    0.000   11.176    0.000    0.000    0.000    0.000 
#    0.000    0.000    0.000    0.000    0.000    0.000 
#
# Total GULP energy -189431.380659 kJ/mol
# GULP energy per Si atom -5571.511196 kJ/mol
# Density = 2.276932 g / cm^3
# Si number density = 22.821257 Si / 1000 Ang^3
#
#
#
# Elastic Constant Matrix: (Units=GPa)
#
#
# Indices 1 2 3 4 5 6 
#
# 1 90.7251 42.5780 25.4920 0.0000 0.0000 0.0000
# 2 42.5780 172.7708 86.3419 0.0000 0.0000 0.0000
# 3 25.4920 86.3419 103.4033 0.0000 0.0000 0.0000
# 4 0.0000 0.0000 0.0000 55.1351 0.0000 0.0000
# 5 0.0000 0.0000 0.0000 0.0000 42.4745 0.0000
# 6 0.0000 0.0000 0.0000 0.0000 0.0000 44.5734
#
#
#
# Elastic Compliance Matrix: (Units=1/GPa)
#
#
# Indices 1 2 3 4 5 6 
#
# 1 0.012510 -0.002646 -0.000875 0.000000 0.000000 0.000000
# 2 -0.002646 0.010492 -0.008109 0.000000 0.000000 0.000000
# 3 -0.000875 -0.008109 0.016658 0.000000 0.000000 0.000000
# 4 0.000000 0.000000 0.000000 0.018137 0.000000 0.000000
# 5 0.000000 0.000000 0.000000 0.000000 0.023544 0.000000
# 6 0.000000 0.000000 0.000000 0.000000 0.000000 0.022435
#
#
# Mechanical properties :
#
#
# Convention : Reuss Voigt Hill
#
# Bulk Modulus (GPa) = 60.97299 75.08032 68.02666
# Shear Modulus (GPa) = 37.73540 42.60243 40.16891
#
# Velocity S-wave (km/s) = 4.07076 4.32532 4.19997
# Velocity P-wave (km/s) = 6.99074 7.61021 7.30704
#
# Compressibility (1/GPa) = 0.01640071
#
# Stress axis : x y z
#
# Youngs Moduli (GPa) = 79.93742 95.30623 60.03275
#
# Poissons Ratio (x) = 0.25215 0.05252
# Poissons Ratio (y) = 0.21149 0.48681
# Poissons Ratio (z) = 0.06993 0.77284
#
# Static dielectric constant tensor:
#      x y z
#    x 1.961760 0.000000 0.000000 
#    y 0.000000 1.876920 0.000000 
#    z 0.000000 0.000000 1.922020 
# 
# From -- ./inp_files/19432.got.cif
#   From: 2010.05.17/outbox.cif.g08.bks.cpg/sg49_10_cif.got.tgz:19432.got - 2010.06.03 21:02:19.
