data_PCOD9395808
_publ_section_title
;
Structure prediction by ZEFSAII (Michael W. Deem and Ramdas Pophale) SiO2 
 PCOD9395808
Probable space group: P B A N
;
_chemical_formula_sum "Si O2"
_cell_formula_units_Z 58
_cell_length_a 9.924993
_cell_length_b 25.355195
_cell_length_c 12.665170
_cell_angle_alpha 90.000000
_cell_angle_beta 90.000000
_cell_angle_gamma 90.000000
_cell_volume 3187.191714
_symmetry_space_group_name_H-M "P B A N"
_symmetry_group_IT_number 50
_space_group.IT_coordinate_system_code '2'
_symmetry_cell_setting 'orthorhombic'
loop_
_space_group_symop_operation_xyz
x,y,z
1/2-x,1/2-y,z
x,1/2-y,-z
1/2-x,y,-z
-x,-y,-z
1/2+x,1/2+y,-z
-x,1/2+y,z
1/2+x,-y,z
loop_
_atom_site_type_symbol
_atom_site_label
_atom_site_fract_x
_atom_site_fract_y
_atom_site_fract_z
Si Si1 0.997323 0.374195 0.397278
Si Si2 0.552491 0.806001 0.163996
Si Si3 0.870304 0.215240 0.744184
Si Si4 0.750000 0.750000 0.000000
Si Si5 0.540906 0.874297 0.359724
Si Si6 0.736026 0.070894 0.682498
Si Si7 0.233291 0.048312 0.626111
Si Si8 0.209988 0.868936 0.881384
O O1 0.952039 0.321982 0.335409
O O2 0.865258 0.411814 0.386657
O O3 0.046060 0.361118 0.515992
O O4 0.117630 0.409139 0.348734
O O5 0.469178 0.754074 0.195113
O O6 0.594271 0.830646 0.277853
O O7 0.445435 0.849612 0.122389
O O8 0.660855 0.787392 0.077731
O O9 0.750000 0.250000 0.692021
O O10 0.795301 0.178635 0.829343
O O11 0.384820 0.888889 0.344062
O O12 0.626365 0.926914 0.336225
O O13 0.750321 0.082334 0.806735
O O14 0.703219 0.010213 0.664241
O O15 0.250000 0.044655 0.500000
O O16 0.250000 0.878319 0.000000
#
# Coordination Sequence:
#
# PCOD9395808 Si02
#       8
#     8   8   8   2   8   8   8   8
#     4  10  20  34  57  85 113 153 182 220 278 339
#     4  10  22  36  55  79 104 144 183 233 275 329
#     4   9  19  35  58  85 110 143 188 235 281 331
#     4  12  24  36  58  74 100 152 196 222 280 346
#     4  10  21  36  54  83 119 142 181 229 277 331
#     4  10  19  33  58  85 110 147 189 230 270 327
#     4  10  20  34  55  81 116 153 181 219 275 339
#     4   9  18  36  58  81 108 136 184 242 284 317
#
# _framework density 18.197838999999998
#
# number of rings (size 3 to 8) (size 9 to 14) (size 15 to 20)
#    0.000    2.207    0.000    3.724    1.931    4.690 
#    0.000    3.448    1.517    4.966    0.000    0.000 
#    0.000    0.000    0.000    0.000    0.000    0.000 
#
# Total GULP energy -323126.957521 kJ/mol
# GULP energy per Si atom -5571.154440 kJ/mol
# Density = 1.815642 g / cm^3
# Si number density = 18.197839 Si / 1000 Ang^3
#
#
#
# Elastic Constant Matrix: (Units=GPa)
#
#
# Indices 1 2 3 4 5 6 
#
# 1 57.0520 33.9019 27.8001 0.0000 0.0000 0.0000
# 2 33.9019 66.8155 40.3531 0.0000 0.0000 0.0000
# 3 27.8001 40.3531 100.3120 0.0000 0.0000 0.0000
# 4 0.0000 0.0000 0.0000 11.4730 0.0000 0.0000
# 5 0.0000 0.0000 0.0000 0.0000 17.3556 0.0000
# 6 0.0000 0.0000 0.0000 0.0000 0.0000 26.6897
#
#
#
# Elastic Compliance Matrix: (Units=1/GPa)
#
#
# Indices 1 2 3 4 5 6 
#
# 1 0.025547 -0.011474 -0.002464 0.000000 0.000000 0.000000
# 2 -0.011474 0.024923 -0.006846 0.000000 0.000000 0.000000
# 3 -0.002464 -0.006846 0.013406 0.000000 0.000000 0.000000
# 4 0.000000 0.000000 0.000000 0.087161 0.000000 0.000000
# 5 0.000000 0.000000 0.000000 0.000000 0.057618 0.000000
# 6 0.000000 0.000000 0.000000 0.000000 0.000000 0.037468
#
#
# Mechanical properties :
#
#
# Convention : Reuss Voigt Hill
#
# Bulk Modulus (GPa) = 44.82891 47.58776 46.20833
# Shear Modulus (GPa) = 16.94185 19.24529 18.09357
#
# Velocity S-wave (km/s) = 3.05451 3.25554 3.15663
# Velocity P-wave (km/s) = 6.09325 6.35125 6.22359
#
# Compressibility (1/GPa) = 0.02230703
#
# Stress axis : x y z
#
# Youngs Moduli (GPa) = 39.14376 40.12323 74.59432
#
# Poissons Ratio (x) = 0.46038 0.18381
# Poissons Ratio (y) = 0.44914 0.51068
# Poissons Ratio (z) = 0.09646 0.27469
#
# Static dielectric constant tensor:
#      x y z
#    x 1.661790 0.000000 0.000000 
#    y 0.000000 1.616650 0.000000 
#    z 0.000000 0.000000 1.644140 
# 
# From -- ./inp_files/19397.got.cif
#   From: 2010.05.17/outbox.cif.g08.bks.cpg/sg50_10_cif.got.tgz:19397.got - 2010.06.03 11:33:33.
