data_PCOD9395223
_publ_section_title
;
Structure prediction by ZEFSAII (Michael W. Deem and Ramdas Pophale) SiO2 
 PCOD9395223
Probable space group: P C C M
;
_chemical_formula_sum "Si O2"
_cell_formula_units_Z 56
_cell_length_a 24.000000
_cell_length_b 18.000000
_cell_length_c 9.000000
_cell_angle_alpha 90.000000
_cell_angle_beta 90.000000
_cell_angle_gamma 90.000000
_cell_volume 3888.000000
_symmetry_space_group_name_H-M "P C C M"
_symmetry_group_IT_number 49
_symmetry_cell_setting 'orthorhombic'
loop_
_space_group_symop_operation_xyz
x,y,z
-x,-y,z
x,-y,1/2-z
-x,y,1/2-z
-x,-y,-z
x,y,-z
-x,y,1/2+z
x,-y,1/2+z
loop_
_atom_site_type_symbol
_atom_site_label
_atom_site_fract_x
_atom_site_fract_y
_atom_site_fract_z
Si Si1 0.318162 0.917143 0.677474
Si Si2 0.941114 0.582095 0.818821
Si Si3 0.133668 0.069407 0.334410
Si Si4 0.149447 0.297739 0.170823
Si Si5 0.945344 0.170974 0.668509
Si Si6 0.769605 0.191894 0.831351
Si Si7 0.445379 0.918253 0.322938
O O1 0.310016 0.925254 0.500000
O O2 0.277013 0.854209 0.741540
O O3 0.382306 0.890840 0.703818
O O4 0.310565 0.000000 0.750000
O O5 0.934573 0.500000 0.750000
O O6 0.887140 0.631651 0.777439
O O7 0.000000 0.610713 0.750000
O O8 0.945405 0.580745 0.000000
O O9 0.118950 0.047166 0.500000
O O10 0.079992 0.099889 0.250088
O O11 0.178888 0.134269 0.338436
O O12 0.158991 0.000000 0.250000
O O13 0.102788 0.232781 0.170492
O O14 0.202514 0.265523 0.259420
O O15 0.166362 0.310663 0.000000
O O16 0.959242 0.153314 0.500000
O O17 0.000000 0.198787 0.750000
O O18 0.750702 0.206382 0.000000
O O19 0.500000 0.880493 0.250000
O O20 0.453572 0.923189 0.500000
O O21 0.443779 0.000000 0.250000
#
# Coordination Sequence:
#
# PCOD9395223 Si02
#       7
#     8   8   8   8   8   8   8
#     4  10  19  29  42  60  83 110 143 181 219 255
#     4  10  19  31  48  70  92 113 135 163 200 243
#     4  10  20  32  43  56  72  92 121 158 198 238
#     4   9  19  33  47  62  83 108 131 159 197 239
#     4  10  19  31  45  59  74  94 120 152 191 235
#     4  10  20  31  45  62  79 103 135 169 206 245
#     4   9  16  25  38  56  78 106 137 174 216 255
#
# _framework density 14.403292
#
# number of rings (size 3 to 8) (size 9 to 14) (size 15 to 20)
#    0.000    2.286    0.000    4.286    0.000    6.571 
#    0.000    1.429    0.000    0.000    0.000    0.000 
#    0.000    0.000    0.000    0.000    0.000    0.714 
#
# Total GULP energy -311777.243127 kJ/mol
# GULP energy per Si atom -5567.450770 kJ/mol
# Density = 1.437051 g / cm^3
# Si number density = 14.403292 Si / 1000 Ang^3
#
#
#
# Elastic Constant Matrix: (Units=GPa)
#
#
# Indices 1 2 3 4 5 6 
#
# 1 87.1462 25.8084 50.5574 0.0000 0.0000 0.0000
# 2 25.8084 47.7370 27.0786 0.0000 0.0000 0.0000
# 3 50.5574 27.0786 96.2742 0.0000 0.0000 0.0000
# 4 0.0000 0.0000 0.0000 12.5632 0.0000 0.0000
# 5 0.0000 0.0000 0.0000 0.0000 21.6827 0.0000
# 6 0.0000 0.0000 0.0000 0.0000 0.0000 13.4461
#
#
#
# Elastic Compliance Matrix: (Units=1/GPa)
#
#
# Indices 1 2 3 4 5 6 
#
# 1 0.017467 -0.005045 -0.007754 0.000000 0.000000 0.000000
# 2 -0.005045 0.026382 -0.004771 0.000000 0.000000 0.000000
# 3 -0.007754 -0.004771 0.015801 0.000000 0.000000 0.000000
# 4 0.000000 0.000000 0.000000 0.079598 0.000000 0.000000
# 5 0.000000 0.000000 0.000000 0.000000 0.046120 0.000000
# 6 0.000000 0.000000 0.000000 0.000000 0.000000 0.074371
#
#
# Mechanical properties :
#
#
# Convention : Reuss Voigt Hill
#
# Bulk Modulus (GPa) = 40.79916 48.67182 44.73549
# Shear Modulus (GPa) = 16.49899 18.05258 17.27578
#
# Velocity S-wave (km/s) = 3.38820 3.54413 3.46704
# Velocity P-wave (km/s) = 6.61016 7.11430 6.86686
#
# Compressibility (1/GPa) = 0.02451031
#
# Stress axis : x y z
#
# Youngs Moduli (GPa) = 57.24930 37.90456 63.28819
#
# Poissons Ratio (x) = 0.19124 0.49072
# Poissons Ratio (y) = 0.28884 0.30194
# Poissons Ratio (z) = 0.44390 0.18084
#
# Static dielectric constant tensor:
#      x y z
#    x 1.498580 0.000000 0.000000 
#    y 0.000000 1.471650 0.000000 
#    z 0.000000 0.000000 1.505440 
# 
# From -- ./inp_files/5359.got.cif
#   From: 2010.05.17/outbox.ucp.g08.bks.cvg/sg49_3_cif.got.tgz:5359.got - 2010.06.11 16:40:14.
