data_PCOD9395984
_publ_section_title
;
Structure prediction by ZEFSAII (Michael W. Deem and Ramdas Pophale) SiO2 
 PCOD9395984
Probable space group: P B A N
;
_chemical_formula_sum "Si O2"
_cell_formula_units_Z 58
_cell_length_a 12.821544
_cell_length_b 9.261639
_cell_length_c 26.129891
_cell_angle_alpha 90.000000
_cell_angle_beta 90.000000
_cell_angle_gamma 90.000000
_cell_volume 3102.885674
_symmetry_space_group_name_H-M "P B A N"
_symmetry_group_IT_number 50
_space_group.IT_coordinate_system_code '2'
_symmetry_cell_setting 'orthorhombic'
loop_
_space_group_symop_operation_xyz
x,y,z
1/2-x,1/2-y,z
x,1/2-y,-z
1/2-x,y,-z
-x,-y,-z
1/2+x,1/2+y,-z
-x,1/2+y,z
1/2+x,-y,z
loop_
_atom_site_type_symbol
_atom_site_label
_atom_site_fract_x
_atom_site_fract_y
_atom_site_fract_z
Si Si1 0.853398 0.822743 0.211741
Si Si2 0.241310 0.915839 0.187984
Si Si3 0.999148 0.996556 0.381950
Si Si4 0.873058 0.252126 0.561262
Si Si5 0.533558 0.414001 0.862978
Si Si6 0.250000 0.750000 0.000000
Si Si7 0.120356 0.629878 0.089139
Si Si8 0.373655 0.254981 0.325348
O O1 0.750000 0.750000 0.188306
O O2 0.884795 0.746475 0.263913
O O3 0.945626 0.839595 0.171944
O O4 0.808404 0.982340 0.224383
O O5 0.250000 0.750000 0.204988
O O6 0.123340 0.965244 0.176534
O O7 0.298539 0.920656 0.132755
O O8 0.071876 0.103522 0.348736
O O9 0.927487 0.104852 0.415383
O O10 0.070137 0.889108 0.415791
O O11 0.929212 0.887609 0.348078
O O12 0.750000 0.250000 0.573890
O O13 0.884158 0.250000 0.500000
O O14 0.479471 0.529531 0.900091
O O15 0.586764 0.291015 0.896346
O O16 0.177988 0.852730 0.964567
O O17 0.250000 0.250000 0.336699
#
# Coordination Sequence:
#
# PCOD9395984 Si02
#       8
#     8   8   8   8   8   2   8   8
#     4  10  21  34  55  82 111 141 186 233 264 335
#     4   9  18  36  54  81 106 138 180 225 271 321
#     4  10  21  37  57  81 118 154 187 238 289 343
#     4  10  20  36  59  85 111 151 200 242 285 334
#     4  10  19  37  58  81 104 146 178 223 280 316
#     4  12  20  40  56  78 114 140 172 222 276 340
#     4  10  21  35  58  78 109 136 176 220 268 333
#     4  10  22  38  54  82 118 150 187 231 291 336
#
# _framework density 18.692278000000002
#
# number of rings (size 3 to 8) (size 9 to 14) (size 15 to 20)
#    0.000    2.069    2.069    2.069    0.000    6.069 
#    0.000    3.448    0.000    7.448    0.000    0.000 
#    0.000    0.000    0.000    0.000    0.000    0.000 
#
# Total GULP energy -323430.578652 kJ/mol
# GULP energy per Si atom -5576.389287 kJ/mol
# Density = 1.864973 g / cm^3
# Si number density = 18.692278 Si / 1000 Ang^3
#
#
#
# Elastic Constant Matrix: (Units=GPa)
#
#
# Indices 1 2 3 4 5 6 
#
# 1 101.5664 42.1217 32.6817 0.0000 0.0000 0.0000
# 2 42.1217 90.2116 33.8486 0.0000 0.0000 0.0000
# 3 32.6817 33.8486 60.6174 0.0000 0.0000 0.0000
# 4 0.0000 0.0000 0.0000 22.8699 0.0000 0.0000
# 5 0.0000 0.0000 0.0000 0.0000 10.9625 0.0000
# 6 0.0000 0.0000 0.0000 0.0000 0.0000 26.4018
#
#
#
# Elastic Compliance Matrix: (Units=1/GPa)
#
#
# Indices 1 2 3 4 5 6 
#
# 1 0.013166 -0.004407 -0.004637 0.000000 0.000000 0.000000
# 2 -0.004407 0.015499 -0.006278 0.000000 0.000000 0.000000
# 3 -0.004637 -0.006278 0.022503 0.000000 0.000000 0.000000
# 4 0.000000 0.000000 0.000000 0.043726 0.000000 0.000000
# 5 0.000000 0.000000 0.000000 0.000000 0.091220 0.000000
# 6 0.000000 0.000000 0.000000 0.000000 0.000000 0.037876
#
#
# Mechanical properties :
#
#
# Convention : Reuss Voigt Hill
#
# Bulk Modulus (GPa) = 48.72913 52.18884 50.45899
# Shear Modulus (GPa) = 19.12231 21.62974 20.37602
#
# Velocity S-wave (km/s) = 3.20192 3.40538 3.30521
# Velocity P-wave (km/s) = 6.30836 6.59111 6.45129
#
# Compressibility (1/GPa) = 0.02052161
#
# Stress axis : x y z
#
# Youngs Moduli (GPa) = 75.95451 64.52195 44.43906
#
# Poissons Ratio (x) = 0.28438 0.20607
# Poissons Ratio (y) = 0.33477 0.27899
# Poissons Ratio (z) = 0.35222 0.40508
#
# Static dielectric constant tensor:
#      x y z
#    x 1.682310 0.000000 0.000000 
#    y 0.000000 1.692600 0.000000 
#    z 0.000000 0.000000 1.632820 
# 
# From -- ./inp_files/32473.got.cif
#   From: 2010.05.17/outbox.cif.g08.bks.cpg/sg50_17_cif.got.tgz:32473.got - 2010.06.03 11:33:33.
