data_PCOD9395764
_publ_section_title
;
Structure prediction by ZEFSAII (Michael W. Deem and Ramdas Pophale) SiO2 
 PCOD9395764
Probable space group: P B A N
;
_chemical_formula_sum "Si O2"
_cell_formula_units_Z 48
_cell_length_a 19.542935
_cell_length_b 21.478251
_cell_length_c 5.303632
_cell_angle_alpha 90.000000
_cell_angle_beta 90.000000
_cell_angle_gamma 90.000000
_cell_volume 2226.189260
_symmetry_space_group_name_H-M "P B A N"
_symmetry_group_IT_number 50
_space_group.IT_coordinate_system_code '2'
_symmetry_cell_setting 'orthorhombic'
loop_
_space_group_symop_operation_xyz
x,y,z
1/2-x,1/2-y,z
x,1/2-y,-z
1/2-x,y,-z
-x,-y,-z
1/2+x,1/2+y,-z
-x,1/2+y,z
1/2+x,-y,z
loop_
_atom_site_type_symbol
_atom_site_label
_atom_site_fract_x
_atom_site_fract_y
_atom_site_fract_z
Si Si1 0.954706 0.250000 0.500000
Si Si2 0.206098 0.631703 0.758703
Si Si3 0.983587 0.869062 0.258234
Si Si4 0.134247 0.455784 0.231862
Si Si5 0.859320 0.001541 0.732892
Si Si6 0.371839 0.750000 0.000000
Si Si7 0.512130 0.441807 0.242413
O O1 0.000036 0.200472 0.656287
O O2 0.910599 0.275460 0.743375
O O3 0.250000 0.641697 0.500000
O O4 0.153721 0.574984 0.714903
O O5 0.250000 0.610568 0.000000
O O6 0.170537 0.694289 0.866425
O O7 0.013346 0.905780 0.497023
O O8 0.904510 0.890017 0.237760
O O9 0.013694 0.894641 0.994440
O O10 0.171412 0.469708 0.487872
O O11 0.073610 0.509301 0.234354
O O12 0.172650 0.471532 0.980208
O O13 0.938800 0.977474 0.752427
#
# Coordination Sequence:
#
# PCOD9395764 Si02
#       7
#     4   8   8   8   8   4   8
#     4  12  26  38  55  88 112 160 191 236 264 350
#     4  12  27  47  62  74 103 147 204 267 299 321
#     4  10  20  33  49  77 122 138 174 212 272 326
#     4  10  19  32  56  86 109 130 165 228 287 361
#     4  10  20  34  59  83  97 134 175 232 296 347
#     4  12  29  42  62  72 102 154 216 250 289 320
#     4  10  19  32  56  83 111 131 167 227 286 355
#
# _framework density 21.561508
#
# number of rings (size 3 to 8) (size 9 to 14) (size 15 to 20)
#    0.000    1.333    0.000    8.250    9.333    0.667 
#    0.000    0.000    0.000    0.000    0.000    0.000 
#    0.000    0.000    0.000  180.000    0.000    4.667 
#
# Total GULP energy -267708.138240 kJ/mol
# GULP energy per Si atom -5577.252880 kJ/mol
# Density = 2.151243 g / cm^3
# Si number density = 21.561508 Si / 1000 Ang^3
#
#
#
# Elastic Constant Matrix: (Units=GPa)
#
#
# Indices 1 2 3 4 5 6 
#
# 1 86.2976 49.5169 40.2773 0.0000 0.0000 0.0000
# 2 49.5169 111.1029 58.5268 0.0000 0.0000 0.0000
# 3 40.2773 58.5268 239.0761 0.0000 0.0000 0.0000
# 4 0.0000 0.0000 0.0000 38.9167 0.0000 0.0000
# 5 0.0000 0.0000 0.0000 0.0000 3.5749 0.0000
# 6 0.0000 0.0000 0.0000 0.0000 0.0000 83.8830
#
#
#
# Elastic Compliance Matrix: (Units=1/GPa)
#
#
# Indices 1 2 3 4 5 6 
#
# 1 0.015807 -0.006478 -0.001077 0.000000 0.000000 0.000000
# 2 -0.006478 0.012988 -0.002088 0.000000 0.000000 0.000000
# 3 -0.001077 -0.002088 0.004875 0.000000 0.000000 0.000000
# 4 0.000000 0.000000 0.000000 0.025696 0.000000 0.000000
# 5 0.000000 0.000000 0.000000 0.000000 0.279725 0.000000
# 6 0.000000 0.000000 0.000000 0.000000 0.000000 0.011921
#
#
# Mechanical properties :
#
#
# Convention : Reuss Voigt Hill
#
# Bulk Modulus (GPa) = 69.52011 81.45762 75.48887
# Shear Modulus (GPa) = 13.33000 44.48531 28.90765
#
# Velocity S-wave (km/s) = 2.48912 4.54715 3.66554
# Velocity P-wave (km/s) = 6.36975 8.08888 7.28024
#
# Compressibility (1/GPa) = 0.01438433
#
# Stress axis : x y z
#
# Youngs Moduli (GPa) = 63.26136 76.99629 205.10916
#
# Poissons Ratio (x) = 0.49875 0.22097
# Poissons Ratio (y) = 0.40978 0.42830
# Poissons Ratio (z) = 0.06815 0.16078
#
# Static dielectric constant tensor:
#      x y z
#    x 1.856960 0.000000 0.000000 
#    y 0.000000 1.816950 0.000000 
#    z 0.000000 0.000000 1.925080 
# 
# From -- ./inp_files/6071.got.cif
#   From: 2010.05.17/outbox.cif.g08.bks.cpg/sg50_4_cif.got.tgz:6071.got - 2010.06.03 11:33:33.
