data_PCOD9395660
_publ_section_title
;
Structure prediction by ZEFSAII (Michael W. Deem and Ramdas Pophale) SiO2 
 PCOD9395660
Probable space group: P B A N
;
_chemical_formula_sum "Si O2"
_cell_formula_units_Z 40
_cell_length_a 28.890636
_cell_length_b 8.051365
_cell_length_c 7.849054
_cell_angle_alpha 90.000000
_cell_angle_beta 90.000000
_cell_angle_gamma 90.000000
_cell_volume 1825.761038
_symmetry_space_group_name_H-M "P B A N"
_symmetry_group_IT_number 50
_space_group.IT_coordinate_system_code '2'
_symmetry_cell_setting 'orthorhombic'
loop_
_space_group_symop_operation_xyz
x,y,z
1/2-x,1/2-y,z
x,1/2-y,-z
1/2-x,y,-z
-x,-y,-z
1/2+x,1/2+y,-z
-x,1/2+y,z
1/2+x,-y,z
loop_
_atom_site_type_symbol
_atom_site_label
_atom_site_fract_x
_atom_site_fract_y
_atom_site_fract_z
Si Si1 0.250000 0.250000 0.500000
Si Si2 0.099619 0.007730 0.894267
Si Si3 0.140136 0.750000 0.500000
Si Si4 0.022766 0.373194 0.364904
Si Si5 0.805811 0.494540 0.744880
Si Si6 0.077122 0.857362 0.228023
Si Si7 0.750000 0.250000 0.000000
O O1 0.221281 0.370136 0.369766
O O2 0.150477 0.072244 0.848343
O O3 0.098784 0.812976 0.842841
O O4 0.060059 0.080391 0.774586
O O5 0.085301 0.003471 0.092673
O O6 0.172574 0.637026 0.386260
O O7 0.105557 0.875763 0.401469
O O8 0.045320 0.250000 0.500000
O O9 0.000000 0.500000 0.500000
O O10 0.976542 0.318963 0.263067
O O11 0.777877 0.378256 0.878006
#
# Coordination Sequence:
#
# PCOD9395660 Si02
#       7
#     2   8   4   8   8   8   2
#     4  12  28  44  66 104 148 164 214 300 392 420
#     4  10  22  38  63  92 132 168 225 272 334 405
#     4  10  18  41  71  94 122 178 241 261 322 430
#     4  12  21  37  60  90 131 178 217 265 326 396
#     4  11  24  44  70 101 128 178 221 292 354 430
#     4  10  19  38  62  95 126 171 226 279 305 390
#     4  12  24  48  80  96 124 180 252 284 348 432
#
# _framework density 21.908671999999999
#
# number of rings (size 3 to 8) (size 9 to 14) (size 15 to 20)
#    0.000    1.200    3.000    5.400    1.400    0.400 
#    0.000    0.000    0.000    0.000    0.000    0.000 
#    0.000    0.000    0.000    0.000    0.000    0.000 
#
# Total GULP energy -223022.556796 kJ/mol
# GULP energy per Si atom -5575.563920 kJ/mol
# Density = 2.185881 g / cm^3
# Si number density = 21.908672 Si / 1000 Ang^3
#
#
#
# Elastic Constant Matrix: (Units=GPa)
#
#
# Indices 1 2 3 4 5 6 
#
# 1 162.7193 55.3782 100.2979 0.0000 0.0000 0.0000
# 2 55.3782 64.5095 57.4503 0.0000 0.0000 0.0000
# 3 100.2979 57.4503 173.4194 0.0000 0.0000 0.0000
# 4 0.0000 0.0000 0.0000 38.2795 0.0000 0.0000
# 5 0.0000 0.0000 0.0000 0.0000 -221.7381 0.0000
# 6 0.0000 0.0000 0.0000 0.0000 0.0000 11.0063
#
#
#
# Elastic Compliance Matrix: (Units=1/GPa)
#
#
# Indices 1 2 3 4 5 6 
#
# 1 0.010647 -0.005186 -0.004440 0.000000 0.000000 0.000000
# 2 -0.005186 0.024515 -0.005122 0.000000 0.000000 0.000000
# 3 -0.004440 -0.005122 0.010031 0.000000 0.000000 0.000000
# 4 0.000000 0.000000 0.000000 0.026124 0.000000 0.000000
# 5 0.000000 0.000000 0.000000 0.000000 -0.004510 0.000000
# 6 0.000000 0.000000 0.000000 0.000000 0.000000 0.090857
#
#
# Mechanical properties :
#
#
# Convention : Reuss Voigt Hill
#
# Bulk Modulus (GPa) = 63.70444 91.87790 77.79117
# Shear Modulus (GPa) = 25.98864 -21.98900 1.99982
#
# Velocity S-wave (km/s) = 3.44790 -3.17151 0.95644
# Velocity P-wave (km/s) = 6.70754 5.34944 6.06661
#
# Compressibility (1/GPa) = 0.01569749
#
# Stress axis : x y z
#
# Youngs Moduli (GPa) = 93.92175 40.79130 99.69170
#
# Poissons Ratio (x) = 0.21155 0.44261
# Poissons Ratio (y) = 0.48709 0.51061
# Poissons Ratio (z) = 0.41699 0.20893
#
# Static dielectric constant tensor:
#      x y z
#    x 1.837340 0.000000 0.000000 
#    y 0.000000 1.826330 0.000000 
#    z 0.000000 0.000000 1.935360 
# 
# From -- ./inp_files/16422.got.cif
#   From: 2010.05.17/outbox.cif.g08.bks.cpg/sg50_9_cif.got.tgz:16422.got - 2010.06.03 11:33:33.
