data_PCOD9395635
_publ_section_title
;
Structure prediction by ZEFSAII (Michael W. Deem and Ramdas Pophale) SiO2 
 PCOD9395635
Probable space group: P B A N
;
_chemical_formula_sum "Si O2"
_cell_formula_units_Z 56
_cell_length_a 14.114586
_cell_length_b 12.966534
_cell_length_c 15.132653
_cell_angle_alpha 90.000000
_cell_angle_beta 90.000000
_cell_angle_gamma 90.000000
_cell_volume 2769.536677
_symmetry_space_group_name_H-M "P B A N"
_symmetry_group_IT_number 50
_space_group.IT_coordinate_system_code '2'
_symmetry_cell_setting 'orthorhombic'
loop_
_space_group_symop_operation_xyz
x,y,z
1/2-x,1/2-y,z
x,1/2-y,-z
1/2-x,y,-z
-x,-y,-z
1/2+x,1/2+y,-z
-x,1/2+y,z
1/2+x,-y,z
loop_
_atom_site_type_symbol
_atom_site_label
_atom_site_fract_x
_atom_site_fract_y
_atom_site_fract_z
Si Si1 0.653031 0.186444 0.146796
Si Si2 0.506026 0.431517 0.587326
Si Si3 0.139919 0.272367 0.396471
Si Si4 0.142203 0.761748 0.354573
Si Si5 0.145896 0.488585 0.971823
Si Si6 0.492318 0.114556 0.701132
Si Si7 0.976186 0.135817 0.093529
O O1 0.750000 0.250000 0.125766
O O2 0.641185 0.194853 0.252914
O O3 0.654660 0.070650 0.109430
O O4 0.567671 0.249260 0.099073
O O5 0.500000 0.500000 0.500000
O O6 0.403466 0.385930 0.613748
O O7 0.579181 0.336680 0.584923
O O8 0.540521 0.506917 0.663455
O O9 0.250000 0.250000 0.383765
O O10 0.118426 0.250000 0.500000
O O11 0.082448 0.200279 0.329681
O O12 0.250000 0.750000 0.382978
O O13 0.089173 0.652445 0.345840
O O14 0.075621 0.393869 0.951748
O O15 0.250000 0.454997 0.000000
O O16 0.098921 0.558804 0.048492
O O17 0.509616 0.109121 0.804011
#
# Coordination Sequence:
#
# PCOD9395635 Si02
#       7
#     8   8   8   8   8   8   8
#     4  10  18  36  64  87 113 162 203 243 299 359
#     4  11  21  38  63  86 118 160 190 245 305 352
#     4  10  21  40  62  85 115 156 203 242 287 362
#     4   9  21  37  58  91 123 149 198 250 295 354
#     4  11  21  36  61  93 121 156 204 247 291 361
#     4  10  21  40  59  86 124 152 197 247 297 354
#     4  10  22  36  59  91 123 157 196 249 300 346
#
# _framework density 20.219989000000002
#
# number of rings (size 3 to 8) (size 9 to 14) (size 15 to 20)
#    0.000    1.857    2.857    1.286    0.000    1.143 
#    2.571    0.714    0.000    0.857    0.000    0.000 
#    0.000    0.000    0.000    0.000    0.000    0.000 
#
# Total GULP energy -312537.927588 kJ/mol
# GULP energy per Si atom -5581.034421 kJ/mol
# Density = 2.017397 g / cm^3
# Si number density = 20.219989 Si / 1000 Ang^3
#
#
#
# Elastic Constant Matrix: (Units=GPa)
#
#
# Indices 1 2 3 4 5 6 
#
# 1 136.6420 30.4967 7.1467 0.0000 0.0000 0.0000
# 2 30.4967 69.9229 4.2940 0.0000 0.0000 0.0000
# 3 7.1467 4.2940 60.1643 0.0000 0.0000 0.0000
# 4 0.0000 0.0000 0.0000 5.8064 0.0000 0.0000
# 5 0.0000 0.0000 0.0000 0.0000 37.5269 0.0000
# 6 0.0000 0.0000 0.0000 0.0000 0.0000 16.2785
#
#
#
# Elastic Compliance Matrix: (Units=1/GPa)
#
#
# Indices 1 2 3 4 5 6 
#
# 1 0.008138 -0.003505 -0.000717 0.000000 0.000000 0.000000
# 2 -0.003505 0.015874 -0.000717 0.000000 0.000000 0.000000
# 3 -0.000717 -0.000717 0.016757 0.000000 0.000000 0.000000
# 4 0.000000 0.000000 0.000000 0.172224 0.000000 0.000000
# 5 0.000000 0.000000 0.000000 0.000000 0.026648 0.000000
# 6 0.000000 0.000000 0.000000 0.000000 0.000000 0.061431
#
#
# Mechanical properties :
#
#
# Convention : Reuss Voigt Hill
#
# Bulk Modulus (GPa) = 32.36993 38.95602 35.66298
# Shear Modulus (GPa) = 15.56432 26.90846 21.23639
#
# Velocity S-wave (km/s) = 2.77745 3.65195 3.24430
# Velocity P-wave (km/s) = 5.13120 6.09018 5.63114
#
# Compressibility (1/GPa) = 0.03089287
#
# Stress axis : x y z
#
# Youngs Moduli (GPa) = 122.87663 62.99460 59.67514
#
# Poissons Ratio (x) = 0.22083 0.04276
# Poissons Ratio (y) = 0.43074 0.04276
# Poissons Ratio (z) = 0.08804 0.04514
#
# Static dielectric constant tensor:
#      x y z
#    x 1.726370 0.000000 0.000000 
#    y 0.000000 1.713060 0.000000 
#    z 0.000000 0.000000 1.725540 
# 
# From -- ./inp_files/25927.got.cif
#   From: 2010.05.17/outbox.cif.g08.bks.cpg/sg50_13_cif.got.tgz:25927.got - 2010.06.03 11:33:33.
