data_PCOD9395616
_publ_section_title
;
Structure prediction by ZEFSAII (Michael W. Deem and Ramdas Pophale) SiO2 
 PCOD9395616
Probable space group: P B A N
;
_chemical_formula_sum "Si O2"
_cell_formula_units_Z 40
_cell_length_a 5.575057
_cell_length_b 16.869994
_cell_length_c 19.168081
_cell_angle_alpha 90.000000
_cell_angle_beta 90.000000
_cell_angle_gamma 90.000000
_cell_volume 1802.780601
_symmetry_space_group_name_H-M "P B A N"
_symmetry_group_IT_number 50
_space_group.IT_coordinate_system_code '2'
_symmetry_cell_setting 'orthorhombic'
loop_
_space_group_symop_operation_xyz
x,y,z
1/2-x,1/2-y,z
x,1/2-y,-z
1/2-x,y,-z
-x,-y,-z
1/2+x,1/2+y,-z
-x,1/2+y,z
1/2+x,-y,z
loop_
_atom_site_type_symbol
_atom_site_label
_atom_site_fract_x
_atom_site_fract_y
_atom_site_fract_z
Si Si1 0.500000 0.147566 0.684407
Si Si2 0.500000 0.288805 0.897358
Si Si3 0.500000 0.908303 0.472322
Si Si4 0.500000 0.323482 0.734454
Si Si5 0.500000 0.971394 0.920038
O O1 0.500000 0.104570 0.610264
O O2 0.500000 0.244872 0.684929
O O3 0.246351 0.129625 0.721479
O O4 0.753648 0.129625 0.721479
O O5 0.250000 0.250000 0.919480
O O6 0.500000 0.290897 0.812917
O O7 0.500000 0.377962 0.922114
O O8 0.750000 0.250000 0.919480
O O9 0.750000 0.872769 0.500000
O O10 0.250000 0.872769 0.500000
O O11 0.500000 0.000000 0.500000
O O12 0.250000 1.000000 0.886751
O O13 0.500000 0.000000 0.000000
#
# Coordination Sequence:
#
# PCOD9395616 Si02
#       5
#     8   8   8   8   8
#     4  10  18  35  58  83 121 148 198 264 337 372
#     4  12  21  40  72 105 132 172 240 290 325 404
#     4  10  21  37  57  77 114 160 208 255 307 393
#     4  10  19  35  58  90 120 152 198 275 336 372
#     4  10  23  45  67  95 148 191 218 270 343 413
#
# _framework density 22.187947000000001
#
# number of rings (size 3 to 8) (size 9 to 14) (size 15 to 20)
#    0.000    1.600    4.000    2.400    0.000    0.000 
#    0.000   24.000   26.400    0.000    0.000    0.000 
#    0.000    0.000    0.000    0.000    0.000    0.000 
#
# Total GULP energy -223181.290117 kJ/mol
# GULP energy per Si atom -5579.532253 kJ/mol
# Density = 2.213745 g / cm^3
# Si number density = 22.187947 Si / 1000 Ang^3
#
#
#
# Elastic Constant Matrix: (Units=GPa)
#
#
# Indices 1 2 3 4 5 6 
#
# 1 307.0923 50.8541 31.1222 0.0000 0.0000 0.0000
# 2 50.8541 112.9432 27.4841 0.0000 0.0000 0.0000
# 3 31.1222 27.4841 83.0266 0.0000 0.0000 0.0000
# 4 0.0000 0.0000 0.0000 19.8618 0.0000 0.0000
# 5 0.0000 0.0000 0.0000 0.0000 -638.3554 0.0000
# 6 0.0000 0.0000 0.0000 0.0000 0.0000 18.3545
#
#
#
# Elastic Compliance Matrix: (Units=1/GPa)
#
#
# Indices 1 2 3 4 5 6 
#
# 1 0.003577 -0.001397 -0.000878 0.000000 0.000000 0.000000
# 2 -0.001397 0.010175 -0.002845 0.000000 0.000000 0.000000
# 3 -0.000878 -0.002845 0.013315 0.000000 0.000000 0.000000
# 4 0.000000 0.000000 0.000000 0.050348 0.000000 0.000000
# 5 0.000000 0.000000 0.000000 0.000000 -0.001567 0.000000
# 6 0.000000 0.000000 0.000000 0.000000 0.000000 0.054483
#
#
# Mechanical properties :
#
#
# Convention : Reuss Voigt Hill
#
# Bulk Modulus (GPa) = 59.42640 80.22032 69.82336
# Shear Modulus (GPa) = 34.20446 -93.78771 -29.79162
#
# Velocity S-wave (km/s) = 3.93055 -6.50857 -3.66825
# Velocity P-wave (km/s) = 6.88769 4.49983 3.68726
#
# Compressibility (1/GPa) = 0.01682754
#
# Stress axis : x y z
#
# Youngs Moduli (GPa) = 279.59071 98.27887 75.10181
#
# Poissons Ratio (x) = 0.13727 0.06597
# Poissons Ratio (y) = 0.39050 0.21364
# Poissons Ratio (z) = 0.24558 0.27957
#
# Static dielectric constant tensor:
#      x y z
#    x 1.897970 0.000000 0.000000 
#    y 0.000000 1.772940 0.000000 
#    z 0.000000 0.000000 1.791930 
# 
# From -- ./inp_files/28064.got.cif
#   From: 2010.05.17/outbox.cif.g08.bks.cpg/sg50_15_cif.got.tgz:28064.got - 2010.06.03 11:33:33.
