data_PCOD9395150
_publ_section_title
;
Structure prediction by ZEFSAII (Michael W. Deem and Ramdas Pophale) SiO2 
 PCOD9395150
Probable space group: P C C M
;
_chemical_formula_sum "Si O2"
_cell_formula_units_Z 48
_cell_length_a 7.458868
_cell_length_b 19.995458
_cell_length_c 15.755788
_cell_angle_alpha 90.000000
_cell_angle_beta 90.000000
_cell_angle_gamma 90.000000
_cell_volume 2349.873081
_symmetry_space_group_name_H-M "P C C M"
_symmetry_group_IT_number 49
_symmetry_cell_setting 'orthorhombic'
loop_
_space_group_symop_operation_xyz
x,y,z
-x,-y,z
x,-y,1/2-z
-x,y,1/2-z
-x,-y,-z
x,y,-z
-x,y,1/2+z
x,-y,1/2+z
loop_
_atom_site_type_symbol
_atom_site_label
_atom_site_fract_x
_atom_site_fract_y
_atom_site_fract_z
Si Si1 0.719086 0.076797 0.250000
Si Si2 0.281127 0.171987 0.097761
Si Si3 0.999999 0.575165 0.850797
Si Si4 0.701980 0.320044 0.101944
Si Si5 0.298024 0.320044 0.898056
Si Si6 0.718874 0.171987 0.902239
O O1 0.500000 0.077055 0.250000
O O2 0.775393 0.116774 0.334409
O O3 0.775394 0.116773 0.165591
O O4 0.777128 0.000000 0.250000
O O5 0.228363 0.246592 0.127842
O O6 0.500001 0.172958 0.096282
O O7 0.223423 0.160632 0.000000
O O8 0.171222 0.618994 0.875949
O O9 0.000000 0.500000 0.886890
O O10 0.000000 0.570066 0.750000
O O11 0.828774 0.618993 0.875948
O O12 0.500002 0.329362 0.134975
O O13 0.771639 0.246592 0.127843
O O14 0.693007 0.315821 0.000000
O O15 0.306995 0.315822 0.000000
O O16 0.776578 0.160631 0.000000
#
# Coordination Sequence:
#
# PCOD9395150 Si02
#       6
#     8   8   8   8   8   8
#     4   9  16  24  40  71 107 144 181 219 274 332
#     4   8  15  28  46  71 102 138 184 230 271 324
#     4  11  25  39  53  83 119 146 179 226 284 346
#     4   9  19  37  60  82 106 145 193 235 278 328
#     4   9  19  37  60  82 106 145 193 235 278 328
#     4   8  15  28  46  71 102 138 184 230 271 324
#
# _framework density 20.426634
#
# number of rings (size 3 to 8) (size 9 to 14) (size 15 to 20)
#    0.000    3.000    0.000    2.500    2.333    3.333 
#    0.000    6.667    0.000    0.000    0.000    2.333 
#    0.000    5.333    0.000    0.667    0.000    0.000 
#
# Total GULP energy -267882.075478 kJ/mol
# GULP energy per Si atom -5580.876572 kJ/mol
# Density = 2.038014 g / cm^3
# Si number density = 20.426634 Si / 1000 Ang^3
#
#
#
# Elastic Constant Matrix: (Units=GPa)
#
#
# Indices 1 2 3 4 5 6 
#
# 1 79.9245 60.7996 19.8966 0.0000 0.0000 0.0000
# 2 60.7996 236.8549 82.2422 0.0000 0.0000 0.0000
# 3 19.8966 82.2422 80.4103 0.0000 0.0000 0.0000
# 4 0.0000 0.0000 0.0000 47.1978 0.0000 0.0000
# 5 0.0000 0.0000 0.0000 0.0000 10.6879 0.0000
# 6 0.0000 0.0000 0.0000 0.0000 0.0000 49.9995
#
#
#
# Elastic Compliance Matrix: (Units=1/GPa)
#
#
# Indices 1 2 3 4 5 6 
#
# 1 0.015555 -0.004119 0.000364 0.000000 0.000000 0.000000
# 2 -0.004119 0.007638 -0.006793 0.000000 0.000000 0.000000
# 3 0.000364 -0.006793 0.019294 0.000000 0.000000 0.000000
# 4 0.000000 0.000000 0.000000 0.021187 0.000000 0.000000
# 5 0.000000 0.000000 0.000000 0.000000 0.093564 0.000000
# 6 0.000000 0.000000 0.000000 0.000000 0.000000 0.020000
#
#
# Mechanical properties :
#
#
# Convention : Reuss Voigt Hill
#
# Bulk Modulus (GPa) = 46.74897 80.34070 63.54483
# Shear Modulus (GPa) = 24.33522 37.19381 30.76451
#
# Velocity S-wave (km/s) = 3.45533 4.27177 3.88506
# Velocity P-wave (km/s) = 6.23338 7.98420 7.16249
#
# Compressibility (1/GPa) = 0.02139085
#
# Stress axis : x y z
#
# Youngs Moduli (GPa) = 64.28908 130.92383 51.83074
#
# Poissons Ratio (x) = 0.53932 -0.01888
# Poissons Ratio (y) = 0.26483 0.35207
# Poissons Ratio (z) = -0.02342 0.88933
#
# Static dielectric constant tensor:
#      x y z
#    x 1.732350 0.000000 0.000000 
#    y 0.000000 1.717730 0.000000 
#    z 0.000000 0.000000 1.717100 
# 
# From -- ./inp_files/11791.got.cif
#   From: 2010.05.17/outbox.cif.g08.bks.cpg/sg49_6_cif.got.tgz:11791.got - 2010.06.03 21:02:19.
