data_PCOD9395391
_publ_section_title
;
Structure prediction by ZEFSAII (Michael W. Deem and Ramdas Pophale) SiO2 
 PCOD9395391
Probable space group: P B A N
;
_chemical_formula_sum "Si O2"
_cell_formula_units_Z 48
_cell_length_a 30.438604
_cell_length_b 9.526134
_cell_length_c 8.374040
_cell_angle_alpha 90.000000
_cell_angle_beta 90.000000
_cell_angle_gamma 90.000000
_cell_volume 2428.155233
_symmetry_space_group_name_H-M "P B A N"
_symmetry_group_IT_number 50
_space_group.IT_coordinate_system_code '2'
_symmetry_cell_setting 'orthorhombic'
loop_
_space_group_symop_operation_xyz
x,y,z
1/2-x,1/2-y,z
x,1/2-y,-z
1/2-x,y,-z
-x,-y,-z
1/2+x,1/2+y,-z
-x,1/2+y,z
1/2+x,-y,z
loop_
_atom_site_type_symbol
_atom_site_label
_atom_site_fract_x
_atom_site_fract_y
_atom_site_fract_z
Si Si1 0.075517 0.144370 0.224861
Si Si2 0.983236 0.380834 0.880943
Si Si3 0.762010 0.093453 0.813208
Si Si4 0.902086 0.548947 0.861845
Si Si5 0.334939 0.423844 0.335810
Si Si6 0.814203 0.897944 0.293431
O O1 0.083430 0.310827 0.231186
O O2 0.112055 0.072220 0.332979
O O3 0.023354 0.127035 0.243864
O O4 0.089995 0.089770 0.047528
O O5 0.935453 0.424258 0.820144
O O6 0.980950 0.250000 0.000000
O O7 0.000000 0.500000 0.000000
O O8 0.750000 0.250000 0.751138
O O9 0.811028 0.045086 0.765325
O O10 0.731885 0.968666 0.744474
O O11 0.750000 0.095416 0.000000
O O12 0.851682 0.528579 0.814923
O O13 0.321853 0.426293 0.520136
O O14 0.319687 0.270162 0.268506
#
# Coordination Sequence:
#
# PCOD9395391 Si02
#       6
#     8   8   8   8   8   8
#     4   9  16  31  53  79 106 140 186 228 275 319
#     4  10  16  30  51  80 109 143 185 233 281 322
#     4  11  24  41  58  83 113 142 180 229 281 332
#     4   9  17  31  52  79 108 141 183 234 272 316
#     4  10  21  37  61  82 109 149 186 227 274 334
#     4  10  21  38  58  84 111 145 189 225 276 334
#
# _framework density 19.768094000000001
#
# number of rings (size 3 to 8) (size 9 to 14) (size 15 to 20)
#    0.000    2.167    3.333    2.000    0.000    5.333 
#    9.000    0.833    0.000    0.000    0.000    0.000 
#    0.000    0.000    0.000    0.000    0.000    0.000 
#
# Total GULP energy -267397.566770 kJ/mol
# GULP energy per Si atom -5570.782641 kJ/mol
# Density = 1.972310 g / cm^3
# Si number density = 19.768094 Si / 1000 Ang^3
#
#
#
# Elastic Constant Matrix: (Units=GPa)
#
#
# Indices 1 2 3 4 5 6 
#
# 1 92.0823 25.0504 10.5021 0.0000 0.0000 0.0000
# 2 25.0504 73.7905 10.8095 0.0000 0.0000 0.0000
# 3 10.5021 10.8095 28.3853 0.0000 0.0000 0.0000
# 4 0.0000 0.0000 0.0000 11.1951 0.0000 0.0000
# 5 0.0000 0.0000 0.0000 0.0000 20.1338 0.0000
# 6 0.0000 0.0000 0.0000 0.0000 0.0000 30.4569
#
#
#
# Elastic Compliance Matrix: (Units=1/GPa)
#
#
# Indices 1 2 3 4 5 6 
#
# 1 0.012219 -0.003692 -0.003115 0.000000 0.000000 0.000000
# 2 -0.003692 0.015468 -0.004524 0.000000 0.000000 0.000000
# 3 -0.003115 -0.004524 0.038105 0.000000 0.000000 0.000000
# 4 0.000000 0.000000 0.000000 0.089325 0.000000 0.000000
# 5 0.000000 0.000000 0.000000 0.000000 0.049668 0.000000
# 6 0.000000 0.000000 0.000000 0.000000 0.000000 0.032833
#
#
# Mechanical properties :
#
#
# Convention : Reuss Voigt Hill
#
# Bulk Modulus (GPa) = 23.18596 31.88688 27.53642
# Shear Modulus (GPa) = 18.20449 22.21692 20.21070
#
# Velocity S-wave (km/s) = 3.03793 3.35607 3.20095
# Velocity P-wave (km/s) = 4.90508 5.58418 5.25561
#
# Compressibility (1/GPa) = 0.04312955
#
# Stress axis : x y z
#
# Youngs Moduli (GPa) = 81.83645 64.64956 26.24330
#
# Poissons Ratio (x) = 0.23868 0.08175
# Poissons Ratio (y) = 0.30214 0.11874
# Poissons Ratio (z) = 0.25493 0.29250
#
# Static dielectric constant tensor:
#      x y z
#    x 1.808450 0.000000 0.000000 
#    y 0.000000 1.702610 0.000000 
#    z 0.000000 0.000000 1.712350 
# 
# From -- ./inp_files/16927.got.cif
#   From: 2010.05.17/outbox.cif.g08.bks.cpg/sg50_9_cif.got.tgz:16927.got - 2010.06.03 11:33:33.
