data_PCOD9395033
_publ_section_title
;
Structure prediction by ZEFSAII (Michael W. Deem and Ramdas Pophale) SiO2 
 PCOD9395033
Probable space group: P C C M
;
_chemical_formula_sum "Si O2"
_cell_formula_units_Z 56
_cell_length_a 9.745691
_cell_length_b 13.816294
_cell_length_c 22.480626
_cell_angle_alpha 90.000000
_cell_angle_beta 90.000000
_cell_angle_gamma 90.000000
_cell_volume 3027.001276
_symmetry_space_group_name_H-M "P C C M"
_symmetry_group_IT_number 49
_symmetry_cell_setting 'orthorhombic'
loop_
_space_group_symop_operation_xyz
x,y,z
-x,-y,z
x,-y,1/2-z
-x,y,1/2-z
-x,-y,-z
x,y,-z
-x,y,1/2+z
x,-y,1/2+z
loop_
_atom_site_type_symbol
_atom_site_label
_atom_site_fract_x
_atom_site_fract_y
_atom_site_fract_z
Si Si1 0.166436 0.889651 0.180426
Si Si2 0.963132 0.612648 0.316169
Si Si3 0.332258 0.614023 0.500000
Si Si4 0.785442 0.305838 0.377480
Si Si5 0.710545 0.297419 0.126327
Si Si6 0.663477 0.615912 0.500000
Si Si7 0.835103 0.111507 0.680590
Si Si8 0.537836 0.393108 0.318957
O O1 0.238829 0.810588 0.139565
O O2 0.199356 0.869523 0.249984
O O3 0.001033 0.882987 0.175485
O O4 0.204729 0.000809 0.167171
O O5 0.057984 0.665765 0.364387
O O6 0.000000 0.500000 0.317870
O O7 0.000000 0.649696 0.250000
O O8 0.806994 0.634535 0.332564
O O9 0.267461 0.662898 0.441709
O O10 0.497346 0.624955 0.500000
O O11 0.303756 0.498638 0.500000
O O12 0.771100 0.193309 0.360963
O O13 0.694638 0.368015 0.331055
O O14 0.720867 0.333199 0.058937
O O15 0.555401 0.315795 0.146952
O O16 0.500000 0.500000 0.342731
O O17 0.500000 0.390619 0.250000
#
# Coordination Sequence:
#
# PCOD9395033 Si02
#       8
#     8   8   4   8   8   4   8   8
#     4   9  18  36  63  93 124 157 195 246 311 373
#     4  11  22  35  56  90 125 151 189 254 320 372
#     4  11  24  43  62  81 118 174 221 249 284 353
#     4  12  22  38  61  86 122 161 205 250 302 356
#     4  12  22  38  61  86 122 161 205 250 302 356
#     4  11  24  43  62  81 118 174 221 249 284 353
#     4   9  18  36  63  93 124 157 195 246 311 373
#     4  11  22  35  56  86 119 159 201 246 310 376
#
# _framework density 18.500157999999999
#
# number of rings (size 3 to 8) (size 9 to 14) (size 15 to 20)
#    0.000    1.286    2.857    6.000    0.000    2.857 
#    0.000    2.857    0.000    5.143    0.000    0.000 
#    0.000    0.000    0.000    0.000    0.000    0.000 
#
# Total GULP energy -312908.782543 kJ/mol
# GULP energy per Si atom -5587.656831 kJ/mol
# Density = 1.845805 g / cm^3
# Si number density = 18.500158 Si / 1000 Ang^3
#
#
#
# Elastic Constant Matrix: (Units=GPa)
#
#
# Indices 1 2 3 4 5 6 
#
# 1 33.4105 14.9866 11.6298 0.0000 0.0000 0.0000
# 2 14.9866 151.3893 60.9665 0.0000 0.0000 0.0000
# 3 11.6298 60.9665 115.2685 0.0000 0.0000 0.0000
# 4 0.0000 0.0000 0.0000 24.4779 0.0000 0.0000
# 5 0.0000 0.0000 0.0000 0.0000 28.3662 0.0000
# 6 0.0000 0.0000 0.0000 0.0000 0.0000 29.3227
#
#
#
# Elastic Compliance Matrix: (Units=1/GPa)
#
#
# Indices 1 2 3 4 5 6 
#
# 1 0.031664 -0.002348 -0.001953 0.000000 0.000000 0.000000
# 2 -0.002348 0.008567 -0.004294 0.000000 0.000000 0.000000
# 3 -0.001953 -0.004294 0.011144 0.000000 0.000000 0.000000
# 4 0.000000 0.000000 0.000000 0.040853 0.000000 0.000000
# 5 0.000000 0.000000 0.000000 0.000000 0.035253 0.000000
# 6 0.000000 0.000000 0.000000 0.000000 0.000000 0.034103
#
#
# Mechanical properties :
#
#
# Convention : Reuss Voigt Hill
#
# Bulk Modulus (GPa) = 29.25317 52.80378 41.02848
# Shear Modulus (GPa) = 26.29226 30.59904 28.44565
#
# Velocity S-wave (km/s) = 3.77396 4.07134 3.92547
# Velocity P-wave (km/s) = 5.90229 7.12077 6.53997
#
# Compressibility (1/GPa) = 0.03418433
#
# Stress axis : x y z
#
# Youngs Moduli (GPa) = 31.58186 116.72197 89.73612
#
# Poissons Ratio (x) = 0.27408 0.17523
# Poissons Ratio (y) = 0.07416 0.38537
# Poissons Ratio (z) = 0.06167 0.50126
#
# Static dielectric constant tensor:
#      x y z
#    x 1.611410 0.000000 0.000000 
#    y 0.000000 1.649460 0.000000 
#    z 0.000000 0.000000 1.629020 
# 
# From -- ./inp_files/19926.got.cif
#   From: 2010.05.17/outbox.cif.g08.bks.cpg/sg49_10_cif.got.tgz:19926.got - 2010.06.03 21:02:19.
