data_PCOD9395385
_publ_section_title
;
Structure prediction by ZEFSAII (Michael W. Deem and Ramdas Pophale) SiO2 
 PCOD9395385
Probable space group: P B A N
;
_chemical_formula_sum "Si O2"
_cell_formula_units_Z 56
_cell_length_a 5.301919
_cell_length_b 17.335431
_cell_length_c 31.018065
_cell_angle_alpha 90.000000
_cell_angle_beta 90.000000
_cell_angle_gamma 90.000000
_cell_volume 2850.902954
_symmetry_space_group_name_H-M "P B A N"
_symmetry_group_IT_number 50
_space_group.IT_coordinate_system_code '2'
_symmetry_cell_setting 'orthorhombic'
loop_
_space_group_symop_operation_xyz
x,y,z
1/2-x,1/2-y,z
x,1/2-y,-z
1/2-x,y,-z
-x,-y,-z
1/2+x,1/2+y,-z
-x,1/2+y,z
1/2+x,-y,z
loop_
_atom_site_type_symbol
_atom_site_label
_atom_site_fract_x
_atom_site_fract_y
_atom_site_fract_z
Si Si1 0.526150 0.050080 0.320339
Si Si2 0.838151 0.029952 0.951797
Si Si3 0.000185 0.297748 0.062421
Si Si4 0.954840 0.048133 0.781476
Si Si5 0.997228 0.796780 0.166032
Si Si6 0.499637 0.338000 0.518930
Si Si7 0.000125 0.301443 0.380518
O O1 0.527121 0.068757 0.269263
O O2 0.507370 0.126982 0.348250
O O3 0.784346 0.003905 0.329318
O O4 0.953768 0.115577 0.954102
O O5 0.558340 0.022605 0.930579
O O6 0.750000 0.005421 0.000000
O O7 0.250000 0.250000 0.049059
O O8 0.750000 0.250000 0.051256
O O9 0.012732 0.305600 0.114280
O O10 0.995040 0.121679 0.811020
O O11 0.680944 0.011789 0.789715
O O12 0.250000 0.750000 0.176652
O O13 0.750000 0.750000 0.179632
O O14 0.499761 0.250000 0.500000
O O15 0.750000 0.375427 0.500000
O O16 0.497435 0.331393 0.570143
O O17 0.250000 0.375783 0.500000
O O18 0.750000 0.250000 0.375077
O O19 0.250000 0.250000 0.374045
#
# Coordination Sequence:
#
# PCOD9395385 Si02
#       7
#     8   8   8   8   8   8   8
#     4  10  23  41  55  77 118 152 174 223 284 332
#     4  10  21  37  56  80 111 147 190 240 281 319
#     4  10  21  37  56  83 116 150 186 229 291 348
#     4  10  21  38  59  80 108 151 192 219 269 342
#     4  10  21  36  57  85 117 145 179 239 288 322
#     4  10  16  30  49  78 105 131 164 229 270 305
#     4  12  21  33  59  88 101 138 191 227 264 323
#
# _framework density 19.642899
#
# number of rings (size 3 to 8) (size 9 to 14) (size 15 to 20)
#    0.000    1.714    2.857    2.571    0.000    2.571 
#    0.000    0.714    0.000    2.571    0.000    0.000 
#    0.000    0.000    0.000    0.000    0.000    0.000 
#
# Total GULP energy -312654.914693 kJ/mol
# GULP energy per Si atom -5583.123477 kJ/mol
# Density = 1.959819 g / cm^3
# Si number density = 19.642899 Si / 1000 Ang^3
#
#
#
# Elastic Constant Matrix: (Units=GPa)
#
#
# Indices 1 2 3 4 5 6 
#
# 1 179.4089 41.5958 23.5986 0.0000 0.0000 0.0000
# 2 41.5958 86.4474 43.4773 0.0000 0.0000 0.0000
# 3 23.5986 43.4773 47.0828 0.0000 0.0000 0.0000
# 4 0.0000 0.0000 0.0000 49.4242 0.0000 0.0000
# 5 0.0000 0.0000 0.0000 0.0000 36.4791 0.0000
# 6 0.0000 0.0000 0.0000 0.0000 0.0000 18.4743
#
#
#
# Elastic Compliance Matrix: (Units=1/GPa)
#
#
# Indices 1 2 3 4 5 6 
#
# 1 0.006285 -0.002688 -0.000668 0.000000 0.000000 0.000000
# 2 -0.002688 0.022748 -0.019659 0.000000 0.000000 0.000000
# 3 -0.000668 -0.019659 0.039727 0.000000 0.000000 0.000000
# 4 0.000000 0.000000 0.000000 0.020233 0.000000 0.000000
# 5 0.000000 0.000000 0.000000 0.000000 0.027413 0.000000
# 6 0.000000 0.000000 0.000000 0.000000 0.000000 0.054129
#
#
# Mechanical properties :
#
#
# Convention : Reuss Voigt Hill
#
# Bulk Modulus (GPa) = 43.99312 58.92029 51.45670
# Shear Modulus (GPa) = 22.30720 34.49335 28.40027
#
# Velocity S-wave (km/s) = 3.37358 4.19504 3.80653
# Velocity P-wave (km/s) = 6.13350 7.31610 6.75074
#
# Compressibility (1/GPa) = 0.02273083
#
# Stress axis : x y z
#
# Youngs Moduli (GPa) = 159.10975 43.95904 25.17155
#
# Poissons Ratio (x) = 0.11818 0.01681
# Poissons Ratio (y) = 0.42774 0.49485
# Poissons Ratio (z) = 0.10623 0.86419
#
# Static dielectric constant tensor:
#      x y z
#    x 1.740020 0.000000 0.000000 
#    y 0.000000 1.653750 0.000000 
#    z 0.000000 0.000000 1.682580 
# 
# From -- ./inp_files/32373.got.cif
#   From: 2010.05.17/outbox.cif.g08.bks.cpg/sg50_17_cif.got.tgz:32373.got - 2010.06.03 11:33:33.
