data_PCOD9395006
_publ_section_title
;
Structure prediction by ZEFSAII (Michael W. Deem and Ramdas Pophale) SiO2 
 PCOD9395006
Probable space group: P C C M
;
_chemical_formula_sum "Si O2"
_cell_formula_units_Z 48
_cell_length_a 10.482767
_cell_length_b 12.854823
_cell_length_c 17.300453
_cell_angle_alpha 90.000000
_cell_angle_beta 90.000000
_cell_angle_gamma 90.000000
_cell_volume 2331.307222
_symmetry_space_group_name_H-M "P C C M"
_symmetry_group_IT_number 49
_symmetry_cell_setting 'orthorhombic'
loop_
_space_group_symop_operation_xyz
x,y,z
-x,-y,z
x,-y,1/2-z
-x,y,1/2-z
-x,-y,-z
x,y,-z
-x,y,1/2+z
x,-y,1/2+z
loop_
_atom_site_type_symbol
_atom_site_label
_atom_site_fract_x
_atom_site_fract_y
_atom_site_fract_z
Si Si1 0.762853 0.168607 0.860079
Si Si2 0.703093 0.939253 0.910981
Si Si3 0.348118 0.386325 0.588623
Si Si4 0.969629 0.122178 0.663016
Si Si5 0.656015 0.384341 0.591105
Si Si6 0.629979 0.203880 0.293858
O O1 0.702295 0.279813 0.877248
O O2 0.727193 0.156586 0.769207
O O3 0.912121 0.172685 0.882033
O O4 0.712633 0.063036 0.899512
O O5 0.834690 0.883525 0.880960
O O6 0.599282 0.886311 0.855707
O O7 0.680711 0.914955 0.000000
O O8 0.307952 0.386837 0.500000
O O9 0.501616 0.383584 0.590212
O O10 0.305510 0.499675 0.618528
O O11 0.000000 0.163345 0.750000
O O12 0.000000 0.000000 0.668418
O O13 0.694539 0.366337 0.500000
O O14 0.687278 0.298729 0.655830
O O15 0.500000 0.234835 0.250000
#
# Coordination Sequence:
#
# PCOD9395006 Si02
#       6
#     8   8   8   8   8   8
#     4  11  21  36  60  89 121 154 198 258 311 364
#     4  11  24  40  61  87 120 164 206 247 307 378
#     4   9  18  35  57  84 116 152 199 257 304 353
#     4   9  18  36  60  83 117 154 197 255 305 355
#     4   9  19  37  57  80 117 159 203 247 297 363
#     4  12  23  38  57  85 122 165 204 247 306 367
#
# _framework density 20.589307999999999
#
# number of rings (size 3 to 8) (size 9 to 14) (size 15 to 20)
#    0.000    1.833    3.333    2.500    0.000    5.667 
#    0.000    0.833    0.000    1.000    0.000    3.500 
#    0.000    0.000    0.000    0.000    0.000    0.000 
#
# Total GULP energy -267211.074972 kJ/mol
# GULP energy per Si atom -5566.897395 kJ/mol
# Density = 2.054245 g / cm^3
# Si number density = 20.589308 Si / 1000 Ang^3
#
#
#
# Elastic Constant Matrix: (Units=GPa)
#
#
# Indices 1 2 3 4 5 6 
#
# 1 38.8562 19.0326 7.5629 0.0000 0.0000 0.0000
# 2 19.0326 122.2792 38.5492 0.0000 0.0000 0.0000
# 3 7.5629 38.5492 86.2535 0.0000 0.0000 0.0000
# 4 0.0000 0.0000 0.0000 -33.6620 0.0000 0.0000
# 5 0.0000 0.0000 0.0000 0.0000 -11.7857 0.0000
# 6 0.0000 0.0000 0.0000 0.0000 0.0000 21.6909
#
#
#
# Elastic Compliance Matrix: (Units=1/GPa)
#
#
# Indices 1 2 3 4 5 6 
#
# 1 0.027886 -0.004155 -0.000588 0.000000 0.000000 0.000000
# 2 -0.004155 0.010138 -0.004167 0.000000 0.000000 0.000000
# 3 -0.000588 -0.004167 0.013508 0.000000 0.000000 0.000000
# 4 0.000000 0.000000 0.000000 -0.029707 0.000000 0.000000
# 5 0.000000 0.000000 0.000000 0.000000 -0.084849 0.000000
# 6 0.000000 0.000000 0.000000 0.000000 0.000000 0.046102
#
#
# Mechanical properties :
#
#
# Convention : Reuss Voigt Hill
#
# Bulk Modulus (GPa) = 29.66325 41.96427 35.81376
# Shear Modulus (GPa) = 412.04274 7.39826 209.72050
#
# Velocity S-wave (km/s) = 14.16189 1.89764 10.10347
# Velocity P-wave (km/s) = 16.78840 5.02267 12.39108
#
# Compressibility (1/GPa) = 0.03371175
#
# Stress axis : x y z
#
# Youngs Moduli (GPa) = 35.86082 98.63569 74.03264
#
# Poissons Ratio (x) = 0.40983 0.04354
# Poissons Ratio (y) = 0.14900 0.30848
# Poissons Ratio (z) = 0.02109 0.41099
#
# Static dielectric constant tensor:
#      x y z
#    x 1.842370 0.000000 0.000000 
#    y 0.000000 1.781400 0.000000 
#    z 0.000000 0.000000 1.800100 
# 
# From -- ./inp_files/17062.got.cif
#   From: 2010.05.17/outbox.cif.g08.bks.cpg/sg49_9_cif.got.tgz:17062.got - 2010.06.03 21:02:19.
