data_PCOD9395009
_publ_section_title
;
Structure prediction by ZEFSAII (Michael W. Deem and Ramdas Pophale) SiO2 
 PCOD9395009
Probable space group: P C C M
;
_chemical_formula_sum "Si O2"
_cell_formula_units_Z 64
_cell_length_a 20.239685
_cell_length_b 20.626892
_cell_length_c 8.795561
_cell_angle_alpha 90.000000
_cell_angle_beta 90.000000
_cell_angle_gamma 90.000000
_cell_volume 3671.986608
_symmetry_space_group_name_H-M "P C C M"
_symmetry_group_IT_number 49
_symmetry_cell_setting 'orthorhombic'
loop_
_space_group_symop_operation_xyz
x,y,z
-x,-y,z
x,-y,1/2-z
-x,y,1/2-z
-x,-y,-z
x,y,-z
-x,y,1/2+z
x,-y,1/2+z
loop_
_atom_site_type_symbol
_atom_site_label
_atom_site_fract_x
_atom_site_fract_y
_atom_site_fract_z
Si Si1 0.431931 0.743346 0.675977
Si Si2 0.705973 0.892645 0.682124
Si Si3 0.852709 0.067671 0.816734
Si Si4 0.704823 0.258288 0.817796
Si Si5 0.073620 0.807467 0.316887
Si Si6 0.568710 0.901139 0.824270
Si Si7 0.154976 0.313587 0.316070
Si Si8 0.928652 0.571713 0.816954
O O1 0.500000 0.720625 0.750000
O O2 0.431289 0.727027 0.500000
O O3 0.365151 0.719107 0.753597
O O4 0.431511 0.822213 0.688788
O O5 0.699415 0.893779 0.500000
O O6 0.774772 0.926107 0.722863
O O7 0.713559 0.817044 0.730314
O O8 0.638283 0.920560 0.750057
O O9 0.890376 0.127756 0.742027
O O10 0.877851 0.000000 0.750000
O O11 0.858875 0.070353 0.000000
O O12 0.768822 0.299435 0.774220
O O13 0.701292 0.257905 0.000000
O O14 0.072757 0.804963 0.500000
O O15 0.112962 0.746380 0.248841
O O16 0.000000 0.806349 0.250000
O O17 0.500000 0.923381 0.750000
O O18 0.568681 0.919138 0.000000
O O19 0.149573 0.315366 0.500000
O O20 0.125722 0.378391 0.243154
O O21 0.916785 0.500000 0.750000
O O22 0.000000 0.592819 0.750000
O O23 0.931427 0.570054 0.000000
#
# Coordination Sequence:
#
# PCOD9395009 Si02
#       8
#     8   8   8   8   8   8   8   8
#     4   9  16  25  39  63  97 135 174 215 259 312
#     4   9  17  32  51  71  99 133 168 211 262 318
#     4  11  23  41  60  81 105 135 174 220 274 330
#     4   9  17  30  49  72 102 139 174 215 266 316
#     4  12  25  41  61  84 109 139 176 221 270 326
#     4   9  16  25  41  67  96 128 166 208 255 310
#     4  11  21  37  58  84 116 149 183 225 272 322
#     4  11  22  38  58  83 113 151 191 230 271 321
#
# _framework density 17.429258000000001
#
# number of rings (size 3 to 8) (size 9 to 14) (size 15 to 20)
#    0.000    1.875    1.250    4.500    0.000    5.250 
#    0.000    1.250    0.000    0.375    0.000    2.625 
#    0.000    0.500    0.000    5.250    0.000    2.500 
#
# Total GULP energy -357377.638388 kJ/mol
# GULP energy per Si atom -5584.025600 kJ/mol
# Density = 1.738959 g / cm^3
# Si number density = 17.429258 Si / 1000 Ang^3
#
#
#
# Elastic Constant Matrix: (Units=GPa)
#
#
# Indices 1 2 3 4 5 6 
#
# 1 150.3703 50.4203 61.0203 0.0000 0.0000 0.0000
# 2 50.4203 62.8525 33.0751 0.0000 0.0000 0.0000
# 3 61.0203 33.0751 85.6094 0.0000 0.0000 0.0000
# 4 0.0000 0.0000 0.0000 22.7204 0.0000 0.0000
# 5 0.0000 0.0000 0.0000 0.0000 32.6481 0.0000
# 6 0.0000 0.0000 0.0000 0.0000 0.0000 52.2627
#
#
#
# Elastic Compliance Matrix: (Units=1/GPa)
#
#
# Indices 1 2 3 4 5 6 
#
# 1 0.010813 -0.005797 -0.005467 0.000000 0.000000 0.000000
# 2 -0.005797 0.023078 -0.004784 0.000000 0.000000 0.000000
# 3 -0.005467 -0.004784 0.017426 0.000000 0.000000 0.000000
# 4 0.000000 0.000000 0.000000 0.044013 0.000000 0.000000
# 5 0.000000 0.000000 0.000000 0.000000 0.030630 0.000000
# 6 0.000000 0.000000 0.000000 0.000000 0.000000 0.019134
#
#
# Mechanical properties :
#
#
# Convention : Reuss Voigt Hill
#
# Bulk Modulus (GPa) = 52.02904 65.31820 58.67362
# Shear Modulus (GPa) = 27.23340 31.81402 29.52371
#
# Velocity S-wave (km/s) = 3.95715 4.27701 4.12019
# Velocity P-wave (km/s) = 7.12707 7.87071 7.50810
#
# Compressibility (1/GPa) = 0.01922004
#
# Stress axis : x y z
#
# Youngs Moduli (GPa) = 92.48454 43.33104 57.38398
#
# Poissons Ratio (x) = 0.25118 0.31374
# Poissons Ratio (y) = 0.53611 0.27455
# Poissons Ratio (z) = 0.50565 0.20731
#
# Static dielectric constant tensor:
#      x y z
#    x 1.604230 0.000000 0.000000 
#    y 0.000000 1.586790 0.000000 
#    z 0.000000 0.000000 1.581850 
# 
# From -- ./inp_files/5323.got.cif
#   From: 2010.05.17/outbox.cif.g08.bks.cpg/sg49_3_cif.got.tgz:5323.got - 2010.06.03 21:02:19.
