data_PCOD9395405
_publ_section_title
;
Structure prediction by ZEFSAII (Michael W. Deem and Ramdas Pophale) SiO2 
 PCOD9395405
Probable space group: P B A N
;
_chemical_formula_sum "Si O2"
_cell_formula_units_Z 60
_cell_length_a 20.884385
_cell_length_b 5.485752
_cell_length_c 25.814058
_cell_angle_alpha 90.000000
_cell_angle_beta 90.000000
_cell_angle_gamma 90.000000
_cell_volume 2957.427742
_symmetry_space_group_name_H-M "P B A N"
_symmetry_group_IT_number 50
_space_group.IT_coordinate_system_code '2'
_symmetry_cell_setting 'orthorhombic'
loop_
_space_group_symop_operation_xyz
x,y,z
1/2-x,1/2-y,z
x,1/2-y,-z
1/2-x,y,-z
-x,-y,-z
1/2+x,1/2+y,-z
-x,1/2+y,z
1/2+x,-y,z
loop_
_atom_site_type_symbol
_atom_site_label
_atom_site_fract_x
_atom_site_fract_y
_atom_site_fract_z
Si Si1 0.393617 0.685449 0.053245
Si Si2 0.959298 0.499103 0.359378
Si Si3 0.825555 0.810232 0.070394
Si Si4 0.873200 0.496146 0.258922
Si Si5 0.073723 0.500026 0.521470
Si Si6 0.539318 0.309965 0.834012
Si Si7 0.750000 0.250000 0.768916
Si Si8 0.678620 0.639913 0.186419
O O1 0.362608 0.418258 0.045930
O O2 0.429724 0.683651 0.108242
O O3 0.342572 0.910330 0.056610
O O4 0.431507 0.750000 0.000000
O O5 0.909120 0.499119 0.312745
O O6 0.929156 0.499740 0.416698
O O7 0.000173 0.748667 0.355246
O O8 0.750000 0.750000 0.065570
O O9 0.845844 0.791290 0.130802
O O10 0.914627 0.351760 0.215650
O O11 0.799837 0.402531 0.265199
O O12 0.864243 0.761325 0.232425
O O13 0.103047 0.750000 0.500000
O O14 0.000000 0.500000 0.500000
O O15 0.103029 0.250000 0.500000
O O16 0.492254 0.542984 0.830465
O O17 0.801461 0.364148 0.808184
O O18 0.750000 0.750000 0.191639
#
# Coordination Sequence:
#
# PCOD9395405 Si02
#       8
#     8   8   8   8   8   8   4   8
#     4  12  26  44  65  91 124 165 212 257 319 390
#     4  12  23  36  59  95 134 176 215 266 322 388
#     4  11  23  40  68  96 126 159 201 265 328 386
#     4  11  24  40  64  94 130 167 214 264 328 381
#     4  10  16  33  55  81 128 170 214 261 315 374
#     4  12  27  46  67  91 127 167 209 265 317 381
#     4  10  22  40  66  90 130 166 212 264 312 402
#     4   9  20  37  61  89 117 161 200 250 317 386
#
# _framework density 20.287898999999999
#
# number of rings (size 3 to 8) (size 9 to 14) (size 15 to 20)
#    0.000    1.067    4.000    3.200    7.467    2.133 
#    0.000    0.000    0.000    0.000    0.000    0.467 
#    0.000    0.000    0.000    0.000    0.000    0.000 
#
# Total GULP energy -334414.464254 kJ/mol
# GULP energy per Si atom -5573.574404 kJ/mol
# Density = 2.024172 g / cm^3
# Si number density = 20.287899 Si / 1000 Ang^3
#
#
#
# Elastic Constant Matrix: (Units=GPa)
#
#
# Indices 1 2 3 4 5 6 
#
# 1 47.8336 43.5057 43.2772 0.0000 0.0000 0.0000
# 2 43.5057 147.7765 44.2734 0.0000 0.0000 0.0000
# 3 43.2772 44.2734 178.9387 0.0000 0.0000 0.0000
# 4 0.0000 0.0000 0.0000 12.8136 0.0000 0.0000
# 5 0.0000 0.0000 0.0000 0.0000 14.4484 0.0000
# 6 0.0000 0.0000 0.0000 0.0000 0.0000 31.7364
#
#
#
# Elastic Compliance Matrix: (Units=1/GPa)
#
#
# Indices 1 2 3 4 5 6 
#
# 1 0.033893 -0.008125 -0.006187 0.000000 0.000000 0.000000
# 2 -0.008125 0.009256 -0.000325 0.000000 0.000000 0.000000
# 3 -0.006187 -0.000325 0.007165 0.000000 0.000000 0.000000
# 4 0.000000 0.000000 0.000000 0.078042 0.000000 0.000000
# 5 0.000000 0.000000 0.000000 0.000000 0.069212 0.000000
# 6 0.000000 0.000000 0.000000 0.000000 0.000000 0.031510
#
#
# Mechanical properties :
#
#
# Convention : Reuss Voigt Hill
#
# Bulk Modulus (GPa) = 47.52624 70.74016 59.13320
# Shear Modulus (GPa) = 18.84193 28.03248 23.43721
#
# Velocity S-wave (km/s) = 3.05081 3.72120 3.40256
# Velocity P-wave (km/s) = 5.99055 7.30801 6.68183
#
# Compressibility (1/GPa) = 0.02104101
#
# Stress axis : x y z
#
# Youngs Moduli (GPa) = 29.50467 108.03447 139.56075
#
# Poissons Ratio (x) = 0.87773 0.86346
# Poissons Ratio (y) = 0.23971 0.04539
# Poissons Ratio (z) = 0.18255 0.03514
#
# Static dielectric constant tensor:
#      x y z
#    x 1.731580 0.000000 0.000000 
#    y 0.000000 1.940860 0.000000 
#    z 0.000000 0.000000 1.712830 
# 
# From -- ./inp_files/31885.got.cif
#   From: 2010.05.17/outbox.cif.g08.bks.cpg/sg50_16_cif.got.tgz:31885.got - 2010.06.03 11:33:33.
