data_PCOD9395750
_publ_section_title
;
Structure prediction by ZEFSAII (Michael W. Deem and Ramdas Pophale) SiO2 
 PCOD9395750
Probable space group: P B A N
;
_chemical_formula_sum "Si O2"
_cell_formula_units_Z 42
_cell_length_a 13.976553
_cell_length_b 21.635999
_cell_length_c 5.515858
_cell_angle_alpha 90.000000
_cell_angle_beta 90.000000
_cell_angle_gamma 90.000000
_cell_volume 1667.977184
_symmetry_space_group_name_H-M "P B A N"
_symmetry_group_IT_number 50
_space_group.IT_coordinate_system_code '2'
_symmetry_cell_setting 'orthorhombic'
loop_
_space_group_symop_operation_xyz
x,y,z
1/2-x,1/2-y,z
x,1/2-y,-z
1/2-x,y,-z
-x,-y,-z
1/2+x,1/2+y,-z
-x,1/2+y,z
1/2+x,-y,z
loop_
_atom_site_type_symbol
_atom_site_label
_atom_site_fract_x
_atom_site_fract_y
_atom_site_fract_z
Si Si1 0.884669 0.999569 0.300433
Si Si2 0.642895 0.685960 0.888122
Si Si3 0.138895 0.823295 0.000716
Si Si4 0.143032 0.866329 0.506329
Si Si5 0.903145 0.949650 0.796726
Si Si6 0.250000 0.250000 0.500000
O O1 0.847772 0.062499 0.422598
O O2 0.996821 0.014876 0.250746
O O3 0.864719 0.951035 0.518032
O O4 0.852782 0.983756 0.026075
O O5 0.591895 0.620460 0.893159
O O6 0.674059 0.704298 0.621741
O O7 0.600067 0.750000 0.000000
O O8 0.750000 0.678780 0.000000
O O9 0.093191 0.839047 0.742757
O O10 0.142162 0.750000 0.000000
O O11 0.250000 0.847130 0.000000
O O12 0.097079 0.852156 0.247039
O O13 0.250000 0.837333 0.500000
#
# Coordination Sequence:
#
# PCOD9395750 Si02
#       6
#     8   8   8   8   8   2
#     4  10  22  38  56  82 112 159 195 228 285 350
#     4   9  20  36  61  92 117 152 194 254 313 370
#     4   9  17  30  51  74 101 140 177 223 285 329
#     4  10  19  32  52  77 109 138 185 241 278 328
#     4  10  22  39  59  79 115 154 191 231 287 359
#     4   8  18  36  60  90 120 144 196 244 324 368
#
# _framework density 25.180199999999999
#
# number of rings (size 3 to 8) (size 9 to 14) (size 15 to 20)
#    0.000    2.667    0.000    1.714    5.333    3.810 
#    0.000    0.952    4.190    0.000    0.000    0.000 
#    0.000    0.000    0.000    0.000    0.000    0.000 
#
# Total GULP energy -233872.056834 kJ/mol
# GULP energy per Si atom -5568.382306 kJ/mol
# Density = 2.512289 g / cm^3
# Si number density = 25.180200 Si / 1000 Ang^3
#
#
#
# Elastic Constant Matrix: (Units=GPa)
#
#
# Indices 1 2 3 4 5 6 
#
# 1 62.7467 1.7179 27.0201 0.0000 0.0000 0.0000
# 2 1.7179 133.0491 70.0537 0.0000 0.0000 0.0000
# 3 27.0201 70.0537 224.9089 0.0000 0.0000 0.0000
# 4 0.0000 0.0000 0.0000 54.0232 0.0000 0.0000
# 5 0.0000 0.0000 0.0000 0.0000 -47.7661 0.0000
# 6 0.0000 0.0000 0.0000 0.0000 0.0000 35.3482
#
#
#
# Elastic Compliance Matrix: (Units=1/GPa)
#
#
# Indices 1 2 3 4 5 6 
#
# 1 0.016921 0.001019 -0.002350 0.000000 0.000000 0.000000
# 2 0.001019 0.009052 -0.002942 0.000000 0.000000 0.000000
# 3 -0.002350 -0.002942 0.005645 0.000000 0.000000 0.000000
# 4 0.000000 0.000000 0.000000 0.018511 0.000000 0.000000
# 5 0.000000 0.000000 0.000000 0.000000 -0.020935 0.000000
# 6 0.000000 0.000000 0.000000 0.000000 0.000000 0.028290
#
#
# Mechanical properties :
#
#
# Convention : Reuss Voigt Hill
#
# Bulk Modulus (GPa) = 43.34303 68.69866 56.02084
# Shear Modulus (GPa) = 67.82415 29.78193 48.80304
#
# Velocity S-wave (km/s) = 5.19557 3.44285 4.40722
# Velocity P-wave (km/s) = 7.29674 6.56858 6.94222
#
# Compressibility (1/GPa) = 0.02307176
#
# Stress axis : x y z
#
# Youngs Moduli (GPa) = 59.09723 110.47499 177.15058
#
# Poissons Ratio (x) = -0.11257 0.41635
# Poissons Ratio (y) = -0.06022 0.52115
# Poissons Ratio (z) = 0.13889 0.32500
#
# Static dielectric constant tensor:
#      x y z
#    x 2.075290 0.000000 0.000000 
#    y 0.000000 2.026810 0.000000 
#    z 0.000000 0.000000 1.825820 
# 
# From -- ./inp_files/5253.got.cif
#   From: 2010.05.17/outbox.cif.g08.bks.cpg/sg50_3_cif.got.tgz:5253.got - 2010.06.03 11:33:33.
