data_PCOD9395765
_publ_section_title
;
Structure prediction by ZEFSAII (Michael W. Deem and Ramdas Pophale) SiO2 
 PCOD9395765
Probable space group: P B A N
;
_chemical_formula_sum "Si O2"
_cell_formula_units_Z 46
_cell_length_a 5.306035
_cell_length_b 15.443394
_cell_length_c 27.373916
_cell_angle_alpha 90.000000
_cell_angle_beta 90.000000
_cell_angle_gamma 90.000000
_cell_volume 2243.105975
_symmetry_space_group_name_H-M "P B A N"
_symmetry_group_IT_number 50
_space_group.IT_coordinate_system_code '2'
_symmetry_cell_setting 'orthorhombic'
loop_
_space_group_symop_operation_xyz
x,y,z
1/2-x,1/2-y,z
x,1/2-y,-z
1/2-x,y,-z
-x,-y,-z
1/2+x,1/2+y,-z
-x,1/2+y,z
1/2+x,-y,z
loop_
_atom_site_type_symbol
_atom_site_label
_atom_site_fract_x
_atom_site_fract_y
_atom_site_fract_z
Si Si1 0.459717 0.559915 0.380850
Si Si2 0.006266 0.444355 0.272144
Si Si3 0.250000 0.750000 0.000000
Si Si4 0.610232 0.057646 0.168322
Si Si5 0.498839 0.651134 0.478571
Si Si6 0.905604 0.667888 0.918380
Si Si7 0.750000 0.555104 0.000000
O O1 0.698263 0.494029 0.386419
O O2 0.467573 0.596225 0.325444
O O3 0.486925 0.635439 0.420923
O O4 0.294279 0.478691 0.270992
O O5 0.940286 0.398004 0.221252
O O6 0.418912 0.804371 0.963379
O O7 0.558148 0.121579 0.123909
O O8 0.888020 0.015519 0.165897
O O9 0.498913 0.750000 0.500000
O O10 0.750000 0.610272 0.500000
O O11 0.250000 0.608701 0.500000
O O12 0.750000 0.750000 0.899788
O O13 0.723414 0.605267 0.948476
O O14 0.500000 0.500000 0.000000
#
# Coordination Sequence:
#
# PCOD9395765 Si02
#       7
#     8   8   2   8   8   8   4
#     4  10  19  32  56  85 110 145 192 239 284 337
#     4   8  16  33  56  84 113 139 180 239 292 335
#     4  12  24  44  60  80 128 166 198 230 300 342
#     4  10  22  40  64  92 116 150 194 243 294 346
#     4  10  21  35  50  73 114 156 186 229 283 337
#     4  12  25  41  61  86 122 162 190 242 293 352
#     4  12  24  40  61  87 114 148 202 240 282 342
#
# _framework density 20.507279
#
# number of rings (size 3 to 8) (size 9 to 14) (size 15 to 20)
#    0.000    1.739    1.739    2.609    2.435    2.087 
#    0.000    0.000    3.826    2.087    0.000    0.000 
#    0.000    0.000    0.000    0.000    0.000    0.000 
#
# Total GULP energy -256440.448327 kJ/mol
# GULP energy per Si atom -5574.792355 kJ/mol
# Density = 2.046060 g / cm^3
# Si number density = 20.507279 Si / 1000 Ang^3
#
#
#
# Elastic Constant Matrix: (Units=GPa)
#
#
# Indices 1 2 3 4 5 6 
#
# 1 127.0790 8.1466 3.5615 0.0000 0.0000 0.0000
# 2 8.1466 42.0217 30.6973 0.0000 0.0000 0.0000
# 3 3.5615 30.6973 176.4465 0.0000 0.0000 0.0000
# 4 0.0000 0.0000 0.0000 40.7913 0.0000 0.0000
# 5 0.0000 0.0000 0.0000 0.0000 166.2474 0.0000
# 6 0.0000 0.0000 0.0000 0.0000 0.0000 -21.8820
#
#
#
# Elastic Compliance Matrix: (Units=1/GPa)
#
#
# Indices 1 2 3 4 5 6 
#
# 1 0.007971 -0.001636 0.000124 0.000000 0.000000 0.000000
# 2 -0.001636 0.027598 -0.004768 0.000000 0.000000 0.000000
# 3 0.000124 -0.004768 0.006495 0.000000 0.000000 0.000000
# 4 0.000000 0.000000 0.000000 0.024515 0.000000 0.000000
# 5 0.000000 0.000000 0.000000 0.000000 0.006015 0.000000
# 6 0.000000 0.000000 0.000000 0.000000 0.000000 -0.045700
#
#
# Mechanical properties :
#
#
# Convention : Reuss Voigt Hill
#
# Bulk Modulus (GPa) = 33.89571 47.81756 40.85664
# Shear Modulus (GPa) = 101.44543 57.24078 79.34311
#
# Velocity S-wave (km/s) = 7.04098 5.28895 6.22689
# Velocity P-wave (km/s) = 9.09203 7.78880 8.46553
#
# Compressibility (1/GPa) = 0.02950226
#
# Stress axis : x y z
#
# Youngs Moduli (GPa) = 125.46257 36.23500 153.97617
#
# Poissons Ratio (x) = 0.05926 -0.01904
# Poissons Ratio (y) = 0.20520 0.73420
# Poissons Ratio (z) = -0.01552 0.17278
#
# Static dielectric constant tensor:
#      x y z
#    x 1.853160 0.000000 0.000000 
#    y 0.000000 1.426020 0.000000 
#    z 0.000000 0.000000 1.777710 
# 
# From -- ./inp_files/31483.got.cif
#   From: 2010.05.17/outbox.cif.g08.bks.cpg/sg50_16_cif.got.tgz:31483.got - 2010.06.03 11:33:33.
