data_PCOD9395793
_publ_section_title
;
Structure prediction by ZEFSAII (Michael W. Deem and Ramdas Pophale) SiO2 
 PCOD9395793
Probable space group: P B A N
;
_chemical_formula_sum "Si O2"
_cell_formula_units_Z 52
_cell_length_a 17.720644
_cell_length_b 8.783377
_cell_length_c 16.921231
_cell_angle_alpha 90.000000
_cell_angle_beta 90.000000
_cell_angle_gamma 90.000000
_cell_volume 2633.740482
_symmetry_space_group_name_H-M "P B A N"
_symmetry_group_IT_number 50
_space_group.IT_coordinate_system_code '2'
_symmetry_cell_setting 'orthorhombic'
loop_
_space_group_symop_operation_xyz
x,y,z
1/2-x,1/2-y,z
x,1/2-y,-z
1/2-x,y,-z
-x,-y,-z
1/2+x,1/2+y,-z
-x,1/2+y,z
1/2+x,-y,z
loop_
_atom_site_type_symbol
_atom_site_label
_atom_site_fract_x
_atom_site_fract_y
_atom_site_fract_z
Si Si1 0.958683 0.727345 0.715967
Si Si2 0.322347 0.932578 0.056335
Si Si3 0.179018 0.180932 0.821211
Si Si4 0.585094 0.902073 0.075491
Si Si5 0.055502 0.727931 0.865606
Si Si6 0.451570 0.750000 0.500000
Si Si7 0.957391 0.994019 0.607270
O O1 0.893535 0.654484 0.768559
O O2 0.926660 0.881376 0.675385
O O3 0.028529 0.764273 0.775816
O O4 0.983509 0.603088 0.652124
O O5 0.367866 0.793377 0.095763
O O6 0.298376 0.033015 0.130640
O O7 0.250000 0.908030 0.000000
O O8 0.384098 0.029862 0.006239
O O9 0.250000 0.250000 0.776204
O O10 0.151782 0.306008 0.885066
O O11 0.512073 0.795208 0.081013
O O12 0.562005 0.047561 0.127249
O O13 0.502662 0.631268 0.550559
O O14 0.411642 0.624495 0.442213
#
# Coordination Sequence:
#
# PCOD9395793 Si02
#       7
#     8   8   8   8   8   4   8
#     4  10  19  33  55  79 114 147 185 231 285 346
#     4  12  24  39  55  74 108 149 201 260 312 342
#     4  11  22  39  55  76 105 150 200 247 299 351
#     4  11  23  39  57  77 104 141 195 258 310 355
#     4  11  23  38  57  82 108 146 197 245 301 358
#     4   8  16  28  54  92 122 138 170 206 272 338
#     4   9  16  31  54  88 119 145 167 216 274 340
#
# _framework density 19.743784000000002
#
# number of rings (size 3 to 8) (size 9 to 14) (size 15 to 20)
#    0.000    1.538    1.538    6.000    0.000    3.692 
#    0.000    0.000    0.000    0.000    0.000   20.462 
#    0.000    0.000    0.000    0.000    0.000    0.000 
#
# Total GULP energy -289634.870412 kJ/mol
# GULP energy per Si atom -5569.901354 kJ/mol
# Density = 1.969885 g / cm^3
# Si number density = 19.743784 Si / 1000 Ang^3
#
#
#
# Elastic Constant Matrix: (Units=GPa)
#
#
# Indices 1 2 3 4 5 6 
#
# 1 56.3363 20.1219 10.4520 0.0000 0.0000 0.0000
# 2 20.1219 110.2242 31.2205 0.0000 0.0000 0.0000
# 3 10.4520 31.2205 76.8908 0.0000 0.0000 0.0000
# 4 0.0000 0.0000 0.0000 38.9874 0.0000 0.0000
# 5 0.0000 0.0000 0.0000 0.0000 0.7830 0.0000
# 6 0.0000 0.0000 0.0000 0.0000 0.0000 9.6112
#
#
#
# Elastic Compliance Matrix: (Units=1/GPa)
#
#
# Indices 1 2 3 4 5 6 
#
# 1 0.019109 -0.003110 -0.001335 0.000000 0.000000 0.000000
# 2 -0.003110 0.010758 -0.003945 0.000000 0.000000 0.000000
# 3 -0.001335 -0.003945 0.014789 0.000000 0.000000 0.000000
# 4 0.000000 0.000000 0.000000 0.025649 0.000000 0.000000
# 5 0.000000 0.000000 0.000000 0.000000 1.277197 0.000000
# 6 0.000000 0.000000 0.000000 0.000000 0.000000 0.104046
#
#
# Mechanical properties :
#
#
# Convention : Reuss Voigt Hill
#
# Bulk Modulus (GPa) = 35.87432 40.78224 38.32828
# Shear Modulus (GPa) = 3.38382 21.98677 12.68529
#
# Velocity S-wave (km/s) = 1.31057 3.34069 2.53750
# Velocity P-wave (km/s) = 4.52764 5.96497 5.29530
#
# Compressibility (1/GPa) = 0.02787509
#
# Stress axis : x y z
#
# Youngs Moduli (GPa) = 52.33103 92.95664 67.61890
#
# Poissons Ratio (x) = 0.28914 0.09024
# Poissons Ratio (y) = 0.16277 0.26677
# Poissons Ratio (z) = 0.06984 0.36673
#
# Static dielectric constant tensor:
#      x y z
#    x 1.714250 0.000000 0.000000 
#    y 0.000000 1.750810 0.000000 
#    z 0.000000 0.000000 1.787100 
# 
# From -- ./inp_files/28846.got.cif
#   From: 2010.05.17/outbox.cif.g08.bks.cpg/sg50_15_cif.got.tgz:28846.got - 2010.06.03 11:33:33.
