data_PCOD9395827
_publ_section_title
;
Structure prediction by ZEFSAII (Michael W. Deem and Ramdas Pophale) SiO2 
 PCOD9395827
Probable space group: P B A N
;
_chemical_formula_sum "Si O2"
_cell_formula_units_Z 48
_cell_length_a 5.215091
_cell_length_b 16.732240
_cell_length_c 26.196833
_cell_angle_alpha 90.000000
_cell_angle_beta 90.000000
_cell_angle_gamma 90.000000
_cell_volume 2285.939688
_symmetry_space_group_name_H-M "P B A N"
_symmetry_group_IT_number 50
_space_group.IT_coordinate_system_code '2'
_symmetry_cell_setting 'orthorhombic'
loop_
_space_group_symop_operation_xyz
x,y,z
1/2-x,1/2-y,z
x,1/2-y,-z
1/2-x,y,-z
-x,-y,-z
1/2+x,1/2+y,-z
-x,1/2+y,z
1/2+x,-y,z
loop_
_atom_site_type_symbol
_atom_site_label
_atom_site_fract_x
_atom_site_fract_y
_atom_site_fract_z
Si Si1 0.665223 0.946437 0.051074
Si Si2 0.498482 0.216881 0.557659
Si Si3 0.129797 0.953232 0.691359
Si Si4 0.122170 0.539347 0.431498
Si Si5 0.501272 0.696028 0.754944
Si Si6 0.157724 0.443377 0.833401
O O1 0.679002 0.912102 0.107946
O O2 0.379132 0.982644 0.048964
O O3 0.750000 0.898510 0.000000
O O4 0.750000 0.250000 0.584200
O O5 0.498597 0.250000 0.500000
O O6 0.508145 0.123272 0.552983
O O7 0.250000 0.250000 0.584797
O O8 0.129468 0.958539 0.630029
O O9 0.083698 0.863334 0.709311
O O10 0.396571 0.990646 0.709734
O O11 0.413610 0.526105 0.448169
O O12 0.750000 0.750000 0.742532
O O13 0.596101 0.632546 0.797954
O O14 0.250000 0.750000 0.768398
O O15 0.420842 0.493950 0.826323
#
# Coordination Sequence:
#
# PCOD9395827 Si02
#       6
#     8   8   8   8   8   8
#     4   8  14  25  45  74  99 124 171 225 262 300
#     4  10  21  38  56  81 114 147 179 219 274 329
#     4  10  21  39  60  81 108 144 186 229 274 327
#     4  10  21  38  61  85 109 142 186 231 271 321
#     4  12  24  36  53  82 114 145 182 226 275 331
#     4  10  19  34  55  76 105 145 181 221 272 323
#
# _framework density 20.99793
#
# number of rings (size 3 to 8) (size 9 to 14) (size 15 to 20)
#    0.000    2.000    0.000    4.000    0.000    1.333 
#    0.000   10.000    0.000    0.500    0.000    1.167 
#    0.000    0.000    0.000    0.000    0.000    0.000 
#
# Total GULP energy -267785.583469 kJ/mol
# GULP energy per Si atom -5578.866322 kJ/mol
# Density = 2.095014 g / cm^3
# Si number density = 20.997930 Si / 1000 Ang^3
#
#
#
# Elastic Constant Matrix: (Units=GPa)
#
#
# Indices 1 2 3 4 5 6 
#
# 1 146.1197 30.7622 36.1767 0.0000 0.0000 0.0000
# 2 30.7622 72.6980 10.7676 0.0000 0.0000 0.0000
# 3 36.1767 10.7676 53.6601 0.0000 0.0000 0.0000
# 4 0.0000 0.0000 0.0000 9.9665 0.0000 0.0000
# 5 0.0000 0.0000 0.0000 0.0000 16.3378 0.0000
# 6 0.0000 0.0000 0.0000 0.0000 0.0000 33.2126
#
#
#
# Elastic Compliance Matrix: (Units=1/GPa)
#
#
# Indices 1 2 3 4 5 6 
#
# 1 0.008780 -0.002925 -0.005332 0.000000 0.000000 0.000000
# 2 -0.002925 0.015152 -0.001068 0.000000 0.000000 0.000000
# 3 -0.005332 -0.001068 0.022445 0.000000 0.000000 0.000000
# 4 0.000000 0.000000 0.000000 0.100336 0.000000 0.000000
# 5 0.000000 0.000000 0.000000 0.000000 0.061208 0.000000
# 6 0.000000 0.000000 0.000000 0.000000 0.000000 0.030109
#
#
# Mechanical properties :
#
#
# Convention : Reuss Voigt Hill
#
# Bulk Modulus (GPa) = 36.06845 47.54343 41.80594
# Shear Modulus (GPa) = 18.80252 24.88814 21.84533
#
# Velocity S-wave (km/s) = 2.99565 3.44650 3.22895
# Velocity P-wave (km/s) = 5.40182 6.20717 5.81845
#
# Compressibility (1/GPa) = 0.02772506
#
# Stress axis : x y z
#
# Youngs Moduli (GPa) = 113.89884 65.99958 44.55338
#
# Poissons Ratio (x) = 0.19307 0.23756
# Poissons Ratio (y) = 0.33320 0.04759
# Poissons Ratio (z) = 0.60732 0.07050
#
# Static dielectric constant tensor:
#      x y z
#    x 1.831090 0.000000 0.000000 
#    y 0.000000 1.727540 0.000000 
#    z 0.000000 0.000000 1.850620 
# 
# From -- ./inp_files/32347.got.cif
#   From: 2010.05.17/outbox.cif.g08.bks.cpg/sg50_17_cif.got.tgz:32347.got - 2010.06.03 11:33:33.
