data_PCOD9395149
_publ_section_title
;
Structure prediction by ZEFSAII (Michael W. Deem and Ramdas Pophale) SiO2 
 PCOD9395149
Probable space group: P C C M
;
_chemical_formula_sum "Si O2"
_cell_formula_units_Z 48
_cell_length_a 12.505452
_cell_length_b 12.016813
_cell_length_c 14.235601
_cell_angle_alpha 90.000000
_cell_angle_beta 90.000000
_cell_angle_gamma 90.000000
_cell_volume 2139.264594
_symmetry_space_group_name_H-M "P C C M"
_symmetry_group_IT_number 49
_symmetry_cell_setting 'orthorhombic'
loop_
_space_group_symop_operation_xyz
x,y,z
-x,-y,z
x,-y,1/2-z
-x,y,1/2-z
-x,-y,-z
x,y,-z
-x,y,1/2+z
x,-y,1/2+z
loop_
_atom_site_type_symbol
_atom_site_label
_atom_site_fract_x
_atom_site_fract_y
_atom_site_fract_z
Si Si1 0.335390 0.970283 0.113949
Si Si2 0.903054 0.920579 0.614845
Si Si3 0.472945 0.815667 0.385838
Si Si4 0.953779 0.673457 0.384878
Si Si5 0.839913 0.546336 0.110374
Si Si6 0.405520 0.430146 0.846036
O O1 0.214036 0.959767 0.145058
O O2 0.411097 0.866098 0.139681
O O3 0.390955 0.086013 0.141764
O O4 0.336600 0.971211 0.000000
O O5 0.901845 0.920506 0.500000
O O6 0.922949 0.795243 0.647853
O O7 0.000000 0.000000 0.642795
O O8 0.468667 0.803507 0.500000
O O9 0.444626 0.696811 0.343356
O O10 0.950375 0.679038 0.500000
O O11 0.872942 0.575855 0.353153
O O12 0.072857 0.635647 0.355203
O O13 0.715596 0.571971 0.118080
O O14 0.862972 0.540266 0.000000
O O15 0.500000 0.500000 0.897073
O O16 0.394540 0.500000 0.750000
#
# Coordination Sequence:
#
# PCOD9395149 Si02
#       6
#     8   8   8   8   8   8
#     4   8  16  30  51  86 119 145 181 227 287 349
#     4   9  16  24  42  77 120 149 166 211 282 341
#     4   9  18  34  57  83 114 149 188 236 285 338
#     4   8  16  30  49  80 115 143 177 228 281 337
#     4   9  18  34  56  80 108 145 189 231 282 339
#     4  11  25  39  52  76 112 149 195 242 284 334
#
# _framework density 22.437616999999999
#
# number of rings (size 3 to 8) (size 9 to 14) (size 15 to 20)
#    0.000    3.000    0.000    2.500    4.667    1.333 
#    0.000    1.667    0.000    8.000    0.000    0.000 
#    0.000    0.000    0.000    0.000    0.000    0.000 
#
# Total GULP energy -267996.443909 kJ/mol
# GULP energy per Si atom -5583.259248 kJ/mol
# Density = 2.238655 g / cm^3
# Si number density = 22.437617 Si / 1000 Ang^3
#
#
#
# Elastic Constant Matrix: (Units=GPa)
#
#
# Indices 1 2 3 4 5 6 
#
# 1 217.7473 105.3524 4.5748 0.0000 0.0000 0.0000
# 2 105.3524 187.6755 21.1948 0.0000 0.0000 0.0000
# 3 4.5748 21.1948 75.1746 0.0000 0.0000 0.0000
# 4 0.0000 0.0000 0.0000 -13.3607 0.0000 0.0000
# 5 0.0000 0.0000 0.0000 0.0000 9.5627 0.0000
# 6 0.0000 0.0000 0.0000 0.0000 0.0000 17.8243
#
#
#
# Elastic Compliance Matrix: (Units=1/GPa)
#
#
# Indices 1 2 3 4 5 6 
#
# 1 0.006334 -0.003628 0.000637 0.000000 0.000000 0.000000
# 2 -0.003628 0.007581 -0.001917 0.000000 0.000000 0.000000
# 3 0.000637 -0.001917 0.013804 0.000000 0.000000 0.000000
# 4 0.000000 0.000000 0.000000 -0.074846 0.000000 0.000000
# 5 0.000000 0.000000 0.000000 0.000000 0.104573 0.000000
# 6 0.000000 0.000000 0.000000 0.000000 0.000000 0.056103
#
#
# Mechanical properties :
#
#
# Convention : Reuss Voigt Hill
#
# Bulk Modulus (GPa) = 55.84940 82.53795 69.19367
# Shear Modulus (GPa) = 38.66015 26.10362 32.38188
#
# Velocity S-wave (km/s) = 4.15541 3.41455 3.80306
# Velocity P-wave (km/s) = 6.92591 7.23954 7.08446
#
# Compressibility (1/GPa) = 0.01790529
#
# Stress axis : x y z
#
# Youngs Moduli (GPa) = 157.87046 131.90404 72.44287
#
# Poissons Ratio (x) = 0.47852 -0.04617
# Poissons Ratio (y) = 0.57272 0.13885
# Poissons Ratio (z) = -0.10062 0.25282
#
# Static dielectric constant tensor:
#      x y z
#    x 1.819080 0.000000 0.000000 
#    y 0.000000 1.760440 0.000000 
#    z 0.000000 0.000000 1.941270 
# 
# From -- ./inp_files/17102.got.cif
#   From: 2010.05.17/outbox.cif.g08.bks.cpg/sg49_9_cif.got.tgz:17102.got - 2010.06.03 21:02:19.
