data_PCOD9395663
_publ_section_title
;
Structure prediction by ZEFSAII (Michael W. Deem and Ramdas Pophale) SiO2 
 PCOD9395663
Probable space group: P B A N
;
_chemical_formula_sum "Si O2"
_cell_formula_units_Z 48
_cell_length_a 16.460507
_cell_length_b 13.369935
_cell_length_c 9.102965
_cell_angle_alpha 90.000000
_cell_angle_beta 90.000000
_cell_angle_gamma 90.000000
_cell_volume 2003.343294
_symmetry_space_group_name_H-M "P B A N"
_symmetry_group_IT_number 50
_space_group.IT_coordinate_system_code '2'
_symmetry_cell_setting 'orthorhombic'
loop_
_space_group_symop_operation_xyz
x,y,z
1/2-x,1/2-y,z
x,1/2-y,-z
1/2-x,y,-z
-x,-y,-z
1/2+x,1/2+y,-z
-x,1/2+y,z
1/2+x,-y,z
loop_
_atom_site_type_symbol
_atom_site_label
_atom_site_fract_x
_atom_site_fract_y
_atom_site_fract_z
Si Si1 0.750000 0.593917 0.000000
Si Si2 0.656358 0.256334 0.821567
Si Si3 0.500406 0.128661 0.146407
Si Si4 0.029500 0.593022 0.188037
Si Si5 0.648699 0.935043 0.259505
Si Si6 0.750000 0.575015 0.500000
Si Si7 0.345048 0.298934 0.738876
O O1 0.812411 0.534034 0.103940
O O2 0.692566 0.657125 0.109602
O O3 0.750000 0.250000 0.769715
O O4 0.592838 0.350085 0.798646
O O5 0.604405 0.160564 0.763633
O O6 0.661108 0.250000 0.000000
O O7 0.441711 0.200026 0.236987
O O8 0.452519 0.023488 0.162861
O O9 0.503852 0.138954 0.970398
O O10 0.946645 0.574580 0.276688
O O11 0.696642 0.988399 0.387897
O O12 0.675767 0.817628 0.275002
O O13 0.685035 0.638441 0.401815
#
# Coordination Sequence:
#
# PCOD9395663 Si02
#       7
#     4   8   8   8   8   4   8
#     4  10  19  26  52  82 108 149 184 227 300 366
#     4   9  18  36  56  78 119 165 195 237 303 365
#     4  10  20  34  55  88 118 150 202 253 296 347
#     4  10  20  34  55  88 118 150 202 253 296 347
#     4  11  18  33  52  80 117 152 187 239 295 360
#     4  10  23  34  52  86 120 153 194 221 306 376
#     4  11  18  33  52  80 117 152 187 239 295 360
#
# _framework density 23.959947
#
# number of rings (size 3 to 8) (size 9 to 14) (size 15 to 20)
#    0.000    1.833    3.333    4.000    0.000    0.000 
#    6.000    0.833    0.000    0.000    0.000    1.167 
#    0.000    0.000    0.000    0.000    0.000    0.000 
#
# Total GULP energy -267416.091485 kJ/mol
# GULP energy per Si atom -5571.168573 kJ/mol
# Density = 2.390541 g / cm^3
# Si number density = 23.959947 Si / 1000 Ang^3
#
#
#
# Elastic Constant Matrix: (Units=GPa)
#
#
# Indices 1 2 3 4 5 6 
#
# 1 203.4808 20.7270 40.5224 0.0000 0.0000 0.0000
# 2 20.7270 51.6623 -2.1080 0.0000 0.0000 0.0000
# 3 40.5224 -2.1080 76.8373 0.0000 0.0000 0.0000
# 4 0.0000 0.0000 0.0000 4.3001 0.0000 0.0000
# 5 0.0000 0.0000 0.0000 0.0000 30.7139 0.0000
# 6 0.0000 0.0000 0.0000 0.0000 0.0000 27.9879
#
#
#
# Elastic Compliance Matrix: (Units=1/GPa)
#
#
# Indices 1 2 3 4 5 6 
#
# 1 0.005785 -0.002448 -0.003118 0.000000 0.000000 0.000000
# 2 -0.002448 0.020414 0.001851 0.000000 0.000000 0.000000
# 3 -0.003118 0.001851 0.014710 0.000000 0.000000 0.000000
# 4 0.000000 0.000000 0.000000 0.232553 0.000000 0.000000
# 5 0.000000 0.000000 0.000000 0.000000 0.032559 0.000000
# 6 0.000000 0.000000 0.000000 0.000000 0.000000 0.035730
#
#
# Mechanical properties :
#
#
# Convention : Reuss Voigt Hill
#
# Bulk Modulus (GPa) = 29.86962 50.02924 39.94943
# Shear Modulus (GPa) = 13.87583 30.78966 22.33275
#
# Velocity S-wave (km/s) = 2.40911 3.58864 3.05632
# Velocity P-wave (km/s) = 4.49800 6.17226 5.40041
#
# Compressibility (1/GPa) = 0.03347883
#
# Stress axis : x y z
#
# Youngs Moduli (GPa) = 172.86804 48.98553 67.98265
#
# Poissons Ratio (x) = 0.11992 0.21196
# Poissons Ratio (y) = 0.42320 -0.12585
# Poissons Ratio (z) = 0.53899 -0.09068
#
# Static dielectric constant tensor:
#      x y z
#    x 2.013510 0.000000 0.000000 
#    y 0.000000 2.071910 0.000000 
#    z 0.000000 0.000000 1.957390 
# 
# From -- ./inp_files/14276.got.cif
#   From: 2010.05.17/outbox.cif.g08.bks.cpg/sg50_8_cif.got.tgz:14276.got - 2010.06.03 11:33:33.
