data_PCOD9395536
_publ_section_title
;
Structure prediction by ZEFSAII (Michael W. Deem and Ramdas Pophale) SiO2 
 PCOD9395536
Probable space group: P B A N
;
_chemical_formula_sum "Si O2"
_cell_formula_units_Z 52
_cell_length_a 15.930394
_cell_length_b 18.549065
_cell_length_c 8.513860
_cell_angle_alpha 90.000000
_cell_angle_beta 90.000000
_cell_angle_gamma 90.000000
_cell_volume 2515.793813
_symmetry_space_group_name_H-M "P B A N"
_symmetry_group_IT_number 50
_space_group.IT_coordinate_system_code '2'
_symmetry_cell_setting 'orthorhombic'
loop_
_space_group_symop_operation_xyz
x,y,z
1/2-x,1/2-y,z
x,1/2-y,-z
1/2-x,y,-z
-x,-y,-z
1/2+x,1/2+y,-z
-x,1/2+y,z
1/2+x,-y,z
loop_
_atom_site_type_symbol
_atom_site_label
_atom_site_fract_x
_atom_site_fract_y
_atom_site_fract_z
Si Si1 0.932848 0.673105 0.567280
Si Si2 0.844274 0.089336 0.823786
Si Si3 0.550594 0.272239 0.843803
Si Si4 0.813644 0.953561 0.351741
Si Si5 0.087288 0.918398 0.508733
Si Si6 0.306341 0.820401 0.305177
Si Si7 0.750000 0.981496 0.000000
O O1 0.904275 0.750000 0.500000
O O2 0.857569 0.622647 0.618642
O O3 0.991231 0.700082 0.708738
O O4 0.996781 0.619618 0.470851
O O5 0.890716 0.159942 0.882927
O O6 0.894852 0.060545 0.671959
O O7 0.751657 0.118669 0.774073
O O8 0.830365 0.029707 0.953686
O O9 0.612328 0.208733 0.787483
O O10 0.502876 0.250000 0.000000
O O11 0.750000 0.966837 0.500000
O O12 0.884538 0.016555 0.377579
O O13 0.773381 0.950761 0.175590
O O14 0.154504 0.854534 0.539093
O O15 0.250000 0.750000 0.324395
#
# Coordination Sequence:
#
# PCOD9395536 Si02
#       7
#     8   8   8   8   8   8   4
#     4  11  25  45  71  97 132 180 232 284 346 410
#     4  10  20  31  61  98 139 174 212 262 329 417
#     4  10  21  36  56  97 141 176 217 271 335 409
#     4  12  26  48  73  98 134 181 232 289 345 405
#     4  11  20  41  65 103 135 175 221 278 346 414
#     4  10  18  30  58  97 143 184 216 264 340 421
#     4  12  22  42  65  99 134 176 228 278 336 406
#
# _framework density 20.669419999999999
#
# number of rings (size 3 to 8) (size 9 to 14) (size 15 to 20)
#    0.000    1.231    4.615    1.846    0.000    5.538 
#    2.769    3.077    0.000    0.000    0.000    0.000 
#    0.000    0.000    0.000    0.000    0.000    0.000 
#
# Total GULP energy -289810.434149 kJ/mol
# GULP energy per Si atom -5573.277580 kJ/mol
# Density = 2.062238 g / cm^3
# Si number density = 20.669420 Si / 1000 Ang^3
#
#
#
# Elastic Constant Matrix: (Units=GPa)
#
#
# Indices 1 2 3 4 5 6 
#
# 1 16.8498 23.5621 16.7005 0.0000 0.0000 0.0000
# 2 23.5621 82.9064 37.1446 0.0000 0.0000 0.0000
# 3 16.7005 37.1446 103.8671 0.0000 0.0000 0.0000
# 4 0.0000 0.0000 0.0000 -29.2865 0.0000 0.0000
# 5 0.0000 0.0000 0.0000 0.0000 2.5428 0.0000
# 6 0.0000 0.0000 0.0000 0.0000 0.0000 3.0211
#
#
#
# Elastic Compliance Matrix: (Units=1/GPa)
#
#
# Indices 1 2 3 4 5 6 
#
# 1 0.102874 -0.025990 -0.007246 0.000000 0.000000 0.000000
# 2 -0.025990 0.020929 -0.003306 0.000000 0.000000 0.000000
# 3 -0.007246 -0.003306 0.011975 0.000000 0.000000 0.000000
# 4 0.000000 0.000000 0.000000 -0.034145 0.000000 0.000000
# 5 0.000000 0.000000 0.000000 0.000000 0.393275 0.000000
# 6 0.000000 0.000000 0.000000 0.000000 0.000000 0.331006
#
#
# Mechanical properties :
#
#
# Convention : Reuss Voigt Hill
#
# Bulk Modulus (GPa) = 15.95062 39.82643 27.88852
# Shear Modulus (GPa) = 5.43539 3.66987 4.55263
#
# Velocity S-wave (km/s) = 1.62339 1.33393 1.48572
# Velocity P-wave (km/s) = 3.35375 4.65646 4.05772
#
# Compressibility (1/GPa) = 0.06269349
#
# Stress axis : x y z
#
# Youngs Moduli (GPa) = 9.72063 47.77964 83.50734
#
# Poissons Ratio (x) = 1.24181 0.60511
# Poissons Ratio (y) = 0.25264 0.27606
# Poissons Ratio (z) = 0.07044 0.15795
#
# Static dielectric constant tensor:
#      x y z
#    x 1.766990 0.000000 0.000000 
#    y 0.000000 1.765940 0.000000 
#    z 0.000000 0.000000 1.807600 
# 
# From -- ./inp_files/13215.got.cif
#   From: 2010.05.17/outbox.cif.g08.bks.cpg/sg50_7_cif.got.tgz:13215.got - 2010.06.03 11:33:33.
