data_PCOD9395893
_publ_section_title
;
Structure prediction by ZEFSAII (Michael W. Deem and Ramdas Pophale) SiO2 
 PCOD9395893
Probable space group: P B A N
;
_chemical_formula_sum "Si O2"
_cell_formula_units_Z 56
_cell_length_a 9.415110
_cell_length_b 14.597337
_cell_length_c 18.295629
_cell_angle_alpha 90.000000
_cell_angle_beta 90.000000
_cell_angle_gamma 90.000000
_cell_volume 2514.469533
_symmetry_space_group_name_H-M "P B A N"
_symmetry_group_IT_number 50
_space_group.IT_coordinate_system_code '2'
_symmetry_cell_setting 'orthorhombic'
loop_
_space_group_symop_operation_xyz
x,y,z
1/2-x,1/2-y,z
x,1/2-y,-z
1/2-x,y,-z
-x,-y,-z
1/2+x,1/2+y,-z
-x,1/2+y,z
1/2+x,-y,z
loop_
_atom_site_type_symbol
_atom_site_label
_atom_site_fract_x
_atom_site_fract_y
_atom_site_fract_z
Si Si1 0.672870 0.952694 0.856310
Si Si2 0.151878 0.167627 0.717093
Si Si3 0.482291 0.390119 0.171975
Si Si4 0.911861 0.916039 0.656041
Si Si5 0.582478 0.776334 0.921138
Si Si6 0.102199 0.567259 0.543188
Si Si7 0.581904 0.247834 0.380929
O O1 0.635835 0.909900 0.776798
O O2 0.841043 0.936604 0.863347
O O3 0.586110 0.884965 0.909102
O O4 0.618919 0.055343 0.855920
O O5 0.250000 0.250000 0.748552
O O6 0.253843 0.127780 0.653766
O O7 0.007845 0.207821 0.686789
O O8 0.462174 0.407046 0.259299
O O9 0.484770 0.285815 0.142996
O O10 0.017700 0.849576 0.611243
O O11 0.895907 0.016886 0.622919
O O12 0.750000 0.750000 0.920700
O O13 0.522902 0.750000 0.000000
O O14 0.250000 0.566728 0.500000
O O15 0.058123 0.671969 0.556589
O O16 0.000000 0.500000 0.500000
O O17 0.750000 0.250000 0.368520
#
# Coordination Sequence:
#
# PCOD9395893 Si02
#       7
#     8   8   8   8   8   8   8
#     4  10  19  35  57  85 121 153 197 245 284 346
#     4   9  18  36  59  83 114 155 194 233 288 354
#     4  10  21  36  61  90 115 155 201 244 296 351
#     4  10  22  41  62  84 117 158 197 236 294 368
#     4   9  18  35  58  84 119 162 201 238 290 358
#     4  12  26  42  60  85 117 154 194 241 301 360
#     4  11  23  39  62  88 114 144 190 249 298 343
#
# _framework density 22.271097000000001
#
# number of rings (size 3 to 8) (size 9 to 14) (size 15 to 20)
#    0.000    1.857    0.000    5.571    0.000    7.143 
#    0.000    1.429    0.000    0.857    0.000    0.000 
#    0.000    0.000    0.000    0.000    0.000    0.000 
#
# Total GULP energy -312639.488379 kJ/mol
# GULP energy per Si atom -5582.848007 kJ/mol
# Density = 2.222041 g / cm^3
# Si number density = 22.271097 Si / 1000 Ang^3
#
#
#
# Elastic Constant Matrix: (Units=GPa)
#
#
# Indices 1 2 3 4 5 6 
#
# 1 48.8714 8.7510 9.7227 0.0000 0.0000 0.0000
# 2 8.7510 96.4995 21.0221 0.0000 0.0000 0.0000
# 3 9.7227 21.0221 86.0457 0.0000 0.0000 0.0000
# 4 0.0000 0.0000 0.0000 15.1237 0.0000 0.0000
# 5 0.0000 0.0000 0.0000 0.0000 10.0294 0.0000
# 6 0.0000 0.0000 0.0000 0.0000 0.0000 26.2485
#
#
#
# Elastic Compliance Matrix: (Units=1/GPa)
#
#
# Indices 1 2 3 4 5 6 
#
# 1 0.021129 -0.001474 -0.002027 0.000000 0.000000 0.000000
# 2 -0.001474 0.011048 -0.002533 0.000000 0.000000 0.000000
# 3 -0.002027 -0.002533 0.012470 0.000000 0.000000 0.000000
# 4 0.000000 0.000000 0.000000 0.066122 0.000000 0.000000
# 5 0.000000 0.000000 0.000000 0.000000 0.099707 0.000000
# 6 0.000000 0.000000 0.000000 0.000000 0.000000 0.038097
#
#
# Mechanical properties :
#
#
# Convention : Reuss Voigt Hill
#
# Bulk Modulus (GPa) = 30.69529 34.48979 32.59254
# Shear Modulus (GPa) = 18.41613 23.07504 20.74558
#
# Velocity S-wave (km/s) = 2.87872 3.22234 3.05536
# Velocity P-wave (km/s) = 4.98617 5.41891 5.20704
#
# Compressibility (1/GPa) = 0.03257828
#
# Stress axis : x y z
#
# Youngs Moduli (GPa) = 47.32789 90.51271 80.19536
#
# Poissons Ratio (x) = 0.13346 0.16258
# Poissons Ratio (y) = 0.06978 0.20310
# Poissons Ratio (z) = 0.09595 0.22923
#
# Static dielectric constant tensor:
#      x y z
#    x 1.804630 0.000000 0.000000 
#    y 0.000000 1.893570 0.000000 
#    z 0.000000 0.000000 1.901690 
# 
# From -- ./inp_files/30650.got.cif
#   From: 2010.05.17/outbox.cif.g08.bks.cpg/sg50_16_cif.got.tgz:30650.got - 2010.06.03 11:33:33.
