data_PCOD9395776
_publ_section_title
;
Structure prediction by ZEFSAII (Michael W. Deem and Ramdas Pophale) SiO2 
 PCOD9395776
Probable space group: P B A N
;
_chemical_formula_sum "Si O2"
_cell_formula_units_Z 40
_cell_length_a 5.194450
_cell_length_b 14.264578
_cell_length_c 23.985979
_cell_angle_alpha 90.000000
_cell_angle_beta 90.000000
_cell_angle_gamma 90.000000
_cell_volume 1777.280384
_symmetry_space_group_name_H-M "P B A N"
_symmetry_group_IT_number 50
_space_group.IT_coordinate_system_code '2'
_symmetry_cell_setting 'orthorhombic'
loop_
_space_group_symop_operation_xyz
x,y,z
1/2-x,1/2-y,z
x,1/2-y,-z
1/2-x,y,-z
-x,-y,-z
1/2+x,1/2+y,-z
-x,1/2+y,z
1/2+x,-y,z
loop_
_atom_site_type_symbol
_atom_site_label
_atom_site_fract_x
_atom_site_fract_y
_atom_site_fract_z
Si Si1 0.268711 0.861401 0.794678
Si Si2 0.776973 0.435518 0.560251
Si Si3 0.222267 0.363440 0.853994
Si Si4 0.505052 0.604696 0.974200
Si Si5 0.119905 0.562609 0.674551
O O1 0.250000 0.750000 0.802867
O O2 0.489695 0.896085 0.837969
O O3 0.347771 0.882757 0.731927
O O4 0.977052 0.893452 0.805869
O O5 0.750000 0.387247 0.500000
O O6 0.562925 0.519921 0.561041
O O7 0.698622 0.383696 0.617405
O O8 0.250000 0.250000 0.858298
O O9 0.072669 0.397070 0.909282
O O10 0.750000 0.653154 0.000000
O O11 0.500000 0.500000 0.000000
O O12 0.250000 0.647928 0.000000
O O13 0.332692 0.479075 0.673967
#
# Coordination Sequence:
#
# PCOD9395776 Si02
#       5
#     8   8   8   8   8
#     4  10  21  38  56  78 110 147 180 218 271 321
#     4   8  14  25  44  68 102 140 174 220 271 316
#     4  10  21  39  59  78 104 142 182 211 258 329
#     4  10  21  39  56  81 108 132 167 214 264 317
#     4  10  19  33  50  82 110 136 187 231 269 318
#
# _framework density 22.506298000000001
#
# number of rings (size 3 to 8) (size 9 to 14) (size 15 to 20)
#    0.000    2.400    0.000    2.400    0.000    0.400 
#   21.600    1.000    0.000    0.600    0.000    0.000 
#    0.000   20.800    0.000    0.000    0.000    3.200 
#
# Total GULP energy -222856.455627 kJ/mol
# GULP energy per Si atom -5571.411391 kJ/mol
# Density = 2.245507 g / cm^3
# Si number density = 22.506298 Si / 1000 Ang^3
#
#
#
# Elastic Constant Matrix: (Units=GPa)
#
#
# Indices 1 2 3 4 5 6 
#
# 1 172.8055 12.5386 43.7835 0.0000 0.0000 0.0000
# 2 12.5386 67.2838 3.0266 0.0000 0.0000 0.0000
# 3 43.7835 3.0266 148.6087 0.0000 0.0000 0.0000
# 4 0.0000 0.0000 0.0000 54.8308 0.0000 0.0000
# 5 0.0000 0.0000 0.0000 0.0000 43.3874 0.0000
# 6 0.0000 0.0000 0.0000 0.0000 0.0000 -28.7026
#
#
#
# Elastic Compliance Matrix: (Units=1/GPa)
#
#
# Indices 1 2 3 4 5 6 
#
# 1 0.006334 -0.001097 -0.001844 0.000000 0.000000 0.000000
# 2 -0.001097 0.015066 0.000016 0.000000 0.000000 0.000000
# 3 -0.001844 0.000016 0.007272 0.000000 0.000000 0.000000
# 4 0.000000 0.000000 0.000000 0.018238 0.000000 0.000000
# 5 0.000000 0.000000 0.000000 0.000000 0.023048 0.000000
# 6 0.000000 0.000000 0.000000 0.000000 0.000000 -0.034840
#
#
# Mechanical properties :
#
#
# Convention : Reuss Voigt Hill
#
# Bulk Modulus (GPa) = 43.81627 56.37727 50.09677
# Shear Modulus (GPa) = 102.93482 35.85974 69.39728
#
# Velocity S-wave (km/s) = 6.77018 3.99597 5.55892
# Velocity P-wave (km/s) = 8.97911 6.81134 7.96928
#
# Compressibility (1/GPa) = 0.02282257
#
# Stress axis : x y z
#
# Youngs Moduli (GPa) = 157.88797 66.37385 137.51497
#
# Poissons Ratio (x) = 0.07284 0.25353
# Poissons Ratio (y) = 0.17326 -0.00226
# Poissons Ratio (z) = 0.29109 -0.00109
#
# Static dielectric constant tensor:
#      x y z
#    x 1.846270 0.000000 0.000000 
#    y 0.000000 1.801640 0.000000 
#    z 0.000000 0.000000 1.954040 
# 
# From -- ./inp_files/30317.got.cif
#   From: 2010.05.17/outbox.cif.g08.bks.cpg/sg50_16_cif.got.tgz:30317.got - 2010.06.03 11:33:33.
