data_PCOD9395450
_publ_section_title
;
Structure prediction by ZEFSAII (Michael W. Deem and Ramdas Pophale) SiO2 
 PCOD9395450
Probable space group: P B A N
;
_chemical_formula_sum "Si O2"
_cell_formula_units_Z 64
_cell_length_a 21.026205
_cell_length_b 29.548044
_cell_length_c 5.151910
_cell_angle_alpha 90.000000
_cell_angle_beta 90.000000
_cell_angle_gamma 90.000000
_cell_volume 3200.795288
_symmetry_space_group_name_H-M "P B A N"
_symmetry_group_IT_number 50
_space_group.IT_coordinate_system_code '2'
_symmetry_cell_setting 'orthorhombic'
loop_
_space_group_symop_operation_xyz
x,y,z
1/2-x,1/2-y,z
x,1/2-y,-z
1/2-x,y,-z
-x,-y,-z
1/2+x,1/2+y,-z
-x,1/2+y,z
1/2+x,-y,z
loop_
_atom_site_type_symbol
_atom_site_label
_atom_site_fract_x
_atom_site_fract_y
_atom_site_fract_z
Si Si1 0.824268 0.324789 0.567767
Si Si2 0.119346 0.085096 0.956300
Si Si3 0.172476 0.513994 0.007143
Si Si4 0.826690 0.428713 0.494150
Si Si5 0.928792 0.697399 0.549656
Si Si6 0.892854 0.298834 0.066047
Si Si7 0.324419 0.131293 0.546143
Si Si8 0.484112 0.151999 0.950756
O O1 0.750000 0.321293 0.500000
O O2 0.845958 0.377077 0.538319
O O3 0.865203 0.298679 0.353367
O O4 0.837712 0.307447 0.855905
O O5 0.135979 0.033284 0.010287
O O6 0.159422 0.113825 0.166923
O O7 0.047372 0.102864 0.003233
O O8 0.142140 0.098678 0.667633
O O9 0.155738 0.548256 0.775894
O O10 0.250000 0.506150 0.000000
O O11 0.154596 0.538584 0.273062
O O12 0.750000 0.427185 0.500000
O O13 0.937339 0.750000 0.500000
O O14 0.857697 0.679653 0.495707
O O15 0.970804 0.669078 0.341255
O O16 0.946919 0.683610 0.841427
O O17 0.922772 0.250000 0.000000
O O18 0.943280 0.338762 0.021653
O O19 0.250000 0.131546 0.500000
#
# Coordination Sequence:
#
# PCOD9395450 Si02
#       8
#     8   8   8   8   8   8   8   8
#     4  11  24  42  62  88 121 145 169 218 285 342
#     4  10  20  33  52  77 111 148 183 237 280 314
#     4  10  17  29  54  83 109 144 192 230 266 320
#     4   9  19  34  54  81 112 147 179 216 269 332
#     4  10  19  33  52  71 100 141 186 236 276 325
#     4  12  24  39  64  88 111 148 188 227 267 330
#     4  10  19  30  45  71 106 142 181 230 293 335
#     4  10  22  38  55  79 109 144 187 229 277 320
#
# _framework density 19.99503
#
# number of rings (size 3 to 8) (size 9 to 14) (size 15 to 20)
#    0.000    1.750    0.000    5.250    0.000    4.750 
#    0.000    0.000    0.000    9.000    0.000    0.000 
#    0.000    0.000    0.000    0.000    0.000    0.000 
#
# Total GULP energy -357457.461276 kJ/mol
# GULP energy per Si atom -5585.272832 kJ/mol
# Density = 1.994952 g / cm^3
# Si number density = 19.995030 Si / 1000 Ang^3
#
#
#
# Elastic Constant Matrix: (Units=GPa)
#
#
# Indices 1 2 3 4 5 6 
#
# 1 53.9151 1.0646 -2.1343 0.0000 0.0000 0.0000
# 2 1.0646 66.9710 5.1079 0.0000 0.0000 0.0000
# 3 -2.1343 5.1079 67.3135 0.0000 0.0000 0.0000
# 4 0.0000 0.0000 0.0000 21.6831 0.0000 0.0000
# 5 0.0000 0.0000 0.0000 0.0000 15.3504 0.0000
# 6 0.0000 0.0000 0.0000 0.0000 0.0000 15.3203
#
#
#
# Elastic Compliance Matrix: (Units=1/GPa)
#
#
# Indices 1 2 3 4 5 6 
#
# 1 0.018579 -0.000342 0.000615 0.000000 0.000000 0.000000
# 2 -0.000342 0.015025 -0.001151 0.000000 0.000000 0.000000
# 3 0.000615 -0.001151 0.014963 0.000000 0.000000 0.000000
# 4 0.000000 0.000000 0.000000 0.046119 0.000000 0.000000
# 5 0.000000 0.000000 0.000000 0.000000 0.065145 0.000000
# 6 0.000000 0.000000 0.000000 0.000000 0.000000 0.065273
#
#
# Mechanical properties :
#
#
# Convention : Reuss Voigt Hill
#
# Bulk Modulus (GPa) = 21.36286 21.80843 21.58564
# Shear Modulus (GPa) = 20.62173 22.74820 21.68497
#
# Velocity S-wave (km/s) = 3.21494 3.37663 3.29677
# Velocity P-wave (km/s) = 4.94857 5.11202 5.03096
#
# Compressibility (1/GPa) = 0.04681022
#
# Stress axis : x y z
#
# Youngs Moduli (GPa) = 53.82480 66.55548 66.83286
#
# Poissons Ratio (x) = 0.02278 -0.04111
# Poissons Ratio (y) = 0.01842 0.07692
# Poissons Ratio (z) = -0.03311 0.07660
#
# Static dielectric constant tensor:
#      x y z
#    x 1.722370 0.000000 0.000000 
#    y 0.000000 1.705680 0.000000 
#    z 0.000000 0.000000 1.693510 
# 
# From -- ./inp_files/5542.got.cif
#   From: 2010.05.17/outbox.cif.g08.bks.cpg/sg50_3_cif.got.tgz:5542.got - 2010.06.03 11:33:33.
