data_PCOD9395601
_publ_section_title
;
Structure prediction by ZEFSAII (Michael W. Deem and Ramdas Pophale) SiO2 
 PCOD9395601
Probable space group: P B A N
;
_chemical_formula_sum "Si O2"
_cell_formula_units_Z 40
_cell_length_a 8.261690
_cell_length_b 24.060981
_cell_length_c 9.242990
_cell_angle_alpha 90.000000
_cell_angle_beta 90.000000
_cell_angle_gamma 90.000000
_cell_volume 1837.361908
_symmetry_space_group_name_H-M "P B A N"
_symmetry_group_IT_number 50
_space_group.IT_coordinate_system_code '2'
_symmetry_cell_setting 'orthorhombic'
loop_
_space_group_symop_operation_xyz
x,y,z
1/2-x,1/2-y,z
x,1/2-y,-z
1/2-x,y,-z
-x,-y,-z
1/2+x,1/2+y,-z
-x,1/2+y,z
1/2+x,-y,z
loop_
_atom_site_type_symbol
_atom_site_label
_atom_site_fract_x
_atom_site_fract_y
_atom_site_fract_z
Si Si1 0.600578 0.821159 0.748158
Si Si2 0.710265 0.054555 0.169639
Si Si3 0.711701 0.171395 0.748956
Si Si4 0.750000 0.250000 0.000000
Si Si5 0.750000 0.250000 0.500000
Si Si6 0.750000 0.750000 0.500000
Si Si7 0.822138 0.935782 0.163326
Si Si8 0.250000 0.250000 0.000000
O O1 0.407689 0.827365 0.749013
O O2 0.647254 0.787861 0.606836
O O3 0.703384 0.878149 0.754082
O O4 0.647391 0.788250 0.892648
O O5 0.812692 0.105192 0.241025
O O6 0.516645 0.059669 0.169111
O O7 0.754821 0.993391 0.225524
O O8 0.750000 0.057004 0.000000
O O9 0.660071 0.207091 0.609522
O O10 0.660715 0.207045 0.890102
O O11 0.750000 0.930804 0.000000
#
# Coordination Sequence:
#
# PCOD9395601 Si02
#       8
#     8   8   8   2   2   2   8   2
#     4  10  20  35  55  80 110 144 185 230 277 331
#     4  10  19  34  55  84 113 143 182 230 279 330
#     4  10  20  35  55  80 110 144 185 230 277 331
#     4  10  18  34  54  80 108 138 186 228 282 330
#     4  10  22  38  54  76 112 150 186 224 280 328
#     4  10  22  38  54  76 112 150 186 224 280 328
#     4  10  19  34  55  84 113 143 182 230 279 330
#     4  10  18  34  54  80 108 138 186 228 282 330
#
# _framework density 21.770343
#
# number of rings (size 3 to 8) (size 9 to 14) (size 15 to 20)
#    0.000    2.000    2.000    3.600    0.000    0.000 
#    0.000    7.000    0.000    4.800    0.000    0.000 
#    0.000    0.000    0.000    0.000    0.000    0.000 
#
# Total GULP energy -223159.577501 kJ/mol
# GULP energy per Si atom -5578.989438 kJ/mol
# Density = 2.172079 g / cm^3
# Si number density = 21.770343 Si / 1000 Ang^3
#
#
#
# Elastic Constant Matrix: (Units=GPa)
#
#
# Indices 1 2 3 4 5 6 
#
# 1 48.7082 25.9462 14.7766 0.0000 0.0000 0.0000
# 2 25.9462 209.6901 65.4422 0.0000 0.0000 0.0000
# 3 14.7766 65.4422 118.2774 0.0000 0.0000 0.0000
# 4 0.0000 0.0000 0.0000 -462.8768 0.0000 0.0000
# 5 0.0000 0.0000 0.0000 0.0000 16.3200 0.0000
# 6 0.0000 0.0000 0.0000 0.0000 0.0000 27.3074
#
#
#
# Elastic Compliance Matrix: (Units=1/GPa)
#
#
# Indices 1 2 3 4 5 6 
#
# 1 0.022202 -0.002274 -0.001515 0.000000 0.000000 0.000000
# 2 -0.002274 0.005997 -0.003034 0.000000 0.000000 0.000000
# 3 -0.001515 -0.003034 0.010323 0.000000 0.000000 0.000000
# 4 0.000000 0.000000 0.000000 -0.002160 0.000000 0.000000
# 5 0.000000 0.000000 0.000000 0.000000 0.061275 0.000000
# 6 0.000000 0.000000 0.000000 0.000000 0.000000 0.036620
#
#
# Mechanical properties :
#
#
# Convention : Reuss Voigt Hill
#
# Bulk Modulus (GPa) = 40.20226 65.44508 52.82367
# Shear Modulus (GPa) = 32.01130 -65.81586 -16.90228
#
# Velocity S-wave (km/s) = 3.83875 -5.50432 -2.78940
# Velocity P-wave (km/s) = 6.17694 3.20466 3.73395
#
# Compressibility (1/GPa) = 0.02487422
#
# Stress axis : x y z
#
# Youngs Moduli (GPa) = 45.04180 166.74257 96.87301
#
# Poissons Ratio (x) = 0.37921 0.14680
# Poissons Ratio (y) = 0.10243 0.29393
# Poissons Ratio (z) = 0.06826 0.50592
#
# Static dielectric constant tensor:
#      x y z
#    x 1.837800 0.000000 0.000000 
#    y 0.000000 1.888140 0.000000 
#    z 0.000000 0.000000 1.767880 
# 
# From -- ./inp_files/9851.got.cif
#   From: 2010.05.17/outbox.cif.g08.bks.cpg/sg50_5_cif.got.tgz:9851.got - 2010.06.03 11:33:33.
