data_PCOD9395407
_publ_section_title
;
Structure prediction by ZEFSAII (Michael W. Deem and Ramdas Pophale) SiO2 
 PCOD9395407
Probable space group: P B A N
;
_chemical_formula_sum "Si O2"
_cell_formula_units_Z 28
_cell_length_a 5.543252
_cell_length_b 32.887699
_cell_length_c 7.273810
_cell_angle_alpha 90.000000
_cell_angle_beta 90.000000
_cell_angle_gamma 90.000000
_cell_volume 1326.050501
_symmetry_space_group_name_H-M "P B A N"
_symmetry_group_IT_number 50
_space_group.IT_coordinate_system_code '2'
_symmetry_cell_setting 'orthorhombic'
loop_
_space_group_symop_operation_xyz
x,y,z
1/2-x,1/2-y,z
x,1/2-y,-z
1/2-x,y,-z
-x,-y,-z
1/2+x,1/2+y,-z
-x,1/2+y,z
1/2+x,-y,z
loop_
_atom_site_type_symbol
_atom_site_label
_atom_site_fract_x
_atom_site_fract_y
_atom_site_fract_z
Si Si1 0.497237 0.516487 0.786586
Si Si2 0.750000 0.250000 0.500000
Si Si3 0.001016 0.891861 0.885883
Si Si4 0.117515 0.309241 0.690191
Si Si5 0.250000 0.250000 0.000000
O O1 0.749192 0.500839 0.707721
O O2 0.490657 0.565098 0.782611
O O3 0.500000 0.500000 0.000000
O O4 0.592835 0.221730 0.632973
O O5 0.984198 0.851047 0.768045
O O6 0.250000 0.890052 0.000000
O O7 0.750000 0.893162 0.000000
O O8 0.250000 0.317538 0.500000
O O9 0.281915 0.285639 0.840014
#
# Coordination Sequence:
#
# PCOD9395407 Si02
#       5
#     8   2   8   8   2
#     4  10  16  33  59  97 137 174 229 285 331 404
#     4  12  26  50  68  94 142 184 226 302 354 412
#     4  12  24  39  68 107 136 185 238 282 348 416
#     4  12  28  47  68 102 141 179 234 298 349 422
#     4  12  22  50  72  90 130 188 232 276 366 422
#
# _framework density 21.115334000000001
#
# number of rings (size 3 to 8) (size 9 to 14) (size 15 to 20)
#    0.000    0.571   10.000    0.000    8.000    0.000 
#    0.000    0.000    0.000    1.714    0.000    0.000 
#    0.000    0.000    0.000    0.000    0.000    0.000 
#
# Total GULP energy -155886.568272 kJ/mol
# GULP energy per Si atom -5567.377438 kJ/mol
# Density = 2.106727 g / cm^3
# Si number density = 21.115334 Si / 1000 Ang^3
#
#
#
# Elastic Constant Matrix: (Units=GPa)
#
#
# Indices 1 2 3 4 5 6 
#
# 1 183.1506 67.6426 32.4934 0.0000 0.0000 0.0000
# 2 67.6426 226.1203 38.9910 0.0000 0.0000 0.0000
# 3 32.4934 38.9910 77.2024 0.0000 0.0000 0.0000
# 4 0.0000 0.0000 0.0000 -51.6422 0.0000 0.0000
# 5 0.0000 0.0000 0.0000 0.0000 -9.3208 0.0000
# 6 0.0000 0.0000 0.0000 0.0000 0.0000 58.7343
#
#
#
# Elastic Compliance Matrix: (Units=1/GPa)
#
#
# Indices 1 2 3 4 5 6 
#
# 1 0.006379 -0.001583 -0.001885 0.000000 0.000000 0.000000
# 2 -0.001583 0.005237 -0.001979 0.000000 0.000000 0.000000
# 3 -0.001885 -0.001979 0.014746 0.000000 0.000000 0.000000
# 4 0.000000 0.000000 0.000000 -0.019364 0.000000 0.000000
# 5 0.000000 0.000000 0.000000 0.000000 -0.107287 0.000000
# 6 0.000000 0.000000 0.000000 0.000000 0.000000 0.017026
#
#
# Mechanical properties :
#
#
# Convention : Reuss Voigt Hill
#
# Bulk Modulus (GPa) = 64.65054 84.96969 74.81012
# Shear Modulus (GPa) = -74.39064 22.71070 -25.83997
#
# Velocity S-wave (km/s) = -5.94198 3.28312 -3.50201
# Velocity P-wave (km/s) = 4.04869 7.39594 4.37653
#
# Compressibility (1/GPa) = 0.01546777
#
# Stress axis : x y z
#
# Youngs Moduli (GPa) = 156.75975 190.94062 67.81587
#
# Poissons Ratio (x) = 0.30230 0.12785
# Poissons Ratio (y) = 0.24818 0.13419
# Poissons Ratio (z) = 0.29554 0.37782
#
# Static dielectric constant tensor:
#      x y z
#    x 1.819780 0.000000 0.000000 
#    y 0.000000 1.737420 0.000000 
#    z 0.000000 0.000000 1.766470 
# 
# From -- ./inp_files/7876.got.cif
#   From: 2010.05.17/outbox.cif.g08.bks.cpg/sg50_4_cif.got.tgz:7876.got - 2010.06.03 11:33:33.
