data_PCOD9395172
_publ_section_title
;
Structure prediction by ZEFSAII (Michael W. Deem and Ramdas Pophale) SiO2 
 PCOD9395172
Probable space group: P C C M
;
_chemical_formula_sum "Si O2"
_cell_formula_units_Z 34
_cell_length_a 13.892035
_cell_length_b 12.279345
_cell_length_c 10.328939
_cell_angle_alpha 90.000000
_cell_angle_beta 90.000000
_cell_angle_gamma 90.000000
_cell_volume 1761.962994
_symmetry_space_group_name_H-M "P C C M"
_symmetry_group_IT_number 49
_symmetry_cell_setting 'orthorhombic'
loop_
_space_group_symop_operation_xyz
x,y,z
-x,-y,z
x,-y,1/2-z
-x,y,1/2-z
-x,-y,-z
x,y,-z
-x,y,1/2+z
x,-y,1/2+z
loop_
_atom_site_type_symbol
_atom_site_label
_atom_site_fract_x
_atom_site_fract_y
_atom_site_fract_z
Si Si1 0.197515 0.402781 0.153944
Si Si2 0.000000 0.000000 0.750000
Si Si3 0.844653 0.166279 0.652107
Si Si4 0.364450 0.909973 0.650980
Si Si5 0.577713 0.661065 0.145843
O O1 0.171381 0.500000 0.250000
O O2 0.145333 0.290611 0.198245
O O3 0.312940 0.380472 0.165961
O O4 0.178942 0.424049 0.000000
O O5 0.069725 0.917606 0.674269
O O6 0.828796 0.179607 0.500000
O O7 0.744152 0.116936 0.699353
O O8 0.363999 0.947489 0.500000
O O9 0.415788 0.792933 0.652477
O O10 0.400866 0.000000 0.750000
O O11 0.500000 0.624157 0.250000
O O12 0.548559 0.631103 0.000000
#
# Coordination Sequence:
#
# PCOD9395172 Si02
#       5
#     8   2   8   8   8
#     4   9  19  38  58  77 107 146 182 222 267 315
#     4  12  18  32  62  86 106 136 178 214 270 324
#     4   9  19  34  53  80 112 139 172 220 272 319
#     4   9  17  32  49  70 103 143 176 214 265 318
#     4   9  19  33  50  73 106 140 178 224 268 309
#
# _framework density 19.296659999999999
#
# number of rings (size 3 to 8) (size 9 to 14) (size 15 to 20)
#    0.000    2.824    1.176    3.176    0.000    2.824 
#    0.000   11.176    0.000    2.824    0.000    0.000 
#    0.000    0.000    0.000    0.000    0.000    0.000 
#
# Total GULP energy -189435.160660 kJ/mol
# GULP energy per Si atom -5571.622372 kJ/mol
# Density = 1.925274 g / cm^3
# Si number density = 19.296660 Si / 1000 Ang^3
#
#
#
# Elastic Constant Matrix: (Units=GPa)
#
#
# Indices 1 2 3 4 5 6 
#
# 1 55.7006 24.2283 11.5273 0.0000 0.0000 0.0000
# 2 24.2283 151.5413 59.3967 0.0000 0.0000 0.0000
# 3 11.5273 59.3967 59.3871 0.0000 0.0000 0.0000
# 4 0.0000 0.0000 0.0000 10.7799 0.0000 0.0000
# 5 0.0000 0.0000 0.0000 0.0000 46.6853 0.0000
# 6 0.0000 0.0000 0.0000 0.0000 0.0000 4.7948
#
#
#
# Elastic Compliance Matrix: (Units=1/GPa)
#
#
# Indices 1 2 3 4 5 6 
#
# 1 0.019338 -0.002665 -0.001088 0.000000 0.000000 0.000000
# 2 -0.002665 0.011221 -0.010705 0.000000 0.000000 0.000000
# 3 -0.001088 -0.010705 0.027757 0.000000 0.000000 0.000000
# 4 0.000000 0.000000 0.000000 0.092765 0.000000 0.000000
# 5 0.000000 0.000000 0.000000 0.000000 0.021420 0.000000
# 6 0.000000 0.000000 0.000000 0.000000 0.000000 0.208558
#
#
# Mechanical properties :
#
#
# Convention : Reuss Voigt Hill
#
# Bulk Modulus (GPa) = 34.01530 50.77040 42.39285
# Shear Modulus (GPa) = 11.91114 23.88378 17.89746
#
# Velocity S-wave (km/s) = 2.48718 3.52194 3.04878
# Velocity P-wave (km/s) = 5.09057 6.55029 5.86601
#
# Compressibility (1/GPa) = 0.02939854
#
# Stress axis : x y z
#
# Youngs Moduli (GPa) = 51.71273 89.11839 36.02688
#
# Poissons Ratio (x) = 0.23753 0.03919
# Poissons Ratio (y) = 0.13783 0.38569
# Poissons Ratio (z) = 0.05625 0.95406
#
# Static dielectric constant tensor:
#      x y z
#    x 1.704300 0.000000 0.000000 
#    y 0.000000 1.714530 0.000000 
#    z 0.000000 0.000000 1.654180 
# 
# From -- ./inp_files/3348.got.cif
#   From: 2010.05.17/outbox.cif.g08.bks.cpg/sg49_2_cif.got.tgz:3348.got - 2010.06.03 21:02:19.
