data_PCOD9395447
_publ_section_title
;
Structure prediction by ZEFSAII (Michael W. Deem and Ramdas Pophale) SiO2 
 PCOD9395447
Probable space group: P B A N
;
_chemical_formula_sum "Si O2"
_cell_formula_units_Z 48
_cell_length_a 19.678700
_cell_length_b 11.273421
_cell_length_c 10.012299
_cell_angle_alpha 90.000000
_cell_angle_beta 90.000000
_cell_angle_gamma 90.000000
_cell_volume 2221.191186
_symmetry_space_group_name_H-M "P B A N"
_symmetry_group_IT_number 50
_space_group.IT_coordinate_system_code '2'
_symmetry_cell_setting 'orthorhombic'
loop_
_space_group_symop_operation_xyz
x,y,z
1/2-x,1/2-y,z
x,1/2-y,-z
1/2-x,y,-z
-x,-y,-z
1/2+x,1/2+y,-z
-x,1/2+y,z
1/2+x,-y,z
loop_
_atom_site_type_symbol
_atom_site_label
_atom_site_fract_x
_atom_site_fract_y
_atom_site_fract_z
Si Si1 0.179810 0.183417 0.217009
Si Si2 0.935357 0.137661 0.707097
Si Si3 0.415738 0.345887 0.619354
Si Si4 0.911046 0.953687 0.952063
Si Si5 0.676106 0.014292 0.451979
Si Si6 0.555133 0.344003 0.106408
O O1 0.250000 0.250000 0.205839
O O2 0.119900 0.273155 0.261670
O O3 0.155076 0.119354 0.083306
O O4 0.185796 0.085046 0.335012
O O5 0.921828 0.049465 0.832126
O O6 0.874173 0.113404 0.606432
O O7 0.940841 0.273678 0.756228
O O8 0.009701 0.106112 0.652005
O O9 0.423645 0.250000 0.500000
O O10 0.364574 0.446036 0.568017
O O11 0.908833 0.029796 0.087116
O O12 0.978248 0.873402 0.940399
O O13 0.750000 0.054458 0.500000
O O14 0.584566 0.250000 0.000000
#
# Coordination Sequence:
#
# PCOD9395447 Si02
#       6
#     8   8   8   8   8   8
#     4  10  17  29  51  78 116 157 192 240 310 365
#     4  10  19  32  51  81 115 152 199 247 292 357
#     4  10  19  30  50  79 118 153 190 242 293 351
#     4   9  18  31  53  82 112 146 192 243 306 349
#     4  10  19  30  47  77 118 160 200 239 299 366
#     4   9  17  32  52  80 113 144 191 252 292 351
#
# _framework density 21.610026999999999
#
# number of rings (size 3 to 8) (size 9 to 14) (size 15 to 20)
#    0.000    2.333    3.333    0.500    0.000    0.000 
#    0.000    0.000    0.000    1.000    0.000    0.000 
#    5.000    0.000    0.000    0.000    0.000    1.333 
#
# Total GULP energy -268167.545981 kJ/mol
# GULP energy per Si atom -5586.823875 kJ/mol
# Density = 2.156084 g / cm^3
# Si number density = 21.610027 Si / 1000 Ang^3
#
#
#
# Elastic Constant Matrix: (Units=GPa)
#
#
# Indices 1 2 3 4 5 6 
#
# 1 154.0444 51.2658 34.8857 0.0000 0.0000 0.0000
# 2 51.2658 91.9621 33.1496 0.0000 0.0000 0.0000
# 3 34.8857 33.1496 34.7211 0.0000 0.0000 0.0000
# 4 0.0000 0.0000 0.0000 22.3147 0.0000 0.0000
# 5 0.0000 0.0000 0.0000 0.0000 24.8772 0.0000
# 6 0.0000 0.0000 0.0000 0.0000 0.0000 34.8670
#
#
#
# Elastic Compliance Matrix: (Units=1/GPa)
#
#
# Indices 1 2 3 4 5 6 
#
# 1 0.008799 -0.002620 -0.006339 0.000000 0.000000 0.000000
# 2 -0.002620 0.017360 -0.013942 0.000000 0.000000 0.000000
# 3 -0.006339 -0.013942 0.048482 0.000000 0.000000 0.000000
# 4 0.000000 0.000000 0.000000 0.044813 0.000000 0.000000
# 5 0.000000 0.000000 0.000000 0.000000 0.040197 0.000000
# 6 0.000000 0.000000 0.000000 0.000000 0.000000 0.028680
#
#
# Mechanical properties :
#
#
# Convention : Reuss Voigt Hill
#
# Bulk Modulus (GPa) = 34.67673 57.70334 46.19003
# Shear Modulus (GPa) = 20.51295 27.17356 23.84325
#
# Velocity S-wave (km/s) = 3.08430 3.54990 3.32526
# Velocity P-wave (km/s) = 5.36333 6.60019 6.01364
#
# Compressibility (1/GPa) = 0.02883778
#
# Stress axis : x y z
#
# Youngs Moduli (GPa) = 113.64571 57.60233 20.62642
#
# Poissons Ratio (x) = 0.15092 0.13076
# Poissons Ratio (y) = 0.29776 0.28758
# Poissons Ratio (z) = 0.72045 0.80310
#
# Static dielectric constant tensor:
#      x y z
#    x 1.732560 0.000000 0.000000 
#    y 0.000000 1.832460 0.000000 
#    z 0.000000 0.000000 1.834430 
# 
# From -- ./inp_files/21775.got.cif
#   From: 2010.05.17/outbox.cif.g08.bks.cpg/sg50_11_cif.got.tgz:21775.got - 2010.06.03 11:33:33.
