data_PCOD9395739
_publ_section_title
;
Structure prediction by ZEFSAII (Michael W. Deem and Ramdas Pophale) SiO2 
 PCOD9395739
Probable space group: P B A N
;
_chemical_formula_sum "Si O2"
_cell_formula_units_Z 56
_cell_length_a 22.626257
_cell_length_b 11.067849
_cell_length_c 12.945519
_cell_angle_alpha 90.000000
_cell_angle_beta 90.000000
_cell_angle_gamma 90.000000
_cell_volume 3241.868597
_symmetry_space_group_name_H-M "P B A N"
_symmetry_group_IT_number 50
_space_group.IT_coordinate_system_code '2'
_symmetry_cell_setting 'orthorhombic'
loop_
_space_group_symop_operation_xyz
x,y,z
1/2-x,1/2-y,z
x,1/2-y,-z
1/2-x,y,-z
-x,-y,-z
1/2+x,1/2+y,-z
-x,1/2+y,z
1/2+x,-y,z
loop_
_atom_site_type_symbol
_atom_site_label
_atom_site_fract_x
_atom_site_fract_y
_atom_site_fract_z
Si Si1 0.041386 0.758250 0.118325
Si Si2 0.767379 0.073704 0.617449
Si Si3 0.854099 0.879229 0.534645
Si Si4 0.959960 0.500572 0.399726
Si Si5 0.619271 0.293865 0.683001
Si Si6 0.361299 0.524388 0.674746
Si Si7 0.034007 0.484627 0.191079
O O1 0.092019 0.795505 0.201426
O O2 0.023657 0.618032 0.142041
O O3 0.991872 0.865243 0.133450
O O4 0.061486 0.750000 0.000000
O O5 0.750000 0.113261 0.500000
O O6 0.812841 0.165445 0.670688
O O7 0.709072 0.045229 0.682875
O O8 0.804649 0.951930 0.596430
O O9 0.833126 0.750000 0.500000
O O10 0.915404 0.885336 0.597621
O O11 0.868747 0.945203 0.426986
O O12 0.917461 0.384205 0.389181
O O13 0.000000 0.500000 0.500000
O O14 0.999873 0.493581 0.299424
O O15 0.612967 0.156337 0.649675
O O16 0.397120 0.475810 0.773648
#
# Coordination Sequence:
#
# PCOD9395739 Si02
#       7
#     8   8   8   8   8   8   8
#     4  10  21  39  60  79 109 138 185 241 284 323
#     4   9  19  33  49  74 108 148 181 216 265 321
#     4  10  21  31  47  70 109 156 184 208 255 315
#     4  10  19  33  49  76 113 142 169 218 269 331
#     4   9  20  34  52  79 103 135 187 220 273 326
#     4  10  19  32  49  73 105 139 180 218 257 326
#     4  10  21  35  54  86 105 142 182 222 283 342
#
# _framework density 17.273989
#
# number of rings (size 3 to 8) (size 9 to 14) (size 15 to 20)
#    0.000    2.286    1.429    0.857    2.000   10.571 
#    2.571    0.000    0.000    6.857    0.000    0.000 
#    0.000    0.000    0.000    0.000    0.000    0.000 
#
# Total GULP energy -311902.537124 kJ/mol
# GULP energy per Si atom -5569.688163 kJ/mol
# Density = 1.723467 g / cm^3
# Si number density = 17.273989 Si / 1000 Ang^3
#
#
#
# Elastic Constant Matrix: (Units=GPa)
#
#
# Indices 1 2 3 4 5 6 
#
# 1 93.2897 25.6368 26.8395 0.0000 0.0000 0.0000
# 2 25.6368 80.7828 27.5130 0.0000 0.0000 0.0000
# 3 26.8395 27.5130 78.8263 0.0000 0.0000 0.0000
# 4 0.0000 0.0000 0.0000 18.1963 0.0000 0.0000
# 5 0.0000 0.0000 0.0000 0.0000 11.4130 0.0000
# 6 0.0000 0.0000 0.0000 0.0000 0.0000 13.0668
#
#
#
# Elastic Compliance Matrix: (Units=1/GPa)
#
#
# Indices 1 2 3 4 5 6 
#
# 1 0.012433 -0.002842 -0.003241 0.000000 0.000000 0.000000
# 2 -0.002842 0.014698 -0.004163 0.000000 0.000000 0.000000
# 3 -0.003241 -0.004163 0.015243 0.000000 0.000000 0.000000
# 4 0.000000 0.000000 0.000000 0.054956 0.000000 0.000000
# 5 0.000000 0.000000 0.000000 0.000000 0.087619 0.000000
# 6 0.000000 0.000000 0.000000 0.000000 0.000000 0.076530
#
#
# Mechanical properties :
#
#
# Convention : Reuss Voigt Hill
#
# Bulk Modulus (GPa) = 45.69878 45.87528 45.78703
# Shear Modulus (GPa) = 17.28519 20.06251 18.67385
#
# Velocity S-wave (km/s) = 3.16673 3.41167 3.29148
# Velocity P-wave (km/s) = 6.31535 6.49110 6.40383
#
# Compressibility (1/GPa) = 0.02188242
#
# Stress axis : x y z
#
# Youngs Moduli (GPa) = 80.43270 68.03453 65.60520
#
# Poissons Ratio (x) = 0.19333 0.21265
# Poissons Ratio (y) = 0.22856 0.27309
# Poissons Ratio (z) = 0.26071 0.28321
#
# Static dielectric constant tensor:
#      x y z
#    x 1.654280 0.000000 0.000000 
#    y 0.000000 1.626720 0.000000 
#    z 0.000000 0.000000 1.559350 
# 
# From -- ./inp_files/22853.got.cif
#   From: 2010.05.17/outbox.cif.g08.bks.cpg/sg50_12_cif.got.tgz:22853.got - 2010.06.03 11:33:33.
