data_PCOD9395212
_publ_section_title
;
Structure prediction by ZEFSAII (Michael W. Deem and Ramdas Pophale) SiO2 
 PCOD9395212
Probable space group: P C C M
;
_chemical_formula_sum "Si O2"
_cell_formula_units_Z 64
_cell_length_a 24.000000
_cell_length_b 18.000000
_cell_length_c 9.000000
_cell_angle_alpha 90.000000
_cell_angle_beta 90.000000
_cell_angle_gamma 90.000000
_cell_volume 3888.000000
_symmetry_space_group_name_H-M "P C C M"
_symmetry_group_IT_number 49
_symmetry_cell_setting 'orthorhombic'
loop_
_space_group_symop_operation_xyz
x,y,z
-x,-y,z
x,-y,1/2-z
-x,y,1/2-z
-x,-y,-z
x,y,-z
-x,y,1/2+z
x,-y,1/2+z
loop_
_atom_site_type_symbol
_atom_site_label
_atom_site_fract_x
_atom_site_fract_y
_atom_site_fract_z
Si Si1 0.155668 0.689410 0.330356
Si Si2 0.555579 0.768790 0.320949
Si Si3 0.229195 0.795145 0.166358
Si Si4 0.666280 0.318211 0.830156
Si Si5 0.280174 0.926794 0.327060
Si Si6 0.410377 0.077818 0.820892
Si Si7 0.939658 0.575660 0.822216
Si Si8 0.742046 0.426286 0.667125
O O1 0.151429 0.717838 0.500000
O O2 0.174517 0.751257 0.215106
O O3 0.100480 0.644462 0.291874
O O4 0.206487 0.630570 0.329515
O O5 0.500000 0.735229 0.250000
O O6 0.552657 0.772897 0.500000
O O7 0.610545 0.722467 0.277893
O O8 0.561732 0.850923 0.252391
O O9 0.282551 0.740250 0.170673
O O10 0.243250 0.858009 0.282665
O O11 0.225266 0.825097 0.000000
O O12 0.688566 0.386740 0.737010
O O13 0.657382 0.341356 0.000000
O O14 0.281620 0.938742 0.500000
O O15 0.344586 0.914733 0.280706
O O16 0.258574 0.000000 0.250000
O O17 0.429536 0.000000 0.750000
O O18 0.416720 0.077382 0.000000
O O19 0.916417 0.500000 0.750000
O O20 0.000000 0.586670 0.750000
O O21 0.943919 0.566252 0.000000
O O22 0.758673 0.500000 0.750000
O O23 0.729346 0.446163 0.500000
#
# Coordination Sequence:
#
# PCOD9395212 Si02
#       8
#     8   8   8   8   8   8   8   8
#     4   9  19  32  46  69  99 131 164 201 239 279
#     4  11  22  36  52  70  93 119 153 193 233 282
#     4  10  18  30  49  71  95 124 158 196 240 285
#     4   9  19  34  50  68  93 120 149 187 231 282
#     4  10  19  30  47  69  96 127 159 193 233 285
#     4  10  20  33  50  70  93 123 156 192 232 276
#     4  10  19  31  47  67  97 135 175 210 242 281
#     4  10  19  31  50  73  97 122 152 189 234 283
#
# _framework density 16.460905
#
# number of rings (size 3 to 8) (size 9 to 14) (size 15 to 20)
#    0.000    2.125    1.250    3.000    0.000    4.250 
#    0.000    1.250    0.000    0.375    0.000    2.625 
#    0.000    0.500    0.000    5.250    0.000    2.875 
#
# Total GULP energy -356739.061037 kJ/mol
# GULP energy per Si atom -5574.047829 kJ/mol
# Density = 1.642344 g / cm^3
# Si number density = 16.460905 Si / 1000 Ang^3
#
#
#
# Elastic Constant Matrix: (Units=GPa)
#
#
# Indices 1 2 3 4 5 6 
#
# 1 54.4717 5.9950 15.7002 0.0000 0.0000 0.0000
# 2 5.9950 5.4767 11.4039 0.0000 0.0000 0.0000
# 3 15.7002 11.4039 24.6274 0.0000 0.0000 0.0000
# 4 0.0000 0.0000 0.0000 26.1058 0.0000 0.0000
# 5 0.0000 0.0000 0.0000 0.0000 15.7206 0.0000
# 6 0.0000 0.0000 0.0000 0.0000 0.0000 16.0866
#
#
#
# Elastic Compliance Matrix: (Units=1/GPa)
#
#
# Indices 1 2 3 4 5 6 
#
# 1 0.027651 0.179911 -0.100937 0.000000 0.000000 0.000000
# 2 0.179911 6.273229 -3.019573 0.000000 0.000000 0.000000
# 3 -0.100937 -3.019573 1.503195 0.000000 0.000000 0.000000
# 4 0.000000 0.000000 0.000000 0.038306 0.000000 0.000000
# 5 0.000000 0.000000 0.000000 0.000000 0.063611 0.000000
# 6 0.000000 0.000000 0.000000 0.000000 0.000000 0.062163
#
#
# Mechanical properties :
#
#
# Convention : Reuss Voigt Hill
#
# Bulk Modulus (GPa) = 0.52005 16.75268 8.63637
# Shear Modulus (GPa) = 0.34506 15.01439 7.67972
#
# Velocity S-wave (km/s) = 0.45834 3.02342 2.16230
# Velocity P-wave (km/s) = 0.77248 4.73153 3.38999
#
# Compressibility (1/GPa) = 1.92287650
#
# Stress axis : x y z
#
# Youngs Moduli (GPa) = 36.16570 0.15941 0.66525
#
# Poissons Ratio (x) = -0.02868 0.06715
# Poissons Ratio (y) = -6.50660 2.00877
# Poissons Ratio (z) = 3.65046 0.48134
#
# Static dielectric constant tensor:
#      x y z
#    x 1.553010 0.000000 0.000000 
#    y 0.000000 1.500370 0.000000 
#    z 0.000000 0.000000 1.572870 
# 
# From -- ./inp_files/5344.got.cif
#   From: 2010.05.17/outbox.ucp.g08.bks.cvg/sg49_3_cif.got.tgz:5344.got - 2010.06.11 16:40:14.
