data_PCOD9395944
_publ_section_title
;
Structure prediction by ZEFSAII (Michael W. Deem and Ramdas Pophale) SiO2 
 PCOD9395944
Probable space group: P B A N
;
_chemical_formula_sum "Si O2"
_cell_formula_units_Z 38
_cell_length_a 4.996223
_cell_length_b 13.388757
_cell_length_c 25.345515
_cell_angle_alpha 90.000000
_cell_angle_beta 90.000000
_cell_angle_gamma 90.000000
_cell_volume 1695.443001
_symmetry_space_group_name_H-M "P B A N"
_symmetry_group_IT_number 50
_space_group.IT_coordinate_system_code '2'
_symmetry_cell_setting 'orthorhombic'
loop_
_space_group_symop_operation_xyz
x,y,z
1/2-x,1/2-y,z
x,1/2-y,-z
1/2-x,y,-z
-x,-y,-z
1/2+x,1/2+y,-z
-x,1/2+y,z
1/2+x,-y,z
loop_
_atom_site_type_symbol
_atom_site_label
_atom_site_fract_x
_atom_site_fract_y
_atom_site_fract_z
Si Si1 0.007986 0.561729 0.689564
Si Si2 0.491919 0.188497 0.210833
Si Si3 0.750000 0.926029 0.000000
Si Si4 0.750000 0.250000 0.500000
Si Si5 0.061119 0.574204 0.571224
Si Si6 0.261757 0.430798 0.114570
O O1 0.693988 0.536786 0.690460
O O2 0.089890 0.617252 0.742652
O O3 0.067391 0.608472 0.632606
O O4 0.250000 0.250000 0.236589
O O5 0.342235 0.135165 0.162393
O O6 0.750000 0.250000 0.192169
O O7 0.737681 0.876605 0.942456
O O8 0.500000 0.000000 0.000000
O O9 0.919606 0.327446 0.464384
O O10 0.306928 0.497475 0.562788
O O11 0.562906 0.472930 0.117338
#
# Coordination Sequence:
#
# PCOD9395944 Si02
#       6
#     8   8   4   2   8   8
#     4  10  21  42  63  85 119 163 204 256 306 361
#     4  12  24  36  57  90 124 154 200 250 307 377
#     4   8  16  30  55  82 103 140 200 242 274 346
#     4  12  24  42  72  96 132 178 208 270 338 368
#     4  10  24  43  65  96 130 165 220 267 317 391
#     4  10  19  36  59  82 111 154 199 244 295 355
#
# _framework density 22.413021000000001
#
# number of rings (size 3 to 8) (size 9 to 14) (size 15 to 20)
#    0.000    1.684    0.000    4.421    1.474    1.684 
#    0.000    0.526    0.000    1.263    0.000    0.000 
#    0.000    0.000    0.000    0.000    0.000    0.000 
#
# Total GULP energy -212102.398067 kJ/mol
# GULP energy per Si atom -5581.642054 kJ/mol
# Density = 2.236201 g / cm^3
# Si number density = 22.413021 Si / 1000 Ang^3
#
#
#
# Elastic Constant Matrix: (Units=GPa)
#
#
# Indices 1 2 3 4 5 6 
#
# 1 110.3962 7.6977 1.3757 0.0000 0.0000 0.0000
# 2 7.6977 65.6855 54.5422 0.0000 0.0000 0.0000
# 3 1.3757 54.5422 168.3561 0.0000 0.0000 0.0000
# 4 0.0000 0.0000 0.0000 -28.1461 0.0000 0.0000
# 5 0.0000 0.0000 0.0000 0.0000 23.8594 0.0000
# 6 0.0000 0.0000 0.0000 0.0000 0.0000 12.1050
#
#
#
# Elastic Compliance Matrix: (Units=1/GPa)
#
#
# Indices 1 2 3 4 5 6 
#
# 1 0.009150 -0.001382 0.000373 0.000000 0.000000 0.000000
# 2 -0.001382 0.021035 -0.006804 0.000000 0.000000 0.000000
# 3 0.000373 -0.006804 0.008141 0.000000 0.000000 0.000000
# 4 0.000000 0.000000 0.000000 -0.035529 0.000000 0.000000
# 5 0.000000 0.000000 0.000000 0.000000 0.041912 0.000000
# 6 0.000000 0.000000 0.000000 0.000000 0.000000 0.082610
#
#
# Mechanical properties :
#
#
# Convention : Reuss Voigt Hill
#
# Bulk Modulus (GPa) = 44.05066 52.40767 48.22917
# Shear Modulus (GPa) = 33.21995 20.28514 26.75254
#
# Velocity S-wave (km/s) = 3.85408 3.01169 3.45862
# Velocity P-wave (km/s) = 6.28505 5.96046 6.12491
#
# Compressibility (1/GPa) = 0.02270114
#
# Stress axis : x y z
#
# Youngs Moduli (GPa) = 109.28971 47.53909 122.83696
#
# Poissons Ratio (x) = 0.06570 -0.04581
# Poissons Ratio (y) = 0.15103 0.83572
# Poissons Ratio (z) = -0.04076 0.32343
#
# Static dielectric constant tensor:
#      x y z
#    x 1.839960 0.000000 0.000000 
#    y 0.000000 1.837750 0.000000 
#    z 0.000000 0.000000 1.900090 
# 
# From -- ./inp_files/31989.got.cif
#   From: 2010.05.17/outbox.cif.g08.bks.cpg/sg50_16_cif.got.tgz:31989.got - 2010.06.03 11:33:33.
