data_PCOD9395304
_publ_section_title
;
Structure prediction by ZEFSAII (Michael W. Deem and Ramdas Pophale) SiO2 
 PCOD9395304
Probable space group: P C C M
;
_chemical_formula_sum "Si O2"
_cell_formula_units_Z 64
_cell_length_a 12.000000
_cell_length_b 15.000000
_cell_length_c 18.000000
_cell_angle_alpha 90.000000
_cell_angle_beta 90.000000
_cell_angle_gamma 90.000000
_cell_volume 3240.000000
_symmetry_space_group_name_H-M "P C C M"
_symmetry_group_IT_number 49
_symmetry_cell_setting 'orthorhombic'
loop_
_space_group_symop_operation_xyz
x,y,z
-x,-y,z
x,-y,1/2-z
-x,y,1/2-z
-x,-y,-z
x,y,-z
-x,y,1/2+z
x,-y,1/2+z
loop_
_atom_site_type_symbol
_atom_site_label
_atom_site_fract_x
_atom_site_fract_y
_atom_site_fract_z
Si Si1 0.370281 0.033317 0.334193
Si Si2 0.749417 0.489143 0.087271
Si Si3 0.684099 0.759199 0.335351
Si Si4 0.129135 0.027772 0.087795
Si Si5 0.532640 0.630261 0.584232
Si Si6 0.891202 0.309268 0.088421
Si Si7 0.688204 0.654361 0.178759
Si Si8 0.863818 0.241031 0.413239
O O1 0.361532 0.140983 0.327673
O O2 0.500000 0.000000 0.359430
O O3 0.361143 0.000000 0.250000
O O4 0.251188 0.003272 0.375901
O O5 0.623397 0.449028 0.091457
O O6 0.838592 0.408784 0.099311
O O7 0.752951 0.563600 0.152067
O O8 0.764650 0.519337 0.000000
O O9 0.610814 0.714942 0.400323
O O10 0.811618 0.754990 0.363620
O O11 0.677102 0.693216 0.262716
O O12 0.124656 0.134975 0.094371
O O13 0.135455 0.002459 0.000000
O O14 0.000000 0.000000 0.112980
O O15 0.488411 0.628951 0.500000
O O16 0.433616 0.637947 0.643347
O O17 0.020536 0.291729 0.107510
O O18 0.880106 0.290355 0.000000
O O19 0.759535 0.728054 0.135155
O O20 0.842972 0.261277 0.500000
#
# Coordination Sequence:
#
# PCOD9395304 Si02
#       8
#     8   8   8   8   8   8   8   8
#     4  11  26  43  64  89 132 175 214 273 334 403
#     4   9  19  38  62  91 125 168 214 253 308 378
#     4  11  24  40  63  87 120 167 209 255 321 382
#     4  10  22  42  68  98 129 165 221 282 331 392
#     4  10  22  39  62  87 120 164 208 254 304 373
#     4   9  20  41  64  89 125 168 213 254 307 381
#     4  12  23  35  59  92 129 160 203 262 313 365
#     4  10  21  37  62  92 124 163 207 261 319 373
#
# _framework density 19.753086
#
# number of rings (size 3 to 8) (size 9 to 14) (size 15 to 20)
#    0.000    1.750    0.000    4.500    5.250    6.500 
#    0.000    6.875    0.000    3.000    0.000    0.000 
#    0.000    0.000    0.000    0.000    0.000    0.000 
#
# Total GULP energy -356589.056501 kJ/mol
# GULP energy per Si atom -5571.704008 kJ/mol
# Density = 1.970813 g / cm^3
# Si number density = 19.753086 Si / 1000 Ang^3
#
#
#
# Elastic Constant Matrix: (Units=GPa)
#
#
# Indices 1 2 3 4 5 6 
#
# 1 106.1169 13.4784 25.6533 0.0000 0.0000 0.0000
# 2 13.4784 98.7139 23.9373 0.0000 0.0000 0.0000
# 3 25.6533 23.9373 64.2713 0.0000 0.0000 0.0000
# 4 0.0000 0.0000 0.0000 26.8882 0.0000 0.0000
# 5 0.0000 0.0000 0.0000 0.0000 36.6163 0.0000
# 6 0.0000 0.0000 0.0000 0.0000 0.0000 28.0775
#
#
#
# Elastic Compliance Matrix: (Units=1/GPa)
#
#
# Indices 1 2 3 4 5 6 
#
# 1 0.010449 -0.000457 -0.004000 0.000000 0.000000 0.000000
# 2 -0.000457 0.011156 -0.003973 0.000000 0.000000 0.000000
# 3 -0.004000 -0.003973 0.018635 0.000000 0.000000 0.000000
# 4 0.000000 0.000000 0.000000 0.037191 0.000000 0.000000
# 5 0.000000 0.000000 0.000000 0.000000 0.027310 0.000000
# 6 0.000000 0.000000 0.000000 0.000000 0.000000 0.035616
#
#
# Mechanical properties :
#
#
# Convention : Reuss Voigt Hill
#
# Bulk Modulus (GPa) = 42.77059 43.91558 43.34309
# Shear Modulus (GPa) = 30.30121 32.05195 31.17658
#
# Velocity S-wave (km/s) = 3.92088 4.03256 3.97711
# Velocity P-wave (km/s) = 6.49595 6.63043 6.56353
#
# Compressibility (1/GPa) = 0.02338055
#
# Stress axis : x y z
#
# Youngs Moduli (GPa) = 95.70617 89.63806 53.66136
#
# Poissons Ratio (x) = 0.04093 0.21467
# Poissons Ratio (y) = 0.04370 0.21318
# Poissons Ratio (z) = 0.38287 0.35611
#
# Static dielectric constant tensor:
#      x y z
#    x 1.716250 0.000000 0.000000 
#    y 0.000000 1.751810 0.000000 
#    z 0.000000 0.000000 1.697380 
# 
# From -- ./inp_files/17264.got.cif
#   From: 2010.05.17/outbox.ucp.g08.bks.cvg/sg49_9_cif.got.tgz:17264.got - 2010.06.11 16:40:14.
