data_PCOD9395842
_publ_section_title
;
Structure prediction by ZEFSAII (Michael W. Deem and Ramdas Pophale) SiO2 
 PCOD9395842
Probable space group: P B A N
;
_chemical_formula_sum "Si O2"
_cell_formula_units_Z 32
_cell_length_a 19.208401
_cell_length_b 14.591823
_cell_length_c 5.158598
_cell_angle_alpha 90.000000
_cell_angle_beta 90.000000
_cell_angle_gamma 90.000000
_cell_volume 1445.880671
_symmetry_space_group_name_H-M "P B A N"
_symmetry_group_IT_number 50
_space_group.IT_coordinate_system_code '2'
_symmetry_cell_setting 'orthorhombic'
loop_
_space_group_symop_operation_xyz
x,y,z
1/2-x,1/2-y,z
x,1/2-y,-z
1/2-x,y,-z
-x,-y,-z
1/2+x,1/2+y,-z
-x,1/2+y,z
1/2+x,-y,z
loop_
_atom_site_type_symbol
_atom_site_label
_atom_site_fract_x
_atom_site_fract_y
_atom_site_fract_z
Si Si1 0.965514 0.099174 0.439806
Si Si2 0.794239 0.563637 0.234754
Si Si3 0.574296 0.049293 0.067091
Si Si4 0.652217 0.750000 0.000000
Si Si5 0.571235 0.750000 0.500000
O O1 0.938023 0.127904 0.721719
O O2 0.024719 0.171246 0.370418
O O3 0.908637 0.087250 0.216927
O O4 0.000000 0.000000 0.500000
O O5 0.750000 0.558517 0.500000
O O6 0.868914 0.514799 0.205075
O O7 0.808646 0.669055 0.153105
O O8 0.750000 0.522277 0.000000
O O9 0.500000 0.000000 0.000000
O O10 0.611627 0.707413 0.250544
#
# Coordination Sequence:
#
# PCOD9395842 Si02
#       5
#     8   8   8   4   4
#     4  10  19  34  56  88 122 158 206 264 317 374
#     4  12  25  41  60  89 128 177 220 261 324 403
#     4  10  20  38  60  83 117 161 212 266 311 366
#     4  12  23  38  56  86 134 178 211 252 315 412
#     4  12  22  36  63  96 129 170 214 272 338 390
#
# _framework density 22.131841000000001
#
# number of rings (size 3 to 8) (size 9 to 14) (size 15 to 20)
#    0.000    1.000    0.000   10.875    0.000    1.000 
#    0.000    0.000    0.000    0.000    0.000   13.125 
#    0.000    0.000    0.000    0.000    0.000    0.000 
#
# Total GULP energy -178190.459041 kJ/mol
# GULP energy per Si atom -5568.451845 kJ/mol
# Density = 2.208147 g / cm^3
# Si number density = 22.131841 Si / 1000 Ang^3
#
#
#
# Elastic Constant Matrix: (Units=GPa)
#
#
# Indices 1 2 3 4 5 6 
#
# 1 110.0669 24.8005 56.9439 0.0000 0.0000 0.0000
# 2 24.8005 25.8818 14.4300 0.0000 0.0000 0.0000
# 3 56.9439 14.4300 234.5005 0.0000 0.0000 0.0000
# 4 0.0000 0.0000 0.0000 21.8381 0.0000 0.0000
# 5 0.0000 0.0000 0.0000 0.0000 49.5261 0.0000
# 6 0.0000 0.0000 0.0000 0.0000 0.0000 29.6772
#
#
#
# Elastic Compliance Matrix: (Units=1/GPa)
#
#
# Indices 1 2 3 4 5 6 
#
# 1 0.012805 -0.010911 -0.002438 0.000000 0.000000 0.000000
# 2 -0.010911 0.049307 -0.000385 0.000000 0.000000 0.000000
# 3 -0.002438 -0.000385 0.004880 0.000000 0.000000 0.000000
# 4 0.000000 0.000000 0.000000 0.045792 0.000000 0.000000
# 5 0.000000 0.000000 0.000000 0.000000 0.020191 0.000000
# 6 0.000000 0.000000 0.000000 0.000000 0.000000 0.033696
#
#
# Mechanical properties :
#
#
# Convention : Reuss Voigt Hill
#
# Bulk Modulus (GPa) = 25.30058 62.53313 43.91686
# Shear Modulus (GPa) = 24.11812 38.49325 31.30569
#
# Velocity S-wave (km/s) = 3.30471 4.17498 3.76508
# Velocity P-wave (km/s) = 5.10079 7.18031 6.22796
#
# Compressibility (1/GPa) = 0.03952478
#
# Stress axis : x y z
#
# Youngs Moduli (GPa) = 78.09314 20.28123 204.91409
#
# Poissons Ratio (x) = 0.22129 0.49960
# Poissons Ratio (y) = 0.85207 0.07881
# Poissons Ratio (z) = 0.19040 0.00780
#
# Static dielectric constant tensor:
#      x y z
#    x 2.114280 0.000000 0.000000 
#    y 0.000000 1.861490 0.000000 
#    z 0.000000 0.000000 2.156500 
# 
# From -- ./inp_files/4014.got.cif
#   From: 2010.05.17/outbox.cif.g08.bks.cpg/sg50_3_cif.got.tgz:4014.got - 2010.06.03 11:33:33.
