data_PCOD9395290
_publ_section_title
;
Structure prediction by ZEFSAII (Michael W. Deem and Ramdas Pophale) SiO2 
 PCOD9395290
Probable space group: P C C M
;
_chemical_formula_sum "Si O2"
_cell_formula_units_Z 64
_cell_length_a 12.000000
_cell_length_b 15.000000
_cell_length_c 18.000000
_cell_angle_alpha 90.000000
_cell_angle_beta 90.000000
_cell_angle_gamma 90.000000
_cell_volume 3240.000000
_symmetry_space_group_name_H-M "P C C M"
_symmetry_group_IT_number 49
_symmetry_cell_setting 'orthorhombic'
loop_
_space_group_symop_operation_xyz
x,y,z
-x,-y,z
x,-y,1/2-z
-x,y,1/2-z
-x,-y,-z
x,y,-z
-x,y,1/2+z
x,-y,1/2+z
loop_
_atom_site_type_symbol
_atom_site_label
_atom_site_fract_x
_atom_site_fract_y
_atom_site_fract_z
Si Si1 0.852967 0.762565 0.320255
Si Si2 0.370856 0.473477 0.914584
Si Si3 0.512704 0.805384 0.662699
Si Si4 0.324778 0.720598 0.585698
Si Si5 0.888096 0.234093 0.656623
Si Si6 0.709742 0.059957 0.175291
Si Si7 0.120930 0.951700 0.586321
Si Si8 0.675078 0.663804 0.589125
O O1 0.844252 0.729431 0.235443
O O2 0.799304 0.860579 0.312712
O O3 0.783380 0.713425 0.382633
O O4 0.980410 0.753715 0.343769
O O5 0.500000 0.500000 0.917206
O O6 0.356247 0.376173 0.881008
O O7 0.317650 0.562450 0.881944
O O8 0.330287 0.464653 0.000000
O O9 0.500000 0.790207 0.750000
O O10 0.389395 0.800103 0.627850
O O11 0.592139 0.892181 0.655094
O O12 0.576245 0.722935 0.623682
O O13 0.359346 0.724881 0.500000
O O14 0.192499 0.727151 0.594446
O O15 0.877613 0.128547 0.644481
O O16 0.697445 0.000000 0.250000
O O17 0.769998 0.008001 0.108318
O O18 0.127851 0.922986 0.500000
O O19 0.000000 0.000000 0.594112
O O20 0.662202 0.661997 0.500000
#
# Coordination Sequence:
#
# PCOD9395290 Si02
#       8
#     8   8   8   8   8   8   8   8
#     4  10  22  38  65  88 119 161 204 249 315 375
#     4   9  17  35  61  90 122 160 207 251 304 370
#     4  11  24  40  57  87 124 160 206 250 308 370
#     4  11  22  39  64  90 125 168 202 250 314 374
#     4  11  22  41  59  89 125 162 201 252 309 379
#     4  11  22  40  63  84 114 160 208 255 306 364
#     4  11  23  38  61  92 121 151 203 263 309 360
#     4  10  20  38  65  94 121 153 205 267 306 354
#
# _framework density 19.753086
#
# number of rings (size 3 to 8) (size 9 to 14) (size 15 to 20)
#    0.000    1.500    3.750    2.250    0.000    4.000 
#    0.000    3.750    0.000    5.250    0.000    0.000 
#    0.000    0.000    0.000    0.000    0.000    0.000 
#
# Total GULP energy -356504.844620 kJ/mol
# GULP energy per Si atom -5570.388197 kJ/mol
# Density = 1.970813 g / cm^3
# Si number density = 19.753086 Si / 1000 Ang^3
#
#
#
# Elastic Constant Matrix: (Units=GPa)
#
#
# Indices 1 2 3 4 5 6 
#
# 1 59.7560 30.9630 36.1034 0.0000 0.0000 0.0000
# 2 30.9630 56.7842 21.7310 0.0000 0.0000 0.0000
# 3 36.1034 21.7310 63.6417 0.0000 0.0000 0.0000
# 4 0.0000 0.0000 0.0000 -617.4721 0.0000 0.0000
# 5 0.0000 0.0000 0.0000 0.0000 18.3273 0.0000
# 6 0.0000 0.0000 0.0000 0.0000 0.0000 15.6542
#
#
#
# Elastic Compliance Matrix: (Units=1/GPa)
#
#
# Indices 1 2 3 4 5 6 
#
# 1 0.031017 -0.011709 -0.013598 0.000000 0.000000 0.000000
# 2 -0.011709 0.024678 -0.001784 0.000000 0.000000 0.000000
# 3 -0.013598 -0.001784 0.024036 0.000000 0.000000 0.000000
# 4 0.000000 0.000000 0.000000 -0.001620 0.000000 0.000000
# 5 0.000000 0.000000 0.000000 0.000000 0.054563 0.000000
# 6 0.000000 0.000000 0.000000 0.000000 0.000000 0.063881
#
#
# Mechanical properties :
#
#
# Convention : Reuss Voigt Hill
#
# Bulk Modulus (GPa) = 39.13958 39.75297 39.44628
# Shear Modulus (GPa) = 19.28608 -110.60582 -45.65987
#
# Velocity S-wave (km/s) = 3.12806 -7.49104 -4.81305
# Velocity P-wave (km/s) = 5.73618 7.39272 3.29762
#
# Compressibility (1/GPa) = 0.02554958
#
# Stress axis : x y z
#
# Youngs Moduli (GPa) = 32.23990 40.52192 41.60432
#
# Poissons Ratio (x) = 0.47448 0.56572
# Poissons Ratio (y) = 0.37751 0.07422
# Poissons Ratio (z) = 0.43839 0.07229
#
# Static dielectric constant tensor:
#      x y z
#    x 1.795520 0.000000 0.000000 
#    y 0.000000 1.820010 0.000000 
#    z 0.000000 0.000000 1.691840 
# 
# From -- ./inp_files/17302.got.cif
#   From: 2010.05.17/outbox.ucp.g08.bks.cvg/sg49_9_cif.got.tgz:17302.got - 2010.06.11 16:40:14.
