data_PCOD9395194
_publ_section_title
;
Structure prediction by ZEFSAII (Michael W. Deem and Ramdas Pophale) SiO2 
 PCOD9395194
Probable space group: P C C M
;
_chemical_formula_sum "Si O2"
_cell_formula_units_Z 48
_cell_length_a 17.998836
_cell_length_b 8.471341
_cell_length_c 12.866159
_cell_angle_alpha 90.000000
_cell_angle_beta 90.000000
_cell_angle_gamma 90.000000
_cell_volume 1961.758296
_symmetry_space_group_name_H-M "P C C M"
_symmetry_group_IT_number 49
_symmetry_cell_setting 'orthorhombic'
loop_
_space_group_symop_operation_xyz
x,y,z
-x,-y,z
x,-y,1/2-z
-x,y,1/2-z
-x,-y,-z
x,y,-z
-x,y,1/2+z
x,-y,1/2+z
loop_
_atom_site_type_symbol
_atom_site_label
_atom_site_fract_x
_atom_site_fract_y
_atom_site_fract_z
Si Si1 0.193974 0.745815 0.879491
Si Si2 0.980907 0.313600 0.125112
Si Si3 0.732269 0.579025 0.125253
Si Si4 0.735898 0.926300 0.124907
Si Si5 0.419931 0.429171 0.624329
Si Si6 0.419851 0.071884 0.624305
O O1 0.105868 0.726414 0.876836
O O2 0.228441 0.582077 0.839922
O O3 0.221069 0.916187 0.840855
O O4 0.219094 0.748450 0.000000
O O5 0.000000 0.500000 0.125262
O O6 0.000000 0.262165 0.250000
O O7 0.006497 0.263472 0.000000
O O8 0.645688 0.550823 0.149039
O O9 0.759791 0.751382 0.158825
O O10 0.740399 0.581461 0.000000
O O11 0.649214 0.958330 0.148288
O O12 0.743286 0.922112 0.000000
O O13 0.500000 0.500000 0.647293
O O14 0.416189 0.415110 0.500000
O O15 0.410397 0.250597 0.664647
O O16 0.417899 0.084393 0.500000
O O17 0.500000 0.000000 0.648260
#
# Coordination Sequence:
#
# PCOD9395194 Si02
#       6
#     8   8   8   8   8   8
#     4   9  16  28  46  70 104 146 199 263 324 396
#     4   9  18  34  60  94 130 172 223 279 349 430
#     4   9  15  23  36  57  89 135 196 262 324 388
#     4   9  15  23  36  57  89 135 197 264 323 385
#     4   9  14  19  27  44  77 126 190 262 323 379
#     4   9  14  19  27  44  77 126 191 263 322 378
#
# _framework density 24.467846000000002
#
# number of rings (size 3 to 8) (size 9 to 14) (size 15 to 20)
#    0.000    3.000    1.667    1.000    0.000    4.000 
#    0.000    0.000    0.000    2.000    0.000    9.333 
#    0.000    0.000    0.000    3.000    1.333   31.333 
#
# Total GULP energy -267474.201490 kJ/mol
# GULP energy per Si atom -5572.379198 kJ/mol
# Density = 2.441216 g / cm^3
# Si number density = 24.467846 Si / 1000 Ang^3
#
#
#
# Elastic Constant Matrix: (Units=GPa)
#
#
# Indices 1 2 3 4 5 6 
#
# 1 64.1188 63.3065 7.5777 0.0000 0.0000 0.0000
# 2 63.3065 225.8151 72.7213 0.0000 0.0000 0.0000
# 3 7.5777 72.7213 173.5351 0.0000 0.0000 0.0000
# 4 0.0000 0.0000 0.0000 51.5808 0.0000 0.0000
# 5 0.0000 0.0000 0.0000 0.0000 301.4770 0.0000
# 6 0.0000 0.0000 0.0000 0.0000 0.0000 22.2661
#
#
#
# Elastic Compliance Matrix: (Units=1/GPa)
#
#
# Indices 1 2 3 4 5 6 
#
# 1 0.022086 -0.006799 0.001885 0.000000 0.000000 0.000000
# 2 -0.006799 0.007212 -0.002725 0.000000 0.000000 0.000000
# 3 0.001885 -0.002725 0.006822 0.000000 0.000000 0.000000
# 4 0.000000 0.000000 0.000000 0.019387 0.000000 0.000000
# 5 0.000000 0.000000 0.000000 0.000000 0.003317 0.000000
# 6 0.000000 0.000000 0.000000 0.000000 0.000000 0.044911
#
#
# Mechanical properties :
#
#
# Convention : Reuss Voigt Hill
#
# Bulk Modulus (GPa) = 47.98147 83.40887 65.69517
# Shear Modulus (GPa) = 39.69471 96.38901 68.04186
#
# Velocity S-wave (km/s) = 4.03217 6.28329 5.27912
# Velocity P-wave (km/s) = 6.42888 9.31680 8.00416
#
# Compressibility (1/GPa) = 0.02084138
#
# Stress axis : x y z
#
# Youngs Moduli (GPa) = 45.27800 138.65695 146.57753
#
# Poissons Ratio (x) = 0.94267 -0.27624
# Poissons Ratio (y) = 0.30783 0.39948
# Poissons Ratio (z) = -0.08533 0.37790
#
# Static dielectric constant tensor:
#      x y z
#    x 1.857080 0.000000 0.000000 
#    y 0.000000 1.831240 0.000000 
#    z 0.000000 0.000000 2.450240 
# 
# From -- ./inp_files/14027.got.cif
#   From: 2010.05.17/outbox.cif.g08.bks.cpg/sg49_8_cif.got.tgz:14027.got - 2010.06.03 21:02:19.
