data_PCOD9395141
_publ_section_title
;
Structure prediction by ZEFSAII (Michael W. Deem and Ramdas Pophale) SiO2 
 PCOD9395141
Probable space group: P C C M
;
_chemical_formula_sum "Si O2"
_cell_formula_units_Z 34
_cell_length_a 13.684196
_cell_length_b 5.042894
_cell_length_c 22.043934
_cell_angle_alpha 90.000000
_cell_angle_beta 90.000000
_cell_angle_gamma 90.000000
_cell_volume 1521.206693
_symmetry_space_group_name_H-M "P C C M"
_symmetry_group_IT_number 49
_symmetry_cell_setting 'orthorhombic'
loop_
_space_group_symop_operation_xyz
x,y,z
-x,-y,z
x,-y,1/2-z
-x,y,1/2-z
-x,-y,-z
x,y,-z
-x,y,1/2+z
x,-y,1/2+z
loop_
_atom_site_type_symbol
_atom_site_label
_atom_site_fract_x
_atom_site_fract_y
_atom_site_fract_z
Si Si1 0.829165 0.316276 0.306290
Si Si2 0.734719 0.975742 0.391891
Si Si3 0.113876 0.408849 0.568174
Si Si4 0.612648 0.486201 0.570893
Si Si5 0.000000 0.000000 0.250000
O O1 0.800346 0.500000 0.250000
O O2 0.757578 0.079169 0.324585
O O3 0.845890 0.461871 0.370230
O O4 0.931768 0.185427 0.289388
O O5 0.668831 0.206918 0.421833
O O6 0.839596 0.890104 0.423029
O O7 0.670772 0.713143 0.394425
O O8 0.148798 0.486075 0.500000
O O9 0.000000 0.500000 0.568324
O O10 0.500000 0.500000 0.590524
O O11 0.614037 0.558374 0.500000
#
# Coordination Sequence:
#
# PCOD9395141 Si02
#       5
#     8   8   8   8   2
#     4  12  25  45  71 106 148 196 257 306 367 442
#     4  12  24  43  72 109 150 195 253 311 382 449
#     4  11  24  42  68 108 153 194 237 300 380 455
#     4  11  24  44  73 111 154 197 248 313 387 465
#     4  12  26  44  78 106 142 206 276 312 352 474
#
# _framework density 22.350677000000001
#
# number of rings (size 3 to 8) (size 9 to 14) (size 15 to 20)
#    0.000    0.471    2.353    7.412    0.000    3.765 
#    0.000    2.941    0.000    0.706    6.118    0.000 
#    0.000    0.000    0.000    0.000    0.000    0.000 
#
# Total GULP energy -189715.636124 kJ/mol
# GULP energy per Si atom -5579.871651 kJ/mol
# Density = 2.229981 g / cm^3
# Si number density = 22.350677 Si / 1000 Ang^3
#
#
#
# Elastic Constant Matrix: (Units=GPa)
#
#
# Indices 1 2 3 4 5 6 
#
# 1 159.0408 76.3832 53.0215 0.0000 0.0000 0.0000
# 2 76.3832 153.3354 69.6185 0.0000 0.0000 0.0000
# 3 53.0215 69.6185 162.4054 0.0000 0.0000 0.0000
# 4 0.0000 0.0000 0.0000 35.5619 0.0000 0.0000
# 5 0.0000 0.0000 0.0000 0.0000 35.4502 0.0000
# 6 0.0000 0.0000 0.0000 0.0000 0.0000 36.0991
#
#
#
# Elastic Compliance Matrix: (Units=1/GPa)
#
#
# Indices 1 2 3 4 5 6 
#
# 1 0.008445 -0.003669 -0.001184 0.000000 0.000000 0.000000
# 2 -0.003669 0.009692 -0.002957 0.000000 0.000000 0.000000
# 3 -0.001184 -0.002957 0.007812 0.000000 0.000000 0.000000
# 4 0.000000 0.000000 0.000000 0.028120 0.000000 0.000000
# 5 0.000000 0.000000 0.000000 0.000000 0.028209 0.000000
# 6 0.000000 0.000000 0.000000 0.000000 0.000000 0.027701
#
#
# Mechanical properties :
#
#
# Convention : Reuss Voigt Hill
#
# Bulk Modulus (GPa) = 96.82347 96.98087 96.90217
# Shear Modulus (GPa) = 38.74756 39.80616 39.27686
#
# Velocity S-wave (km/s) = 4.16819 4.22475 4.19656
# Velocity P-wave (km/s) = 8.15961 8.20261 8.18114
#
# Compressibility (1/GPa) = 0.01032807
#
# Stress axis : x y z
#
# Youngs Moduli (GPa) = 118.41899 103.18022 128.01631
#
# Poissons Ratio (x) = 0.37857 0.15159
# Poissons Ratio (y) = 0.43448 0.37851
# Poissons Ratio (z) = 0.14023 0.30508
#
# Static dielectric constant tensor:
#      x y z
#    x 1.564610 0.000000 0.000000 
#    y 0.000000 1.981450 0.000000 
#    z 0.000000 0.000000 1.757090 
# 
# From -- ./inp_files/20670.got.cif
#   From: 2010.05.17/outbox.cif.g08.bks.cpg/sg49_11_cif.got.tgz:20670.got - 2010.06.03 21:02:19.
