data_PCOD9395639
_publ_section_title
;
Structure prediction by ZEFSAII (Michael W. Deem and Ramdas Pophale) SiO2 
 PCOD9395639
Probable space group: P B A N
;
_chemical_formula_sum "Si O2"
_cell_formula_units_Z 64
_cell_length_a 29.503332
_cell_length_b 10.757681
_cell_length_c 8.474815
_cell_angle_alpha 90.000000
_cell_angle_beta 90.000000
_cell_angle_gamma 90.000000
_cell_volume 2689.799787
_symmetry_space_group_name_H-M "P B A N"
_symmetry_group_IT_number 50
_space_group.IT_coordinate_system_code '2'
_symmetry_cell_setting 'orthorhombic'
loop_
_space_group_symop_operation_xyz
x,y,z
1/2-x,1/2-y,z
x,1/2-y,-z
1/2-x,y,-z
-x,-y,-z
1/2+x,1/2+y,-z
-x,1/2+y,z
1/2+x,-y,z
loop_
_atom_site_type_symbol
_atom_site_label
_atom_site_fract_x
_atom_site_fract_y
_atom_site_fract_z
Si Si1 0.793382 0.431781 0.415049
Si Si2 0.433023 0.433159 0.480847
Si Si3 0.885508 0.330894 0.342423
Si Si4 0.944311 0.389735 0.067174
Si Si5 0.845297 0.877714 0.359901
Si Si6 0.624299 0.888617 0.988073
Si Si7 0.992193 0.063952 0.251845
Si Si8 0.291431 0.336845 0.215341
O O1 0.750000 0.376954 0.500000
O O2 0.830920 0.341927 0.337755
O O3 0.820425 0.514421 0.544267
O O4 0.775496 0.535289 0.292191
O O5 0.404637 0.531879 0.377781
O O6 0.394904 0.357812 0.570033
O O7 0.469022 0.371165 0.360843
O O8 0.457522 0.513798 0.617202
O O9 0.896726 0.250000 0.500000
O O10 0.910129 0.303691 0.175033
O O11 0.912083 0.507721 0.028440
O O12 0.984010 0.441029 0.179843
O O13 0.970866 0.365457 0.899446
O O14 0.816846 0.751970 0.340086
O O15 0.855558 0.918822 0.182019
O O16 0.668697 0.875769 0.097381
O O17 0.603074 0.750000 0.000000
O O18 0.250000 0.250000 0.161580
#
# Coordination Sequence:
#
# PCOD9395639 Si02
#       8
#     8   8   8   8   8   8   8   8
#     4  11  21  37  58  86 119 161 210 266 320 376
#     4   9  18  36  58  88 120 156 205 261 324 383
#     4  10  22  39  61  83 116 164 222 271 316 373
#     4  10  18  37  59  86 122 163 204 263 325 380
#     4  10  20  32  56  85 129 162 198 248 315 401
#     4  10  21  35  54  87 131 168 201 245 323 411
#     4   9  18  33  63  85 116 158 201 262 322 385
#     4  11  21  36  56  90 128 169 210 251 314 418
#
# _framework density 23.793589999999998
#
# number of rings (size 3 to 8) (size 9 to 14) (size 15 to 20)
#    0.000    2.000    3.750    0.375    0.000    2.500 
#    0.000    4.375    0.000    0.000    0.000    0.000 
#    3.750    0.000    0.000    0.000    0.000    0.000 
#
# Total GULP energy -357143.106740 kJ/mol
# GULP energy per Si atom -5580.361043 kJ/mol
# Density = 2.373944 g / cm^3
# Si number density = 23.793590 Si / 1000 Ang^3
#
#
#
# Elastic Constant Matrix: (Units=GPa)
#
#
# Indices 1 2 3 4 5 6 
#
# 1 148.8304 20.0259 50.6813 0.0000 0.0000 0.0000
# 2 20.0259 37.8832 7.5767 0.0000 0.0000 0.0000
# 3 50.6813 7.5767 138.5726 0.0000 0.0000 0.0000
# 4 0.0000 0.0000 0.0000 21.8587 0.0000 0.0000
# 5 0.0000 0.0000 0.0000 0.0000 20.8998 0.0000
# 6 0.0000 0.0000 0.0000 0.0000 0.0000 33.0433
#
#
#
# Elastic Compliance Matrix: (Units=1/GPa)
#
#
# Indices 1 2 3 4 5 6 
#
# 1 0.008173 -0.003764 -0.002784 0.000000 0.000000 0.000000
# 2 -0.003764 0.028422 -0.000177 0.000000 0.000000 0.000000
# 3 -0.002784 -0.000177 0.008244 0.000000 0.000000 0.000000
# 4 0.000000 0.000000 0.000000 0.045748 0.000000 0.000000
# 5 0.000000 0.000000 0.000000 0.000000 0.047847 0.000000
# 6 0.000000 0.000000 0.000000 0.000000 0.000000 0.030263
#
#
# Mechanical properties :
#
#
# Convention : Reuss Voigt Hill
#
# Bulk Modulus (GPa) = 31.85732 53.53933 42.69833
# Shear Modulus (GPa) = 25.95894 31.62717 28.79306
#
# Velocity S-wave (km/s) = 3.30662 3.64982 3.48245
# Velocity P-wave (km/s) = 5.29116 6.34917 5.84416
#
# Compressibility (1/GPa) = 0.03138996
#
# Stress axis : x y z
#
# Youngs Moduli (GPa) = 122.34830 35.18387 121.29773
#
# Poissons Ratio (x) = 0.13243 0.33764
# Poissons Ratio (y) = 0.46051 0.02152
# Poissons Ratio (z) = 0.34056 0.00624
#
# Static dielectric constant tensor:
#      x y z
#    x 1.921300 0.000000 0.000000 
#    y 0.000000 2.046030 0.000000 
#    z 0.000000 0.000000 2.019800 
# 
# From -- ./inp_files/17096.got.cif
#   From: 2010.05.17/outbox.cif.g08.bks.cpg/sg50_9_cif.got.tgz:17096.got - 2010.06.03 11:33:33.
