data_PCOD9395433
_publ_section_title
;
Structure prediction by ZEFSAII (Michael W. Deem and Ramdas Pophale) SiO2 
 PCOD9395433
Probable space group: P B A N
;
_chemical_formula_sum "Si O2"
_cell_formula_units_Z 32
_cell_length_a 14.164875
_cell_length_b 5.380214
_cell_length_c 16.163063
_cell_angle_alpha 90.000000
_cell_angle_beta 90.000000
_cell_angle_gamma 90.000000
_cell_volume 1231.787981
_symmetry_space_group_name_H-M "P B A N"
_symmetry_group_IT_number 50
_space_group.IT_coordinate_system_code '2'
_symmetry_cell_setting 'orthorhombic'
loop_
_space_group_symop_operation_xyz
x,y,z
1/2-x,1/2-y,z
x,1/2-y,-z
1/2-x,y,-z
-x,-y,-z
1/2+x,1/2+y,-z
-x,1/2+y,z
1/2+x,-y,z
loop_
_atom_site_type_symbol
_atom_site_label
_atom_site_fract_x
_atom_site_fract_y
_atom_site_fract_z
Si Si1 0.862234 0.814711 0.782476
Si Si2 0.857172 0.003489 0.464600
Si Si3 0.357671 0.686660 0.721020
Si Si4 0.106960 0.002008 0.035490
O O1 0.750000 0.750000 0.776166
O O2 0.902304 0.531302 0.778196
O O3 0.886495 0.958015 0.866912
O O4 0.894217 0.027099 0.716115
O O5 0.897268 0.750000 0.500000
O O6 0.750000 0.003392 0.500000
O O7 0.903119 0.250000 0.500000
O O8 0.854004 0.045570 0.366694
O O9 0.250000 0.750000 0.747833
O O10 0.151579 0.250000 0.000000
O O11 0.148851 0.750000 0.000000
O O12 0.000000 0.000000 0.000000
#
# Coordination Sequence:
#
# PCOD9395433 Si02
#       4
#     8   8   8   8
#     4  10  21  33  51  77 110 147 184 232 297 344
#     4  10  17  24  41  64  96 149 201 213 252 322
#     4  10  18  30  44  70 110 148 191 224 272 336
#     4  10  21  39  61  81 104 144 195 253 295 353
#
# _framework density 25.978497999999998
#
# number of rings (size 3 to 8) (size 9 to 14) (size 15 to 20)
#    0.000    2.000    2.500    3.000    7.000    0.500 
#    0.000    1.250    0.000    0.000    0.000    0.000 
#    0.000    0.000    0.000  315.000    0.000    0.000 
#
# Total GULP energy -178499.548778 kJ/mol
# GULP energy per Si atom -5578.110899 kJ/mol
# Density = 2.591937 g / cm^3
# Si number density = 25.978498 Si / 1000 Ang^3
#
#
#
# Elastic Constant Matrix: (Units=GPa)
#
#
# Indices 1 2 3 4 5 6 
#
# 1 133.2301 21.3031 3.5520 0.0000 0.0000 0.0000
# 2 21.3031 346.8217 72.7637 0.0000 0.0000 0.0000
# 3 3.5520 72.7637 123.4462 0.0000 0.0000 0.0000
# 4 0.0000 0.0000 0.0000 59.4453 0.0000 0.0000
# 5 0.0000 0.0000 0.0000 0.0000 3.7108 0.0000
# 6 0.0000 0.0000 0.0000 0.0000 0.0000 -55.1913
#
#
#
# Elastic Compliance Matrix: (Units=1/GPa)
#
#
# Indices 1 2 3 4 5 6 
#
# 1 0.007581 -0.000479 0.000064 0.000000 0.000000 0.000000
# 2 -0.000479 0.003320 -0.001943 0.000000 0.000000 0.000000
# 3 0.000064 -0.001943 0.009244 0.000000 0.000000 0.000000
# 4 0.000000 0.000000 0.000000 0.016822 0.000000 0.000000
# 5 0.000000 0.000000 0.000000 0.000000 0.269483 0.000000
# 6 0.000000 0.000000 0.000000 0.000000 0.000000 -0.018119
#
#
# Mechanical properties :
#
#
# Convention : Reuss Voigt Hill
#
# Bulk Modulus (GPa) = 64.81287 88.74841 76.78064
# Shear Modulus (GPa) = 16.76773 35.31822 26.04298
#
# Velocity S-wave (km/s) = 2.54332 3.69116 3.16963
# Velocity P-wave (km/s) = 5.79892 7.23897 6.55859
#
# Compressibility (1/GPa) = 0.01542903
#
# Stress axis : x y z
#
# Youngs Moduli (GPa) = 131.91381 301.16026 108.17386
#
# Poissons Ratio (x) = 0.14429 -0.00695
# Poissons Ratio (y) = 0.06320 0.21023
# Poissons Ratio (z) = -0.00848 0.58528
#
# Static dielectric constant tensor:
#      x y z
#    x 2.015800 0.000000 0.000000 
#    y 0.000000 2.298650 0.000000 
#    z 0.000000 0.000000 2.139520 
# 
# From -- ./inp_files/27074.got.cif
#   From: 2010.05.17/outbox.cif.g08.bks.cpg/sg50_14_cif.got.tgz:27074.got - 2010.06.03 11:33:33.
