data_PCOD9395642
_publ_section_title
;
Structure prediction by ZEFSAII (Michael W. Deem and Ramdas Pophale) SiO2 
 PCOD9395642
Probable space group: P B A N
;
_chemical_formula_sum "Si O2"
_cell_formula_units_Z 58
_cell_length_a 8.933791
_cell_length_b 31.717419
_cell_length_c 10.390931
_cell_angle_alpha 90.000000
_cell_angle_beta 90.000000
_cell_angle_gamma 90.000000
_cell_volume 2944.340878
_symmetry_space_group_name_H-M "P B A N"
_symmetry_group_IT_number 50
_space_group.IT_coordinate_system_code '2'
_symmetry_cell_setting 'orthorhombic'
loop_
_space_group_symop_operation_xyz
x,y,z
1/2-x,1/2-y,z
x,1/2-y,-z
1/2-x,y,-z
-x,-y,-z
1/2+x,1/2+y,-z
-x,1/2+y,z
1/2+x,-y,z
loop_
_atom_site_type_symbol
_atom_site_label
_atom_site_fract_x
_atom_site_fract_y
_atom_site_fract_z
Si Si1 0.087938 0.821717 0.443690
Si Si2 0.425880 0.955623 0.962858
Si Si3 0.250000 0.750000 0.000000
Si Si4 0.350517 0.616575 0.212206
Si Si5 0.162863 0.360880 0.618492
Si Si6 0.862638 0.788201 0.259095
Si Si7 0.502259 0.611246 0.837152
Si Si8 0.482431 0.684266 0.008226
O O1 0.250000 0.810467 0.500000
O O2 0.106689 0.862257 0.347720
O O3 0.974940 0.834056 0.558723
O O4 0.009092 0.786907 0.351595
O O5 0.420799 0.928894 0.827856
O O6 0.250000 0.957879 0.000000
O O7 0.512821 0.923841 0.056415
O O8 0.500000 0.000000 0.000000
O O9 0.367362 0.716750 0.940788
O O10 0.171391 0.613966 0.202332
O O11 0.398538 0.650129 0.100805
O O12 0.250000 0.380213 0.500000
O O13 0.277254 0.329681 0.690077
O O14 0.101390 0.395572 0.713731
O O15 0.750000 0.750000 0.277208
O O16 0.911770 0.792599 0.110564
O O17 0.552941 0.655807 0.898345
#
# Coordination Sequence:
#
# PCOD9395642 Si02
#       8
#     8   8   2   8   8   8   8   8
#     4  10  19  37  66  84 102 157 220 242 287 356
#     4   9  19  37  60  92 124 153 183 240 304 360
#     4  12  20  32  58  88 114 140 202 260 268 378
#     4   9  17  36  62  87 114 147 195 252 287 345
#     4  10  22  38  56  82 115 153 199 240 295 354
#     4  10  24  41  53  78 127 152 189 259 317 350
#     4  10  18  37  62  82 121 151 193 241 295 360
#     4  10  21  35  56  85 113 147 197 245 306 350
#
# _framework density 19.698806000000001
#
# number of rings (size 3 to 8) (size 9 to 14) (size 15 to 20)
#    0.000    2.207    2.759    0.828    1.931    3.034 
#    9.931    0.690    0.000    1.655    0.000    0.000 
#    0.000    0.000    0.000    0.000    0.000    0.000 
#
# Total GULP energy -323152.089189 kJ/mol
# GULP energy per Si atom -5571.587745 kJ/mol
# Density = 1.965397 g / cm^3
# Si number density = 19.698806 Si / 1000 Ang^3
#
#
#
# Elastic Constant Matrix: (Units=GPa)
#
#
# Indices 1 2 3 4 5 6 
#
# 1 84.8479 23.2376 46.7157 0.0000 0.0000 0.0000
# 2 23.2376 86.0900 23.3260 0.0000 0.0000 0.0000
# 3 46.7157 23.3260 76.3530 0.0000 0.0000 0.0000
# 4 0.0000 0.0000 0.0000 9.1237 0.0000 0.0000
# 5 0.0000 0.0000 0.0000 0.0000 35.9755 0.0000
# 6 0.0000 0.0000 0.0000 0.0000 0.0000 28.3190
#
#
#
# Elastic Compliance Matrix: (Units=1/GPa)
#
#
# Indices 1 2 3 4 5 6 
#
# 1 0.018100 -0.002055 -0.010447 0.000000 0.000000 0.000000
# 2 -0.002055 0.012897 -0.002683 0.000000 0.000000 0.000000
# 3 -0.010447 -0.002683 0.020308 0.000000 0.000000 0.000000
# 4 0.000000 0.000000 0.000000 0.109604 0.000000 0.000000
# 5 0.000000 0.000000 0.000000 0.000000 0.027797 0.000000
# 6 0.000000 0.000000 0.000000 0.000000 0.000000 0.035312
#
#
# Mechanical properties :
#
#
# Convention : Reuss Voigt Hill
#
# Bulk Modulus (GPa) = 47.76249 48.20550 47.98400
# Shear Modulus (GPa) = 19.13018 24.95109 22.04064
#
# Velocity S-wave (km/s) = 3.11968 3.56284 3.34860
# Velocity P-wave (km/s) = 6.10537 6.43813 6.27396
#
# Compressibility (1/GPa) = 0.02093693
#
# Stress axis : x y z
#
# Youngs Moduli (GPa) = 55.24743 77.53514 49.24096
#
# Poissons Ratio (x) = 0.15935 0.51440
# Poissons Ratio (y) = 0.11354 0.13210
# Poissons Ratio (z) = 0.57715 0.20801
#
# Static dielectric constant tensor:
#      x y z
#    x 1.738170 0.000000 0.000000 
#    y 0.000000 1.692000 0.000000 
#    z 0.000000 0.000000 1.731060 
# 
# From -- ./inp_files/19511.got.cif
#   From: 2010.05.17/outbox.cif.g08.bks.cpg/sg50_10_cif.got.tgz:19511.got - 2010.06.03 11:33:33.
