data_PCOD9395412
_publ_section_title
;
Structure prediction by ZEFSAII (Michael W. Deem and Ramdas Pophale) SiO2 
 PCOD9395412
Probable space group: P B A N
;
_chemical_formula_sum "Si O2"
_cell_formula_units_Z 28
_cell_length_a 5.272193
_cell_length_b 13.200231
_cell_length_c 17.502672
_cell_angle_alpha 90.000000
_cell_angle_beta 90.000000
_cell_angle_gamma 90.000000
_cell_volume 1218.083851
_symmetry_space_group_name_H-M "P B A N"
_symmetry_group_IT_number 50
_space_group.IT_coordinate_system_code '2'
_symmetry_cell_setting 'orthorhombic'
loop_
_space_group_symop_operation_xyz
x,y,z
1/2-x,1/2-y,z
x,1/2-y,-z
1/2-x,y,-z
-x,-y,-z
1/2+x,1/2+y,-z
-x,1/2+y,z
1/2+x,-y,z
loop_
_atom_site_type_symbol
_atom_site_label
_atom_site_fract_x
_atom_site_fract_y
_atom_site_fract_z
Si Si1 0.215211 0.437801 0.909098
Si Si2 0.750000 0.750000 0.189614
Si Si3 0.499565 0.111401 0.464105
Si Si4 0.512043 0.570353 0.284295
O O1 0.494481 0.481499 0.889511
O O2 0.134971 0.334904 0.866814
O O3 0.250000 0.421281 0.000000
O O4 0.566615 0.676688 0.239778
O O5 0.250000 0.155749 0.500000
O O6 0.493823 0.101860 0.373361
O O7 0.750000 0.155389 0.500000
O O8 0.500000 0.000000 0.500000
O O9 0.252347 0.506243 0.270790
#
# Coordination Sequence:
#
# PCOD9395412 Si02
#       4
#     8   4   8   8
#     4  10  23  46  73  99 134 185 230 272 334 412
#     4  12  27  42  65 106 144 172 224 288 347 414
#     4  10  16  34  64  86 111 168 215 264 323 384
#     4  12  24  41  65  94 131 178 219 278 348 397
#
# _framework density 22.986923999999998
#
# number of rings (size 3 to 8) (size 9 to 14) (size 15 to 20)
#    0.000    1.143    5.714    2.143    0.000    4.571 
#    0.000    5.000    0.000    3.429    0.000    0.000 
#    0.000    0.000    0.000    0.000    0.000    0.000 
#
# Total GULP energy -156165.671146 kJ/mol
# GULP energy per Si atom -5577.345398 kJ/mol
# Density = 2.293460 g / cm^3
# Si number density = 22.986924 Si / 1000 Ang^3
#
#
#
# Elastic Constant Matrix: (Units=GPa)
#
#
# Indices 1 2 3 4 5 6 
#
# 1 202.5901 52.5017 49.4636 0.0000 0.0000 0.0000
# 2 52.5017 191.8303 61.8518 0.0000 0.0000 0.0000
# 3 49.4636 61.8518 148.8940 0.0000 0.0000 0.0000
# 4 0.0000 0.0000 0.0000 136.8728 0.0000 0.0000
# 5 0.0000 0.0000 0.0000 0.0000 35.5793 0.0000
# 6 0.0000 0.0000 0.0000 0.0000 0.0000 -114.4334
#
#
#
# Elastic Compliance Matrix: (Units=1/GPa)
#
#
# Indices 1 2 3 4 5 6 
#
# 1 0.005555 -0.001068 -0.001402 0.000000 0.000000 0.000000
# 2 -0.001068 0.006225 -0.002231 0.000000 0.000000 0.000000
# 3 -0.001402 -0.002231 0.008109 0.000000 0.000000 0.000000
# 4 0.000000 0.000000 0.000000 0.007306 0.000000 0.000000
# 5 0.000000 0.000000 0.000000 0.000000 0.028106 0.000000
# 6 0.000000 0.000000 0.000000 0.000000 0.000000 -0.008739
#
#
# Mechanical properties :
#
#
# Convention : Reuss Voigt Hill
#
# Bulk Modulus (GPa) = 95.36032 96.77205 96.06618
# Shear Modulus (GPa) = 84.09124 36.90358 60.49741
#
# Velocity S-wave (km/s) = 6.05488 4.01111 5.13569
# Velocity P-wave (km/s) = 9.51088 7.97760 8.77778
#
# Compressibility (1/GPa) = 0.01048654
#
# Stress axis : x y z
#
# Youngs Moduli (GPa) = 180.01205 160.65164 123.32712
#
# Poissons Ratio (x) = 0.17165 0.17286
# Poissons Ratio (y) = 0.19234 0.27512
# Poissons Ratio (z) = 0.25231 0.35838
#
# Static dielectric constant tensor:
#      x y z
#    x 1.866330 0.000000 0.000000 
#    y 0.000000 1.773980 0.000000 
#    z 0.000000 0.000000 1.896820 
# 
# From -- ./inp_files/27870.got.cif
#   From: 2010.05.17/outbox.cif.g08.bks.cpg/sg50_14_cif.got.tgz:27870.got - 2010.06.03 11:33:33.
