data_PCOD9395534
_publ_section_title
;
Structure prediction by ZEFSAII (Michael W. Deem and Ramdas Pophale) SiO2 
 PCOD9395534
Probable space group: P B A N
;
_chemical_formula_sum "Si O2"
_cell_formula_units_Z 64
_cell_length_a 17.939314
_cell_length_b 17.675478
_cell_length_c 11.197006
_cell_angle_alpha 90.000000
_cell_angle_beta 90.000000
_cell_angle_gamma 90.000000
_cell_volume 3550.413284
_symmetry_space_group_name_H-M "P B A N"
_symmetry_group_IT_number 50
_space_group.IT_coordinate_system_code '2'
_symmetry_cell_setting 'orthorhombic'
loop_
_space_group_symop_operation_xyz
x,y,z
1/2-x,1/2-y,z
x,1/2-y,-z
1/2-x,y,-z
-x,-y,-z
1/2+x,1/2+y,-z
-x,1/2+y,z
1/2+x,-y,z
loop_
_atom_site_type_symbol
_atom_site_label
_atom_site_fract_x
_atom_site_fract_y
_atom_site_fract_z
Si Si1 0.111321 0.234021 0.133217
Si Si2 0.389458 0.562528 0.192378
Si Si3 0.483228 0.485118 0.637359
Si Si4 0.128251 0.387052 0.215401
Si Si5 0.083547 0.892110 0.811844
Si Si6 0.433942 0.417620 0.052329
Si Si7 0.066084 0.767074 0.134578
Si Si8 0.229853 0.986541 0.861531
O O1 0.145335 0.297534 0.219153
O O2 0.111412 0.143001 0.135357
O O3 0.023730 0.258208 0.136821
O O4 0.140967 0.250000 0.000000
O O5 0.438120 0.536622 0.304200
O O6 0.415965 0.502041 0.092074
O O7 0.408675 0.649587 0.168379
O O8 0.301576 0.549749 0.199966
O O9 0.500000 0.500000 0.500000
O O10 0.424984 0.419533 0.680482
O O11 0.449659 0.559589 0.702370
O O12 0.202017 0.437411 0.202982
O O13 0.086535 0.404545 0.086482
O O14 0.094268 0.803446 0.787006
O O15 0.159826 0.929970 0.853930
O O16 0.019129 0.899111 0.913322
O O17 0.091917 0.750000 0.000000
O O18 0.250000 0.001974 0.000000
#
# Coordination Sequence:
#
# PCOD9395534 Si02
#       8
#     8   8   8   8   8   8   8   8
#     4   8  15  29  49  79 103 134 183 224 278 329
#     4  11  21  34  54  79 116 147 184 226 277 336
#     4  10  22  38  58  78 103 147 203 237 267 313
#     4  10  18  33  56  76 113 144 183 229 283 328
#     4   9  21  35  53  80 117 141 183 231 279 333
#     4   9  18  32  57  82 104 145 178 235 285 341
#     4  10  18  30  53  85 112 144 181 222 286 343
#     4  11  21  30  49  86 120 149 177 210 290 363
#
# _framework density 18.026070000000001
#
# number of rings (size 3 to 8) (size 9 to 14) (size 15 to 20)
#    0.000    2.250    2.500    1.500    3.500    2.000 
#    0.000    5.000    0.000    0.000    0.000    3.500 
#    0.000    4.500    0.000    0.000    0.000    0.000 
#
# Total GULP energy -356615.784242 kJ/mol
# GULP energy per Si atom -5572.121629 kJ/mol
# Density = 1.798504 g / cm^3
# Si number density = 18.026070 Si / 1000 Ang^3
#
#
#
# Elastic Constant Matrix: (Units=GPa)
#
#
# Indices 1 2 3 4 5 6 
#
# 1 77.4568 25.4430 19.1635 0.0000 0.0000 0.0000
# 2 25.4430 158.1082 29.3037 0.0000 0.0000 0.0000
# 3 19.1635 29.3037 79.0631 0.0000 0.0000 0.0000
# 4 0.0000 0.0000 0.0000 12.8037 0.0000 0.0000
# 5 0.0000 0.0000 0.0000 0.0000 11.2698 0.0000
# 6 0.0000 0.0000 0.0000 0.0000 0.0000 21.2212
#
#
#
# Elastic Compliance Matrix: (Units=1/GPa)
#
#
# Indices 1 2 3 4 5 6 
#
# 1 0.014179 -0.001766 -0.002782 0.000000 0.000000 0.000000
# 2 -0.001766 0.007011 -0.002171 0.000000 0.000000 0.000000
# 3 -0.002782 -0.002171 0.014127 0.000000 0.000000 0.000000
# 4 0.000000 0.000000 0.000000 0.078103 0.000000 0.000000
# 5 0.000000 0.000000 0.000000 0.000000 0.088733 0.000000
# 6 0.000000 0.000000 0.000000 0.000000 0.000000 0.047123
#
#
# Mechanical properties :
#
#
# Convention : Reuss Voigt Hill
#
# Bulk Modulus (GPa) = 45.70473 51.38315 48.54394
# Shear Modulus (GPa) = 18.51811 25.10680 21.81246
#
# Velocity S-wave (km/s) = 3.20862 3.73608 3.48235
# Velocity P-wave (km/s) = 6.25595 6.86861 6.56943
#
# Compressibility (1/GPa) = 0.02187957
#
# Stress axis : x y z
#
# Youngs Moduli (GPa) = 70.52754 142.62758 70.78660
#
# Poissons Ratio (x) = 0.25189 0.19694
# Poissons Ratio (y) = 0.12455 0.15365
# Poissons Ratio (z) = 0.19622 0.30958
#
# Static dielectric constant tensor:
#      x y z
#    x 1.667730 0.000000 0.000000 
#    y 0.000000 1.704490 0.000000 
#    z 0.000000 0.000000 1.605550 
# 
# From -- ./inp_files/21990.got.cif
#   From: 2010.05.17/outbox.cif.g08.bks.cpg/sg50_11_cif.got.tgz:21990.got - 2010.06.03 11:33:33.
