data_PCOD9395074
_publ_section_title
;
Structure prediction by ZEFSAII (Michael W. Deem and Ramdas Pophale) SiO2 
 PCOD9395074
Probable space group: P C C M
;
_chemical_formula_sum "Si O2"
_cell_formula_units_Z 56
_cell_length_a 20.822985
_cell_length_b 15.892890
_cell_length_c 8.491438
_cell_angle_alpha 90.000000
_cell_angle_beta 90.000000
_cell_angle_gamma 90.000000
_cell_volume 2810.134500
_symmetry_space_group_name_H-M "P C C M"
_symmetry_group_IT_number 49
_symmetry_cell_setting 'orthorhombic'
loop_
_space_group_symop_operation_xyz
x,y,z
-x,-y,z
x,-y,1/2-z
-x,y,1/2-z
-x,-y,-z
x,y,-z
-x,y,1/2+z
x,-y,1/2+z
loop_
_atom_site_type_symbol
_atom_site_label
_atom_site_fract_x
_atom_site_fract_y
_atom_site_fract_z
Si Si1 0.168737 0.409453 0.689113
Si Si2 0.930228 0.270624 0.689390
Si Si3 0.746943 0.867383 0.688704
Si Si4 0.432391 0.725920 0.190462
Si Si5 0.115350 0.088795 0.814019
Si Si6 0.395940 0.912554 0.810950
Si Si7 0.293588 0.676765 0.809991
O O1 0.147208 0.500000 0.750000
O O2 0.168329 0.408606 0.500000
O O3 0.123089 0.334974 0.748687
O O4 0.241721 0.390552 0.746568
O O5 0.928672 0.270626 0.500000
O O6 0.916118 0.175199 0.747664
O O7 0.000000 0.296558 0.750000
O O8 0.754833 0.877306 0.500000
O O9 0.809181 0.902970 0.772805
O O10 0.679173 0.907664 0.736277
O O11 0.737287 0.768347 0.722286
O O12 0.500000 0.691631 0.250000
O O13 0.425953 0.823999 0.242869
O O14 0.367318 0.679259 0.246118
O O15 0.432083 0.725663 0.000000
O O16 0.090604 0.000000 0.750000
O O17 0.107362 0.087634 0.000000
O O18 0.423740 0.000000 0.750000
O O19 0.398456 0.912641 0.000000
O O20 0.297186 0.669879 0.000000
#
# Coordination Sequence:
#
# PCOD9395074 Si02
#       7
#     8   8   8   8   8   8   8
#     4  11  22  40  68  97 124 155 190 238 296 357
#     4  11  25  44  64  90 123 160 201 245 292 348
#     4   9  16  31  53  76 104 144 191 237 291 347
#     4   9  18  33  50  73 103 143 191 234 283 344
#     4  11  23  36  55  84 118 155 199 248 292 342
#     4   9  18  29  43  65  99 138 184 237 286 341
#     4   8  16  33  58  82 111 151 188 229 289 350
#
# _framework density 19.927871
#
# number of rings (size 3 to 8) (size 9 to 14) (size 15 to 20)
#    0.000    2.286    1.429    3.429    0.000    4.857 
#    0.000    7.857    0.000    0.429    0.000    3.000 
#    0.000    0.000    0.000    0.000    0.000    0.000 
#
# Total GULP energy -312507.281905 kJ/mol
# GULP energy per Si atom -5580.487177 kJ/mol
# Density = 1.988251 g / cm^3
# Si number density = 19.927871 Si / 1000 Ang^3
#
#
#
# Elastic Constant Matrix: (Units=GPa)
#
#
# Indices 1 2 3 4 5 6 
#
# 1 116.2611 43.5556 19.0023 0.0000 0.0000 0.0000
# 2 43.5556 91.0117 20.1162 0.0000 0.0000 0.0000
# 3 19.0023 20.1162 24.4761 0.0000 0.0000 0.0000
# 4 0.0000 0.0000 0.0000 33.9240 0.0000 0.0000
# 5 0.0000 0.0000 0.0000 0.0000 11.5923 0.0000
# 6 0.0000 0.0000 0.0000 0.0000 0.0000 7.7751
#
#
#
# Elastic Compliance Matrix: (Units=1/GPa)
#
#
# Indices 1 2 3 4 5 6 
#
# 1 0.010986 -0.004121 -0.005142 0.000000 0.000000 0.000000
# 2 -0.004121 0.014972 -0.009106 0.000000 0.000000 0.000000
# 3 -0.005142 -0.009106 0.052332 0.000000 0.000000 0.000000
# 4 0.000000 0.000000 0.000000 0.029478 0.000000 0.000000
# 5 0.000000 0.000000 0.000000 0.000000 0.086264 0.000000
# 6 0.000000 0.000000 0.000000 0.000000 0.000000 0.128615
#
#
# Mechanical properties :
#
#
# Convention : Reuss Voigt Hill
#
# Bulk Modulus (GPa) = 24.06598 44.12188 34.09393
# Shear Modulus (GPa) = 13.39635 20.59660 16.99648
#
# Velocity S-wave (km/s) = 2.59558 3.21839 2.92361
# Velocity P-wave (km/s) = 4.59189 5.99996 5.34252
#
# Compressibility (1/GPa) = 0.04155242
#
# Stress axis : x y z
#
# Youngs Moduli (GPa) = 91.02845 66.78931 19.10863
#
# Poissons Ratio (x) = 0.27523 0.09826
# Poissons Ratio (y) = 0.37512 0.17401
# Poissons Ratio (z) = 0.46806 0.60820
#
# Static dielectric constant tensor:
#      x y z
#    x 1.708930 0.000000 0.000000 
#    y 0.000000 1.717010 0.000000 
#    z 0.000000 0.000000 1.684730 
# 
# From -- ./inp_files/5769.got.cif
#   From: 2010.05.17/outbox.cif.g08.bks.cpg/sg49_3_cif.got.tgz:5769.got - 2010.06.03 21:02:19.
