data_PCOD9395948
_publ_section_title
;
Structure prediction by ZEFSAII (Michael W. Deem and Ramdas Pophale) SiO2 
 PCOD9395948
Probable space group: P B A N
;
_chemical_formula_sum "Si O2"
_cell_formula_units_Z 56
_cell_length_a 13.922960
_cell_length_b 14.261225
_cell_length_c 13.459621
_cell_angle_alpha 90.000000
_cell_angle_beta 90.000000
_cell_angle_gamma 90.000000
_cell_volume 2672.521688
_symmetry_space_group_name_H-M "P B A N"
_symmetry_group_IT_number 50
_space_group.IT_coordinate_system_code '2'
_symmetry_cell_setting 'orthorhombic'
loop_
_space_group_symop_operation_xyz
x,y,z
1/2-x,1/2-y,z
x,1/2-y,-z
1/2-x,y,-z
-x,-y,-z
1/2+x,1/2+y,-z
-x,1/2+y,z
1/2+x,-y,z
loop_
_atom_site_type_symbol
_atom_site_label
_atom_site_fract_x
_atom_site_fract_y
_atom_site_fract_z
Si Si1 0.438799 0.096829 0.729219
Si Si2 0.999793 0.850056 0.944097
Si Si3 0.756746 0.538761 0.382338
Si Si4 0.804440 0.333622 0.395086
Si Si5 0.078626 0.427085 0.265525
Si Si6 0.352285 0.012885 0.055432
Si Si7 0.515141 0.742032 0.392486
O O1 0.458251 0.150699 0.832316
O O2 0.331159 0.101089 0.682685
O O3 0.499552 0.153582 0.647580
O O4 0.484433 0.992961 0.743677
O O5 0.099498 0.909190 0.943449
O O6 0.007180 0.750000 0.000000
O O7 0.924145 0.917198 0.999060
O O8 0.750000 0.558937 0.500000
O O9 0.795878 0.436308 0.353848
O O10 0.646754 0.536556 0.351716
O O11 0.750000 0.250000 0.337961
O O12 0.750000 0.341406 0.500000
O O13 0.913677 0.307049 0.410955
O O14 0.141671 0.445022 0.166705
O O15 0.059335 0.321716 0.304149
O O16 0.250000 0.012243 0.000000
O O17 0.566440 0.750000 0.500000
#
# Coordination Sequence:
#
# PCOD9395948 Si02
#       7
#     8   8   8   8   8   8   8
#     4  11  24  41  63  97 128 172 222 274 341 396
#     4  10  22  43  69  96 131 169 220 284 349 410
#     4  11  23  39  62  89 136 176 217 271 323 397
#     4  10  19  36  59  89 121 173 229 265 314 382
#     4  11  24  41  63  98 127 171 224 272 338 397
#     4  10  22  43  70  96 130 172 220 281 349 415
#     4  12  23  38  64  91 137 176 222 272 321 396
#
# _framework density 20.953992
#
# number of rings (size 3 to 8) (size 9 to 14) (size 15 to 20)
#    0.000    1.286    2.857    3.429    2.000    2.286 
#    2.571    4.286    0.000    0.000    0.000    0.000 
#    0.000    0.000    0.000    0.000    0.000    0.000 
#
# Total GULP energy -311875.663159 kJ/mol
# GULP energy per Si atom -5569.208271 kJ/mol
# Density = 2.090630 g / cm^3
# Si number density = 20.953992 Si / 1000 Ang^3
#
#
#
# Elastic Constant Matrix: (Units=GPa)
#
#
# Indices 1 2 3 4 5 6 
#
# 1 59.9957 22.1216 17.1386 0.0000 0.0000 0.0000
# 2 22.1216 95.5415 37.7821 0.0000 0.0000 0.0000
# 3 17.1386 37.7821 125.4337 0.0000 0.0000 0.0000
# 4 0.0000 0.0000 0.0000 17.4986 0.0000 0.0000
# 5 0.0000 0.0000 0.0000 0.0000 -1.4486 0.0000
# 6 0.0000 0.0000 0.0000 0.0000 0.0000 19.9411
#
#
#
# Elastic Compliance Matrix: (Units=1/GPa)
#
#
# Indices 1 2 3 4 5 6 
#
# 1 0.018438 -0.003715 -0.001400 0.000000 0.000000 0.000000
# 2 -0.003715 0.012631 -0.003297 0.000000 0.000000 0.000000
# 3 -0.001400 -0.003297 0.009157 0.000000 0.000000 0.000000
# 4 0.000000 0.000000 0.000000 0.057148 0.000000 0.000000
# 5 0.000000 0.000000 0.000000 0.000000 -0.690328 0.000000
# 6 0.000000 0.000000 0.000000 0.000000 0.000000 0.050148
#
#
# Mechanical properties :
#
#
# Convention : Reuss Voigt Hill
#
# Bulk Modulus (GPa) = 42.73433 48.33950 45.53691
# Shear Modulus (GPa) = -9.64911 20.79345 5.57217
#
# Velocity S-wave (km/s) = -2.14823 3.15356 1.63249
# Velocity P-wave (km/s) = 3.77961 6.03153 5.03313
#
# Compressibility (1/GPa) = 0.02340039
#
# Stress axis : x y z
#
# Youngs Moduli (GPa) = 54.23655 79.17239 109.20968
#
# Poissons Ratio (x) = 0.29416 0.15291
# Poissons Ratio (y) = 0.20151 0.36005
# Poissons Ratio (z) = 0.07594 0.26102
#
# Static dielectric constant tensor:
#      x y z
#    x 1.810370 0.000000 0.000000 
#    y 0.000000 1.822690 0.000000 
#    z 0.000000 0.000000 1.968520 
# 
# From -- ./inp_files/21153.got.cif
#   From: 2010.05.17/outbox.cif.g08.bks.cpg/sg50_11_cif.got.tgz:21153.got - 2010.06.03 11:33:33.
