data_PCOD9395240
_publ_section_title
;
Structure prediction by ZEFSAII (Michael W. Deem and Ramdas Pophale) SiO2 
 PCOD9395240
Probable space group: P C C M
;
_chemical_formula_sum "Si O2"
_cell_formula_units_Z 56
_cell_length_a 21.000000
_cell_length_b 15.000000
_cell_length_c 9.000000
_cell_angle_alpha 90.000000
_cell_angle_beta 90.000000
_cell_angle_gamma 90.000000
_cell_volume 2835.000000
_symmetry_space_group_name_H-M "P C C M"
_symmetry_group_IT_number 49
_symmetry_cell_setting 'orthorhombic'
loop_
_space_group_symop_operation_xyz
x,y,z
-x,-y,z
x,-y,1/2-z
-x,y,1/2-z
-x,-y,-z
x,y,-z
-x,y,1/2+z
x,-y,1/2+z
loop_
_atom_site_type_symbol
_atom_site_label
_atom_site_fract_x
_atom_site_fract_y
_atom_site_fract_z
Si Si1 0.740903 0.149725 0.325988
Si Si2 0.826218 0.407614 0.679280
Si Si3 0.401264 0.089190 0.829327
Si Si4 0.432615 0.291605 0.181026
Si Si5 0.700455 0.333149 0.178498
Si Si6 0.870351 0.087339 0.175370
Si Si7 0.068790 0.720599 0.176749
O O1 0.750674 0.175957 0.500000
O O2 0.675966 0.092950 0.322849
O O3 0.724945 0.234618 0.223981
O O4 0.803587 0.104541 0.260635
O O5 0.849642 0.500000 0.750000
O O6 0.825005 0.408582 0.500000
O O7 0.755073 0.392626 0.744871
O O8 0.874635 0.332635 0.740471
O O9 0.424266 0.186459 0.775446
O O10 0.423486 0.000000 0.750000
O O11 0.420694 0.083689 0.000000
O O12 0.500000 0.322094 0.250000
O O13 0.370242 0.340100 0.249695
O O14 0.431603 0.297598 0.000000
O O15 0.698753 0.344576 0.000000
O O16 0.913305 0.175106 0.191624
O O17 0.899907 0.000000 0.250000
O O18 0.858271 0.073407 0.000000
O O19 0.000000 0.702433 0.250000
O O20 0.068534 0.699048 0.000000
#
# Coordination Sequence:
#
# PCOD9395240 Si02
#       7
#     8   8   8   8   8   8   8
#     4  10  19  33  54  81 115 157 206 259 318 373
#     4  12  25  44  72 103 134 167 207 260 316 382
#     4   9  19  31  45  70 106 148 199 255 310 369
#     4  10  21  37  55  81 115 159 209 258 315 378
#     4  11  21  37  62  92 125 162 205 255 313 376
#     4  11  23  37  58  87 124 167 218 269 319 377
#     4  11  25  45  67  95 131 173 217 265 321 381
#
# _framework density 19.753086
#
# number of rings (size 3 to 8) (size 9 to 14) (size 15 to 20)
#    0.000    1.429    1.429    5.571    0.000    7.143 
#    0.000    4.286    0.000    0.429    0.000    3.000 
#    0.000    0.000    0.000    0.000    0.000    0.000 
#
# Total GULP energy -312872.446214 kJ/mol
# GULP energy per Si atom -5587.007968 kJ/mol
# Density = 1.970813 g / cm^3
# Si number density = 19.753086 Si / 1000 Ang^3
#
#
#
# Elastic Constant Matrix: (Units=GPa)
#
#
# Indices 1 2 3 4 5 6 
#
# 1 121.8651 21.2091 59.0499 0.0000 0.0000 0.0000
# 2 21.2091 64.7621 39.2373 0.0000 0.0000 0.0000
# 3 59.0499 39.2373 159.1119 0.0000 0.0000 0.0000
# 4 0.0000 0.0000 0.0000 26.3877 0.0000 0.0000
# 5 0.0000 0.0000 0.0000 0.0000 11.8483 0.0000
# 6 0.0000 0.0000 0.0000 0.0000 0.0000 3.9824
#
#
#
# Elastic Compliance Matrix: (Units=1/GPa)
#
#
# Indices 1 2 3 4 5 6 
#
# 1 0.010086 -0.001217 -0.003443 0.000000 0.000000 0.000000
# 2 -0.001217 0.018300 -0.004061 0.000000 0.000000 0.000000
# 3 -0.003443 -0.004061 0.008564 0.000000 0.000000 0.000000
# 4 0.000000 0.000000 0.000000 0.037896 0.000000 0.000000
# 5 0.000000 0.000000 0.000000 0.000000 0.084400 0.000000
# 6 0.000000 0.000000 0.000000 0.000000 0.000000 0.251105
#
#
# Mechanical properties :
#
#
# Convention : Reuss Voigt Hill
#
# Bulk Modulus (GPa) = 51.26144 64.97019 58.11582
# Shear Modulus (GPa) = 11.51285 23.52653 17.51969
#
# Velocity S-wave (km/s) = 2.41682 3.45488 2.98138
# Velocity P-wave (km/s) = 5.81339 6.99124 6.42934
#
# Compressibility (1/GPa) = 0.01950784
#
# Stress axis : x y z
#
# Youngs Moduli (GPa) = 99.14826 54.64400 116.76592
#
# Poissons Ratio (x) = 0.06651 0.40202
# Poissons Ratio (y) = 0.12067 0.47421
# Poissons Ratio (z) = 0.34136 0.22192
#
# Static dielectric constant tensor:
#      x y z
#    x 1.683430 0.000000 0.000000 
#    y 0.000000 1.740650 0.000000 
#    z 0.000000 0.000000 1.665160 
# 
# From -- ./inp_files/5808.got.cif
#   From: 2010.05.17/outbox.ucp.g08.bks.cvg/sg49_3_cif.got.tgz:5808.got - 2010.06.11 16:40:14.
