data_PCOD9395976
_publ_section_title
;
Structure prediction by ZEFSAII (Michael W. Deem and Ramdas Pophale) SiO2 
 PCOD9395976
Probable space group: P B A N
;
_chemical_formula_sum "Si O2"
_cell_formula_units_Z 56
_cell_length_a 21.666187
_cell_length_b 13.122272
_cell_length_c 9.216128
_cell_angle_alpha 90.000000
_cell_angle_beta 90.000000
_cell_angle_gamma 90.000000
_cell_volume 2620.233656
_symmetry_space_group_name_H-M "P B A N"
_symmetry_group_IT_number 50
_space_group.IT_coordinate_system_code '2'
_symmetry_cell_setting 'orthorhombic'
loop_
_space_group_symop_operation_xyz
x,y,z
1/2-x,1/2-y,z
x,1/2-y,-z
1/2-x,y,-z
-x,-y,-z
1/2+x,1/2+y,-z
-x,1/2+y,z
1/2+x,-y,z
loop_
_atom_site_type_symbol
_atom_site_label
_atom_site_fract_x
_atom_site_fract_y
_atom_site_fract_z
Si Si1 0.615914 0.188569 0.729856
Si Si2 0.788798 0.843620 0.148650
Si Si3 0.426529 0.104175 0.144742
Si Si4 0.735777 0.072300 0.826431
Si Si5 0.557218 0.117617 0.007246
Si Si6 0.868669 0.411196 0.302000
Si Si7 0.931034 0.995248 0.443261
O O1 0.683905 0.151804 0.778464
O O2 0.616392 0.296142 0.650069
O O3 0.586086 0.100254 0.635914
O O4 0.579513 0.195903 0.882548
O O5 0.750000 0.750000 0.222060
O O6 0.862302 0.835552 0.117058
O O7 0.785635 0.957414 0.213244
O O8 0.750000 0.854372 0.000000
O O9 0.488447 0.142044 0.065144
O O10 0.428583 0.091983 0.320289
O O11 0.430069 0.988089 0.084026
O O12 0.797510 0.087447 0.737412
O O13 0.750000 0.081348 0.000000
O O14 0.595276 0.085869 0.150185
O O15 0.887915 0.499184 0.413907
O O16 0.000000 0.000000 0.500000
#
# Coordination Sequence:
#
# PCOD9395976 Si02
#       7
#     8   8   8   8   8   8   8
#     4  11  23  41  62 100 135 168 221 274 326 417
#     4  10  20  40  65  94 129 167 220 278 331 390
#     4  10  20  41  66  95 128 176 220 280 327 406
#     4  11  21  39  66  97 136 170 209 274 343 399
#     4  10  19  36  67  96 131 165 223 270 341 388
#     4  12  23  37  65  97 131 177 210 264 342 405
#     4  11  23  43  62  85 134 177 216 268 331 393
#
# _framework density 21.372139000000001
#
# number of rings (size 3 to 8) (size 9 to 14) (size 15 to 20)
#    0.000    1.286    5.714    2.143    0.000    1.143 
#    5.143    1.429    0.000    0.857    0.000    0.000 
#    0.000    0.000    0.000    0.000    0.000    0.000 
#
# Total GULP energy -311872.496430 kJ/mol
# GULP energy per Si atom -5569.151722 kJ/mol
# Density = 2.132350 g / cm^3
# Si number density = 21.372139 Si / 1000 Ang^3
#
#
#
# Elastic Constant Matrix: (Units=GPa)
#
#
# Indices 1 2 3 4 5 6 
#
# 1 181.7371 8.0703 50.3199 0.0000 0.0000 0.0000
# 2 8.0703 34.2169 5.7870 0.0000 0.0000 0.0000
# 3 50.3199 5.7870 102.5069 0.0000 0.0000 0.0000
# 4 0.0000 0.0000 0.0000 -3.3695 0.0000 0.0000
# 5 0.0000 0.0000 0.0000 0.0000 36.4436 0.0000
# 6 0.0000 0.0000 0.0000 0.0000 0.0000 60.3622
#
#
#
# Elastic Compliance Matrix: (Units=1/GPa)
#
#
# Indices 1 2 3 4 5 6 
#
# 1 0.006401 -0.000988 -0.003086 0.000000 0.000000 0.000000
# 2 -0.000988 0.029659 -0.001190 0.000000 0.000000 0.000000
# 3 -0.003086 -0.001190 0.011338 0.000000 0.000000 0.000000
# 4 0.000000 0.000000 0.000000 -0.296781 0.000000 0.000000
# 5 0.000000 0.000000 0.000000 0.000000 0.027440 0.000000
# 6 0.000000 0.000000 0.000000 0.000000 0.000000 0.016567
#
#
# Mechanical properties :
#
#
# Convention : Reuss Voigt Hill
#
# Bulk Modulus (GPa) = 27.12180 49.64615 38.38398
# Shear Modulus (GPa) = -27.38837 35.63951 4.12557
#
# Velocity S-wave (km/s) = -3.58369 4.08802 1.39088
# Velocity P-wave (km/s) = 2.09903 6.74999 4.53632
#
# Compressibility (1/GPa) = 0.03687070
#
# Stress axis : x y z
#
# Youngs Moduli (GPa) = 156.22853 33.71607 88.20146
#
# Poissons Ratio (x) = 0.03330 0.27222
# Poissons Ratio (y) = 0.15431 0.10492
# Poissons Ratio (z) = 0.48218 0.04011
#
# Static dielectric constant tensor:
#      x y z
#    x 1.858570 0.000000 0.000000 
#    y 0.000000 1.904850 0.000000 
#    z 0.000000 0.000000 1.819190 
# 
# From -- ./inp_files/15363.got.cif
#   From: 2010.05.17/outbox.cif.g08.bks.cpg/sg50_8_cif.got.tgz:15363.got - 2010.06.03 11:33:33.
