data_PCOD9395594
_publ_section_title
;
Structure prediction by ZEFSAII (Michael W. Deem and Ramdas Pophale) SiO2 
 PCOD9395594
Probable space group: P B A N
;
_chemical_formula_sum "Si O2"
_cell_formula_units_Z 56
_cell_length_a 19.631807
_cell_length_b 8.476977
_cell_length_c 15.445407
_cell_angle_alpha 90.000000
_cell_angle_beta 90.000000
_cell_angle_gamma 90.000000
_cell_volume 2570.399556
_symmetry_space_group_name_H-M "P B A N"
_symmetry_group_IT_number 50
_space_group.IT_coordinate_system_code '2'
_symmetry_cell_setting 'orthorhombic'
loop_
_space_group_symop_operation_xyz
x,y,z
1/2-x,1/2-y,z
x,1/2-y,-z
1/2-x,y,-z
-x,-y,-z
1/2+x,1/2+y,-z
-x,1/2+y,z
1/2+x,-y,z
loop_
_atom_site_type_symbol
_atom_site_label
_atom_site_fract_x
_atom_site_fract_y
_atom_site_fract_z
Si Si1 0.541060 0.363793 0.178245
Si Si2 0.917813 0.439575 0.260060
Si Si3 0.045084 0.121070 0.941282
Si Si4 0.198770 0.133142 0.265101
Si Si5 0.964482 0.377696 0.436166
Si Si6 0.223447 0.930224 0.593337
Si Si7 0.613108 0.670930 0.404956
O O1 0.582209 0.245518 0.238524
O O2 0.484310 0.463801 0.229900
O O3 0.504109 0.236645 0.114602
O O4 0.580636 0.498673 0.124258
O O5 0.854937 0.526693 0.215098
O O6 0.914985 0.445390 0.364539
O O7 0.083719 0.250000 0.000000
O O8 0.000000 0.000000 0.000000
O O9 0.250000 0.250000 0.217018
O O10 0.153611 0.239961 0.330062
O O11 0.241394 0.018619 0.327106
O O12 0.933327 0.250000 0.500000
O O13 0.000000 0.500000 0.500000
O O14 0.032337 0.316609 0.386471
O O15 0.250000 0.750000 0.598034
O O16 0.250000 0.990140 0.500000
O O17 0.145274 0.994352 0.594757
O O18 0.623018 0.750000 0.500000
#
# Coordination Sequence:
#
# PCOD9395594 Si02
#       7
#     8   8   8   8   8   8   8
#     4   9  18  29  51  77 114 154 170 213 275 325
#     4  11  20  35  48  74 106 142 191 227 287 354
#     4   8  14  28  50  82 116 146 178 202 241 322
#     4  10  21  35  53  64  88 134 178 233 285 341
#     4  11  23  34  47  67  94 135 181 236 287 332
#     4  10  20  31  48  69  82 108 165 237 302 333
#     4  10  18  34  48  62  86 118 163 223 296 357
#
# _framework density 21.786496
#
# number of rings (size 3 to 8) (size 9 to 14) (size 15 to 20)
#    0.000    2.143    1.429    3.429    0.000    2.286 
#    0.000    1.429    0.000    0.000    0.000    0.000 
#    0.000   14.286    0.000   51.429    0.000    0.857 
#
# Total GULP energy -312135.642265 kJ/mol
# GULP energy per Si atom -5573.850755 kJ/mol
# Density = 2.173691 g / cm^3
# Si number density = 21.786496 Si / 1000 Ang^3
#
#
#
# Elastic Constant Matrix: (Units=GPa)
#
#
# Indices 1 2 3 4 5 6 
#
# 1 56.6293 28.8892 -7.7727 0.0000 0.0000 0.0000
# 2 28.8892 148.5348 30.9795 0.0000 0.0000 0.0000
# 3 -7.7727 30.9795 41.5656 0.0000 0.0000 0.0000
# 4 0.0000 0.0000 0.0000 47.5467 0.0000 0.0000
# 5 0.0000 0.0000 0.0000 0.0000 -1.0595 0.0000
# 6 0.0000 0.0000 0.0000 0.0000 0.0000 28.6059
#
#
#
# Elastic Compliance Matrix: (Units=1/GPa)
#
#
# Indices 1 2 3 4 5 6 
#
# 1 0.021936 -0.006065 0.008622 0.000000 0.000000 0.000000
# 2 -0.006065 0.009648 -0.008325 0.000000 0.000000 0.000000
# 3 0.008622 -0.008325 0.031876 0.000000 0.000000 0.000000
# 4 0.000000 0.000000 0.000000 0.021032 0.000000 0.000000
# 5 0.000000 0.000000 0.000000 0.000000 -0.943799 0.000000
# 6 0.000000 0.000000 0.000000 0.000000 0.000000 0.034958
#
#
# Mechanical properties :
#
#
# Convention : Reuss Voigt Hill
#
# Bulk Modulus (GPa) = 19.25876 38.99129 29.12503
# Shear Modulus (GPa) = -6.28531 27.99419 10.85444
#
# Velocity S-wave (km/s) = -1.70036 3.58848 2.23450
# Velocity P-wave (km/s) = 2.23696 5.92499 4.47825
#
# Compressibility (1/GPa) = 0.05192442
#
# Stress axis : x y z
#
# Youngs Moduli (GPa) = 45.58707 103.64475 31.37205
#
# Poissons Ratio (x) = 0.62858 -0.27049
# Poissons Ratio (y) = 0.27647 0.26118
# Poissons Ratio (z) = -0.39306 0.86286
#
# Static dielectric constant tensor:
#      x y z
#    x 1.901480 0.000000 0.000000 
#    y 0.000000 1.896260 0.000000 
#    z 0.000000 0.000000 1.882460 
# 
# From -- ./inp_files/29838.got.cif
#   From: 2010.05.17/outbox.cif.g08.bks.cpg/sg50_15_cif.got.tgz:29838.got - 2010.06.03 11:33:33.
