data_PCOD9395625
_publ_section_title
;
Structure prediction by ZEFSAII (Michael W. Deem and Ramdas Pophale) SiO2 
 PCOD9395625
Probable space group: P B A N
;
_chemical_formula_sum "Si O2"
_cell_formula_units_Z 64
_cell_length_a 8.077895
_cell_length_b 14.748458
_cell_length_c 25.873083
_cell_angle_alpha 90.000000
_cell_angle_beta 90.000000
_cell_angle_gamma 90.000000
_cell_volume 3082.428427
_symmetry_space_group_name_H-M "P B A N"
_symmetry_group_IT_number 50
_space_group.IT_coordinate_system_code '2'
_symmetry_cell_setting 'orthorhombic'
loop_
_space_group_symop_operation_xyz
x,y,z
1/2-x,1/2-y,z
x,1/2-y,-z
1/2-x,y,-z
-x,-y,-z
1/2+x,1/2+y,-z
-x,1/2+y,z
1/2+x,-y,z
loop_
_atom_site_type_symbol
_atom_site_label
_atom_site_fract_x
_atom_site_fract_y
_atom_site_fract_z
Si Si1 0.051009 0.256635 0.200718
Si Si2 0.952357 0.595224 0.718420
Si Si3 0.949440 0.395924 0.999493
Si Si4 0.076145 0.629485 0.604775
Si Si5 0.445527 0.388328 0.283560
Si Si6 0.550824 0.250376 0.917703
Si Si7 0.424331 0.193148 0.607224
Si Si8 0.241155 0.026639 0.560397
O O1 0.250000 0.250000 0.201383
O O2 0.996505 0.346651 0.231625
O O3 0.994628 0.172431 0.235910
O O4 0.997994 0.253212 0.141678
O O5 0.039783 0.629484 0.666097
O O6 0.754852 0.608183 0.713836
O O7 0.989661 0.489442 0.721977
O O8 0.007012 0.337722 0.049247
O O9 0.750000 0.393455 0.000000
O O10 0.006177 0.339003 0.949129
O O11 0.000000 0.500000 0.000000
O O12 0.052751 0.732488 0.586022
O O13 0.929355 0.572264 0.577683
O O14 0.230740 0.566474 0.591482
O O15 0.488924 0.341671 0.337651
O O16 0.750000 0.250000 0.919953
O O17 0.250000 0.250000 0.614002
O O18 0.375322 0.105108 0.574316
O O19 0.250000 0.007694 0.500000
#
# Coordination Sequence:
#
# PCOD9395625 Si02
#       8
#     8   8   8   8   8   8   8   8
#     4  10  22  37  58  84 120 157 203 247 290 352
#     4  11  20  36  60  84 111 158 196 239 292 355
#     4   9  19  37  62  86 117 161 203 244 300 357
#     4  11  20  38  63  83 116 153 191 238 293 354
#     4  11  20  37  58  83 115 149 201 240 289 350
#     4   9  20  39  58  84 122 159 198 250 300 348
#     4  10  18  35  62  81 109 153 193 227 287 361
#     4  11  23  38  61  91 116 147 192 243 294 352
#
# _framework density 20.76285
#
# number of rings (size 3 to 8) (size 9 to 14) (size 15 to 20)
#    0.000    1.750    5.000    1.500    0.000    5.250 
#    0.000    6.875    0.000    0.750    0.000    0.000 
#    0.000    0.000    0.000    0.000    0.000    0.000 
#
# Total GULP energy -357610.434226 kJ/mol
# GULP energy per Si atom -5587.663035 kJ/mol
# Density = 2.071559 g / cm^3
# Si number density = 20.762850 Si / 1000 Ang^3
#
#
#
# Elastic Constant Matrix: (Units=GPa)
#
#
# Indices 1 2 3 4 5 6 
#
# 1 27.5989 13.3198 17.3239 0.0000 0.0000 0.0000
# 2 13.3198 165.2083 61.7758 0.0000 0.0000 0.0000
# 3 17.3239 61.7758 150.3552 0.0000 0.0000 0.0000
# 4 0.0000 0.0000 0.0000 19.9079 0.0000 0.0000
# 5 0.0000 0.0000 0.0000 0.0000 20.2137 0.0000
# 6 0.0000 0.0000 0.0000 0.0000 0.0000 32.5965
#
#
#
# Elastic Compliance Matrix: (Units=1/GPa)
#
#
# Indices 1 2 3 4 5 6 
#
# 1 0.039482 -0.001751 -0.003830 0.000000 0.000000 0.000000
# 2 -0.001751 0.007229 -0.002769 0.000000 0.000000 0.000000
# 3 -0.003830 -0.002769 0.008230 0.000000 0.000000 0.000000
# 4 0.000000 0.000000 0.000000 0.050231 0.000000 0.000000
# 5 0.000000 0.000000 0.000000 0.000000 0.049471 0.000000
# 6 0.000000 0.000000 0.000000 0.000000 0.000000 0.030678
#
#
# Mechanical properties :
#
#
# Convention : Reuss Voigt Hill
#
# Bulk Modulus (GPa) = 26.14878 58.66681 42.40779
# Shear Modulus (GPa) = 23.28086 31.25981 27.27034
#
# Velocity S-wave (km/s) = 3.35218 3.88437 3.62805
# Velocity P-wave (km/s) = 5.25397 6.95951 6.16599
#
# Compressibility (1/GPa) = 0.03824270
#
# Stress axis : x y z
#
# Youngs Moduli (GPa) = 25.32771 138.32433 121.51169
#
# Poissons Ratio (x) = 0.24224 0.46535
# Poissons Ratio (y) = 0.04435 0.33641
# Poissons Ratio (z) = 0.09700 0.38296
#
# Static dielectric constant tensor:
#      x y z
#    x 1.820210 0.000000 0.000000 
#    y 0.000000 1.742480 0.000000 
#    z 0.000000 0.000000 1.707120 
# 
# From -- ./inp_files/31619.got.cif
#   From: 2010.05.17/outbox.cif.g08.bks.cpg/sg50_16_cif.got.tgz:31619.got - 2010.06.03 11:33:33.
