data_PCOD9395810
_publ_section_title
;
Structure prediction by ZEFSAII (Michael W. Deem and Ramdas Pophale) SiO2 
 PCOD9395810
Probable space group: P B A N
;
_chemical_formula_sum "Si O2"
_cell_formula_units_Z 58
_cell_length_a 31.610552
_cell_length_b 4.998926
_cell_length_c 16.477060
_cell_angle_alpha 90.000000
_cell_angle_beta 90.000000
_cell_angle_gamma 90.000000
_cell_volume 2603.685418
_symmetry_space_group_name_H-M "P B A N"
_symmetry_group_IT_number 50
_space_group.IT_coordinate_system_code '2'
_symmetry_cell_setting 'orthorhombic'
loop_
_space_group_symop_operation_xyz
x,y,z
1/2-x,1/2-y,z
x,1/2-y,-z
1/2-x,y,-z
-x,-y,-z
1/2+x,1/2+y,-z
-x,1/2+y,z
1/2+x,-y,z
loop_
_atom_site_type_symbol
_atom_site_label
_atom_site_fract_x
_atom_site_fract_y
_atom_site_fract_z
Si Si1 0.178263 0.136923 0.114030
Si Si2 0.250000 0.250000 0.000000
Si Si3 0.120854 0.843304 0.866909
Si Si4 0.591707 0.495138 0.446340
Si Si5 0.350103 0.756287 0.686391
Si Si6 0.297522 0.252216 0.293492
Si Si7 0.972091 0.975432 0.122319
Si Si8 0.975793 0.004116 0.315683
O O1 0.154227 0.421251 0.114191
O O2 0.199647 0.128087 0.202604
O O3 0.141452 0.924405 0.098586
O O4 0.217157 0.089513 0.054622
O O5 0.120972 0.774988 0.768440
O O6 0.074967 0.928018 0.900525
O O7 0.573628 0.250000 0.500000
O O8 0.628065 0.359170 0.393080
O O9 0.558914 0.592800 0.378179
O O10 0.603695 0.750000 0.500000
O O11 0.312318 0.552625 0.706224
O O12 0.332480 0.051374 0.667463
O O13 0.250000 0.250000 0.325454
O O14 0.967336 0.961621 0.220642
O O15 0.008330 0.189797 0.099081
O O16 0.983674 0.316473 0.330129
#
# Coordination Sequence:
#
# PCOD9395810 Si02
#       8
#     8   2   8   8   8   8   8   8
#     4  10  23  35  62  88 133 164 188 238 275 388
#     4  12  24  46  60 106 144 166 190 222 312 354
#     4  10  20  39  57  89 118 163 211 238 308 334
#     4  12  24  37  54  77 109 156 197 240 310 370
#     4  10  21  36  57  79 115 145 191 259 281 358
#     4  10  19  37  60  88 107 148 195 229 296 342
#     4  10  19  33  59  86 117 152 204 269 309 339
#     4  10  21  35  51  77 110 151 194 243 303 357
#
# _framework density 22.276118
#
# number of rings (size 3 to 8) (size 9 to 14) (size 15 to 20)
#    0.000    1.655    2.069    2.897    0.000    3.310 
#    0.000    0.000    0.000    6.207    0.000    9.655 
#    0.000    0.000    0.000    0.000    0.000    0.000 
#
# Total GULP energy -323650.438055 kJ/mol
# GULP energy per Si atom -5580.179966 kJ/mol
# Density = 2.222542 g / cm^3
# Si number density = 22.276118 Si / 1000 Ang^3
#
#
#
# Elastic Constant Matrix: (Units=GPa)
#
#
# Indices 1 2 3 4 5 6 
#
# 1 53.0506 -20.4939 3.7495 0.0000 0.0000 0.0000
# 2 -20.4939 77.7291 -0.8893 0.0000 0.0000 0.0000
# 3 3.7495 -0.8893 53.4009 0.0000 0.0000 0.0000
# 4 0.0000 0.0000 0.0000 -34.7811 0.0000 0.0000
# 5 0.0000 0.0000 0.0000 0.0000 19.9267 0.0000
# 6 0.0000 0.0000 0.0000 0.0000 0.0000 10.4715
#
#
#
# Elastic Compliance Matrix: (Units=1/GPa)
#
#
# Indices 1 2 3 4 5 6 
#
# 1 0.021090 0.005545 -0.001388 0.000000 0.000000 0.000000
# 2 0.005545 0.014325 -0.000151 0.000000 0.000000 0.000000
# 3 -0.001388 -0.000151 0.018821 0.000000 0.000000 0.000000
# 4 0.000000 0.000000 0.000000 -0.028751 0.000000 0.000000
# 5 0.000000 0.000000 0.000000 0.000000 0.050184 0.000000
# 6 0.000000 0.000000 0.000000 0.000000 0.000000 0.095497
#
#
# Mechanical properties :
#
#
# Convention : Reuss Voigt Hill
#
# Bulk Modulus (GPa) = 16.06490 16.54591 16.30540
# Shear Modulus (GPa) = 27.18800 12.57771 19.88286
#
# Velocity S-wave (km/s) = 3.49736 2.37877 2.99082
# Velocity P-wave (km/s) = 4.85139 3.87150 4.38888
#
# Compressibility (1/GPa) = 0.06224751
#
# Stress axis : x y z
#
# Youngs Moduli (GPa) = 47.41582 69.80623 53.13140
#
# Poissons Ratio (x) = -0.38705 0.07377
# Poissons Ratio (y) = -0.26290 0.00801
# Poissons Ratio (z) = 0.06584 0.01052
#
# Static dielectric constant tensor:
#      x y z
#    x 1.831520 0.000000 0.000000 
#    y 0.000000 1.844590 0.000000 
#    z 0.000000 0.000000 1.899490 
# 
# From -- ./inp_files/30090.got.cif
#   From: 2010.05.17/outbox.cif.g08.bks.cpg/sg50_16_cif.got.tgz:30090.got - 2010.06.03 11:33:33.
