data_PCOD9395947
_publ_section_title
;
Structure prediction by ZEFSAII (Michael W. Deem and Ramdas Pophale) SiO2 
 PCOD9395947
Probable space group: P B A N
;
_chemical_formula_sum "Si O2"
_cell_formula_units_Z 56
_cell_length_a 15.097917
_cell_length_b 20.879961
_cell_length_c 9.342029
_cell_angle_alpha 90.000000
_cell_angle_beta 90.000000
_cell_angle_gamma 90.000000
_cell_volume 2945.017825
_symmetry_space_group_name_H-M "P B A N"
_symmetry_group_IT_number 50
_space_group.IT_coordinate_system_code '2'
_symmetry_cell_setting 'orthorhombic'
loop_
_space_group_symop_operation_xyz
x,y,z
1/2-x,1/2-y,z
x,1/2-y,-z
1/2-x,y,-z
-x,-y,-z
1/2+x,1/2+y,-z
-x,1/2+y,z
1/2+x,-y,z
loop_
_atom_site_type_symbol
_atom_site_label
_atom_site_fract_x
_atom_site_fract_y
_atom_site_fract_z
Si Si1 0.662869 0.548438 0.842309
Si Si2 0.351582 0.052252 0.270052
Si Si3 0.644650 0.437358 0.058837
Si Si4 0.686537 0.189239 0.789416
Si Si5 0.896919 0.496062 0.449150
Si Si6 0.958054 0.250000 0.000000
Si Si7 0.750000 0.115665 0.500000
Si Si8 0.538178 0.619362 0.057242
O O1 0.757102 0.573953 0.790046
O O2 0.606963 0.526883 0.706487
O O3 0.677320 0.482934 0.930929
O O4 0.613234 0.596899 0.946205
O O5 0.430297 0.095454 0.211441
O O6 0.367619 0.982889 0.196586
O O7 0.349528 0.042181 0.436968
O O8 0.695191 0.374883 0.115484
O O9 0.550087 0.414958 0.998360
O O10 0.750000 0.250000 0.807870
O O11 0.709038 0.160308 0.629161
O O12 0.598080 0.220157 0.865489
O O13 0.833498 0.431365 0.452240
O O14 0.000000 0.500000 0.500000
O O15 0.017738 0.306694 0.058385
#
# Coordination Sequence:
#
# PCOD9395947 Si02
#       8
#     8   8   8   8   8   4   4   8
#     4  11  21  35  62  94 127 166 213 282 338 403
#     4  11  20  37  57  92 125 163 217 270 348 391
#     4  10  19  36  59  87 122 159 219 266 327 396
#     4  11  24  41  62  89 129 183 216 276 319 409
#     4  12  23  38  61  96 136 175 209 280 342 401
#     4  10  25  42  65  90 132 170 244 270 337 399
#     4  12  25  44  62  98 142 173 234 264 346 412
#     4  10  21  37  61  91 119 167 215 282 327 406
#
# _framework density 19.015163999999999
#
# number of rings (size 3 to 8) (size 9 to 14) (size 15 to 20)
#    0.000    1.143    2.857    5.571    2.000    9.143 
#    0.000    1.429    0.000    0.000    0.000    2.000 
#    0.000    0.000    0.000    0.000    0.000    0.000 
#
# Total GULP energy -311822.779668 kJ/mol
# GULP energy per Si atom -5568.263923 kJ/mol
# Density = 1.897188 g / cm^3
# Si number density = 19.015164 Si / 1000 Ang^3
#
#
#
# Elastic Constant Matrix: (Units=GPa)
#
#
# Indices 1 2 3 4 5 6 
#
# 1 70.8096 31.7344 29.9205 0.0000 0.0000 0.0000
# 2 31.7344 117.3454 35.7680 0.0000 0.0000 0.0000
# 3 29.9205 35.7680 120.3666 0.0000 0.0000 0.0000
# 4 0.0000 0.0000 0.0000 10.8009 0.0000 0.0000
# 5 0.0000 0.0000 0.0000 0.0000 27.5617 0.0000
# 6 0.0000 0.0000 0.0000 0.0000 0.0000 24.6870
#
#
#
# Elastic Compliance Matrix: (Units=1/GPa)
#
#
# Indices 1 2 3 4 5 6 
#
# 1 0.017099 -0.003660 -0.003163 0.000000 0.000000 0.000000
# 2 -0.003660 0.010154 -0.002108 0.000000 0.000000 0.000000
# 3 -0.003163 -0.002108 0.009720 0.000000 0.000000 0.000000
# 4 0.000000 0.000000 0.000000 0.092584 0.000000 0.000000
# 5 0.000000 0.000000 0.000000 0.000000 0.036282 0.000000
# 6 0.000000 0.000000 0.000000 0.000000 0.000000 0.040507
#
#
# Mechanical properties :
#
#
# Convention : Reuss Voigt Hill
#
# Bulk Modulus (GPa) = 52.32142 55.92971 54.12557
# Shear Modulus (GPa) = 21.68449 26.68317 24.18383
#
# Velocity S-wave (km/s) = 3.38061 3.75007 3.57012
# Velocity P-wave (km/s) = 6.54320 6.94462 6.74690
#
# Compressibility (1/GPa) = 0.01911263
#
# Stress axis : x y z
#
# Youngs Moduli (GPa) = 58.48235 98.48251 102.87599
#
# Poissons Ratio (x) = 0.36046 0.32538
# Poissons Ratio (y) = 0.21405 0.21682
# Poissons Ratio (z) = 0.18497 0.20756
#
# Static dielectric constant tensor:
#      x y z
#    x 1.336310 0.000000 0.000000 
#    y 0.000000 1.637250 0.000000 
#    z 0.000000 0.000000 1.776850 
# 
# From -- ./inp_files/13324.got.cif
#   From: 2010.05.17/outbox.cif.g08.bks.cpg/sg50_7_cif.got.tgz:13324.got - 2010.06.03 11:33:33.
