data_PCOD9395403
_publ_section_title
;
Structure prediction by ZEFSAII (Michael W. Deem and Ramdas Pophale) SiO2 
 PCOD9395403
Probable space group: P B A N
;
_chemical_formula_sum "Si O2"
_cell_formula_units_Z 48
_cell_length_a 18.653892
_cell_length_b 14.441100
_cell_length_c 8.773707
_cell_angle_alpha 90.000000
_cell_angle_beta 90.000000
_cell_angle_gamma 90.000000
_cell_volume 2363.485054
_symmetry_space_group_name_H-M "P B A N"
_symmetry_group_IT_number 50
_space_group.IT_coordinate_system_code '2'
_symmetry_cell_setting 'orthorhombic'
loop_
_space_group_symop_operation_xyz
x,y,z
1/2-x,1/2-y,z
x,1/2-y,-z
1/2-x,y,-z
-x,-y,-z
1/2+x,1/2+y,-z
-x,1/2+y,z
1/2+x,-y,z
loop_
_atom_site_type_symbol
_atom_site_label
_atom_site_fract_x
_atom_site_fract_y
_atom_site_fract_z
Si Si1 0.324925 0.837706 0.913107
Si Si2 0.634558 0.207638 0.663713
Si Si3 0.419498 0.519463 0.232855
Si Si4 0.670667 0.487323 0.452739
Si Si5 0.026933 0.328602 0.704645
Si Si6 0.557165 0.873527 0.650753
O O1 0.321752 0.788119 0.748597
O O2 0.373193 0.927474 0.893570
O O3 0.358997 0.750000 0.000000
O O4 0.250000 0.855372 0.000000
O O5 0.617427 0.250000 0.500000
O O6 0.672997 0.109611 0.638310
O O7 0.556992 0.186030 0.736414
O O8 0.374830 0.525195 0.391439
O O9 0.438234 0.412621 0.202997
O O10 0.493471 0.573321 0.263799
O O11 0.750000 0.516344 0.500000
O O12 0.627759 0.563753 0.356125
O O13 0.032982 0.359794 0.526389
O O14 0.064952 0.229398 0.717070
#
# Coordination Sequence:
#
# PCOD9395403 Si02
#       6
#     8   8   8   8   8   8
#     4  11  26  40  55  89 138 165 203 277 341 385
#     4  12  19  37  66  97 122 164 217 265 329 397
#     4  11  19  38  61  87 126 167 214 260 319 384
#     4  11  22  31  59 100 131 163 205 259 327 394
#     4  10  16  31  65  94 121 161 208 267 310 378
#     4  10  17  34  58  99 132 151 207 272 311 378
#
# _framework density 20.308992
#
# number of rings (size 3 to 8) (size 9 to 14) (size 15 to 20)
#    0.000    1.167    8.333    1.000    4.667    0.333 
#    0.000    7.500    0.000    0.000    0.000    1.167 
#    0.000    0.000    0.000    0.000    0.000    0.000 
#
# Total GULP energy -267969.462527 kJ/mol
# GULP energy per Si atom -5582.697136 kJ/mol
# Density = 2.026277 g / cm^3
# Si number density = 20.308992 Si / 1000 Ang^3
#
#
#
# Elastic Constant Matrix: (Units=GPa)
#
#
# Indices 1 2 3 4 5 6 
#
# 1 144.5097 95.7678 35.8923 0.0000 0.0000 0.0000
# 2 95.7678 173.8572 33.2337 0.0000 0.0000 0.0000
# 3 35.8923 33.2337 26.5224 0.0000 0.0000 0.0000
# 4 0.0000 0.0000 0.0000 19.8657 0.0000 0.0000
# 5 0.0000 0.0000 0.0000 0.0000 23.4233 0.0000
# 6 0.0000 0.0000 0.0000 0.0000 0.0000 29.6941
#
#
#
# Elastic Compliance Matrix: (Units=1/GPa)
#
#
# Indices 1 2 3 4 5 6 
#
# 1 0.013085 -0.005027 -0.011409 0.000000 0.000000 0.000000
# 2 -0.005027 0.009495 -0.005094 0.000000 0.000000 0.000000
# 3 -0.011409 -0.005094 0.059527 0.000000 0.000000 0.000000
# 4 0.000000 0.000000 0.000000 0.050338 0.000000 0.000000
# 5 0.000000 0.000000 0.000000 0.000000 0.042693 0.000000
# 6 0.000000 0.000000 0.000000 0.000000 0.000000 0.033677
#
#
# Mechanical properties :
#
#
# Convention : Reuss Voigt Hill
#
# Bulk Modulus (GPa) = 25.61069 74.96411 50.28740
# Shear Modulus (GPa) = 18.87584 26.59633 22.73608
#
# Velocity S-wave (km/s) = 3.05197 3.62274 3.34954
# Velocity P-wave (km/s) = 5.00572 7.38180 6.30667
#
# Compressibility (1/GPa) = 0.03904620
#
# Stress axis : x y z
#
# Youngs Moduli (GPa) = 76.42377 105.32197 16.79921
#
# Poissons Ratio (x) = 0.52944 0.19166
# Poissons Ratio (y) = 0.38417 0.08558
# Poissons Ratio (z) = 0.87190 0.53655
#
# Static dielectric constant tensor:
#      x y z
#    x 1.736790 0.000000 0.000000 
#    y 0.000000 1.741500 0.000000 
#    z 0.000000 0.000000 1.814100 
# 
# From -- ./inp_files/14241.got.cif
#   From: 2010.05.17/outbox.cif.g08.bks.cpg/sg50_8_cif.got.tgz:14241.got - 2010.06.03 11:33:33.
