data_PCOD9395527
_publ_section_title
;
Structure prediction by ZEFSAII (Michael W. Deem and Ramdas Pophale) SiO2 
 PCOD9395527
Probable space group: P B A N
;
_chemical_formula_sum "Si O2"
_cell_formula_units_Z 60
_cell_length_a 24.147227
_cell_length_b 5.364316
_cell_length_c 22.336600
_cell_angle_alpha 90.000000
_cell_angle_beta 90.000000
_cell_angle_gamma 90.000000
_cell_volume 2893.334763
_symmetry_space_group_name_H-M "P B A N"
_symmetry_group_IT_number 50
_space_group.IT_coordinate_system_code '2'
_symmetry_cell_setting 'orthorhombic'
loop_
_space_group_symop_operation_xyz
x,y,z
1/2-x,1/2-y,z
x,1/2-y,-z
1/2-x,y,-z
-x,-y,-z
1/2+x,1/2+y,-z
-x,1/2+y,z
1/2+x,-y,z
loop_
_atom_site_type_symbol
_atom_site_label
_atom_site_fract_x
_atom_site_fract_y
_atom_site_fract_z
Si Si1 0.980138 0.921256 0.591571
Si Si2 0.136850 0.318508 0.386408
Si Si3 0.474836 0.534711 0.268330
Si Si4 0.351977 0.427304 0.263470
Si Si5 0.250000 0.750000 0.748747
Si Si6 0.685585 0.001919 0.974135
Si Si7 0.312105 0.684892 0.429882
Si Si8 0.307203 0.387290 0.839479
O O1 0.922115 0.776563 0.589693
O O2 0.990771 0.988384 0.661713
O O3 0.019866 0.702804 0.566297
O O4 0.139235 0.277276 0.315153
O O5 0.149262 0.606069 0.399181
O O6 0.176124 0.105063 0.415830
O O7 0.508459 0.766207 0.241863
O O8 0.408992 0.581564 0.265029
O O9 0.294456 0.565966 0.281346
O O10 0.344007 0.307036 0.197958
O O11 0.290447 0.593265 0.791369
O O12 0.677361 0.000230 0.902991
O O13 0.660978 0.750000 0.000000
O O14 0.750000 0.002484 0.000000
O O15 0.659863 0.250000 0.000000
O O16 0.250000 0.750000 0.410737
O O17 0.316670 0.750000 0.500000
O O18 0.250000 0.250000 0.854724
#
# Coordination Sequence:
#
# PCOD9395527 Si02
#       8
#     8   8   8   8   4   8   8   8
#     4   9  17  33  57  86 113 143 184 234 293 353
#     4  11  23  39  64  87 114 152 196 241 296 366
#     4   9  19  35  57  79 111 154 206 250 282 346
#     4  10  24  35  57  89 124 163 194 239 317 369
#     4  10  22  34  51  76 135 162 180 226 304 374
#     4  10  18  30  51  70 100 154 206 235 261 330
#     4  11  25  43  63  83 111 152 203 251 284 336
#     4  10  20  34  48  79 119 162 191 241 288 348
#
# _framework density 20.737316
#
# number of rings (size 3 to 8) (size 9 to 14) (size 15 to 20)
#    0.000    2.000    1.333    2.400    6.533    5.333 
#    0.000    0.000    0.000    8.000    0.000    0.000 
#    0.000    3.200    0.000    0.000    0.000    0.000 
#
# Total GULP energy -334467.385432 kJ/mol
# GULP energy per Si atom -5574.456424 kJ/mol
# Density = 2.069012 g / cm^3
# Si number density = 20.737316 Si / 1000 Ang^3
#
#
#
# Elastic Constant Matrix: (Units=GPa)
#
#
# Indices 1 2 3 4 5 6 
#
# 1 63.5384 18.0460 18.4932 0.0000 0.0000 0.0000
# 2 18.0460 94.0934 14.4376 0.0000 0.0000 0.0000
# 3 18.4932 14.4376 66.4090 0.0000 0.0000 0.0000
# 4 0.0000 0.0000 0.0000 31.8330 0.0000 0.0000
# 5 0.0000 0.0000 0.0000 0.0000 71.8779 0.0000
# 6 0.0000 0.0000 0.0000 0.0000 0.0000 16.1487
#
#
#
# Elastic Compliance Matrix: (Units=1/GPa)
#
#
# Indices 1 2 3 4 5 6 
#
# 1 0.017785 -0.002743 -0.004357 0.000000 0.000000 0.000000
# 2 -0.002743 0.011417 -0.001718 0.000000 0.000000 0.000000
# 3 -0.004357 -0.001718 0.016645 0.000000 0.000000 0.000000
# 4 0.000000 0.000000 0.000000 0.031414 0.000000 0.000000
# 5 0.000000 0.000000 0.000000 0.000000 0.013912 0.000000
# 6 0.000000 0.000000 0.000000 0.000000 0.000000 0.061924
#
#
# Mechanical properties :
#
#
# Convention : Reuss Voigt Hill
#
# Bulk Modulus (GPa) = 35.44504 36.22160 35.83332
# Shear Modulus (GPa) = 27.75649 35.50952 31.63301
#
# Velocity S-wave (km/s) = 3.66249 4.14254 3.90989
# Velocity P-wave (km/s) = 5.91732 6.35497 6.14005
#
# Compressibility (1/GPa) = 0.02821269
#
# Stress axis : x y z
#
# Youngs Moduli (GPa) = 56.22571 87.58557 60.07819
#
# Poissons Ratio (x) = 0.24021 0.26173
# Poissons Ratio (y) = 0.15420 0.10324
# Poissons Ratio (z) = 0.24495 0.15051
#
# Static dielectric constant tensor:
#      x y z
#    x 1.777250 0.000000 0.000000 
#    y 0.000000 1.664730 0.000000 
#    z 0.000000 0.000000 1.780410 
# 
# From -- ./inp_files/31264.got.cif
#   From: 2010.05.17/outbox.cif.g08.bks.cpg/sg50_16_cif.got.tgz:31264.got - 2010.06.03 11:33:33.
