data_PCOD9395152
_publ_section_title
;
Structure prediction by ZEFSAII (Michael W. Deem and Ramdas Pophale) SiO2 
 PCOD9395152
Probable space group: P C C M
;
_chemical_formula_sum "Si O2"
_cell_formula_units_Z 36
_cell_length_a 8.628615
_cell_length_b 9.302937
_cell_length_c 23.950365
_cell_angle_alpha 90.000000
_cell_angle_beta 90.000000
_cell_angle_gamma 90.000000
_cell_volume 1922.530808
_symmetry_space_group_name_H-M "P C C M"
_symmetry_group_IT_number 49
_symmetry_cell_setting 'orthorhombic'
loop_
_space_group_symop_operation_xyz
x,y,z
-x,-y,z
x,-y,1/2-z
-x,y,1/2-z
-x,-y,-z
x,y,-z
-x,y,1/2+z
x,-y,1/2+z
loop_
_atom_site_type_symbol
_atom_site_label
_atom_site_fract_x
_atom_site_fract_y
_atom_site_fract_z
Si Si1 0.153628 0.685977 0.099207
Si Si2 0.000000 0.000000 0.250000
Si Si3 0.000000 0.500000 0.000000
Si Si4 0.683738 0.525566 0.185992
Si Si5 0.845405 0.181739 0.346102
Si Si6 0.684010 0.975133 0.435871
O O1 0.234174 0.586812 0.145269
O O2 0.266859 0.812554 0.078394
O O3 0.095948 0.588316 0.048615
O O4 0.003157 0.758629 0.126938
O O5 0.893351 0.903795 0.209562
O O6 0.500000 0.500000 0.182477
O O7 0.732834 0.500000 0.250000
O O8 0.733948 0.685211 0.168072
O O9 0.767675 0.077635 0.391496
O O10 0.731952 0.007710 0.500000
O O11 0.500000 0.000000 0.432004
#
# Coordination Sequence:
#
# PCOD9395152 Si02
#       6
#     8   2   2   8   8   8
#     4  12  23  44  67  97 131 170 222 268 324 389
#     4  12  24  40  66 100 128 168 228 266 332 388
#     4  12  24  40  68 100 130 172 224 270 326 384
#     4  11  25  44  67  95 131 171 215 269 328 388
#     4  12  24  42  68  95 129 170 219 270 323 390
#     4  11  25  43  65  95 133 172 214 270 330 389
#
# _framework density 18.725317
#
# number of rings (size 3 to 8) (size 9 to 14) (size 15 to 20)
#    0.000    0.444    5.556    2.667    1.556    1.778 
#    0.000    0.556    0.000    0.000    0.000    0.000 
#    0.000    0.000    0.000    0.000    0.000    0.000 
#
# Total GULP energy -200837.722475 kJ/mol
# GULP energy per Si atom -5578.825624 kJ/mol
# Density = 1.868270 g / cm^3
# Si number density = 18.725317 Si / 1000 Ang^3
#
#
#
# Elastic Constant Matrix: (Units=GPa)
#
#
# Indices 1 2 3 4 5 6 
#
# 1 95.2828 76.9606 80.7945 0.0000 0.0000 0.0000
# 2 76.9606 151.9198 100.0793 0.0000 0.0000 0.0000
# 3 80.7945 100.0793 211.9345 0.0000 0.0000 0.0000
# 4 0.0000 0.0000 0.0000 -3.5979 0.0000 0.0000
# 5 0.0000 0.0000 0.0000 0.0000 -19.0709 0.0000
# 6 0.0000 0.0000 0.0000 0.0000 0.0000 48.4071
#
#
#
# Elastic Compliance Matrix: (Units=1/GPa)
#
#
# Indices 1 2 3 4 5 6 
#
# 1 0.019963 -0.007402 -0.004115 0.000000 0.000000 0.000000
# 2 -0.007402 0.012299 -0.002986 0.000000 0.000000 0.000000
# 3 -0.004115 -0.002986 0.007697 0.000000 0.000000 0.000000
# 4 0.000000 0.000000 0.000000 -0.277940 0.000000 0.000000
# 5 0.000000 0.000000 0.000000 0.000000 -0.052436 0.000000
# 6 0.000000 0.000000 0.000000 0.000000 0.000000 0.020658
#
#
# Mechanical properties :
#
#
# Convention : Reuss Voigt Hill
#
# Bulk Modulus (GPa) = 91.29742 108.31175 99.80459
# Shear Modulus (GPa) = -21.08812 18.56786 -1.26013
#
# Velocity S-wave (km/s) = -3.35950 3.15237 -0.82123
# Velocity P-wave (km/s) = 5.81495 8.43907 7.24678
#
# Compressibility (1/GPa) = 0.01095321
#
# Stress axis : x y z
#
# Youngs Moduli (GPa) = 50.09213 81.30432 129.91669
#
# Poissons Ratio (x) = 0.60184 0.53460
# Poissons Ratio (y) = 0.37080 0.38794
# Poissons Ratio (z) = 0.20613 0.24278
#
# Static dielectric constant tensor:
#      x y z
#    x 1.606570 0.000000 0.000000 
#    y 0.000000 1.635350 0.000000 
#    z 0.000000 0.000000 1.624260 
# 
# From -- ./inp_files/19488.got.cif
#   From: 2010.05.17/outbox.cif.g08.bks.cpg/sg49_10_cif.got.tgz:19488.got - 2010.06.03 21:02:19.
