data_PCOD9395666
_publ_section_title
;
Structure prediction by ZEFSAII (Michael W. Deem and Ramdas Pophale) SiO2 
 PCOD9395666
Probable space group: P B A N
;
_chemical_formula_sum "Si O2"
_cell_formula_units_Z 40
_cell_length_a 15.634641
_cell_length_b 33.693272
_cell_length_c 5.161485
_cell_angle_alpha 90.000000
_cell_angle_beta 90.000000
_cell_angle_gamma 90.000000
_cell_volume 2718.978485
_symmetry_space_group_name_H-M "P B A N"
_symmetry_group_IT_number 50
_space_group.IT_coordinate_system_code '2'
_symmetry_cell_setting 'orthorhombic'
loop_
_space_group_symop_operation_xyz
x,y,z
1/2-x,1/2-y,z
x,1/2-y,-z
1/2-x,y,-z
-x,-y,-z
1/2+x,1/2+y,-z
-x,1/2+y,z
1/2+x,-y,z
loop_
_atom_site_type_symbol
_atom_site_label
_atom_site_fract_x
_atom_site_fract_y
_atom_site_fract_z
Si Si1 0.693446 0.002630 0.252576
Si Si2 0.353511 0.795201 0.513277
Si Si3 0.853225 0.154317 0.010701
Si Si4 0.442383 0.570964 0.104882
Si Si5 0.963979 0.957052 0.585474
O O1 0.750000 0.014625 0.500000
O O2 0.631401 0.039067 0.175108
O O3 0.634437 0.965950 0.346586
O O4 0.750000 0.993280 0.000000
O O5 0.385564 0.750000 0.500000
O O6 0.250000 0.792997 0.500000
O O7 0.377558 0.824601 0.279825
O O8 0.375895 0.815132 0.783698
O O9 0.750000 0.148129 0.000000
O O10 0.899458 0.112977 0.955674
O O11 0.508500 0.570860 0.346664
O O12 0.489659 0.556085 0.847369
O O13 0.000000 0.000000 0.500000
#
# Coordination Sequence:
#
# PCOD9395666 Si02
#       5
#     8   8   8   8   8
#     4  11  20  31  47  64  82 111 152 189 219 255
#     4   9  17  29  42  58  83 112 143 179 214 251
#     4  10  19  28  43  64  83 110 149 185 216 247
#     4  11  20  32  45  63  89 113 144 188 229 255
#     4  10  20  33  45  60  85 116 143 178 228 271
#
# _framework density 14.711406
#
# number of rings (size 3 to 8) (size 9 to 14) (size 15 to 20)
#    0.000    1.800    0.000    8.400    0.000    4.800 
#    0.000    0.000    0.000    0.000    0.000    0.000 
#    0.000    0.000    0.000    0.000    0.000  210.000 
#
# Total GULP energy -223046.906609 kJ/mol
# GULP energy per Si atom -5576.172665 kJ/mol
# Density = 1.467792 g / cm^3
# Si number density = 14.711406 Si / 1000 Ang^3
#
#
#
# Elastic Constant Matrix: (Units=GPa)
#
#
# Indices 1 2 3 4 5 6 
#
# 1 42.2875 29.7770 31.2279 0.0000 0.0000 0.0000
# 2 29.7770 80.0406 28.0418 0.0000 0.0000 0.0000
# 3 31.2279 28.0418 113.8618 0.0000 0.0000 0.0000
# 4 0.0000 0.0000 0.0000 15.7088 0.0000 0.0000
# 5 0.0000 0.0000 0.0000 0.0000 26.2219 0.0000
# 6 0.0000 0.0000 0.0000 0.0000 0.0000 5.9164
#
#
#
# Elastic Compliance Matrix: (Units=1/GPa)
#
#
# Indices 1 2 3 4 5 6 
#
# 1 0.036965 -0.011163 -0.007389 0.000000 0.000000 0.000000
# 2 -0.011163 0.017045 -0.001136 0.000000 0.000000 0.000000
# 3 -0.007389 -0.001136 0.011089 0.000000 0.000000 0.000000
# 4 0.000000 0.000000 0.000000 0.063659 0.000000 0.000000
# 5 0.000000 0.000000 0.000000 0.000000 0.038136 0.000000
# 6 0.000000 0.000000 0.000000 0.000000 0.000000 0.169022
#
#
# Mechanical properties :
#
#
# Convention : Reuss Voigt Hill
#
# Bulk Modulus (GPa) = 38.87706 46.03150 42.45428
# Shear Modulus (GPa) = 13.02543 19.37895 16.20219
#
# Velocity S-wave (km/s) = 2.97879 3.63336 3.32224
# Velocity P-wave (km/s) = 6.18989 6.99710 6.60584
#
# Compressibility (1/GPa) = 0.02572211
#
# Stress axis : x y z
#
# Youngs Moduli (GPa) = 27.05296 58.66950 90.18088
#
# Poissons Ratio (x) = 0.65493 0.66632
# Poissons Ratio (y) = 0.30199 0.10246
# Poissons Ratio (z) = 0.19989 0.06666
#
# Static dielectric constant tensor:
#      x y z
#    x 1.499450 0.000000 0.000000 
#    y 0.000000 1.478140 0.000000 
#    z 0.000000 0.000000 1.506310 
# 
# From -- ./inp_files/3642.got.cif
#   From: 2010.05.17/outbox.cif.g08.bks.cpg/sg50_2_cif.got.tgz:3642.got - 2010.06.03 11:33:33.
