data_PCOD9395971
_publ_section_title
;
Structure prediction by ZEFSAII (Michael W. Deem and Ramdas Pophale) SiO2 
 PCOD9395971
Probable space group: P B A N
;
_chemical_formula_sum "Si O2"
_cell_formula_units_Z 40
_cell_length_a 14.849835
_cell_length_b 16.053369
_cell_length_c 7.589316
_cell_angle_alpha 90.000000
_cell_angle_beta 90.000000
_cell_angle_gamma 90.000000
_cell_volume 1809.216137
_symmetry_space_group_name_H-M "P B A N"
_symmetry_group_IT_number 50
_space_group.IT_coordinate_system_code '2'
_symmetry_cell_setting 'orthorhombic'
loop_
_space_group_symop_operation_xyz
x,y,z
1/2-x,1/2-y,z
x,1/2-y,-z
1/2-x,y,-z
-x,-y,-z
1/2+x,1/2+y,-z
-x,1/2+y,z
1/2+x,-y,z
loop_
_atom_site_type_symbol
_atom_site_label
_atom_site_fract_x
_atom_site_fract_y
_atom_site_fract_z
Si Si1 0.417762 0.430843 0.807641
Si Si2 0.797767 0.170605 0.808147
Si Si3 0.727189 0.981627 0.299618
Si Si4 0.032630 0.415178 0.786095
Si Si5 0.002717 0.231524 0.802779
O O1 0.312440 0.451466 0.815210
O O2 0.466502 0.511102 0.723738
O O3 0.438305 0.342005 0.717779
O O4 0.463915 0.419915 0.999725
O O5 0.750000 0.250000 0.719102
O O6 0.902072 0.195502 0.821188
O O7 0.786617 0.080583 0.723787
O O8 0.750000 0.163116 0.000000
O O9 0.750000 0.963943 0.500000
O O10 0.634437 0.935787 0.261333
O O11 0.002051 0.324052 0.722342
O O12 0.039596 0.250000 0.000000
#
# Coordination Sequence:
#
# PCOD9395971 Si02
#       5
#     8   8   8   8   8
#     4  10  21  39  66  92 125 161 218 271 321 370
#     4  11  20  37  69  98 125 154 217 276 324 373
#     4  12  26  41  61  91 135 181 210 251 318 392
#     4  10  21  40  66  95 127 161 215 273 321 376
#     4  10  19  36  64 101 119 156 208 278 324 366
#
# _framework density 22.109023000000001
#
# number of rings (size 3 to 8) (size 9 to 14) (size 15 to 20)
#    0.000    1.400    4.000    3.000    2.800    2.000 
#    0.000    5.000    0.000    0.000    0.000    0.000 
#    0.000    0.000    0.000    0.000    0.000    0.000 
#
# Total GULP energy -223392.860927 kJ/mol
# GULP energy per Si atom -5584.821523 kJ/mol
# Density = 2.205870 g / cm^3
# Si number density = 22.109023 Si / 1000 Ang^3
#
#
#
# Elastic Constant Matrix: (Units=GPa)
#
#
# Indices 1 2 3 4 5 6 
#
# 1 149.5598 78.6579 -10.4293 0.0000 0.0000 0.0000
# 2 78.6579 198.8489 3.8688 0.0000 0.0000 0.0000
# 3 -10.4293 3.8688 19.0354 0.0000 0.0000 0.0000
# 4 0.0000 0.0000 0.0000 34.6966 0.0000 0.0000
# 5 0.0000 0.0000 0.0000 0.0000 -5.6191 0.0000
# 6 0.0000 0.0000 0.0000 0.0000 0.0000 66.1031
#
#
#
# Elastic Compliance Matrix: (Units=1/GPa)
#
#
# Indices 1 2 3 4 5 6 
#
# 1 0.009017 -0.003677 0.005688 0.000000 0.000000 0.000000
# 2 -0.003677 0.006549 -0.003346 0.000000 0.000000 0.000000
# 3 0.005688 -0.003346 0.056330 0.000000 0.000000 0.000000
# 4 0.000000 0.000000 0.000000 0.028821 0.000000 0.000000
# 5 0.000000 0.000000 0.000000 0.000000 -0.177964 0.000000
# 6 0.000000 0.000000 0.000000 0.000000 0.000000 0.015128
#
#
# Mechanical properties :
#
#
# Convention : Reuss Voigt Hill
#
# Bulk Modulus (GPa) = 14.44577 56.84877 35.64727
# Shear Modulus (GPa) = -137.46341 38.72591 -49.36875
#
# Velocity S-wave (km/s) = -7.89368 4.18974 -4.73056
# Velocity P-wave (km/s) = 8.74827 7.01241 3.69853
#
# Compressibility (1/GPa) = 0.06922440
#
# Stress axis : x y z
#
# Youngs Moduli (GPa) = 110.90148 152.70135 17.75259
#
# Poissons Ratio (x) = 0.56156 -0.10097
# Poissons Ratio (y) = 0.40784 0.05940
# Poissons Ratio (z) = -0.63078 0.51091
#
# Static dielectric constant tensor:
#      x y z
#    x 1.788840 0.000000 0.000000 
#    y 0.000000 1.886380 0.000000 
#    z 0.000000 0.000000 1.839520 
# 
# From -- ./inp_files/12540.got.cif
#   From: 2010.05.17/outbox.cif.g08.bks.cpg/sg50_7_cif.got.tgz:12540.got - 2010.06.03 11:33:33.
