data_PCOD9395333
_publ_section_title
;
Structure prediction by ZEFSAII (Michael W. Deem and Ramdas Pophale) SiO2 
 PCOD9395333
Probable space group: P B A N
;
_chemical_formula_sum "Si O2"
_cell_formula_units_Z 64
_cell_length_a 5.295974
_cell_length_b 26.660174
_cell_length_c 26.587625
_cell_angle_alpha 90.000000
_cell_angle_beta 90.000000
_cell_angle_gamma 90.000000
_cell_volume 3753.949004
_symmetry_space_group_name_H-M "P B A N"
_symmetry_group_IT_number 50
_space_group.IT_coordinate_system_code '2'
_symmetry_cell_setting 'orthorhombic'
loop_
_space_group_symop_operation_xyz
x,y,z
1/2-x,1/2-y,z
x,1/2-y,-z
1/2-x,y,-z
-x,-y,-z
1/2+x,1/2+y,-z
-x,1/2+y,z
1/2+x,-y,z
loop_
_atom_site_type_symbol
_atom_site_label
_atom_site_fract_x
_atom_site_fract_y
_atom_site_fract_z
Si Si1 0.288766 0.632495 0.695073
Si Si2 0.934908 0.480491 0.556241
Si Si3 0.706302 0.693157 0.304638
Si Si4 0.292982 0.867721 0.425996
Si Si5 0.618909 0.030488 0.868313
Si Si6 0.502439 0.058227 0.977877
Si Si7 0.408284 0.532400 0.753526
Si Si8 0.702339 0.807019 0.573492
O O1 0.541218 0.663056 0.707152
O O2 0.272511 0.628599 0.634556
O O3 0.328285 0.578007 0.718355
O O4 0.041968 0.663195 0.712893
O O5 0.713225 0.514287 0.580720
O O6 0.829112 0.424431 0.555632
O O7 0.000000 0.500000 0.500000
O O8 0.750000 0.750000 0.286893
O O9 0.681319 0.695567 0.365611
O O10 0.548354 0.838340 0.438516
O O11 0.048418 0.836528 0.443999
O O12 0.534026 0.059614 0.918053
O O13 0.591059 0.050526 0.811889
O O14 0.413256 0.985049 0.871841
O O15 0.250000 0.080890 0.000000
O O16 0.750000 0.082647 0.000000
O O17 0.500000 0.000000 0.000000
O O18 0.687855 0.509332 0.746158
O O19 0.750000 0.750000 0.556483
#
# Coordination Sequence:
#
# PCOD9395333 Si02
#       8
#     8   8   8   8   8   8   8   8
#     4  10  19  31  46  68  94 122 158 192 228 275
#     4  10  21  36  52  73  96 125 161 198 234 266
#     4   9  17  30  49  69  92 117 148 193 242 281
#     4  10  19  31  51  74  97 125 156 192 233 275
#     4  10  16  25  35  50  72 104 145 188 221 261
#     4  10  14  20  34  51  67  88 132 195 231 253
#     4  10  21  31  41  56  87 129 163 190 217 266
#     4   9  17  30  49  77 104 122 143 183 237 290
#
# _framework density 17.048712999999999
#
# number of rings (size 3 to 8) (size 9 to 14) (size 15 to 20)
#    0.000    2.250    2.500    2.250    0.000    4.000 
#    0.000    0.000    0.000    0.000    0.000   26.250 
#    0.000    0.000    0.000    0.000    0.000    9.375 
#
# Total GULP energy -356460.797065 kJ/mol
# GULP energy per Si atom -5569.699954 kJ/mol
# Density = 1.700991 g / cm^3
# Si number density = 17.048713 Si / 1000 Ang^3
#
#
#
# Elastic Constant Matrix: (Units=GPa)
#
#
# Indices 1 2 3 4 5 6 
#
# 1 150.5661 50.7778 22.6131 0.0000 0.0000 0.0000
# 2 50.7778 97.3990 19.7465 0.0000 0.0000 0.0000
# 3 22.6131 19.7465 55.8203 0.0000 0.0000 0.0000
# 4 0.0000 0.0000 0.0000 3.2100 0.0000 0.0000
# 5 0.0000 0.0000 0.0000 0.0000 12.8275 0.0000
# 6 0.0000 0.0000 0.0000 0.0000 0.0000 18.2380
#
#
#
# Elastic Compliance Matrix: (Units=1/GPa)
#
#
# Indices 1 2 3 4 5 6 
#
# 1 0.008253 -0.003905 -0.001962 0.000000 0.000000 0.000000
# 2 -0.003905 0.012908 -0.002984 0.000000 0.000000 0.000000
# 3 -0.001962 -0.002984 0.019765 0.000000 0.000000 0.000000
# 4 0.000000 0.000000 0.000000 0.311531 0.000000 0.000000
# 5 0.000000 0.000000 0.000000 0.000000 0.077957 0.000000
# 6 0.000000 0.000000 0.000000 0.000000 0.000000 0.054831
#
#
# Mechanical properties :
#
#
# Convention : Reuss Voigt Hill
#
# Bulk Modulus (GPa) = 43.05936 54.45112 48.75524
# Shear Modulus (GPa) = 9.79070 20.89829 15.34450
#
# Velocity S-wave (km/s) = 2.39901 3.50494 3.00332
# Velocity P-wave (km/s) = 5.74327 6.95610 6.37858
#
# Compressibility (1/GPa) = 0.02322376
#
# Stress axis : x y z
#
# Youngs Moduli (GPa) = 121.16523 77.47222 50.59407
#
# Poissons Ratio (x) = 0.30252 0.09927
# Poissons Ratio (y) = 0.47314 0.15099
# Poissons Ratio (z) = 0.23773 0.23120
#
# Static dielectric constant tensor:
#      x y z
#    x 1.639500 0.000000 0.000000 
#    y 0.000000 1.582100 0.000000 
#    z 0.000000 0.000000 1.564200 
# 
# From -- ./inp_files/32122.got.cif
#   From: 2010.05.17/outbox.cif.g08.bks.cpg/sg50_17_cif.got.tgz:32122.got - 2010.06.03 11:33:33.
