data_PCOD9395013
_publ_section_title
;
Structure prediction by ZEFSAII (Michael W. Deem and Ramdas Pophale) SiO2 
 PCOD9395013
Probable space group: P C C M
;
_chemical_formula_sum "Si O2"
_cell_formula_units_Z 48
_cell_length_a 19.513105
_cell_length_b 9.772266
_cell_length_c 13.976962
_cell_angle_alpha 90.000000
_cell_angle_beta 90.000000
_cell_angle_gamma 90.000000
_cell_volume 2665.228483
_symmetry_space_group_name_H-M "P C C M"
_symmetry_group_IT_number 49
_symmetry_cell_setting 'orthorhombic'
loop_
_space_group_symop_operation_xyz
x,y,z
-x,-y,z
x,-y,1/2-z
-x,y,1/2-z
-x,-y,-z
x,y,-z
-x,y,1/2+z
x,-y,1/2+z
loop_
_atom_site_type_symbol
_atom_site_label
_atom_site_fract_x
_atom_site_fract_y
_atom_site_fract_z
Si Si1 0.664621 0.129506 0.319278
Si Si2 0.425574 0.655167 0.213249
Si Si3 0.566253 0.898825 0.000000
Si Si4 0.095635 0.083430 0.000000
Si Si5 0.051433 0.230968 0.500000
Si Si6 0.926346 0.344289 0.209550
Si Si7 0.822567 0.141544 0.690912
Si Si8 0.533692 0.648311 0.500000
O O1 0.630812 0.254297 0.263112
O O2 0.616333 0.092035 0.408937
O O3 0.743640 0.166955 0.337589
O O4 0.664476 0.000000 0.250000
O O5 0.419888 0.500000 0.250000
O O6 0.500000 0.705493 0.250000
O O7 0.424952 0.664855 0.098490
O O8 0.500000 0.000000 0.000000
O O9 0.529429 0.752485 0.000000
O O10 0.135545 0.122526 0.094637
O O11 0.026409 0.173953 0.000000
O O12 0.088553 0.917731 0.000000
O O13 0.068142 0.318941 0.404800
O O14 0.920500 0.500000 0.250000
O O15 0.862101 0.257467 0.248602
O O16 0.000000 0.291466 0.250000
O O17 0.825146 0.000000 0.750000
O O18 0.500000 0.500000 0.500000
#
# Coordination Sequence:
#
# PCOD9395013 Si02
#       8
#     8   8   4   4   4   8   8   4
#     4  11  25  40  59  90 126 164 207 261 318 381
#     4  11  21  38  62  88 119 158 203 258 312 376
#     4  12  23  37  62  87 121 161 208 262 320 380
#     4  11  21  37  71  96 126 165 221 268 307 387
#     4  11  22  38  69 103 123 168 220 265 319 380
#     4  11  24  41  65  98 136 167 212 272 330 393
#     4  11  23  42  63  91 129 173 215 264 325 384
#     4  12  20  35  61  91 114 150 206 257 305 372
#
# _framework density 18.009713999999999
#
# number of rings (size 3 to 8) (size 9 to 14) (size 15 to 20)
#    0.000    0.833    6.667    1.500    0.000    3.000 
#    0.000    1.667    0.000    0.000    0.000    0.000 
#    0.000    0.000    0.000    0.000    0.000    0.000 
#
# Total GULP energy -267878.129104 kJ/mol
# GULP energy per Si atom -5580.794356 kJ/mol
# Density = 1.796872 g / cm^3
# Si number density = 18.009714 Si / 1000 Ang^3
#
#
#
# Elastic Constant Matrix: (Units=GPa)
#
#
# Indices 1 2 3 4 5 6 
#
# 1 128.8793 58.3650 63.9304 0.0000 0.0000 0.0000
# 2 58.3650 85.0289 39.5702 0.0000 0.0000 0.0000
# 3 63.9304 39.5702 181.1267 0.0000 0.0000 0.0000
# 4 0.0000 0.0000 0.0000 21.4866 0.0000 0.0000
# 5 0.0000 0.0000 0.0000 0.0000 31.8135 0.0000
# 6 0.0000 0.0000 0.0000 0.0000 0.0000 19.6046
#
#
#
# Elastic Compliance Matrix: (Units=1/GPa)
#
#
# Indices 1 2 3 4 5 6 
#
# 1 0.012421 -0.007220 -0.002807 0.000000 0.000000 0.000000
# 2 -0.007220 0.017288 -0.001229 0.000000 0.000000 0.000000
# 3 -0.002807 -0.001229 0.006780 0.000000 0.000000 0.000000
# 4 0.000000 0.000000 0.000000 0.046541 0.000000 0.000000
# 5 0.000000 0.000000 0.000000 0.000000 0.031433 0.000000
# 6 0.000000 0.000000 0.000000 0.000000 0.000000 0.051008
#
#
# Mechanical properties :
#
#
# Convention : Reuss Voigt Hill
#
# Bulk Modulus (GPa) = 71.53621 79.86291 75.69956
# Shear Modulus (GPa) = 25.95486 30.12554 28.04020
#
# Velocity S-wave (km/s) = 3.80038 4.09435 3.95010
# Velocity P-wave (km/s) = 7.68533 8.17265 7.93273
#
# Compressibility (1/GPa) = 0.01397893
#
# Stress axis : x y z
#
# Youngs Moduli (GPa) = 80.50793 57.84277 147.48997
#
# Poissons Ratio (x) = 0.41761 0.41399
# Poissons Ratio (y) = 0.58125 0.18121
# Poissons Ratio (z) = 0.22598 0.07107
#
# Static dielectric constant tensor:
#      x y z
#    x 1.606050 0.000000 0.000000 
#    y 0.000000 1.553890 0.000000 
#    z 0.000000 0.000000 1.589830 
# 
# From -- ./inp_files/14070.got.cif
#   From: 2010.05.17/outbox.cif.g08.bks.cpg/sg49_8_cif.got.tgz:14070.got - 2010.06.03 21:02:19.
