data_PCOD9395459
_publ_section_title
;
Structure prediction by ZEFSAII (Michael W. Deem and Ramdas Pophale) SiO2 
 PCOD9395459
Probable space group: P B A N
;
_chemical_formula_sum "Si O2"
_cell_formula_units_Z 58
_cell_length_a 24.848441
_cell_length_b 8.602576
_cell_length_c 14.463332
_cell_angle_alpha 90.000000
_cell_angle_beta 90.000000
_cell_angle_gamma 90.000000
_cell_volume 3091.690558
_symmetry_space_group_name_H-M "P B A N"
_symmetry_group_IT_number 50
_space_group.IT_coordinate_system_code '2'
_symmetry_cell_setting 'orthorhombic'
loop_
_space_group_symop_operation_xyz
x,y,z
1/2-x,1/2-y,z
x,1/2-y,-z
1/2-x,y,-z
-x,-y,-z
1/2+x,1/2+y,-z
-x,1/2+y,z
1/2+x,-y,z
loop_
_atom_site_type_symbol
_atom_site_label
_atom_site_fract_x
_atom_site_fract_y
_atom_site_fract_z
Si Si1 0.094470 0.446511 0.333979
Si Si2 0.059501 0.567195 0.518704
Si Si3 0.344593 0.575879 0.095870
Si Si4 0.250000 0.750000 0.000000
Si Si5 0.884931 0.825458 0.785808
Si Si6 0.582195 0.892854 0.947603
Si Si7 0.468184 0.945119 0.721959
Si Si8 0.580837 0.336954 0.177275
O O1 0.097321 0.488197 0.441755
O O2 0.118775 0.280911 0.305289
O O3 0.112764 0.578435 0.261404
O O4 0.030218 0.448567 0.308073
O O5 0.058715 0.750000 0.500000
O O6 0.067272 0.547671 0.627817
O O7 0.000000 0.500000 0.500000
O O8 0.288152 0.637775 0.059950
O O9 0.343957 0.461155 0.184841
O O10 0.379004 0.728869 0.119794
O O11 0.377758 0.477913 0.018893
O O12 0.885951 0.699363 0.867791
O O13 0.942015 0.916761 0.780995
O O14 0.554765 0.032400 0.889915
O O15 0.552208 0.750000 0.000000
O O16 0.458920 0.784892 0.775093
#
# Coordination Sequence:
#
# PCOD9395459 Si02
#       8
#     8   8   8   2   8   8   8   8
#     4  10  19  31  51  69 108 152 187 222 259 302
#     4  10  20  30  45  74 108 142 191 241 265 286
#     4  10  20  35  57  79 100 129 161 217 277 341
#     4  12  20  36  66  88  92 126 166 212 300 348
#     4   9  20  32  50  74 105 145 173 219 273 303
#     4   9  17  33  51  69  95 136 163 207 276 311
#     4  10  19  30  49  75 103 147 196 220 256 300
#     4  10  17  31  51  70 103 140 171 217 268 305
#
# _framework density 18.759964
#
# number of rings (size 3 to 8) (size 9 to 14) (size 15 to 20)
#    0.000    2.207    2.759    0.828    5.793    0.000 
#    0.000    3.103    0.000  117.517    0.000    0.000 
#    0.000    8.828   10.483    0.000    0.000    0.000 
#
# Total GULP energy -322877.317274 kJ/mol
# GULP energy per Si atom -5566.850298 kJ/mol
# Density = 1.871727 g / cm^3
# Si number density = 18.759964 Si / 1000 Ang^3
#
#
#
# Elastic Constant Matrix: (Units=GPa)
#
#
# Indices 1 2 3 4 5 6 
#
# 1 41.1473 28.1229 27.9002 0.0000 0.0000 0.0000
# 2 28.1229 131.3314 54.7828 0.0000 0.0000 0.0000
# 3 27.9002 54.7828 104.0408 0.0000 0.0000 0.0000
# 4 0.0000 0.0000 0.0000 43.2728 0.0000 0.0000
# 5 0.0000 0.0000 0.0000 0.0000 5.6398 0.0000
# 6 0.0000 0.0000 0.0000 0.0000 0.0000 11.7901
#
#
#
# Elastic Compliance Matrix: (Units=1/GPa)
#
#
# Indices 1 2 3 4 5 6 
#
# 1 0.031343 -0.004108 -0.006242 0.000000 0.000000 0.000000
# 2 -0.004108 0.010296 -0.004320 0.000000 0.000000 0.000000
# 3 -0.006242 -0.004320 0.013560 0.000000 0.000000 0.000000
# 4 0.000000 0.000000 0.000000 0.023109 0.000000 0.000000
# 5 0.000000 0.000000 0.000000 0.000000 0.177312 0.000000
# 6 0.000000 0.000000 0.000000 0.000000 0.000000 0.084817
#
#
# Mechanical properties :
#
#
# Convention : Reuss Voigt Hill
#
# Bulk Modulus (GPa) = 38.67040 55.34791 47.00915
# Shear Modulus (GPa) = 13.21366 23.18810 18.20088
#
# Velocity S-wave (km/s) = 2.65685 3.51955 3.11818
# Velocity P-wave (km/s) = 5.48359 6.78849 6.17063
#
# Compressibility (1/GPa) = 0.02585958
#
# Stress axis : x y z
#
# Youngs Moduli (GPa) = 31.90498 97.12629 73.74584
#
# Poissons Ratio (x) = 0.39898 0.46033
# Poissons Ratio (y) = 0.13106 0.31856
# Poissons Ratio (z) = 0.19915 0.41956
#
# Static dielectric constant tensor:
#      x y z
#    x 1.616380 0.000000 0.000000 
#    y 0.000000 1.707110 0.000000 
#    z 0.000000 0.000000 1.759570 
# 
# From -- ./inp_files/27473.got.cif
#   From: 2010.05.17/outbox.cif.g08.bks.cpg/sg50_14_cif.got.tgz:27473.got - 2010.06.03 11:33:33.
