data_PCOD9395134
_publ_section_title
;
Structure prediction by ZEFSAII (Michael W. Deem and Ramdas Pophale) SiO2 
 PCOD9395134
Probable space group: P C C M
;
_chemical_formula_sum "Si O2"
_cell_formula_units_Z 64
_cell_length_a 12.780668
_cell_length_b 14.646352
_cell_length_c 17.080660
_cell_angle_alpha 90.000000
_cell_angle_beta 90.000000
_cell_angle_gamma 90.000000
_cell_volume 3197.331518
_symmetry_space_group_name_H-M "P C C M"
_symmetry_group_IT_number 49
_symmetry_cell_setting 'orthorhombic'
loop_
_space_group_symop_operation_xyz
x,y,z
-x,-y,z
x,-y,1/2-z
-x,y,1/2-z
-x,-y,-z
x,y,-z
-x,y,1/2+z
x,-y,1/2+z
loop_
_atom_site_type_symbol
_atom_site_label
_atom_site_fract_x
_atom_site_fract_y
_atom_site_fract_z
Si Si1 0.239951 0.564748 0.404206
Si Si2 0.878649 0.733532 0.911598
Si Si3 0.980870 0.103840 0.842645
Si Si4 0.382145 0.986415 0.157469
Si Si5 0.343976 0.167676 0.087667
Si Si6 0.457123 0.338266 0.904118
Si Si7 0.307419 0.371639 0.595182
Si Si8 0.240809 0.169016 0.405425
O O1 0.234941 0.568247 0.500000
O O2 0.147591 0.633013 0.376626
O O3 0.356208 0.601595 0.382451
O O4 0.241301 0.459457 0.378877
O O5 0.761484 0.774101 0.916017
O O6 0.947274 0.812476 0.872780
O O7 0.920430 0.721391 0.000000
O O8 0.864011 0.130738 0.866844
O O9 0.000000 0.100094 0.750000
O O10 0.000000 0.000000 0.873488
O O11 0.334156 0.893224 0.127199
O O12 0.500000 0.000000 0.127877
O O13 0.383165 0.000000 0.250000
O O14 0.318223 0.073191 0.127554
O O15 0.431096 0.235028 0.123680
O O16 0.378985 0.145985 0.000000
O O17 0.570671 0.373155 0.879001
O O18 0.457864 0.335734 0.000000
O O19 0.310142 0.375141 0.500000
O O20 0.259135 0.274355 0.616627
O O21 0.236315 0.162167 0.500000
#
# Coordination Sequence:
#
# PCOD9395134 Si02
#       8
#     8   8   8   8   8   8   8   8
#     4   8  14  26  49  82 116 151 186 229 286 340
#     4   9  18  34  57  85 112 141 186 238 286 339
#     4  11  25  41  62  85 108 148 189 243 300 352
#     4  11  24  37  53  80 117 161 197 228 282 354
#     4   9  17  30  52  78 107 145 189 239 285 332
#     4   8  13  23  45  80 115 147 184 229 282 337
#     4   9  16  28  48  79 119 151 183 233 287 338
#     4  11  24  39  60  88 118 152 194 245 296 346
#
# _framework density 20.016691999999999
#
# number of rings (size 3 to 8) (size 9 to 14) (size 15 to 20)
#    0.000    2.500    0.000    4.125    3.500    5.500 
#    0.000    0.625    0.000    4.500    0.000    0.000 
#    3.750    0.000    0.000    0.000    0.000    0.000 
#
# Total GULP energy -356603.028015 kJ/mol
# GULP energy per Si atom -5571.922313 kJ/mol
# Density = 1.997113 g / cm^3
# Si number density = 20.016692 Si / 1000 Ang^3
#
#
#
# Elastic Constant Matrix: (Units=GPa)
#
#
# Indices 1 2 3 4 5 6 
#
# 1 87.6354 60.1904 17.6338 0.0000 0.0000 0.0000
# 2 60.1904 181.4755 23.9435 0.0000 0.0000 0.0000
# 3 17.6338 23.9435 20.8192 0.0000 0.0000 0.0000
# 4 0.0000 0.0000 0.0000 -8.8097 0.0000 0.0000
# 5 0.0000 0.0000 0.0000 0.0000 30.3048 0.0000
# 6 0.0000 0.0000 0.0000 0.0000 0.0000 25.2332
#
#
#
# Elastic Compliance Matrix: (Units=1/GPa)
#
#
# Indices 1 2 3 4 5 6 
#
# 1 0.016038 -0.004158 -0.008802 0.000000 0.000000 0.000000
# 2 -0.004158 0.007574 -0.005189 0.000000 0.000000 0.000000
# 3 -0.008802 -0.005189 0.061456 0.000000 0.000000 0.000000
# 4 0.000000 0.000000 0.000000 -0.113511 0.000000 0.000000
# 5 0.000000 0.000000 0.000000 0.000000 0.032998 0.000000
# 6 0.000000 0.000000 0.000000 0.000000 0.000000 0.039630
#
#
# Mechanical properties :
#
#
# Convention : Reuss Voigt Hill
#
# Bulk Modulus (GPa) = 20.50458 54.82950 37.66704
# Shear Modulus (GPa) = 51.68531 21.88981 36.78756
#
# Velocity S-wave (km/s) = 5.08696 3.31052 4.29166
# Velocity P-wave (km/s) = 6.69095 6.48568 6.58912
#
# Compressibility (1/GPa) = 0.04876959
#
# Stress axis : x y z
#
# Youngs Moduli (GPa) = 62.35238 132.02906 16.27191
#
# Poissons Ratio (x) = 0.54898 0.14323
# Poissons Ratio (y) = 0.25926 0.08443
# Poissons Ratio (z) = 0.54883 0.68509
#
# Static dielectric constant tensor:
#      x y z
#    x 1.731000 0.000000 0.000000 
#    y 0.000000 1.759690 0.000000 
#    z 0.000000 0.000000 1.692020 
# 
# From -- ./inp_files/17251.got.cif
#   From: 2010.05.17/outbox.cif.g08.bks.cpg/sg49_9_cif.got.tgz:17251.got - 2010.06.03 21:02:19.
