data_PCOD9395980
_publ_section_title
;
Structure prediction by ZEFSAII (Michael W. Deem and Ramdas Pophale) SiO2 
 PCOD9395980
Probable space group: P B A N
;
_chemical_formula_sum "Si O2"
_cell_formula_units_Z 58
_cell_length_a 9.924883
_cell_length_b 21.655359
_cell_length_c 13.854620
_cell_angle_alpha 90.000000
_cell_angle_beta 90.000000
_cell_angle_gamma 90.000000
_cell_volume 2977.730588
_symmetry_space_group_name_H-M "P B A N"
_symmetry_group_IT_number 50
_space_group.IT_coordinate_system_code '2'
_symmetry_cell_setting 'orthorhombic'
loop_
_space_group_symop_operation_xyz
x,y,z
1/2-x,1/2-y,z
x,1/2-y,-z
1/2-x,y,-z
-x,-y,-z
1/2+x,1/2+y,-z
-x,1/2+y,z
1/2+x,-y,z
loop_
_atom_site_type_symbol
_atom_site_label
_atom_site_fract_x
_atom_site_fract_y
_atom_site_fract_z
Si Si1 0.301558 0.021570 0.602684
Si Si2 0.447505 0.985837 0.292513
Si Si3 0.996556 0.109613 0.816643
Si Si4 0.047252 0.135609 0.194697
Si Si5 0.250000 0.250000 0.500000
Si Si6 0.733535 0.176695 0.888433
Si Si7 0.102274 0.057292 0.007464
Si Si8 0.784235 0.842295 0.331693
O O1 0.250000 0.000930 0.500000
O O2 0.456239 0.004228 0.615769
O O3 0.265032 0.093654 0.618868
O O4 0.209054 0.991206 0.685324
O O5 0.485582 0.918100 0.260467
O O6 0.495538 0.038415 0.218639
O O7 0.065740 0.104944 0.921751
O O8 0.088387 0.145019 0.737732
O O9 0.849652 0.140014 0.829591
O O10 0.917001 0.168436 0.151478
O O11 0.158683 0.172420 0.257879
O O12 0.107517 0.096850 0.105509
O O13 0.183329 0.203970 0.579857
O O14 0.750000 0.250000 0.886069
O O15 0.750000 0.155592 0.000000
O O16 0.250000 0.028913 0.000000
O O17 0.000000 0.000000 0.000000
#
# Coordination Sequence:
#
# PCOD9395980 Si02
#       8
#     8   8   8   8   2   8   8   8
#     4  10  19  37  54  86 114 155 196 262 319 387
#     4  10  21  33  60  86 122 158 202 254 328 378
#     4  11  22  41  61  95 131 170 216 268 316 400
#     4  11  22  41  61  95 131 170 216 268 316 400
#     4  12  24  48  72  92 104 176 228 294 370 366
#     4  11  25  40  59  88 130 180 215 253 322 396
#     4  12  24  36  62  99 143 181 219 256 331 403
#     4  10  24  40  67  89 120 155 225 282 327 390
#
# _framework density 19.477920999999998
#
# number of rings (size 3 to 8) (size 9 to 14) (size 15 to 20)
#    0.000    1.241    4.828    1.241    3.862    0.000 
#    0.000    0.000    0.000    4.138    0.000    0.000 
#    0.000    0.000    0.000    0.000    0.000    0.000 
#
# Total GULP energy -323116.985923 kJ/mol
# GULP energy per Si atom -5570.982516 kJ/mol
# Density = 1.943359 g / cm^3
# Si number density = 19.477921 Si / 1000 Ang^3
#
#
#
# Elastic Constant Matrix: (Units=GPa)
#
#
# Indices 1 2 3 4 5 6 
#
# 1 113.0204 16.3777 18.8702 0.0000 0.0000 0.0000
# 2 16.3777 36.4924 9.3006 0.0000 0.0000 0.0000
# 3 18.8702 9.3006 86.3374 0.0000 0.0000 0.0000
# 4 0.0000 0.0000 0.0000 28.8235 0.0000 0.0000
# 5 0.0000 0.0000 0.0000 0.0000 17.3333 0.0000
# 6 0.0000 0.0000 0.0000 0.0000 0.0000 14.9625
#
#
#
# Elastic Compliance Matrix: (Units=1/GPa)
#
#
# Indices 1 2 3 4 5 6 
#
# 1 0.009700 -0.003920 -0.001698 0.000000 0.000000 0.000000
# 2 -0.003920 0.029761 -0.002349 0.000000 0.000000 0.000000
# 3 -0.001698 -0.002349 0.012207 0.000000 0.000000 0.000000
# 4 0.000000 0.000000 0.000000 0.034694 0.000000 0.000000
# 5 0.000000 0.000000 0.000000 0.000000 0.057693 0.000000
# 6 0.000000 0.000000 0.000000 0.000000 0.000000 0.066834
#
#
# Mechanical properties :
#
#
# Convention : Reuss Voigt Hill
#
# Bulk Modulus (GPa) = 27.98546 36.10525 32.04536
# Shear Modulus (GPa) = 20.94391 24.97729 22.96060
#
# Velocity S-wave (km/s) = 3.28268 3.58486 3.43709
# Velocity P-wave (km/s) = 5.36348 5.97593 5.67797
#
# Compressibility (1/GPa) = 0.03573284
#
# Stress axis : x y z
#
# Youngs Moduli (GPa) = 103.09798 33.60079 81.92311
#
# Poissons Ratio (x) = 0.13173 0.13908
# Poissons Ratio (y) = 0.40419 0.19245
# Poissons Ratio (z) = 0.17502 0.07893
#
# Static dielectric constant tensor:
#      x y z
#    x 1.726640 0.000000 0.000000 
#    y 0.000000 1.691150 0.000000 
#    z 0.000000 0.000000 1.736170 
# 
# From -- ./inp_files/25379.got.cif
#   From: 2010.05.17/outbox.cif.g08.bks.cpg/sg50_13_cif.got.tgz:25379.got - 2010.06.03 11:33:33.
