data_PCOD9395035
_publ_section_title
;
Structure prediction by ZEFSAII (Michael W. Deem and Ramdas Pophale) SiO2 
 PCOD9395035
Probable space group: P C C M
;
_chemical_formula_sum "Si O2"
_cell_formula_units_Z 64
_cell_length_a 17.187751
_cell_length_b 10.960503
_cell_length_c 18.020216
_cell_angle_alpha 90.000000
_cell_angle_beta 90.000000
_cell_angle_gamma 90.000000
_cell_volume 3394.763555
_symmetry_space_group_name_H-M "P C C M"
_symmetry_group_IT_number 49
_symmetry_cell_setting 'orthorhombic'
loop_
_space_group_symop_operation_xyz
x,y,z
-x,-y,z
x,-y,1/2-z
-x,y,1/2-z
-x,-y,-z
x,y,-z
-x,y,1/2+z
x,-y,1/2+z
loop_
_atom_site_type_symbol
_atom_site_label
_atom_site_fract_x
_atom_site_fract_y
_atom_site_fract_z
Si Si1 0.094105 0.354032 0.911469
Si Si2 0.761142 0.196347 0.590097
Si Si3 0.033687 0.195570 0.673069
Si Si4 0.421299 0.154565 0.590356
Si Si5 0.594351 0.870975 0.090391
Si Si6 0.144023 0.425166 0.324329
Si Si7 0.156447 0.050178 0.586099
Si Si8 0.269203 0.714151 0.913495
O O1 0.180703 0.305001 0.891501
O O2 0.092435 0.488892 0.877783
O O3 0.032370 0.260782 0.876396
O O4 0.085001 0.355806 0.000000
O O5 0.757982 0.190546 0.500000
O O6 0.672029 0.197317 0.616338
O O7 0.802464 0.071342 0.615377
O O8 0.094577 0.304022 0.692259
O O9 0.080908 0.093070 0.629567
O O10 0.000000 0.150066 0.750000
O O11 0.419531 0.156648 0.500000
O O12 0.510038 0.178060 0.614489
O O13 0.354727 0.248138 0.614281
O O14 0.401235 0.014503 0.610993
O O15 0.593633 0.868115 0.000000
O O16 0.158378 0.500000 0.250000
O O17 0.222071 0.383457 0.365958
O O18 0.135936 0.029217 0.500000
O O19 0.218220 0.161217 0.588119
O O20 0.273050 0.675403 0.000000
#
# Coordination Sequence:
#
# PCOD9395035 Si02
#       8
#     8   8   8   8   8   8   8   8
#     4  11  23  36  54  77 100 136 182 216 262 318
#     4   9  17  31  49  74 111 144 171 210 256 318
#     4  11  22  37  56  73 101 131 174 230 275 313
#     4   8  12  20  42  78 110 137 167 202 250 303
#     4   8  12  21  42  73 111 142 162 197 252 306
#     4  11  22  37  56  72  99 134 177 229 276 307
#     4   9  17  31  52  76 106 141 173 212 265 317
#     4   9  16  28  50  80 109 135 174 220 259 309
#
# _framework density 18.852564000000001
#
# number of rings (size 3 to 8) (size 9 to 14) (size 15 to 20)
#    0.000    2.500    2.500    1.875    0.000    2.500 
#    0.000    3.125    0.000    0.750    0.000    6.125 
#    0.000    2.000    0.000    0.125    0.000    0.000 
#
# Total GULP energy -357047.879063 kJ/mol
# GULP energy per Si atom -5578.873110 kJ/mol
# Density = 1.880965 g / cm^3
# Si number density = 18.852564 Si / 1000 Ang^3
#
#
#
# Elastic Constant Matrix: (Units=GPa)
#
#
# Indices 1 2 3 4 5 6 
#
# 1 136.5481 24.9456 32.1894 0.0000 0.0000 0.0000
# 2 24.9456 29.0529 17.4289 0.0000 0.0000 0.0000
# 3 32.1894 17.4289 53.5508 0.0000 0.0000 0.0000
# 4 0.0000 0.0000 0.0000 -409.8525 0.0000 0.0000
# 5 0.0000 0.0000 0.0000 0.0000 -7.4443 0.0000
# 6 0.0000 0.0000 0.0000 0.0000 0.0000 23.9790
#
#
#
# Elastic Compliance Matrix: (Units=1/GPa)
#
#
# Indices 1 2 3 4 5 6 
#
# 1 0.009238 -0.005717 -0.003692 0.000000 0.000000 0.000000
# 2 -0.005717 0.046309 -0.011635 0.000000 0.000000 0.000000
# 3 -0.003692 -0.011635 0.024680 0.000000 0.000000 0.000000
# 4 0.000000 0.000000 0.000000 -0.002440 0.000000 0.000000
# 5 0.000000 0.000000 0.000000 0.000000 -0.134332 0.000000
# 6 0.000000 0.000000 0.000000 0.000000 0.000000 0.041703
#
#
# Mechanical properties :
#
#
# Convention : Reuss Voigt Hill
#
# Bulk Modulus (GPa) = 26.22078 40.91997 33.57038
# Shear Modulus (GPa) = 125.12031 -69.02436 28.04797
#
# Velocity S-wave (km/s) = 8.15548 -6.05741 3.86133
# Velocity P-wave (km/s) = 10.13020 5.21254 6.14209
#
# Compressibility (1/GPa) = 0.03813769
#
# Stress axis : x y z
#
# Youngs Moduli (GPa) = 108.24479 21.59405 40.51821
#
# Poissons Ratio (x) = 0.12346 0.14961
# Poissons Ratio (y) = 0.61886 0.47144
# Poissons Ratio (z) = 0.39968 0.25125
#
# Static dielectric constant tensor:
#      x y z
#    x 1.684630 0.000000 0.000000 
#    y 0.000000 1.646470 0.000000 
#    z 0.000000 0.000000 1.640980 
# 
# From -- ./inp_files/14164.got.cif
#   From: 2010.05.17/outbox.cif.g08.bks.cpg/sg49_8_cif.got.tgz:14164.got - 2010.06.03 21:02:19.
