data_PCOD9395895
_publ_section_title
;
Structure prediction by ZEFSAII (Michael W. Deem and Ramdas Pophale) SiO2 
 PCOD9395895
Probable space group: P B A N
;
_chemical_formula_sum "Si O2"
_cell_formula_units_Z 58
_cell_length_a 12.342907
_cell_length_b 28.431826
_cell_length_c 8.973431
_cell_angle_alpha 90.000000
_cell_angle_beta 90.000000
_cell_angle_gamma 90.000000
_cell_volume 3149.058561
_symmetry_space_group_name_H-M "P B A N"
_symmetry_group_IT_number 50
_space_group.IT_coordinate_system_code '2'
_symmetry_cell_setting 'orthorhombic'
loop_
_space_group_symop_operation_xyz
x,y,z
1/2-x,1/2-y,z
x,1/2-y,-z
1/2-x,y,-z
-x,-y,-z
1/2+x,1/2+y,-z
-x,1/2+y,z
1/2+x,-y,z
loop_
_atom_site_type_symbol
_atom_site_label
_atom_site_fract_x
_atom_site_fract_y
_atom_site_fract_z
Si Si1 0.510607 0.875066 0.260476
Si Si2 0.368978 0.449073 0.051680
Si Si3 0.627315 0.147247 0.020610
Si Si4 0.870263 0.415534 0.470343
Si Si5 0.088200 0.681901 0.672871
Si Si6 0.067033 0.951161 0.165991
Si Si7 0.375908 0.193277 0.512280
Si Si8 0.750000 0.250000 0.500000
O O1 0.585116 0.911675 0.170194
O O2 0.439142 0.903973 0.381913
O O3 0.575725 0.833528 0.343499
O O4 0.433299 0.852621 0.135758
O O5 0.373134 0.500984 0.122393
O O6 0.250000 0.436153 0.000000
O O7 0.448634 0.451519 0.908831
O O8 0.580173 0.180015 0.149880
O O9 0.621927 0.094014 0.086898
O O10 0.750000 0.161154 0.000000
O O11 0.750000 0.435072 0.500000
O O12 0.855211 0.365376 0.388546
O O13 0.932082 0.445223 0.343932
O O14 0.165888 0.721643 0.605202
O O15 0.965729 0.679987 0.611179
O O16 0.376700 0.250000 0.500000
O O17 0.250000 0.178585 0.500000
#
# Coordination Sequence:
#
# PCOD9395895 Si02
#       8
#     8   8   8   8   8   8   8   2
#     4  10  22  36  57  86 115 147 196 244 286 348
#     4  10  21  38  58  82 119 152 186 241 292 338
#     4  10  20  35  58  87 121 154 189 233 297 358
#     4  10  19  35  58  84 116 152 190 236 284 343
#     4  10  21  35  60  86 117 152 191 240 303 347
#     4   9  20  36  57  84 111 156 196 223 286 355
#     4  10  22  41  61  78 107 154 203 244 292 351
#     4  12  20  36  60  88 120 152 190 262 292 356
#
# _framework density 18.418202000000001
#
# number of rings (size 3 to 8) (size 9 to 14) (size 15 to 20)
#    0.000    2.069    1.379    2.069    1.931    7.172 
#    0.000    3.103    0.000    1.655    0.000    0.000 
#    0.000    0.000    0.000    0.000    0.000    0.000 
#
# Total GULP energy -323216.075876 kJ/mol
# GULP energy per Si atom -5572.690963 kJ/mol
# Density = 1.837628 g / cm^3
# Si number density = 18.418202 Si / 1000 Ang^3
#
#
#
# Elastic Constant Matrix: (Units=GPa)
#
#
# Indices 1 2 3 4 5 6 
#
# 1 115.0787 27.5650 84.0866 0.0000 0.0000 0.0000
# 2 27.5650 55.0200 42.4597 0.0000 0.0000 0.0000
# 3 84.0866 42.4597 170.8107 0.0000 0.0000 0.0000
# 4 0.0000 0.0000 0.0000 13.6160 0.0000 0.0000
# 5 0.0000 0.0000 0.0000 0.0000 6.3970 0.0000
# 6 0.0000 0.0000 0.0000 0.0000 0.0000 13.2920
#
#
#
# Elastic Compliance Matrix: (Units=1/GPa)
#
#
# Indices 1 2 3 4 5 6 
#
# 1 0.013758 -0.002062 -0.006260 0.000000 0.000000 0.000000
# 2 -0.002062 0.022798 -0.004652 0.000000 0.000000 0.000000
# 3 -0.006260 -0.004652 0.010093 0.000000 0.000000 0.000000
# 4 0.000000 0.000000 0.000000 0.073443 0.000000 0.000000
# 5 0.000000 0.000000 0.000000 0.000000 0.156324 0.000000
# 6 0.000000 0.000000 0.000000 0.000000 0.000000 0.075233
#
#
# Mechanical properties :
#
#
# Convention : Reuss Voigt Hill
#
# Bulk Modulus (GPa) = 48.30769 72.12575 60.21672
# Shear Modulus (GPa) = 13.00401 19.11421 16.05911
#
# Velocity S-wave (km/s) = 2.66003 3.22497 2.95602
# Velocity P-wave (km/s) = 5.97658 7.28782 6.66452
#
# Compressibility (1/GPa) = 0.02070064
#
# Stress axis : x y z
#
# Youngs Moduli (GPa) = 72.68625 43.86295 99.08194
#
# Poissons Ratio (x) = 0.09043 0.62027
# Poissons Ratio (y) = 0.14985 0.46096
# Poissons Ratio (z) = 0.45503 0.20406
#
# Static dielectric constant tensor:
#      x y z
#    x 1.637850 0.000000 0.000000 
#    y 0.000000 1.652190 0.000000 
#    z 0.000000 0.000000 1.645480 
# 
# From -- ./inp_files/11815.got.cif
#   From: 2010.05.17/outbox.cif.g08.bks.cpg/sg50_6_cif.got.tgz:11815.got - 2010.06.03 11:33:33.
