data_PCOD9395192
_publ_section_title
;
Structure prediction by ZEFSAII (Michael W. Deem and Ramdas Pophale) SiO2 
 PCOD9395192
Probable space group: P C C M
;
_chemical_formula_sum "Si O2"
_cell_formula_units_Z 40
_cell_length_a 9.406580
_cell_length_b 9.656782
_cell_length_c 17.473911
_cell_angle_alpha 90.000000
_cell_angle_beta 90.000000
_cell_angle_gamma 90.000000
_cell_volume 1587.282763
_symmetry_space_group_name_H-M "P C C M"
_symmetry_group_IT_number 49
_symmetry_cell_setting 'orthorhombic'
loop_
_space_group_symop_operation_xyz
x,y,z
-x,-y,z
x,-y,1/2-z
-x,y,1/2-z
-x,-y,-z
x,y,-z
-x,y,1/2+z
x,-y,1/2+z
loop_
_atom_site_type_symbol
_atom_site_label
_atom_site_fract_x
_atom_site_fract_y
_atom_site_fract_z
Si Si1 0.296471 0.067660 0.411585
Si Si2 0.268242 0.487171 0.837620
Si Si3 0.090868 0.115642 0.169996
Si Si4 0.065638 0.680113 0.914306
Si Si5 0.502367 0.265311 0.337993
O O1 0.292569 0.016720 0.500000
O O2 0.187543 0.199449 0.406688
O O3 0.445460 0.142789 0.391316
O O4 0.244158 0.953897 0.347467
O O5 0.216010 0.500000 0.750000
O O6 0.145815 0.540895 0.892576
O O7 0.350514 0.344642 0.853778
O O8 0.389026 0.608038 0.841434
O O9 0.000000 0.124376 0.250000
O O10 0.061613 0.265701 0.137960
O O11 0.000000 0.000000 0.123775
O O12 0.015449 0.679696 0.000000
O O13 0.500000 0.216699 0.250000
#
# Coordination Sequence:
#
# PCOD9395192 Si02
#       5
#     8   8   8   8   8
#     4   9  16  26  44  74 111 149 191 241 297 356
#     4   8  14  25  42  69 107 147 188 235 288 352
#     4   9  17  29  45  70 106 147 197 242 288 354
#     4   9  16  26  44  73 108 146 190 240 295 352
#     4   8  14  25  42  70 110 148 188 235 288 355
#
# _framework density 25.200299000000001
#
# number of rings (size 3 to 8) (size 9 to 14) (size 15 to 20)
#    0.000    3.400    0.000    1.800    0.000    3.200 
#    0.000    4.000    0.000    0.600    0.000   58.800 
#    0.000  128.800    0.000   47.200    0.000    3.600 
#
# Total GULP energy -222975.712532 kJ/mol
# GULP energy per Si atom -5574.392813 kJ/mol
# Density = 2.514294 g / cm^3
# Si number density = 25.200299 Si / 1000 Ang^3
#
#
#
# Elastic Constant Matrix: (Units=GPa)
#
#
# Indices 1 2 3 4 5 6 
#
# 1 110.0250 20.2096 62.5146 0.0000 0.0000 0.0000
# 2 20.2096 140.0549 67.3306 0.0000 0.0000 0.0000
# 3 62.5146 67.3306 110.7749 0.0000 0.0000 0.0000
# 4 0.0000 0.0000 0.0000 10.9832 0.0000 0.0000
# 5 0.0000 0.0000 0.0000 0.0000 20.4981 0.0000
# 6 0.0000 0.0000 0.0000 0.0000 0.0000 37.0943
#
#
#
# Elastic Compliance Matrix: (Units=1/GPa)
#
#
# Indices 1 2 3 4 5 6 
#
# 1 0.013976 0.002508 -0.009411 0.000000 0.000000 0.000000
# 2 0.002508 0.010538 -0.007820 0.000000 0.000000 0.000000
# 3 -0.009411 -0.007820 0.019092 0.000000 0.000000 0.000000
# 4 0.000000 0.000000 0.000000 0.091048 0.000000 0.000000
# 5 0.000000 0.000000 0.000000 0.000000 0.048785 0.000000
# 6 0.000000 0.000000 0.000000 0.000000 0.000000 0.026958
#
#
# Mechanical properties :
#
#
# Convention : Reuss Voigt Hill
#
# Bulk Modulus (GPa) = 70.63339 73.44050 72.03694
# Shear Modulus (GPa) = 20.44466 27.76845 24.10655
#
# Velocity S-wave (km/s) = 2.85140 3.32310 3.09625
# Velocity P-wave (km/s) = 6.23941 6.62797 6.43662
#
# Compressibility (1/GPa) = 0.01415761
#
# Stress axis : x y z
#
# Youngs Moduli (GPa) = 71.55372 94.89732 52.37900
#
# Poissons Ratio (x) = -0.23798 0.49295
# Poissons Ratio (y) = -0.17944 0.40961
# Poissons Ratio (z) = 0.67340 0.74211
#
# Static dielectric constant tensor:
#      x y z
#    x 2.112320 0.000000 0.000000 
#    y 0.000000 2.074920 0.000000 
#    z 0.000000 0.000000 2.274900 
# 
# From -- ./inp_files/16837.got.cif
#   From: 2010.05.17/outbox.cif.g08.bks.cpg/sg49_9_cif.got.tgz:16837.got - 2010.06.03 21:02:19.
