data_PCOD9395295
_publ_section_title
;
Structure prediction by ZEFSAII (Michael W. Deem and Ramdas Pophale) SiO2 
 PCOD9395295
Probable space group: P C C M
;
_chemical_formula_sum "Si O2"
_cell_formula_units_Z 64
_cell_length_a 24.000000
_cell_length_b 9.000000
_cell_length_c 15.000000
_cell_angle_alpha 90.000000
_cell_angle_beta 90.000000
_cell_angle_gamma 90.000000
_cell_volume 3240.000000
_symmetry_space_group_name_H-M "P C C M"
_symmetry_group_IT_number 49
_symmetry_cell_setting 'orthorhombic'
loop_
_space_group_symop_operation_xyz
x,y,z
-x,-y,z
x,-y,1/2-z
-x,y,1/2-z
-x,-y,-z
x,y,-z
-x,y,1/2+z
x,-y,1/2+z
loop_
_atom_site_type_symbol
_atom_site_label
_atom_site_fract_x
_atom_site_fract_y
_atom_site_fract_z
Si Si1 0.890600 0.330574 0.776774
Si Si2 0.359231 0.247419 0.101541
Si Si3 0.949762 0.890797 0.603488
Si Si4 0.659504 0.602799 0.395370
Si Si5 0.565207 0.679828 0.741601
Si Si6 0.220611 0.283015 0.397401
Si Si7 0.253281 0.045030 0.853912
Si Si8 0.865070 0.846124 0.898852
O O1 0.899369 0.500000 0.750000
O O2 0.937748 0.251895 0.836878
O O3 0.832101 0.311509 0.832549
O O4 0.889150 0.245549 0.682760
O O5 0.344264 0.423337 0.110110
O O6 0.405247 0.233672 0.177743
O O7 0.308266 0.135284 0.119241
O O8 0.378965 0.224930 0.000000
O O9 0.960197 0.851041 0.500000
O O10 0.893803 0.991617 0.606841
O O11 0.000000 0.000000 0.632006
O O12 0.655663 0.643477 0.500000
O O13 0.609713 0.685995 0.341437
O O14 0.722040 0.641225 0.363680
O O15 0.563347 0.500000 0.750000
O O16 0.500000 0.724849 0.750000
O O17 0.208017 0.331123 0.500000
O O18 0.238895 0.110765 0.400413
O O19 0.200392 0.145197 0.879164
O O20 0.254983 0.000000 0.750000
O O21 0.875317 0.791808 0.000000
#
# Coordination Sequence:
#
# PCOD9395295 Si02
#       8
#     8   8   8   8   8   8   8   8
#     4  12  26  40  63 101 138 172 212 273 330 385
#     4  10  21  35  55  86 118 153 199 259 319 377
#     4  10  22  46  76  99 129 175 225 271 316 377
#     4   9  20  36  55  83 121 162 203 256 321 387
#     4   9  18  33  55  82 115 157 206 261 316 384
#     4  11  22  38  59  87 127 168 209 258 321 389
#     4  12  21  36  59  85 122 162 207 261 308 376
#     4  11  23  41  62  92 129 173 219 259 310 378
#
# _framework density 19.753086
#
# number of rings (size 3 to 8) (size 9 to 14) (size 15 to 20)
#    0.000    1.500    2.500    2.625    1.750    3.000 
#    0.000    3.750    0.000    5.625    0.000    5.250 
#    0.000    0.000    0.000    0.000    0.000    0.000 
#
# Total GULP energy -357018.947911 kJ/mol
# GULP energy per Si atom -5578.421061 kJ/mol
# Density = 1.970813 g / cm^3
# Si number density = 19.753086 Si / 1000 Ang^3
#
#
#
# Elastic Constant Matrix: (Units=GPa)
#
#
# Indices 1 2 3 4 5 6 
#
# 1 117.6304 34.0077 45.8359 0.0000 0.0000 0.0000
# 2 34.0077 70.5431 42.3519 0.0000 0.0000 0.0000
# 3 45.8359 42.3519 132.6971 0.0000 0.0000 0.0000
# 4 0.0000 0.0000 0.0000 -14.2275 0.0000 0.0000
# 5 0.0000 0.0000 0.0000 0.0000 6.7913 0.0000
# 6 0.0000 0.0000 0.0000 0.0000 0.0000 28.3138
#
#
#
# Elastic Compliance Matrix: (Units=1/GPa)
#
#
# Indices 1 2 3 4 5 6 
#
# 1 0.010503 -0.003569 -0.002489 0.000000 0.000000 0.000000
# 2 -0.003569 0.018749 -0.004751 0.000000 0.000000 0.000000
# 3 -0.002489 -0.004751 0.009912 0.000000 0.000000 0.000000
# 4 0.000000 0.000000 0.000000 -0.070287 0.000000 0.000000
# 5 0.000000 0.000000 0.000000 0.000000 0.147247 0.000000
# 6 0.000000 0.000000 0.000000 0.000000 0.000000 0.035318
#
#
# Mechanical properties :
#
#
# Convention : Reuss Voigt Hill
#
# Bulk Modulus (GPa) = 56.99385 62.80683 59.90034
# Shear Modulus (GPa) = 27.94728 17.42054 22.68391
#
# Velocity S-wave (km/s) = 3.76550 2.97293 3.39244
# Velocity P-wave (km/s) = 6.91528 6.60677 6.76278
#
# Compressibility (1/GPa) = 0.01754575
#
# Stress axis : x y z
#
# Youngs Moduli (GPa) = 95.21257 53.33695 100.88806
#
# Poissons Ratio (x) = 0.19036 0.25108
# Poissons Ratio (y) = 0.33982 0.47933
# Poissons Ratio (z) = 0.23696 0.25341
#
# Static dielectric constant tensor:
#      x y z
#    x 1.714770 0.000000 0.000000 
#    y 0.000000 1.709030 0.000000 
#    z 0.000000 0.000000 1.726510 
# 
# From -- ./inp_files/14523.got.cif
#   From: 2010.05.17/outbox.ucp.g08.bks.cvg/sg49_8_cif.got.tgz:14523.got - 2010.06.11 16:40:14.
