data_PCOD9395596
_publ_section_title
;
Structure prediction by ZEFSAII (Michael W. Deem and Ramdas Pophale) SiO2 
 PCOD9395596
Probable space group: P B A N
;
_chemical_formula_sum "Si O2"
_cell_formula_units_Z 34
_cell_length_a 18.825268
_cell_length_b 5.575786
_cell_length_c 12.298623
_cell_angle_alpha 90.000000
_cell_angle_beta 90.000000
_cell_angle_gamma 90.000000
_cell_volume 1290.933151
_symmetry_space_group_name_H-M "P B A N"
_symmetry_group_IT_number 50
_space_group.IT_coordinate_system_code '2'
_symmetry_cell_setting 'orthorhombic'
loop_
_space_group_symop_operation_xyz
x,y,z
1/2-x,1/2-y,z
x,1/2-y,-z
1/2-x,y,-z
-x,-y,-z
1/2+x,1/2+y,-z
-x,1/2+y,z
1/2+x,-y,z
loop_
_atom_site_type_symbol
_atom_site_label
_atom_site_fract_x
_atom_site_fract_y
_atom_site_fract_z
Si Si1 0.920255 0.498677 0.955352
Si Si2 0.241017 0.499834 0.819866
Si Si3 0.750000 0.750000 0.500000
Si Si4 0.370680 0.485034 0.359465
Si Si5 0.108859 0.988882 0.703188
O O1 0.922097 0.487220 0.824799
O O2 0.889130 0.750000 0.000000
O O3 0.000000 0.500000 0.000000
O O4 0.888080 0.250000 0.000000
O O5 0.250000 0.750000 0.877471
O O6 0.165786 0.498181 0.760207
O O7 0.305116 0.499143 0.728370
O O8 0.250000 0.250000 0.878048
O O9 0.694772 0.572653 0.560936
O O10 0.413494 0.235617 0.355388
O O11 0.404552 0.747730 0.365314
#
# Coordination Sequence:
#
# PCOD9395596 Si02
#       5
#     8   8   2   8   8
#     4  10  21  37  59  84 107 134 189 263 298 367
#     4   8  14  27  42  65  94 147 175 204 263 319
#     4  12  20  34  52  90 118 162 224 218 268 334
#     4  10  20  30  51  77 116 160 185 237 259 349
#     4  10  18  34  50  75 112 151 182 234 310 324
#
# _framework density 26.337536
#
# number of rings (size 3 to 8) (size 9 to 14) (size 15 to 20)
#    0.000    2.353    3.529    1.412    0.000    1.882 
#    0.000    0.000    0.000   38.118    0.000    0.000 
#    0.000   75.294    0.000    0.000    0.000    0.000 
#
# Total GULP energy -189803.427444 kJ/mol
# GULP energy per Si atom -5582.453748 kJ/mol
# Density = 2.627759 g / cm^3
# Si number density = 26.337536 Si / 1000 Ang^3
#
#
#
# Elastic Constant Matrix: (Units=GPa)
#
#
# Indices 1 2 3 4 5 6 
#
# 1 65.5498 -0.9834 9.4481 0.0000 0.0000 0.0000
# 2 -0.9834 371.6122 50.6706 0.0000 0.0000 0.0000
# 3 9.4481 50.6706 96.3258 0.0000 0.0000 0.0000
# 4 0.0000 0.0000 0.0000 34.2930 0.0000 0.0000
# 5 0.0000 0.0000 0.0000 0.0000 23.0061 0.0000
# 6 0.0000 0.0000 0.0000 0.0000 0.0000 -6.4641
#
#
#
# Elastic Compliance Matrix: (Units=1/GPa)
#
#
# Indices 1 2 3 4 5 6 
#
# 1 0.015499 0.000267 -0.001661 0.000000 0.000000 0.000000
# 2 0.000267 0.002904 -0.001554 0.000000 0.000000 0.000000
# 3 -0.001661 -0.001554 0.011362 0.000000 0.000000 0.000000
# 4 0.000000 0.000000 0.000000 0.029160 0.000000 0.000000
# 5 0.000000 0.000000 0.000000 0.000000 0.043467 0.000000
# 6 0.000000 0.000000 0.000000 0.000000 0.000000 -0.154700
#
#
# Mechanical properties :
#
#
# Convention : Reuss Voigt Hill
#
# Bulk Modulus (GPa) = 41.89348 72.41759 57.15553
# Shear Modulus (GPa) = -130.01257 41.79048 -44.11104
#
# Velocity S-wave (km/s) = -7.03357 3.98770 -4.09692
# Velocity P-wave (km/s) = 7.07253 6.98269 0.79457
#
# Compressibility (1/GPa) = 0.02387006
#
# Stress axis : x y z
#
# Youngs Moduli (GPa) = 64.52033 344.40921 88.01588
#
# Poissons Ratio (x) = -0.09213 0.14619
# Poissons Ratio (y) = -0.01726 0.13674
# Poissons Ratio (z) = 0.10716 0.53507
#
# Static dielectric constant tensor:
#      x y z
#    x 2.009570 0.000000 0.000000 
#    y 0.000000 2.253270 0.000000 
#    z 0.000000 0.000000 2.026090 
# 
# From -- ./inp_files/22618.got.cif
#   From: 2010.05.17/outbox.cif.g08.bks.cpg/sg50_12_cif.got.tgz:22618.got - 2010.06.03 11:33:33.
