data_PCOD9395357
_publ_section_title
;
Structure prediction by ZEFSAII (Michael W. Deem and Ramdas Pophale) SiO2 
 PCOD9395357
Probable space group: P B A N
;
_chemical_formula_sum "Si O2"
_cell_formula_units_Z 64
_cell_length_a 27.156329
_cell_length_b 5.422659
_cell_length_c 24.254115
_cell_angle_alpha 90.000000
_cell_angle_beta 90.000000
_cell_angle_gamma 90.000000
_cell_volume 3571.649135
_symmetry_space_group_name_H-M "P B A N"
_symmetry_group_IT_number 50
_space_group.IT_coordinate_system_code '2'
_symmetry_cell_setting 'orthorhombic'
loop_
_space_group_symop_operation_xyz
x,y,z
1/2-x,1/2-y,z
x,1/2-y,-z
1/2-x,y,-z
-x,-y,-z
1/2+x,1/2+y,-z
-x,1/2+y,z
1/2+x,-y,z
loop_
_atom_site_type_symbol
_atom_site_label
_atom_site_fract_x
_atom_site_fract_y
_atom_site_fract_z
Si Si1 0.307074 0.750007 0.283239
Si Si2 0.559325 0.286176 0.064600
Si Si3 0.361308 0.249996 0.582915
Si Si4 0.860973 0.749973 0.284426
Si Si5 0.692892 0.249983 0.582277
Si Si6 0.948335 0.713812 0.109784
Si Si7 0.977465 0.749996 0.435277
Si Si8 0.029357 0.250089 0.760418
O O1 0.250000 0.750000 0.266728
O O2 0.334310 0.500252 0.264979
O O3 0.307962 0.750041 0.350506
O O4 0.334361 0.999645 0.264970
O O5 0.579023 0.545736 0.087022
O O6 0.500490 0.301260 0.077166
O O7 0.577259 0.046165 0.097654
O O8 0.567081 0.250000 0.000000
O O9 0.358134 0.250021 0.649274
O O10 0.334598 0.500677 0.564178
O O11 0.418684 0.250000 0.567866
O O12 0.334601 0.999293 0.564187
O O13 0.917681 0.749641 0.267749
O O14 0.750000 0.250000 0.565793
O O15 0.961482 0.746817 0.173574
O O16 0.992026 0.750000 0.500000
O O17 0.999999 0.499993 0.410308
O O18 0.999861 0.499804 0.746508
#
# Coordination Sequence:
#
# PCOD9395357 Si02
#       8
#     8   8   8   8   8   8   8   8
#     4   9  17  33  51  70  93 114 151 205 242 274
#     4  10  16  25  41  58  74 102 164 207 217 249
#     4  10  19  33  51  73  98 118 155 202 230 274
#     4  10  21  31  48  74  91 123 164 188 232 282
#     4   9  17  30  52  76  98 123 145 180 239 292
#     4  10  16  27  37  54  78 114 151 189 220 258
#     4  10  21  36  54  72  93 126 164 200 241 277
#     4  12  21  33  43  58  95 135 162 187 214 276
#
# _framework density 17.918894000000002
#
# number of rings (size 3 to 8) (size 9 to 14) (size 15 to 20)
#    0.000    2.000    2.500    4.125    0.000    4.000 
#    0.000    0.000    0.000    2.250    0.000    0.000 
#    0.000    0.000    0.000    0.000    0.000   72.500 
#
# Total GULP energy -357114.086840 kJ/mol
# GULP energy per Si atom -5579.907607 kJ/mol
# Density = 1.787811 g / cm^3
# Si number density = 17.918894 Si / 1000 Ang^3
#
#
#
# Elastic Constant Matrix: (Units=GPa)
#
#
# Indices 1 2 3 4 5 6 
#
# 1 123.1079 85.8650 16.6404 0.0000 0.0000 0.0000
# 2 85.8650 186.4423 14.2451 0.0000 0.0000 0.0000
# 3 16.6404 14.2451 16.2204 0.0000 0.0000 0.0000
# 4 0.0000 0.0000 0.0000 6.9844 0.0000 0.0000
# 5 0.0000 0.0000 0.0000 0.0000 -2.3124 0.0000
# 6 0.0000 0.0000 0.0000 0.0000 0.0000 31.9063
#
#
#
# Elastic Compliance Matrix: (Units=1/GPa)
#
#
# Indices 1 2 3 4 5 6 
#
# 1 0.013013 -0.005331 -0.008668 0.000000 0.000000 0.000000
# 2 -0.005331 0.007933 -0.001498 0.000000 0.000000 0.000000
# 3 -0.008668 -0.001498 0.071859 0.000000 0.000000 0.000000
# 4 0.000000 0.000000 0.000000 0.143176 0.000000 0.000000
# 5 0.000000 0.000000 0.000000 0.000000 -0.432448 0.000000
# 6 0.000000 0.000000 0.000000 0.000000 0.000000 0.031342
#
#
# Mechanical properties :
#
#
# Convention : Reuss Voigt Hill
#
# Bulk Modulus (GPa) = 16.17846 62.14128 39.15987
# Shear Modulus (GPa) = -44.04174 21.25033 -11.39571
#
# Velocity S-wave (km/s) = -4.96304 3.44745 -2.52456
# Velocity P-wave (km/s) = 4.87791 7.11344 3.66108
#
# Compressibility (1/GPa) = 0.06181057
#
# Stress axis : x y z
#
# Youngs Moduli (GPa) = 76.84879 126.05501 13.91616
#
# Poissons Ratio (x) = 0.67195 0.12063
# Poissons Ratio (y) = 0.40965 0.02085
# Poissons Ratio (z) = 0.66613 0.18888
#
# Static dielectric constant tensor:
#      x y z
#    x 1.567820 0.000000 0.000000 
#    y 0.000000 1.707420 0.000000 
#    z 0.000000 0.000000 1.610410 
# 
# From -- ./inp_files/31916.got.cif
#   From: 2010.05.17/outbox.cif.g08.bks.cpg/sg50_16_cif.got.tgz:31916.got - 2010.06.03 11:33:33.
