data_PCOD9395326
_publ_section_title
;
Structure prediction by ZEFSAII (Michael W. Deem and Ramdas Pophale) SiO2 
 PCOD9395326
Probable space group: P C C M
;
_chemical_formula_sum "Si O2"
_cell_formula_units_Z 64
_cell_length_a 15.000000
_cell_length_b 9.000000
_cell_length_c 24.000000
_cell_angle_alpha 90.000000
_cell_angle_beta 90.000000
_cell_angle_gamma 90.000000
_cell_volume 3240.000000
_symmetry_space_group_name_H-M "P C C M"
_symmetry_group_IT_number 49
_symmetry_cell_setting 'orthorhombic'
loop_
_space_group_symop_operation_xyz
x,y,z
-x,-y,z
x,-y,1/2-z
-x,y,1/2-z
-x,-y,-z
x,y,-z
-x,y,1/2+z
x,-y,1/2+z
loop_
_atom_site_type_symbol
_atom_site_label
_atom_site_fract_x
_atom_site_fract_y
_atom_site_fract_z
Si Si1 0.717223 0.756770 0.348122
Si Si2 0.265288 0.488678 0.562156
Si Si3 0.578831 0.279570 0.565119
Si Si4 0.870033 0.824981 0.263055
Si Si5 0.119796 0.751516 0.562469
Si Si6 0.726175 0.018943 0.436207
Si Si7 0.027410 0.327052 0.171478
Si Si8 0.519319 0.675653 0.684909
O O1 0.750883 0.624377 0.388063
O O2 0.780758 0.789746 0.296277
O O3 0.621951 0.711185 0.324976
O O4 0.711172 0.897493 0.389207
O O5 0.262618 0.420645 0.500000
O O6 0.360840 0.571040 0.567979
O O7 0.190629 0.616352 0.563769
O O8 0.538786 0.278504 0.500000
O O9 0.647987 0.142093 0.565731
O O10 0.525879 0.271448 0.624732
O O11 0.886791 0.722732 0.208397
O O12 0.949322 0.774545 0.303957
O O13 0.875510 0.000000 0.250000
O O14 0.083177 0.762639 0.500000
O O15 0.179974 0.896633 0.573926
O O16 0.047201 0.716004 0.608429
O O17 0.727323 0.961094 0.500000
O O18 0.000000 0.500000 0.177873
O O19 0.500000 0.500000 0.686075
O O20 0.500000 0.729345 0.750000
#
# Coordination Sequence:
#
# PCOD9395326 Si02
#       8
#     8   8   8   8   8   8   8   8
#     4  12  23  39  63  88 119 164 207 253 313 372
#     4   9  18  34  60  92 122 154 201 251 301 367
#     4   9  19  40  65  88 120 167 208 251 313 373
#     4  11  25  42  60  87 121 166 208 255 306 368
#     4   9  19  38  63  91 126 161 192 246 318 373
#     4   9  20  38  62  94 128 161 207 257 307 376
#     4  11  22  41  64  92 121 154 213 264 294 367
#     4  11  25  43  58  93 128 157 205 269 320 378
#
# _framework density 19.753086
#
# number of rings (size 3 to 8) (size 9 to 14) (size 15 to 20)
#    0.000    1.875    1.250    4.875    0.000    5.000 
#    4.500    3.125    0.000    3.000    0.000    0.000 
#    0.000    0.000    0.000    0.000    0.000    0.000 
#
# Total GULP energy -356939.269611 kJ/mol
# GULP energy per Si atom -5577.176088 kJ/mol
# Density = 1.970813 g / cm^3
# Si number density = 19.753086 Si / 1000 Ang^3
#
#
#
# Elastic Constant Matrix: (Units=GPa)
#
#
# Indices 1 2 3 4 5 6 
#
# 1 39.2690 30.0152 25.8833 0.0000 0.0000 0.0000
# 2 30.0152 99.1027 42.6481 0.0000 0.0000 0.0000
# 3 25.8833 42.6481 120.0411 0.0000 0.0000 0.0000
# 4 0.0000 0.0000 0.0000 14.0954 0.0000 0.0000
# 5 0.0000 0.0000 0.0000 0.0000 34.0041 0.0000
# 6 0.0000 0.0000 0.0000 0.0000 0.0000 3.2757
#
#
#
# Elastic Compliance Matrix: (Units=1/GPa)
#
#
# Indices 1 2 3 4 5 6 
#
# 1 0.035057 -0.008694 -0.004470 0.000000 0.000000 0.000000
# 2 -0.008694 0.014068 -0.003123 0.000000 0.000000 0.000000
# 3 -0.004470 -0.003123 0.010404 0.000000 0.000000 0.000000
# 4 0.000000 0.000000 0.000000 0.070945 0.000000 0.000000
# 5 0.000000 0.000000 0.000000 0.000000 0.029408 0.000000
# 6 0.000000 0.000000 0.000000 0.000000 0.000000 0.305279
#
#
# Mechanical properties :
#
#
# Convention : Reuss Voigt Hill
#
# Bulk Modulus (GPa) = 37.10065 50.61176 43.85620
# Shear Modulus (GPa) = 9.86735 20.93279 15.40007
#
# Velocity S-wave (km/s) = 2.23745 3.25887 2.79521
# Velocity P-wave (km/s) = 5.04954 6.31175 5.71559
#
# Compressibility (1/GPa) = 0.02695371
#
# Stress axis : x y z
#
# Youngs Moduli (GPa) = 28.52489 71.08418 96.11663
#
# Poissons Ratio (x) = 0.61801 0.42966
# Poissons Ratio (y) = 0.24800 0.30021
# Poissons Ratio (z) = 0.12751 0.22202
#
# Static dielectric constant tensor:
#      x y z
#    x 1.704260 0.000000 0.000000 
#    y 0.000000 1.689050 0.000000 
#    z 0.000000 0.000000 1.724040 
# 
# From -- ./inp_files/23219.got.cif
#   From: 2010.05.17/outbox.ucp.g08.bks.cvg/sg49_12_cif.got.tgz:23219.got - 2010.06.11 16:40:14.
