data_PCOD9395277
_publ_section_title
;
Structure prediction by ZEFSAII (Michael W. Deem and Ramdas Pophale) SiO2 
 PCOD9395277
Probable space group: P C C M
;
_chemical_formula_sum "Si O2"
_cell_formula_units_Z 48
_cell_length_a 18.000000
_cell_length_b 15.000000
_cell_length_c 9.000000
_cell_angle_alpha 90.000000
_cell_angle_beta 90.000000
_cell_angle_gamma 90.000000
_cell_volume 2430.000000
_symmetry_space_group_name_H-M "P C C M"
_symmetry_group_IT_number 49
_symmetry_cell_setting 'orthorhombic'
loop_
_space_group_symop_operation_xyz
x,y,z
-x,-y,z
x,-y,1/2-z
-x,y,1/2-z
-x,-y,-z
x,y,-z
-x,y,1/2+z
x,-y,1/2+z
loop_
_atom_site_type_symbol
_atom_site_label
_atom_site_fract_x
_atom_site_fract_y
_atom_site_fract_z
Si Si1 0.704455 0.092423 0.822071
Si Si2 0.365928 0.591624 0.821841
Si Si3 0.878209 0.906338 0.322072
Si Si4 0.204876 0.408393 0.177278
Si Si5 0.425669 0.220339 0.677902
Si Si6 0.928030 0.726556 0.823880
O O1 0.790651 0.106901 0.784253
O O2 0.648497 0.169144 0.773493
O O3 0.680546 0.000000 0.750000
O O4 0.700998 0.085475 0.000000
O O5 0.393018 0.500000 0.750000
O O6 0.283689 0.608653 0.755884
O O7 0.415280 0.676362 0.782942
O O8 0.361243 0.583579 0.000000
O O9 0.886640 0.909338 0.500000
O O10 0.918526 0.822264 0.252254
O O11 0.901473 0.000000 0.250000
O O12 0.176451 0.500000 0.250000
O O13 0.145807 0.330811 0.203102
O O14 0.215669 0.419199 0.000000
O O15 0.500000 0.183230 0.750000
O O16 0.430809 0.213585 0.500000
O O17 0.000000 0.682211 0.750000
O O18 0.938276 0.735837 0.000000
#
# Coordination Sequence:
#
# PCOD9395277 Si02
#       6
#     8   8   8   8   8   8
#     4   9  19  36  57  81 107 139 179 222 269 319
#     4  10  20  36  58  82 108 140 181 226 272 323
#     4  10  20  37  61  85 111 143 182 229 276 325
#     4  10  21  37  59  85 111 142 183 228 273 324
#     4  10  22  37  53  77 110 146 181 219 268 323
#     4  11  24  39  56  82 114 148 185 224 271 326
#
# _framework density 19.753086
#
# number of rings (size 3 to 8) (size 9 to 14) (size 15 to 20)
#    0.000    2.000    0.000    4.000    0.000    8.000 
#    0.000    6.667    0.000    0.000    0.000    0.000 
#    0.000    0.000    0.000    0.000    0.000    0.000 
#
# Total GULP energy -268063.487705 kJ/mol
# GULP energy per Si atom -5584.655994 kJ/mol
# Density = 1.970813 g / cm^3
# Si number density = 19.753086 Si / 1000 Ang^3
#
#
#
# Elastic Constant Matrix: (Units=GPa)
#
#
# Indices 1 2 3 4 5 6 
#
# 1 52.0902 39.5966 22.9375 0.0000 0.0000 0.0000
# 2 39.5966 76.9473 32.5163 0.0000 0.0000 0.0000
# 3 22.9375 32.5163 43.6721 0.0000 0.0000 0.0000
# 4 0.0000 0.0000 0.0000 23.1231 0.0000 0.0000
# 5 0.0000 0.0000 0.0000 0.0000 9.9823 0.0000
# 6 0.0000 0.0000 0.0000 0.0000 0.0000 49.3324
#
#
#
# Elastic Compliance Matrix: (Units=1/GPa)
#
#
# Indices 1 2 3 4 5 6 
#
# 1 0.032865 -0.014033 -0.006813 0.000000 0.000000 0.000000
# 2 -0.014033 0.024954 -0.011209 0.000000 0.000000 0.000000
# 3 -0.006813 -0.011209 0.034822 0.000000 0.000000 0.000000
# 4 0.000000 0.000000 0.000000 0.043247 0.000000 0.000000
# 5 0.000000 0.000000 0.000000 0.000000 0.100177 0.000000
# 6 0.000000 0.000000 0.000000 0.000000 0.000000 0.020271
#
#
# Mechanical properties :
#
#
# Convention : Reuss Voigt Hill
#
# Bulk Modulus (GPa) = 35.05009 40.31226 37.68117
# Shear Modulus (GPa) = 15.15356 21.66485 18.40920
#
# Velocity S-wave (km/s) = 2.77275 3.31536 3.05612
# Velocity P-wave (km/s) = 5.29467 5.92519 5.61878
#
# Compressibility (1/GPa) = 0.02853060
#
# Stress axis : x y z
#
# Youngs Moduli (GPa) = 30.42776 40.07371 28.71740
#
# Poissons Ratio (x) = 0.56236 0.19565
# Poissons Ratio (y) = 0.42699 0.32190
# Poissons Ratio (z) = 0.20730 0.44920
#
# Static dielectric constant tensor:
#      x y z
#    x 1.696080 0.000000 0.000000 
#    y 0.000000 1.692340 0.000000 
#    z 0.000000 0.000000 1.653510 
# 
# From -- ./inp_files/3684.got.cif
#   From: 2010.05.17/outbox.ucp.g08.bks.cvg/sg49_2_cif.got.tgz:3684.got - 2010.06.11 16:40:14.
