data_PCOD9395526
_publ_section_title
;
Structure prediction by ZEFSAII (Michael W. Deem and Ramdas Pophale) SiO2 
 PCOD9395526
Probable space group: P B A N
;
_chemical_formula_sum "Si O2"
_cell_formula_units_Z 48
_cell_length_a 14.289726
_cell_length_b 16.896312
_cell_length_c 9.142644
_cell_angle_alpha 90.000000
_cell_angle_beta 90.000000
_cell_angle_gamma 90.000000
_cell_volume 2207.433511
_symmetry_space_group_name_H-M "P B A N"
_symmetry_group_IT_number 50
_space_group.IT_coordinate_system_code '2'
_symmetry_cell_setting 'orthorhombic'
loop_
_space_group_symop_operation_xyz
x,y,z
1/2-x,1/2-y,z
x,1/2-y,-z
1/2-x,y,-z
-x,-y,-z
1/2+x,1/2+y,-z
-x,1/2+y,z
1/2+x,-y,z
loop_
_atom_site_type_symbol
_atom_site_label
_atom_site_fract_x
_atom_site_fract_y
_atom_site_fract_z
Si Si1 0.844148 0.110483 0.573619
Si Si2 0.014282 0.365740 0.259778
Si Si3 0.066687 0.549412 0.281146
Si Si4 0.240934 0.012928 0.204325
Si Si5 0.937966 0.924353 0.954277
Si Si6 0.201452 0.176202 0.656814
O O1 0.750000 0.145981 0.500000
O O2 0.907089 0.085331 0.436297
O O3 0.909775 0.156062 0.689993
O O4 0.811709 0.033037 0.664789
O O5 0.028084 0.459536 0.299446
O O6 0.090452 0.315960 0.348171
O O7 0.044676 0.364340 0.088148
O O8 0.164786 0.540712 0.189664
O O9 0.988910 0.600063 0.195779
O O10 0.164126 0.040332 0.084425
O O11 0.279574 0.095637 0.260565
O O12 0.000000 0.000000 0.000000
O O13 0.250000 0.250000 0.734304
O O14 0.250000 0.169253 0.500000
#
# Coordination Sequence:
#
# PCOD9395526 Si02
#       6
#     8   8   8   8   8   8
#     4  10  18  30  49  80 107 140 177 228 283 324
#     4  10  19  33  49  73 108 138 180 228 267 327
#     4   9  18  27  48  71 106 144 175 216 278 333
#     4  10  18  32  51  76 115 145 184 224 277 330
#     4  10  19  30  46  75 108 147 176 212 281 338
#     4  10  22  37  55  78 107 152 189 223 267 322
#
# _framework density 21.744710000000001
#
# number of rings (size 3 to 8) (size 9 to 14) (size 15 to 20)
#    0.000    2.167    3.333    3.000    2.333    6.000 
#    0.000    1.667    0.000    0.000    0.000    2.333 
#    0.000    0.000    4.000    0.000    0.000    0.000 
#
# Total GULP energy -267288.705866 kJ/mol
# GULP energy per Si atom -5568.514706 kJ/mol
# Density = 2.169522 g / cm^3
# Si number density = 21.744710 Si / 1000 Ang^3
#
#
#
# Elastic Constant Matrix: (Units=GPa)
#
#
# Indices 1 2 3 4 5 6 
#
# 1 162.6148 5.9119 50.6815 0.0000 0.0000 0.0000
# 2 5.9119 14.8822 -7.1166 0.0000 0.0000 0.0000
# 3 50.6815 -7.1166 99.4358 0.0000 0.0000 0.0000
# 4 0.0000 0.0000 0.0000 4.9355 0.0000 0.0000
# 5 0.0000 0.0000 0.0000 0.0000 50.9873 0.0000
# 6 0.0000 0.0000 0.0000 0.0000 0.0000 0.3911
#
#
#
# Elastic Compliance Matrix: (Units=1/GPa)
#
#
# Indices 1 2 3 4 5 6 
#
# 1 0.007666 -0.005088 -0.004271 0.000000 0.000000 0.000000
# 2 -0.005088 0.072952 0.007814 0.000000 0.000000 0.000000
# 3 -0.004271 0.007814 0.012793 0.000000 0.000000 0.000000
# 4 0.000000 0.000000 0.000000 0.202614 0.000000 0.000000
# 5 0.000000 0.000000 0.000000 0.000000 0.019613 0.000000
# 6 0.000000 0.000000 0.000000 0.000000 0.000000 2.556769
#
#
# Mechanical properties :
#
#
# Convention : Reuss Voigt Hill
#
# Bulk Modulus (GPa) = 11.07152 41.76514 26.41833
# Shear Modulus (GPa) = 1.72081 26.42651 14.07366
#
# Velocity S-wave (km/s) = 0.89056 3.48991 2.54682
# Velocity P-wave (km/s) = 2.48195 5.95718 4.56334
#
# Compressibility (1/GPa) = 0.09032185
#
# Stress axis : x y z
#
# Youngs Moduli (GPa) = 130.45189 13.70758 78.16766
#
# Poissons Ratio (x) = 0.06974 0.33387
# Poissons Ratio (y) = 0.66369 -0.61083
# Poissons Ratio (z) = 0.55719 -0.10712
#
# Static dielectric constant tensor:
#      x y z
#    x 1.896320 0.000000 0.000000 
#    y 0.000000 1.770170 0.000000 
#    z 0.000000 0.000000 1.925600 
# 
# From -- ./inp_files/13139.got.cif
#   From: 2010.05.17/outbox.cif.g08.bks.cpg/sg50_7_cif.got.tgz:13139.got - 2010.06.03 11:33:33.
