data_PCOD9395505
_publ_section_title
;
Structure prediction by ZEFSAII (Michael W. Deem and Ramdas Pophale) SiO2 
 PCOD9395505
Probable space group: P B A N
;
_chemical_formula_sum "Si O2"
_cell_formula_units_Z 64
_cell_length_a 14.482072
_cell_length_b 22.975707
_cell_length_c 9.124951
_cell_angle_alpha 90.000000
_cell_angle_beta 90.000000
_cell_angle_gamma 90.000000
_cell_volume 3036.198264
_symmetry_space_group_name_H-M "P B A N"
_symmetry_group_IT_number 50
_space_group.IT_coordinate_system_code '2'
_symmetry_cell_setting 'orthorhombic'
loop_
_space_group_symop_operation_xyz
x,y,z
1/2-x,1/2-y,z
x,1/2-y,-z
1/2-x,y,-z
-x,-y,-z
1/2+x,1/2+y,-z
-x,1/2+y,z
1/2+x,-y,z
loop_
_atom_site_type_symbol
_atom_site_label
_atom_site_fract_x
_atom_site_fract_y
_atom_site_fract_z
Si Si1 0.005654 0.880179 0.821185
Si Si2 0.722849 0.397341 0.157261
Si Si3 0.442145 0.105359 0.148584
Si Si4 0.616049 0.096782 0.363053
Si Si5 0.654959 0.643312 0.415828
Si Si6 0.717537 0.533667 0.153560
Si Si7 0.624855 0.541283 0.626325
Si Si8 0.477358 0.809779 0.445226
O O1 0.114258 0.891479 0.828716
O O2 0.999703 0.821499 0.724063
O O3 0.953151 0.931505 0.731988
O O4 0.962973 0.876499 0.983176
O O5 0.788620 0.380078 0.292027
O O6 0.742884 0.466194 0.149992
O O7 0.750000 0.370672 0.000000
O O8 0.536915 0.104260 0.238879
O O9 0.364138 0.140981 0.241163
O O10 0.391997 0.042557 0.152714
O O11 0.584187 0.136194 0.497921
O O12 0.619509 0.027779 0.401131
O O13 0.750000 0.657595 0.500000
O O14 0.624146 0.579705 0.480152
O O15 0.575121 0.685361 0.473317
O O16 0.779176 0.555436 0.288900
O O17 0.750000 0.561085 0.000000
O O18 0.433459 0.750000 0.500000
#
# Coordination Sequence:
#
# PCOD9395505 Si02
#       8
#     8   8   8   8   8   8   8   8
#     4  11  22  37  61  90 124 163 206 259 318 381
#     4  10  20  34  55  88 127 160 208 251 312 376
#     4  11  20  33  57  89 127 167 202 251 305 380
#     4  10  22  39  59  86 124 166 211 261 311 385
#     4  10  21  38  62  96 128 165 203 251 313 395
#     4  10  18  28  51  87 131 172 194 237 299 391
#     4  10  20  35  55  92 131 166 202 242 315 388
#     4  10  25  47  65  84 116 164 218 276 330 376
#
# _framework density 21.078992
#
# number of rings (size 3 to 8) (size 9 to 14) (size 15 to 20)
#    0.000    1.750    3.750    0.750    0.000    7.250 
#    0.000    3.750    0.000    0.750    0.000    3.500 
#    0.000    0.000    0.000    0.000    0.000    0.000 
#
# Total GULP energy -356825.391718 kJ/mol
# GULP energy per Si atom -5575.396746 kJ/mol
# Density = 2.103102 g / cm^3
# Si number density = 21.078992 Si / 1000 Ang^3
#
#
#
# Elastic Constant Matrix: (Units=GPa)
#
#
# Indices 1 2 3 4 5 6 
#
# 1 114.4362 12.8474 34.9891 0.0000 0.0000 0.0000
# 2 12.8474 56.0607 36.3160 0.0000 0.0000 0.0000
# 3 34.9891 36.3160 133.0364 0.0000 0.0000 0.0000
# 4 0.0000 0.0000 0.0000 5.5049 0.0000 0.0000
# 5 0.0000 0.0000 0.0000 0.0000 34.5678 0.0000
# 6 0.0000 0.0000 0.0000 0.0000 0.0000 7.0921
#
#
#
# Elastic Compliance Matrix: (Units=1/GPa)
#
#
# Indices 1 2 3 4 5 6 
#
# 1 0.009524 -0.000680 -0.002319 0.000000 0.000000 0.000000
# 2 -0.000680 0.021718 -0.005750 0.000000 0.000000 0.000000
# 3 -0.002319 -0.005750 0.009696 0.000000 0.000000 0.000000
# 4 0.000000 0.000000 0.000000 0.181658 0.000000 0.000000
# 5 0.000000 0.000000 0.000000 0.000000 0.028929 0.000000
# 6 0.000000 0.000000 0.000000 0.000000 0.000000 0.141002
#
#
# Mechanical properties :
#
#
# Convention : Reuss Voigt Hill
#
# Bulk Modulus (GPa) = 42.66162 52.42647 47.54404
# Shear Modulus (GPa) = 11.96634 24.05834 18.01234
#
# Velocity S-wave (km/s) = 2.38521 3.38204 2.92638
# Velocity P-wave (km/s) = 5.27906 6.33848 5.83287
#
# Compressibility (1/GPa) = 0.02344028
#
# Stress axis : x y z
#
# Youngs Moduli (GPa) = 104.99848 46.04404 103.13291
#
# Poissons Ratio (x) = 0.03132 0.23918
# Poissons Ratio (y) = 0.07143 0.59298
# Poissons Ratio (z) = 0.24351 0.26474
#
# Static dielectric constant tensor:
#      x y z
#    x 1.796910 0.000000 0.000000 
#    y 0.000000 1.792970 0.000000 
#    z 0.000000 0.000000 1.838060 
# 
# From -- ./inp_files/13453.got.cif
#   From: 2010.05.17/outbox.cif.g08.bks.cpg/sg50_7_cif.got.tgz:13453.got - 2010.06.03 11:33:33.
