data_PCOD9395901
_publ_section_title
;
Structure prediction by ZEFSAII (Michael W. Deem and Ramdas Pophale) SiO2 
 PCOD9395901
Probable space group: P B A N
;
_chemical_formula_sum "Si O2"
_cell_formula_units_Z 48
_cell_length_a 23.087796
_cell_length_b 9.113718
_cell_length_c 11.900596
_cell_angle_alpha 90.000000
_cell_angle_beta 90.000000
_cell_angle_gamma 90.000000
_cell_volume 2504.071785
_symmetry_space_group_name_H-M "P B A N"
_symmetry_group_IT_number 50
_space_group.IT_coordinate_system_code '2'
_symmetry_cell_setting 'orthorhombic'
loop_
_space_group_symop_operation_xyz
x,y,z
1/2-x,1/2-y,z
x,1/2-y,-z
1/2-x,y,-z
-x,-y,-z
1/2+x,1/2+y,-z
-x,1/2+y,z
1/2+x,-y,z
loop_
_atom_site_type_symbol
_atom_site_label
_atom_site_fract_x
_atom_site_fract_y
_atom_site_fract_z
Si Si1 0.525778 0.042467 0.239111
Si Si2 0.732380 0.960804 0.130930
Si Si3 0.563834 0.745401 0.366924
Si Si4 0.162133 0.322109 0.217576
Si Si5 0.876404 0.132232 0.900779
Si Si6 0.059345 0.398536 0.049298
O O1 0.481840 0.127451 0.319749
O O2 0.578921 0.148999 0.201970
O O3 0.487366 0.015485 0.125255
O O4 0.549539 0.897101 0.300041
O O5 0.791791 0.953398 0.201472
O O6 0.695127 0.823699 0.176754
O O7 0.689065 0.098176 0.136108
O O8 0.750000 0.940229 0.000000
O O9 0.557397 0.750000 0.500000
O O10 0.629648 0.700202 0.334760
O O11 0.109054 0.346991 0.134228
O O12 0.877430 0.250000 0.000000
O O13 0.903944 0.988123 0.959005
O O14 0.032020 0.250000 0.000000
#
# Coordination Sequence:
#
# PCOD9395901 Si02
#       6
#     8   8   8   8   8   8
#     4  11  22  37  57  87 120 151 194 250 303 367
#     4  11  19  34  58  82 120 154 190 228 292 363
#     4  11  23  41  62  85 112 156 210 265 314 353
#     4  10  19  35  59  82 109 156 202 242 283 351
#     4  12  22  33  53  91 126 155 184 231 297 376
#     4  11  18  34  55  84 120 161 189 222 290 375
#
# _framework density 19.168779000000001
#
# number of rings (size 3 to 8) (size 9 to 14) (size 15 to 20)
#    0.000    1.000    5.000    4.500    0.000    0.333 
#    0.000    1.667    0.000    0.000    0.000    0.000 
#    0.000    0.000    0.000    0.000    0.000    0.000 
#
# Total GULP energy -267821.714967 kJ/mol
# GULP energy per Si atom -5579.619062 kJ/mol
# Density = 1.912515 g / cm^3
# Si number density = 19.168779 Si / 1000 Ang^3
#
#
#
# Elastic Constant Matrix: (Units=GPa)
#
#
# Indices 1 2 3 4 5 6 
#
# 1 124.6622 36.1708 45.8946 0.0000 0.0000 0.0000
# 2 36.1708 52.5055 12.4493 0.0000 0.0000 0.0000
# 3 45.8946 12.4493 82.1598 0.0000 0.0000 0.0000
# 4 0.0000 0.0000 0.0000 20.3138 0.0000 0.0000
# 5 0.0000 0.0000 0.0000 0.0000 23.7851 0.0000
# 6 0.0000 0.0000 0.0000 0.0000 0.0000 33.3795
#
#
#
# Elastic Compliance Matrix: (Units=1/GPa)
#
#
# Indices 1 2 3 4 5 6 
#
# 1 0.012171 -0.007025 -0.005734 0.000000 0.000000 0.000000
# 2 -0.007025 0.023810 0.000316 0.000000 0.000000 0.000000
# 3 -0.005734 0.000316 0.015327 0.000000 0.000000 0.000000
# 4 0.000000 0.000000 0.000000 0.049228 0.000000 0.000000
# 5 0.000000 0.000000 0.000000 0.000000 0.042043 0.000000
# 6 0.000000 0.000000 0.000000 0.000000 0.000000 0.029959
#
#
# Mechanical properties :
#
#
# Convention : Reuss Voigt Hill
#
# Bulk Modulus (GPa) = 37.84738 49.81743 43.83241
# Shear Modulus (GPa) = 24.24472 26.48319 25.36396
#
# Velocity S-wave (km/s) = 3.56026 3.72099 3.64152
# Velocity P-wave (km/s) = 6.05704 6.67130 6.37158
#
# Compressibility (1/GPa) = 0.02642191
#
# Stress axis : x y z
#
# Youngs Moduli (GPa) = 82.16196 41.99898 65.24569
#
# Poissons Ratio (x) = 0.29504 0.37414
# Poissons Ratio (y) = 0.57719 -0.02064
# Poissons Ratio (z) = 0.47114 -0.01329
#
# Static dielectric constant tensor:
#      x y z
#    x 1.725360 0.000000 0.000000 
#    y 0.000000 1.721260 0.000000 
#    z 0.000000 0.000000 1.683600 
# 
# From -- ./inp_files/19207.got.cif
#   From: 2010.05.17/outbox.cif.g08.bks.cpg/sg50_10_cif.got.tgz:19207.got - 2010.06.03 11:33:33.
