data_PCOD9395439
_publ_section_title
;
Structure prediction by ZEFSAII (Michael W. Deem and Ramdas Pophale) SiO2 
 PCOD9395439
Probable space group: P B A N
;
_chemical_formula_sum "Si O2"
_cell_formula_units_Z 52
_cell_length_a 28.071496
_cell_length_b 18.022329
_cell_length_c 5.595267
_cell_angle_alpha 90.000000
_cell_angle_beta 90.000000
_cell_angle_gamma 90.000000
_cell_volume 2830.722434
_symmetry_space_group_name_H-M "P B A N"
_symmetry_group_IT_number 50
_space_group.IT_coordinate_system_code '2'
_symmetry_cell_setting 'orthorhombic'
loop_
_space_group_symop_operation_xyz
x,y,z
1/2-x,1/2-y,z
x,1/2-y,-z
1/2-x,y,-z
-x,-y,-z
1/2+x,1/2+y,-z
-x,1/2+y,z
1/2+x,-y,z
loop_
_atom_site_type_symbol
_atom_site_label
_atom_site_fract_x
_atom_site_fract_y
_atom_site_fract_z
Si Si1 0.297980 0.049165 0.125378
Si Si2 0.250000 0.158013 0.500000
Si Si3 0.035022 0.121586 0.793152
Si Si4 0.664127 0.817571 0.181969
Si Si5 0.059788 0.147115 0.301227
Si Si6 0.894071 0.484618 0.773632
Si Si7 0.437808 0.967502 0.727249
O O1 0.280774 0.104741 0.330256
O O2 0.337246 0.993853 0.228522
O O3 0.250000 0.018572 0.000000
O O4 0.324949 0.102993 0.938768
O O5 0.288621 0.197591 0.666628
O O6 0.035883 0.168373 0.550475
O O7 0.988861 0.069498 0.771764
O O8 0.081134 0.066725 0.782070
O O9 0.038366 0.165601 0.041410
O O10 0.614427 0.827184 0.315536
O O11 0.658656 0.750000 0.000000
O O12 0.056591 0.056696 0.288966
O O13 0.914508 0.447747 0.530466
O O14 0.908417 0.450509 0.030649
#
# Coordination Sequence:
#
# PCOD9395439 Si02
#       7
#     8   4   8   8   8   8   8
#     4  10  21  33  47  62  78 114 151 193 238 274
#     4  10  22  37  50  56  76 104 160 204 242 282
#     4  10  17  28  49  69  87 106 126 162 229 283
#     4  11  23  36  49  62  78 113 151 201 248 279
#     4  10  18  31  46  65  89 103 132 171 224 284
#     4  10  17  28  43  64  90 104 132 170 217 276
#     4  10  17  27  48  69  88 106 126 161 230 280
#
# _framework density 18.369869000000001
#
# number of rings (size 3 to 8) (size 9 to 14) (size 15 to 20)
#    0.000    1.846    3.077    6.462    2.154    4.000 
#    0.000    0.000    0.000    0.000    0.000    0.000 
#    0.000    0.000    0.000    0.000    0.000    0.000 
#
# Total GULP energy -290069.762951 kJ/mol
# GULP energy per Si atom -5578.264672 kJ/mol
# Density = 1.832806 g / cm^3
# Si number density = 18.369869 Si / 1000 Ang^3
#
#
#
# Elastic Constant Matrix: (Units=GPa)
#
#
# Indices 1 2 3 4 5 6 
#
# 1 113.9723 29.0046 26.0219 0.0000 0.0000 0.0000
# 2 29.0046 15.9401 5.5351 0.0000 0.0000 0.0000
# 3 26.0219 5.5351 137.9530 0.0000 0.0000 0.0000
# 4 0.0000 0.0000 0.0000 8.1005 0.0000 0.0000
# 5 0.0000 0.0000 0.0000 0.0000 125.6211 0.0000
# 6 0.0000 0.0000 0.0000 0.0000 0.0000 4.2517
#
#
#
# Elastic Compliance Matrix: (Units=1/GPa)
#
#
# Indices 1 2 3 4 5 6 
#
# 1 0.016856 -0.029985 -0.001976 0.000000 0.000000 0.000000
# 2 -0.029985 0.116961 0.000963 0.000000 0.000000 0.000000
# 3 -0.001976 0.000963 0.007583 0.000000 0.000000 0.000000
# 4 0.000000 0.000000 0.000000 0.123449 0.000000 0.000000
# 5 0.000000 0.000000 0.000000 0.000000 0.007960 0.000000
# 6 0.000000 0.000000 0.000000 0.000000 0.000000 0.235200
#
#
# Mechanical properties :
#
#
# Convention : Reuss Voigt Hill
#
# Bulk Modulus (GPa) = 12.59391 43.22096 27.90743
# Shear Modulus (GPa) = 8.38259 41.41491 24.89875
#
# Velocity S-wave (km/s) = 2.13849 4.75331 3.68559
# Velocity P-wave (km/s) = 3.60113 7.32834 5.77376
#
# Compressibility (1/GPa) = 0.07940347
#
# Stress axis : x y z
#
# Youngs Moduli (GPa) = 59.32557 8.54987 131.87358
#
# Poissons Ratio (x) = 0.25637 0.26064
# Poissons Ratio (y) = 1.77888 -0.12702
# Poissons Ratio (z) = 0.11725 -0.00824
#
# Static dielectric constant tensor:
#      x y z
#    x 1.600600 0.000000 0.000000 
#    y 0.000000 1.618850 0.000000 
#    z 0.000000 0.000000 1.764800 
# 
# From -- ./inp_files/4638.got.cif
#   From: 2010.05.17/outbox.cif.g08.bks.cpg/sg50_3_cif.got.tgz:4638.got - 2010.06.03 11:33:33.
