data_PCOD9395428
_publ_section_title
;
Structure prediction by ZEFSAII (Michael W. Deem and Ramdas Pophale) SiO2 
 PCOD9395428
Probable space group: P B A N
;
_chemical_formula_sum "Si O2"
_cell_formula_units_Z 64
_cell_length_a 33.139904
_cell_length_b 5.340202
_cell_length_c 14.585887
_cell_angle_alpha 90.000000
_cell_angle_beta 90.000000
_cell_angle_gamma 90.000000
_cell_volume 2581.319581
_symmetry_space_group_name_H-M "P B A N"
_symmetry_group_IT_number 50
_space_group.IT_coordinate_system_code '2'
_symmetry_cell_setting 'orthorhombic'
loop_
_space_group_symop_operation_xyz
x,y,z
1/2-x,1/2-y,z
x,1/2-y,-z
1/2-x,y,-z
-x,-y,-z
1/2+x,1/2+y,-z
-x,1/2+y,z
1/2+x,-y,z
loop_
_atom_site_type_symbol
_atom_site_label
_atom_site_fract_x
_atom_site_fract_y
_atom_site_fract_z
Si Si1 0.389110 0.183678 0.604115
Si Si2 0.889110 0.683680 0.104116
Si Si3 0.022283 0.509065 0.638939
Si Si4 0.732624 0.003408 0.895184
Si Si5 0.022283 0.509063 0.861057
Si Si6 0.141299 0.679990 0.105279
Si Si7 0.141299 0.820012 0.605280
Si Si8 0.232624 0.996592 0.604816
O O1 0.376388 0.250000 0.500000
O O2 0.433740 0.070688 0.605087
O O3 0.387250 0.463485 0.646015
O O4 0.361660 0.960938 0.645634
O O5 0.933741 0.570689 0.105090
O O6 0.861660 0.460940 0.145634
O O7 0.887250 0.963487 0.146016
O O8 0.876389 0.750000 0.000000
O O9 0.023852 0.508311 0.749998
O O10 0.007992 0.785304 0.610403
O O11 0.750000 0.750000 0.854740
O O12 0.750000 0.250000 0.850405
O O13 0.684961 0.048538 0.894391
O O14 0.750000 0.002103 0.000000
O O15 0.007991 0.785301 0.889593
O O16 0.130715 0.750000 0.000000
O O17 0.130715 0.750000 0.500000
O O18 0.184961 0.951463 0.605610
O O19 0.250000 0.250000 0.645260
O O20 0.250000 0.997897 0.500000
O O21 0.250000 0.750000 0.649595
#
# Coordination Sequence:
#
# PCOD9395428 Si02
#       8
#     8   8   8   8   8   8   8   8
#     4  10  21  32  50  75 107 139 161 212 260 316
#     4  10  21  32  50  75 107 139 161 212 260 316
#     4  10  21  38  58  77  99 131 176 220 255 304
#     4  10  17  24  41  63  95 143 168 203 236 301
#     4  10  21  38  58  77  99 131 176 220 255 304
#     4  10  18  30  43  69 108 141 166 202 260 303
#     4  10  18  30  43  69 108 141 166 202 260 303
#     4  10  17  24  41  63  95 143 168 203 236 301
#
# _framework density 24.793520999999998
#
# number of rings (size 3 to 8) (size 9 to 14) (size 15 to 20)
#    0.000    2.000    2.500    3.000    7.000    1.000 
#    0.000    0.000    0.000    0.000    0.000    0.000 
#    0.000   20.000    0.000    0.000    0.000    1.000 
#
# Total GULP energy -357181.780811 kJ/mol
# GULP energy per Si atom -5580.965325 kJ/mol
# Density = 2.473709 g / cm^3
# Si number density = 24.793521 Si / 1000 Ang^3
#
#
#
# Elastic Constant Matrix: (Units=GPa)
#
#
# Indices 1 2 3 4 5 6 
#
# 1 84.1588 -1.9612 -18.8174 0.0000 0.0000 0.0000
# 2 -1.9612 180.2437 -4.4320 0.0000 0.0000 0.0000
# 3 -18.8174 -4.4320 89.5607 0.0000 0.0000 0.0000
# 4 0.0000 0.0000 0.0000 -11.3407 0.0000 0.0000
# 5 0.0000 0.0000 0.0000 0.0000 -41.0674 0.0000
# 6 0.0000 0.0000 0.0000 0.0000 0.0000 56.2490
#
#
#
# Elastic Compliance Matrix: (Units=1/GPa)
#
#
# Indices 1 2 3 4 5 6 
#
# 1 0.012475 0.000200 0.002631 0.000000 0.000000 0.000000
# 2 0.000200 0.005558 0.000317 0.000000 0.000000 0.000000
# 3 0.002631 0.000317 0.011734 0.000000 0.000000 0.000000
# 4 0.000000 0.000000 0.000000 -0.088178 0.000000 0.000000
# 5 0.000000 0.000000 0.000000 0.000000 -0.024350 0.000000
# 6 0.000000 0.000000 0.000000 0.000000 0.000000 0.017778
#
#
# Mechanical properties :
#
#
# Convention : Reuss Voigt Hill
#
# Bulk Modulus (GPa) = 27.72793 33.72690 30.72741
# Shear Modulus (GPa) = -84.37650 26.04643 -29.16503
#
# Velocity S-wave (km/s) = -5.84000 3.24471 -3.43347
# Velocity P-wave (km/s) = 5.85374 5.26024 1.81605
#
# Compressibility (1/GPa) = 0.03606472
#
# Stress axis : x y z
#
# Youngs Moduli (GPa) = 80.15863 179.92008 85.22158
#
# Poissons Ratio (x) = -0.03606 -0.22422
# Poissons Ratio (y) = -0.01607 -0.02703
# Poissons Ratio (z) = -0.21090 -0.05706
#
# Static dielectric constant tensor:
#      x y z
#    x 1.963510 0.000000 0.000000 
#    y 0.000000 2.072810 0.000000 
#    z 0.000000 0.000000 1.969360 
# 
# From -- ./inp_files/30104.got.cif
#   From: 2010.05.17/outbox.cif.g08.bks.cpg/sg50_16_cif.got.tgz:30104.got - 2010.06.03 11:33:33.
