data_PCOD9395282
_publ_section_title
;
Structure prediction by ZEFSAII (Michael W. Deem and Ramdas Pophale) SiO2 
 PCOD9395282
Probable space group: P C C M
;
_chemical_formula_sum "Si O2"
_cell_formula_units_Z 64
_cell_length_a 9.000000
_cell_length_b 21.000000
_cell_length_c 18.000000
_cell_angle_alpha 90.000000
_cell_angle_beta 90.000000
_cell_angle_gamma 90.000000
_cell_volume 3402.000000
_symmetry_space_group_name_H-M "P C C M"
_symmetry_group_IT_number 49
_symmetry_cell_setting 'orthorhombic'
loop_
_space_group_symop_operation_xyz
x,y,z
-x,-y,z
x,-y,1/2-z
-x,y,1/2-z
-x,-y,-z
x,y,-z
-x,y,1/2+z
x,-y,1/2+z
loop_
_atom_site_type_symbol
_atom_site_label
_atom_site_fract_x
_atom_site_fract_y
_atom_site_fract_z
Si Si1 0.822254 0.379225 0.413591
Si Si2 0.825505 0.986128 0.914519
Si Si3 0.700559 0.244397 0.086661
Si Si4 0.355366 0.247883 0.915445
Si Si5 0.668971 0.574105 0.231044
Si Si6 0.337431 0.892306 0.153194
Si Si7 0.098523 0.338266 0.319286
Si Si8 0.685567 0.124487 0.673761
O O1 0.825583 0.401112 0.500000
O O2 0.748491 0.309092 0.413563
O O3 0.719227 0.416999 0.354782
O O4 0.985247 0.372732 0.376538
O O5 0.793033 0.922587 0.869099
O O6 0.736429 0.044436 0.878159
O O7 0.778116 0.978543 0.000000
O O8 0.000000 0.000000 0.912771
O O9 0.528109 0.264182 0.100333
O O10 0.706152 0.169535 0.105519
O O11 0.811458 0.283943 0.137897
O O12 0.733993 0.255232 0.000000
O O13 0.302493 0.195748 0.856948
O O14 0.352951 0.221230 0.000000
O O15 0.679970 0.500000 0.250000
O O16 0.500000 0.594889 0.250000
O O17 0.783867 0.613721 0.281618
O O18 0.292333 0.880193 0.238452
O O19 0.516466 0.896795 0.154720
O O20 0.000000 0.313428 0.250000
#
# Coordination Sequence:
#
# PCOD9395282 Si02
#       8
#     8   8   8   8   8   8   8   8
#     4  10  21  38  60  90 128 162 198 244 302 359
#     4  11  24  40  55  76 108 148 189 236 293 351
#     4  10  20  37  58  84 117 153 197 243 288 343
#     4   9  19  35  59  88 115 151 194 242 292 342
#     4  10  22  42  65  90 120 160 206 253 294 345
#     4  10  22  37  58  83 111 143 189 240 290 342
#     4  10  22  36  58  89 122 159 197 239 294 355
#     4  10  21  37  59  85 109 143 189 239 288 348
#
# _framework density 18.812463000000001
#
# number of rings (size 3 to 8) (size 9 to 14) (size 15 to 20)
#    0.000    2.000    0.000    2.625    3.500    7.250 
#    0.000    5.000    0.000    0.000    0.000    0.000 
#    0.000    0.000    0.000    0.000    0.000    0.000 
#
# Total GULP energy -357452.874987 kJ/mol
# GULP energy per Si atom -5585.201172 kJ/mol
# Density = 1.876965 g / cm^3
# Si number density = 18.812463 Si / 1000 Ang^3
#
#
#
# Elastic Constant Matrix: (Units=GPa)
#
#
# Indices 1 2 3 4 5 6 
#
# 1 71.7026 29.4708 48.6778 0.0000 0.0000 0.0000
# 2 29.4708 41.5819 30.5094 0.0000 0.0000 0.0000
# 3 48.6778 30.5094 124.1255 0.0000 0.0000 0.0000
# 4 0.0000 0.0000 0.0000 23.0012 0.0000 0.0000
# 5 0.0000 0.0000 0.0000 0.0000 23.4701 0.0000
# 6 0.0000 0.0000 0.0000 0.0000 0.0000 -5.2887
#
#
#
# Elastic Compliance Matrix: (Units=1/GPa)
#
#
# Indices 1 2 3 4 5 6 
#
# 1 0.022925 -0.011775 -0.006096 0.000000 0.000000 0.000000
# 2 -0.011775 0.035388 -0.004081 0.000000 0.000000 0.000000
# 3 -0.006096 -0.004081 0.011450 0.000000 0.000000 0.000000
# 4 0.000000 0.000000 0.000000 0.043476 0.000000 0.000000
# 5 0.000000 0.000000 0.000000 0.000000 0.042607 0.000000
# 6 0.000000 0.000000 0.000000 0.000000 0.000000 -0.189081
#
#
# Mechanical properties :
#
#
# Convention : Reuss Voigt Hill
#
# Bulk Modulus (GPa) = 38.66985 50.52512 44.59749
# Shear Modulus (GPa) = 259.22455 16.81997 138.02226
#
# Velocity S-wave (km/s) = 11.75131 2.99337 8.57477
# Velocity P-wave (km/s) = 14.30819 6.23399 11.03601
#
# Compressibility (1/GPa) = 0.02585994
#
# Stress axis : x y z
#
# Youngs Moduli (GPa) = 43.62113 28.25803 87.33619
#
# Poissons Ratio (x) = 0.33273 0.53241
# Poissons Ratio (y) = 0.51363 0.35638
# Poissons Ratio (z) = 0.26592 0.11531
#
# Static dielectric constant tensor:
#      x y z
#    x 1.650410 0.000000 0.000000 
#    y 0.000000 1.617520 0.000000 
#    z 0.000000 0.000000 1.651420 
# 
# From -- ./inp_files/16564.got.cif
#   From: 2010.05.17/outbox.ucp.g08.bks.cvg/sg49_9_cif.got.tgz:16564.got - 2010.06.11 16:40:14.
