data_PCOD9395337
_publ_section_title
;
Structure prediction by ZEFSAII (Michael W. Deem and Ramdas Pophale) SiO2 
 PCOD9395337
Probable space group: P B A N
;
_chemical_formula_sum "Si O2"
_cell_formula_units_Z 40
_cell_length_a 5.343523
_cell_length_b 14.000201
_cell_length_c 23.273565
_cell_angle_alpha 90.000000
_cell_angle_beta 90.000000
_cell_angle_gamma 90.000000
_cell_volume 1741.104615
_symmetry_space_group_name_H-M "P B A N"
_symmetry_group_IT_number 50
_space_group.IT_coordinate_system_code '2'
_symmetry_cell_setting 'orthorhombic'
loop_
_space_group_symop_operation_xyz
x,y,z
1/2-x,1/2-y,z
x,1/2-y,-z
1/2-x,y,-z
-x,-y,-z
1/2+x,1/2+y,-z
-x,1/2+y,z
1/2+x,-y,z
loop_
_atom_site_type_symbol
_atom_site_label
_atom_site_fract_x
_atom_site_fract_y
_atom_site_fract_z
Si Si1 0.322532 0.897376 0.933816
Si Si2 0.123710 0.063148 0.641957
Si Si3 0.318143 0.383901 0.111139
Si Si4 0.120084 0.062081 0.771511
Si Si5 0.995722 0.643452 0.525334
O O1 0.594185 0.850401 0.929437
O O2 0.096028 0.847570 0.899977
O O3 0.352031 0.003087 0.905604
O O4 0.250000 0.907921 0.000000
O O5 0.127137 0.102424 0.707006
O O6 0.045866 0.138519 0.593351
O O7 0.399838 0.015860 0.635401
O O8 0.204161 0.373717 0.174916
O O9 0.338775 0.980469 0.775741
O O10 0.996087 0.750000 0.500000
O O11 0.750000 0.595514 0.500000
O O12 0.250000 0.602085 0.500000
#
# Coordination Sequence:
#
# PCOD9395337 Si02
#       5
#     8   8   8   8   8
#     4  10  16  20  29  45  65  96 142 188 224 261
#     4  10  21  32  50  75  98 123 159 204 246 290
#     4  10  14  22  31  42  65  99 133 180 234 260
#     4  10  16  27  38  54  79 109 143 183 238 278
#     4  10  21  37  55  74  99 129 157 191 242 307
#
# _framework density 22.97392
#
# number of rings (size 3 to 8) (size 9 to 14) (size 15 to 20)
#    0.000    2.000    4.000    4.200    0.000    2.400 
#    0.000    0.000    0.000    0.000    0.000    0.000 
#    0.000    0.000    0.000    0.000    0.000    0.000 
#
# Total GULP energy -222932.666245 kJ/mol
# GULP energy per Si atom -5573.316656 kJ/mol
# Density = 2.292163 g / cm^3
# Si number density = 22.973920 Si / 1000 Ang^3
#
#
#
# Elastic Constant Matrix: (Units=GPa)
#
#
# Indices 1 2 3 4 5 6 
#
# 1 188.6480 5.3841 7.6943 0.0000 0.0000 0.0000
# 2 5.3841 68.2693 4.4869 0.0000 0.0000 0.0000
# 3 7.6943 4.4869 179.6704 0.0000 0.0000 0.0000
# 4 0.0000 0.0000 0.0000 828.6649 0.0000 0.0000
# 5 0.0000 0.0000 0.0000 0.0000 38.4585 0.0000
# 6 0.0000 0.0000 0.0000 0.0000 0.0000 -4.5980
#
#
#
# Elastic Compliance Matrix: (Units=1/GPa)
#
#
# Indices 1 2 3 4 5 6 
#
# 1 0.005321 -0.000405 -0.000218 0.000000 0.000000 0.000000
# 2 -0.000405 0.014703 -0.000350 0.000000 0.000000 0.000000
# 3 -0.000218 -0.000350 0.005584 0.000000 0.000000 0.000000
# 4 0.000000 0.000000 0.000000 0.001207 0.000000 0.000000
# 5 0.000000 0.000000 0.000000 0.000000 0.026002 0.000000
# 6 0.000000 0.000000 0.000000 0.000000 0.000000 -0.217488
#
#
# Mechanical properties :
#
#
# Convention : Reuss Voigt Hill
#
# Bulk Modulus (GPa) = 42.26166 52.41313 47.33740
# Shear Modulus (GPa) = -32.29184 200.43991 84.07404
#
# Velocity S-wave (km/s) = -3.75318 9.35073 6.05598
# Velocity P-wave (km/s) = 0.58857 11.80869 8.33963
#
# Compressibility (1/GPa) = 0.02366211
#
# Stress axis : x y z
#
# Youngs Moduli (GPa) = 187.92295 68.01412 179.08920
#
# Poissons Ratio (x) = 0.02757 0.03900
# Poissons Ratio (y) = 0.07618 0.06265
# Poissons Ratio (z) = 0.04092 0.02379
#
# Static dielectric constant tensor:
#      x y z
#    x 1.932770 0.000000 0.000000 
#    y 0.000000 1.892490 0.000000 
#    z 0.000000 0.000000 2.000330 
# 
# From -- ./inp_files/30321.got.cif
#   From: 2010.05.17/outbox.cif.g08.bks.cpg/sg50_16_cif.got.tgz:30321.got - 2010.06.03 11:33:33.
