data_PCOD9395803
_publ_section_title
;
Structure prediction by ZEFSAII (Michael W. Deem and Ramdas Pophale) SiO2 
 PCOD9395803
Probable space group: P B A N
;
_chemical_formula_sum "Si O2"
_cell_formula_units_Z 32
_cell_length_a 13.084035
_cell_length_b 14.796647
_cell_length_c 9.773023
_cell_angle_alpha 90.000000
_cell_angle_beta 90.000000
_cell_angle_gamma 90.000000
_cell_volume 1892.055760
_symmetry_space_group_name_H-M "P B A N"
_symmetry_group_IT_number 50
_space_group.IT_coordinate_system_code '2'
_symmetry_cell_setting 'orthorhombic'
loop_
_space_group_symop_operation_xyz
x,y,z
1/2-x,1/2-y,z
x,1/2-y,-z
1/2-x,y,-z
-x,-y,-z
1/2+x,1/2+y,-z
-x,1/2+y,z
1/2+x,-y,z
loop_
_atom_site_type_symbol
_atom_site_label
_atom_site_fract_x
_atom_site_fract_y
_atom_site_fract_z
Si Si1 0.250000 0.389063 0.500000
Si Si2 0.754493 0.358071 0.157793
Si Si3 0.058047 0.892117 0.356036
Si Si4 0.122351 0.970381 0.646601
Si Si5 0.075417 0.250000 0.500000
O O1 0.291923 0.453385 0.618694
O O2 0.154473 0.327980 0.548315
O O3 0.750000 0.250000 0.161951
O O4 0.856994 0.383535 0.240534
O O5 0.660729 0.402639 0.239144
O O6 0.750000 0.387294 0.000000
O O7 0.107100 0.918123 0.503012
O O8 0.994727 0.799865 0.387466
O O9 0.979946 0.973408 0.323256
#
# Coordination Sequence:
#
# PCOD9395803 Si02
#       5
#     4   8   8   8   4
#     4   9  16  32  51  82 112 134 167 228 272 315
#     4  11  23  37  52  75 111 147 179 217 263 315
#     4  10  19  33  57  84 104 138 178 222 270 311
#     4  10  19  34  57  81 107 134 180 226 265 315
#     4   9  18  28  53  86 108 134 171 222 275 318
#
# _framework density 16.912821000000001
#
# number of rings (size 3 to 8) (size 9 to 14) (size 15 to 20)
#    0.000    2.000    2.500    1.500    0.000    2.000 
#    0.000    0.000    0.000    0.000    0.000    0.000 
#    0.000    0.000    0.000    0.000    0.000    0.000 
#
# Total GULP energy -178386.183094 kJ/mol
# GULP energy per Si atom -5574.568222 kJ/mol
# Density = 1.687433 g / cm^3
# Si number density = 16.912821 Si / 1000 Ang^3
#
#
#
# Elastic Constant Matrix: (Units=GPa)
#
#
# Indices 1 2 3 4 5 6 
#
# 1 91.8634 31.8091 71.6905 0.0000 0.0000 0.0000
# 2 31.8091 73.0685 49.9325 0.0000 0.0000 0.0000
# 3 71.6905 49.9325 124.1821 0.0000 0.0000 0.0000
# 4 0.0000 0.0000 0.0000 22.0674 0.0000 0.0000
# 5 0.0000 0.0000 0.0000 0.0000 -1.3313 0.0000
# 6 0.0000 0.0000 0.0000 0.0000 0.0000 27.2033
#
#
#
# Elastic Compliance Matrix: (Units=1/GPa)
#
#
# Indices 1 2 3 4 5 6 
#
# 1 0.019877 -0.001119 -0.011025 0.000000 0.000000 0.000000
# 2 -0.001119 0.018934 -0.006967 0.000000 0.000000 0.000000
# 3 -0.011025 -0.006967 0.017219 0.000000 0.000000 0.000000
# 4 0.000000 0.000000 0.000000 0.045316 0.000000 0.000000
# 5 0.000000 0.000000 0.000000 0.000000 -0.751137 0.000000
# 6 0.000000 0.000000 0.000000 0.000000 0.000000 0.036760
#
#
# Mechanical properties :
#
#
# Convention : Reuss Voigt Hill
#
# Bulk Modulus (GPa) = 56.15604 66.21979 61.18792
# Shear Modulus (GPa) = -8.78933 18.63334 4.92201
#
# Velocity S-wave (km/s) = -2.28213 3.32283 1.70779
# Velocity P-wave (km/s) = 5.13139 7.34576 6.33606
#
# Compressibility (1/GPa) = 0.01780752
#
# Stress axis : x y z
#
# Youngs Moduli (GPa) = 50.30850 52.81475 58.07506
#
# Poissons Ratio (x) = 0.05910 0.64030
# Poissons Ratio (y) = 0.05629 0.40463
# Poissons Ratio (z) = 0.55467 0.36798
#
# Static dielectric constant tensor:
#      x y z
#    x 1.609260 0.000000 0.000000 
#    y 0.000000 1.609060 0.000000 
#    z 0.000000 0.000000 1.522270 
# 
# From -- ./inp_files/10746.got.cif
#   From: 2010.05.17/outbox.cif.g08.bks.cpg/sg50_6_cif.got.tgz:10746.got - 2010.06.03 11:33:33.
