data_PCOD9395361
_publ_section_title
;
Structure prediction by ZEFSAII (Michael W. Deem and Ramdas Pophale) SiO2 
 PCOD9395361
Probable space group: P B A N
;
_chemical_formula_sum "Si O2"
_cell_formula_units_Z 40
_cell_length_a 14.073427
_cell_length_b 5.430722
_cell_length_c 21.830427
_cell_angle_alpha 90.000000
_cell_angle_beta 90.000000
_cell_angle_gamma 90.000000
_cell_volume 1668.474859
_symmetry_space_group_name_H-M "P B A N"
_symmetry_group_IT_number 50
_space_group.IT_coordinate_system_code '2'
_symmetry_cell_setting 'orthorhombic'
loop_
_space_group_symop_operation_xyz
x,y,z
1/2-x,1/2-y,z
x,1/2-y,-z
1/2-x,y,-z
-x,-y,-z
1/2+x,1/2+y,-z
-x,1/2+y,z
1/2+x,-y,z
loop_
_atom_site_type_symbol
_atom_site_label
_atom_site_fract_x
_atom_site_fract_y
_atom_site_fract_z
Si Si1 0.890491 0.379978 0.169897
Si Si2 0.134308 0.749302 0.429936
Si Si3 0.135011 0.256172 0.359957
Si Si4 0.892046 0.496225 0.026276
Si Si5 0.894086 0.869694 0.221116
O O1 0.891153 0.451795 0.098675
O O2 0.845475 0.614665 0.202522
O O3 0.000345 0.363432 0.191813
O O4 0.850708 0.117957 0.192299
O O5 0.250000 0.750000 0.431229
O O6 0.100320 0.750000 0.500000
O O7 0.108216 0.483505 0.403226
O O8 0.107969 0.989090 0.388560
O O9 0.250000 0.250000 0.354157
O O10 0.096763 0.341640 0.293851
O O11 0.851612 0.750000 0.000000
O O12 0.000000 0.500000 0.000000
O O13 0.847824 0.250000 0.000000
#
# Coordination Sequence:
#
# PCOD9395361 Si02
#       5
#     8   8   8   8   8
#     4  10  19  30  45  67  92 125 156 180 224 276
#     4   9  17  30  47  68  92 114 143 187 236 276
#     4  10  19  30  47  71  94 118 147 183 228 273
#     4  10  16  25  41  63  91 114 140 186 232 266
#     4  10  18  30  44  64  94 123 152 183 214 273
#
# _framework density 23.973990000000001
#
# number of rings (size 3 to 8) (size 9 to 14) (size 15 to 20)
#    0.000    2.200    0.000    7.800    0.000    2.400 
#    0.000    0.000    0.000    0.000    0.000   56.000 
#    0.000   38.400    0.000    0.000    0.000    0.000 
#
# Total GULP energy -223354.078286 kJ/mol
# GULP energy per Si atom -5583.851957 kJ/mol
# Density = 2.391942 g / cm^3
# Si number density = 23.973990 Si / 1000 Ang^3
#
#
#
# Elastic Constant Matrix: (Units=GPa)
#
#
# Indices 1 2 3 4 5 6 
#
# 1 87.5988 15.6804 -0.6614 0.0000 0.0000 0.0000
# 2 15.6804 271.1121 83.6026 0.0000 0.0000 0.0000
# 3 -0.6614 83.6026 217.1460 0.0000 0.0000 0.0000
# 4 0.0000 0.0000 0.0000 69.2016 0.0000 0.0000
# 5 0.0000 0.0000 0.0000 0.0000 96.3199 0.0000
# 6 0.0000 0.0000 0.0000 0.0000 0.0000 -13.8568
#
#
#
# Elastic Compliance Matrix: (Units=1/GPa)
#
#
# Indices 1 2 3 4 5 6 
#
# 1 0.011556 -0.000771 0.000332 0.000000 0.000000 0.000000
# 2 -0.000771 0.004237 -0.001634 0.000000 0.000000 0.000000
# 3 0.000332 -0.001634 0.005235 0.000000 0.000000 0.000000
# 4 0.000000 0.000000 0.000000 0.014451 0.000000 0.000000
# 5 0.000000 0.000000 0.000000 0.000000 0.010382 0.000000
# 6 0.000000 0.000000 0.000000 0.000000 0.000000 -0.072167
#
#
# Mechanical properties :
#
#
# Convention : Reuss Voigt Hill
#
# Bulk Modulus (GPa) = 59.22972 85.90001 72.56487
# Shear Modulus (GPa) = -302.41606 62.14863 -120.13372
#
# Velocity S-wave (km/s) = -11.24354 5.09702 -7.08652
# Velocity P-wave (km/s) = 11.99153 8.39927 6.05182
#
# Compressibility (1/GPa) = 0.01688342
#
# Stress axis : x y z
#
# Youngs Moduli (GPa) = 86.53397 236.02575 191.01697
#
# Poissons Ratio (x) = 0.18191 -0.06341
# Poissons Ratio (y) = 0.06670 0.31204
# Poissons Ratio (z) = -0.02872 0.38556
#
# Static dielectric constant tensor:
#      x y z
#    x 1.976260 0.000000 0.000000 
#    y 0.000000 1.385320 0.000000 
#    z 0.000000 0.000000 2.060970 
# 
# From -- ./inp_files/29597.got.cif
#   From: 2010.05.17/outbox.cif.g08.bks.cpg/sg50_15_cif.got.tgz:29597.got - 2010.06.03 11:33:33.
