data_PCOD9395028
_publ_section_title
;
Structure prediction by ZEFSAII (Michael W. Deem and Ramdas Pophale) SiO2 
 PCOD9395028
Probable space group: P C C M
;
_chemical_formula_sum "Si O2"
_cell_formula_units_Z 30
_cell_length_a 11.128167
_cell_length_b 8.422864
_cell_length_c 16.857245
_cell_angle_alpha 90.000000
_cell_angle_beta 90.000000
_cell_angle_gamma 90.000000
_cell_volume 1580.047058
_symmetry_space_group_name_H-M "P C C M"
_symmetry_group_IT_number 49
_symmetry_cell_setting 'orthorhombic'
loop_
_space_group_symop_operation_xyz
x,y,z
-x,-y,z
x,-y,1/2-z
-x,y,1/2-z
-x,-y,-z
x,y,-z
-x,y,1/2+z
x,-y,1/2+z
loop_
_atom_site_type_symbol
_atom_site_label
_atom_site_fract_x
_atom_site_fract_y
_atom_site_fract_z
Si Si1 0.544901 0.318059 0.333364
Si Si2 0.952622 0.822778 0.000000
Si Si3 0.000000 0.500000 0.750000
Si Si4 0.550533 0.179244 0.000000
Si Si5 0.202366 0.366440 0.500000
Si Si6 0.814610 0.358244 0.629903
O O1 0.500000 0.500000 0.333616
O O2 0.500000 0.244852 0.250000
O O3 0.500186 0.249056 0.417184
O O4 0.688394 0.312134 0.333111
O O5 0.870034 0.777245 0.925604
O O6 0.070346 0.710559 0.000000
O O7 0.000000 0.000000 0.000000
O O8 0.913354 0.398002 0.694843
O O9 0.691620 0.234616 0.000000
O O10 0.500000 0.000000 0.000000
O O11 0.209283 0.485284 0.575364
#
# Coordination Sequence:
#
# PCOD9395028 Si02
#       6
#     8   4   2   4   4   8
#     4  11  23  42  67  99 125 166 222 278 327 391
#     4  11  24  41  63  95 127 173 215 263 333 390
#     4  12  20  38  64 100 116 162 218 254 328 366
#     4  12  26  41  66  95 134 176 212 268 341 395
#     4  11  21  43  64  92 125 168 221 262 317 398
#     4  11  22  40  69  91 127 165 215 278 315 389
#
# _framework density 18.986775000000002
#
# number of rings (size 3 to 8) (size 9 to 14) (size 15 to 20)
#    0.000    0.800    5.333    4.400    3.733    0.533 
#    0.000    0.667    5.867    0.000    0.000    0.000 
#    0.000    0.000    0.000    0.000    0.000    0.000 
#
# Total GULP energy -167503.869517 kJ/mol
# GULP energy per Si atom -5583.462317 kJ/mol
# Density = 1.894356 g / cm^3
# Si number density = 18.986775 Si / 1000 Ang^3
#
#
#
# Elastic Constant Matrix: (Units=GPa)
#
#
# Indices 1 2 3 4 5 6 
#
# 1 184.2834 31.6786 73.1459 0.0000 0.0000 0.0000
# 2 31.6786 86.9019 41.0970 0.0000 0.0000 0.0000
# 3 73.1459 41.0970 169.7971 0.0000 0.0000 0.0000
# 4 0.0000 0.0000 0.0000 -9.0589 0.0000 0.0000
# 5 0.0000 0.0000 0.0000 0.0000 33.5057 0.0000
# 6 0.0000 0.0000 0.0000 0.0000 0.0000 28.0224
#
#
#
# Elastic Compliance Matrix: (Units=1/GPa)
#
#
# Indices 1 2 3 4 5 6 
#
# 1 0.006656 -0.001209 -0.002575 0.000000 0.000000 0.000000
# 2 -0.001209 0.013214 -0.002678 0.000000 0.000000 0.000000
# 3 -0.002575 -0.002678 0.007647 0.000000 0.000000 0.000000
# 4 0.000000 0.000000 0.000000 -0.110388 0.000000 0.000000
# 5 0.000000 0.000000 0.000000 0.000000 0.029846 0.000000
# 6 0.000000 0.000000 0.000000 0.000000 0.000000 0.035686
#
#
# Mechanical properties :
#
#
# Convention : Reuss Voigt Hill
#
# Bulk Modulus (GPa) = 68.51817 81.42505 74.97161
# Shear Modulus (GPa) = 11178.50133 30.16456 5604.33294
#
# Velocity S-wave (km/s) = 76.81342 3.99019 54.38852
# Velocity P-wave (km/s) = 88.90013 8.01293 63.11672
#
# Compressibility (1/GPa) = 0.01459467
#
# Stress axis : x y z
#
# Youngs Moduli (GPa) = 150.23552 75.67664 130.77614
#
# Poissons Ratio (x) = 0.09147 0.33673
# Poissons Ratio (y) = 0.18160 0.35016
# Poissons Ratio (z) = 0.38683 0.20263
#
# Static dielectric constant tensor:
#      x y z
#    x 1.643930 0.000000 0.000000 
#    y 0.000000 1.649200 0.000000 
#    z 0.000000 0.000000 1.691530 
# 
# From -- ./inp_files/11254.got.cif
#   From: 2010.05.17/outbox.cif.g08.bks.cpg/sg49_6_cif.got.tgz:11254.got - 2010.06.03 21:02:19.
