data_PCOD9395655
_publ_section_title
;
Structure prediction by ZEFSAII (Michael W. Deem and Ramdas Pophale) SiO2 
 PCOD9395655
Probable space group: P B A N
;
_chemical_formula_sum "Si O2"
_cell_formula_units_Z 38
_cell_length_a 11.602447
_cell_length_b 23.500371
_cell_length_c 5.445826
_cell_angle_alpha 90.000000
_cell_angle_beta 90.000000
_cell_angle_gamma 90.000000
_cell_volume 1484.868769
_symmetry_space_group_name_H-M "P B A N"
_symmetry_group_IT_number 50
_space_group.IT_coordinate_system_code '2'
_symmetry_cell_setting 'orthorhombic'
loop_
_space_group_symop_operation_xyz
x,y,z
1/2-x,1/2-y,z
x,1/2-y,-z
1/2-x,y,-z
-x,-y,-z
1/2+x,1/2+y,-z
-x,1/2+y,z
1/2+x,-y,z
loop_
_atom_site_type_symbol
_atom_site_label
_atom_site_fract_x
_atom_site_fract_y
_atom_site_fract_z
Si Si1 0.950896 0.583294 0.232273
Si Si2 0.750000 0.750000 0.000000
Si Si3 0.750000 0.645130 0.500000
Si Si4 0.369401 0.856563 0.603709
Si Si5 0.680712 0.479886 0.754733
Si Si6 0.429791 0.324074 0.876545
O O1 0.830699 0.603347 0.347379
O O2 0.938552 0.515661 0.245367
O O3 0.051255 0.615130 0.386143
O O4 0.944289 0.611098 0.963967
O O5 0.644039 0.792887 0.089481
O O6 0.662787 0.681634 0.338253
O O7 0.250000 0.832822 0.500000
O O8 0.336421 0.912008 0.763144
O O9 0.445966 0.812099 0.760902
O O10 0.750000 0.488419 0.500000
O O11 0.750000 0.497070 0.000000
#
# Coordination Sequence:
#
# PCOD9395655 Si02
#       6
#     8   2   4   8   8   8
#     4  11  21  40  66 100 143 189 232 295 344 420
#     4  12  24  46  72 118 122 176 228 324 392 418
#     4  10  18  39  60 104 132 174 216 292 361 408
#     4  10  26  44  64 100 141 201 232 283 349 438
#     4  11  24  40  68 103 149 196 250 293 349 426
#     4  11  24  41  72  99 142 170 232 301 370 433
#
# _framework density 25.591488999999999
#
# number of rings (size 3 to 8) (size 9 to 14) (size 15 to 20)
#    0.000    1.263    3.158    1.895    8.842    1.263 
#    0.000    0.000    0.000    3.789    0.000    0.000 
#    0.000    0.000    0.000    0.000    0.000    0.000 
#
# Total GULP energy -211687.060643 kJ/mol
# GULP energy per Si atom -5570.712122 kJ/mol
# Density = 2.553324 g / cm^3
# Si number density = 25.591489 Si / 1000 Ang^3
#
#
#
# Elastic Constant Matrix: (Units=GPa)
#
#
# Indices 1 2 3 4 5 6 
#
# 1 193.3040 25.2535 53.6038 0.0000 0.0000 0.0000
# 2 25.2535 45.0525 8.8251 0.0000 0.0000 0.0000
# 3 53.6038 8.8251 113.3713 0.0000 0.0000 0.0000
# 4 0.0000 0.0000 0.0000 19.0500 0.0000 0.0000
# 5 0.0000 0.0000 0.0000 0.0000 58.5457 0.0000
# 6 0.0000 0.0000 0.0000 0.0000 0.0000 19.9625
#
#
#
# Elastic Compliance Matrix: (Units=1/GPa)
#
#
# Indices 1 2 3 4 5 6 
#
# 1 0.006331 -0.003008 -0.002759 0.000000 0.000000 0.000000
# 2 -0.003008 0.023970 -0.000443 0.000000 0.000000 0.000000
# 3 -0.002759 -0.000443 0.010160 0.000000 0.000000 0.000000
# 4 0.000000 0.000000 0.000000 0.052493 0.000000 0.000000
# 5 0.000000 0.000000 0.000000 0.000000 0.017081 0.000000
# 6 0.000000 0.000000 0.000000 0.000000 0.000000 0.050094
#
#
# Mechanical properties :
#
#
# Convention : Reuss Voigt Hill
#
# Bulk Modulus (GPa) = 35.66562 58.56582 47.11572
# Shear Modulus (GPa) = 27.48804 37.11468 32.30136
#
# Velocity S-wave (km/s) = 3.28092 3.81238 3.55659
# Velocity P-wave (km/s) = 5.32159 6.50489 5.94276
#
# Compressibility (1/GPa) = 0.02803820
#
# Stress axis : x y z
#
# Youngs Moduli (GPa) = 157.94247 41.71965 98.42725
#
# Poissons Ratio (x) = 0.12551 0.27160
# Poissons Ratio (y) = 0.47516 0.04364
# Poissons Ratio (z) = 0.43583 0.01850
#
# Static dielectric constant tensor:
#      x y z
#    x 2.049320 0.000000 0.000000 
#    y 0.000000 2.349240 0.000000 
#    z 0.000000 0.000000 5.124350 
# 
# From -- ./inp_files/2432.got.cif
#   From: 2010.05.17/outbox.cif.g08.bks.cpg/sg50_2_cif.got.tgz:2432.got - 2010.06.03 11:33:33.
