data_PCOD9395218
_publ_section_title
;
Structure prediction by ZEFSAII (Michael W. Deem and Ramdas Pophale) SiO2 
 PCOD9395218
Probable space group: P C C M
;
_chemical_formula_sum "Si O2"
_cell_formula_units_Z 48
_cell_length_a 15.000000
_cell_length_b 9.000000
_cell_length_c 18.000000
_cell_angle_alpha 90.000000
_cell_angle_beta 90.000000
_cell_angle_gamma 90.000000
_cell_volume 2430.000000
_symmetry_space_group_name_H-M "P C C M"
_symmetry_group_IT_number 49
_symmetry_cell_setting 'orthorhombic'
loop_
_space_group_symop_operation_xyz
x,y,z
-x,-y,z
x,-y,1/2-z
-x,y,1/2-z
-x,-y,-z
x,y,-z
-x,y,1/2+z
x,-y,1/2+z
loop_
_atom_site_type_symbol
_atom_site_label
_atom_site_fract_x
_atom_site_fract_y
_atom_site_fract_z
Si Si1 0.797866 0.618368 0.088588
Si Si2 0.979739 0.322092 0.334904
Si Si3 0.368214 0.343321 0.795513
Si Si4 0.153181 0.268836 0.416570
Si Si5 0.417599 0.886365 0.411637
Si Si6 0.290746 0.099441 0.684736
O O1 0.716022 0.633083 0.147477
O O2 0.822297 0.443769 0.085006
O O3 0.881818 0.696967 0.129630
O O4 0.784645 0.662871 0.000000
O O5 0.052541 0.252107 0.389102
O O6 0.000000 0.500000 0.334713
O O7 0.000000 0.273149 0.250000
O O8 0.387401 0.500000 0.750000
O O9 0.432259 0.256563 0.856153
O O10 0.349541 0.221420 0.730476
O O11 0.165173 0.213908 0.500000
O O12 0.218388 0.187323 0.361053
O O13 0.400877 0.849217 0.500000
O O14 0.500000 0.000000 0.411070
O O15 0.341457 0.986247 0.371134
O O16 0.249661 0.000000 0.750000
#
# Coordination Sequence:
#
# PCOD9395218 Si02
#       6
#     8   8   8   8   8   8
#     4  10  19  31  53  86 125 161 205 262 320 367
#     4   9  17  27  47  78 118 163 205 255 309 366
#     4  11  21  37  64  95 125 156 206 263 317 365
#     4  10  18  31  52  81 119 160 208 257 308 364
#     4  10  23  45  68  91 125 168 209 247 309 391
#     4  10  21  36  60  88 120 169 208 253 309 384
#
# _framework density 19.753086
#
# number of rings (size 3 to 8) (size 9 to 14) (size 15 to 20)
#    0.000    2.000    1.667    2.500    2.333    5.000 
#    0.000    1.667    0.000   13.500    0.000   16.333 
#    0.000    0.000    0.000    0.000    0.000    0.000 
#
# Total GULP energy -267403.866997 kJ/mol
# GULP energy per Si atom -5570.913896 kJ/mol
# Density = 1.970813 g / cm^3
# Si number density = 19.753086 Si / 1000 Ang^3
#
#
#
# Elastic Constant Matrix: (Units=GPa)
#
#
# Indices 1 2 3 4 5 6 
#
# 1 64.7100 5.4235 40.7058 0.0000 0.0000 0.0000
# 2 5.4235 66.0235 42.3335 0.0000 0.0000 0.0000
# 3 40.7058 42.3335 180.6908 0.0000 0.0000 0.0000
# 4 0.0000 0.0000 0.0000 41.6017 0.0000 0.0000
# 5 0.0000 0.0000 0.0000 0.0000 30.3920 0.0000
# 6 0.0000 0.0000 0.0000 0.0000 0.0000 17.3679
#
#
#
# Elastic Compliance Matrix: (Units=1/GPa)
#
#
# Indices 1 2 3 4 5 6 
#
# 1 0.018103 0.001327 -0.004389 0.000000 0.000000 0.000000
# 2 0.001327 0.017921 -0.004498 0.000000 0.000000 0.000000
# 3 -0.004389 -0.004498 0.007577 0.000000 0.000000 0.000000
# 4 0.000000 0.000000 0.000000 0.024037 0.000000 0.000000
# 5 0.000000 0.000000 0.000000 0.000000 0.032903 0.000000
# 6 0.000000 0.000000 0.000000 0.000000 0.000000 0.057577
#
#
# Mechanical properties :
#
#
# Convention : Reuss Voigt Hill
#
# Bulk Modulus (GPa) = 35.11008 54.26111 44.68560
# Shear Modulus (GPa) = 27.36236 32.73642 30.04939
#
# Velocity S-wave (km/s) = 3.72589 4.07539 3.90455
# Velocity P-wave (km/s) = 6.02684 7.04801 6.55733
#
# Compressibility (1/GPa) = 0.02848185
#
# Stress axis : x y z
#
# Youngs Moduli (GPa) = 55.23827 55.80070 131.98078
#
# Poissons Ratio (x) = -0.07406 0.57930
# Poissons Ratio (y) = -0.07331 0.59360
# Poissons Ratio (z) = 0.24246 0.25097
#
# Static dielectric constant tensor:
#      x y z
#    x 1.739830 0.000000 0.000000 
#    y 0.000000 1.713800 0.000000 
#    z 0.000000 0.000000 1.686860 
# 
# From -- ./inp_files/14046.got.cif
#   From: 2010.05.17/outbox.ucp.g08.bks.cvg/sg49_8_cif.got.tgz:14046.got - 2010.06.11 16:40:14.
