data_PCOD9395268
_publ_section_title
;
Structure prediction by ZEFSAII (Michael W. Deem and Ramdas Pophale) SiO2 
 PCOD9395268
Probable space group: P C C M
;
_chemical_formula_sum "Si O2"
_cell_formula_units_Z 40
_cell_length_a 27.000000
_cell_length_b 9.000000
_cell_length_c 9.000000
_cell_angle_alpha 90.000000
_cell_angle_beta 90.000000
_cell_angle_gamma 90.000000
_cell_volume 2187.000000
_symmetry_space_group_name_H-M "P C C M"
_symmetry_group_IT_number 49
_symmetry_cell_setting 'orthorhombic'
loop_
_space_group_symop_operation_xyz
x,y,z
-x,-y,z
x,-y,1/2-z
-x,y,1/2-z
-x,-y,-z
x,y,-z
-x,y,1/2+z
x,-y,1/2+z
loop_
_atom_site_type_symbol
_atom_site_label
_atom_site_fract_x
_atom_site_fract_y
_atom_site_fract_z
Si Si1 0.648622 0.838881 0.177666
Si Si2 0.450261 0.663364 0.320623
Si Si3 0.849168 0.339674 0.177453
Si Si4 0.758588 0.163817 0.321243
Si Si5 0.950285 0.162303 0.822747
O O1 0.600538 0.745475 0.220357
O O2 0.703248 0.775244 0.214018
O O3 0.645455 0.000000 0.250000
O O4 0.647380 0.855280 0.000000
O O5 0.447324 0.500000 0.250000
O O6 0.500000 0.733762 0.250000
O O7 0.454714 0.656481 0.500000
O O8 0.853188 0.500000 0.250000
O O9 0.802578 0.257587 0.250799
O O10 0.900294 0.252395 0.206156
O O11 0.842285 0.348606 0.000000
O O12 0.763888 0.155481 0.500000
O O13 0.760930 0.000000 0.250000
O O14 0.000000 0.229544 0.750000
O O15 0.944713 0.000000 0.750000
O O16 0.957009 0.149123 0.000000
#
# Coordination Sequence:
#
# PCOD9395268 Si02
#       5
#     8   8   8   8   8
#     4   9  20  36  55  80 108 138 176 220 267 316
#     4  10  20  35  53  76 105 139 178 218 263 317
#     4  11  24  39  56  82 113 147 183 225 274 323
#     4  10  20  37  59  82 109 143 182 224 269 323
#     4  10  21  37  59  84 110 142 182 223 268 319
#
# _framework density 18.289895000000001
#
# number of rings (size 3 to 8) (size 9 to 14) (size 15 to 20)
#    0.000    2.000    0.000    4.200    0.000    8.800 
#    0.000    6.000    0.000    0.000    0.000    0.000 
#    0.000    0.000    0.000    0.000    0.000    0.000 
#
# Total GULP energy -223215.468805 kJ/mol
# GULP energy per Si atom -5580.386720 kJ/mol
# Density = 1.824827 g / cm^3
# Si number density = 18.289895 Si / 1000 Ang^3
#
#
#
# Elastic Constant Matrix: (Units=GPa)
#
#
# Indices 1 2 3 4 5 6 
#
# 1 225.9513 90.1097 93.2922 0.0000 0.0000 0.0000
# 2 90.1097 68.0490 43.6403 0.0000 0.0000 0.0000
# 3 93.2922 43.6403 82.3772 0.0000 0.0000 0.0000
# 4 0.0000 0.0000 0.0000 27.3865 0.0000 0.0000
# 5 0.0000 0.0000 0.0000 0.0000 32.0463 0.0000
# 6 0.0000 0.0000 0.0000 0.0000 0.0000 2.1300
#
#
#
# Elastic Compliance Matrix: (Units=1/GPa)
#
#
# Indices 1 2 3 4 5 6 
#
# 1 0.011983 -0.010851 -0.007822 0.000000 0.000000 0.000000
# 2 -0.010851 0.032083 -0.004707 0.000000 0.000000 0.000000
# 3 -0.007822 -0.004707 0.023492 0.000000 0.000000 0.000000
# 4 0.000000 0.000000 0.000000 0.036514 0.000000 0.000000
# 5 0.000000 0.000000 0.000000 0.000000 0.031205 0.000000
# 6 0.000000 0.000000 0.000000 0.000000 0.000000 0.469473
#
#
# Mechanical properties :
#
#
# Convention : Reuss Voigt Hill
#
# Bulk Modulus (GPa) = 48.08559 92.27355 70.17957
# Shear Modulus (GPa) = 7.59367 22.26826 14.93097
#
# Velocity S-wave (km/s) = 2.03982 3.49308 2.86028
# Velocity P-wave (km/s) = 5.64763 8.17489 7.02583
#
# Compressibility (1/GPa) = 0.02079625
#
# Stress axis : x y z
#
# Youngs Moduli (GPa) = 83.45299 31.16888 42.56858
#
# Poissons Ratio (x) = 0.33822 0.33297
# Poissons Ratio (y) = 0.90557 0.20039
# Poissons Ratio (z) = 0.65277 0.14673
#
# Static dielectric constant tensor:
#      x y z
#    x 1.658970 0.000000 0.000000 
#    y 0.000000 1.991290 0.000000 
#    z 0.000000 0.000000 1.604870 
# 
# From -- ./inp_files/1691.got.cif
#   From: 2010.05.17/outbox.ucp.g08.bks.cvg/sg49_1_cif.got.tgz:1691.got - 2010.06.11 16:40:14.
