data_PCOD9395449
_publ_section_title
;
Structure prediction by ZEFSAII (Michael W. Deem and Ramdas Pophale) SiO2 
 PCOD9395449
Probable space group: P B A N
;
_chemical_formula_sum "Si O2"
_cell_formula_units_Z 64
_cell_length_a 15.819832
_cell_length_b 24.748852
_cell_length_c 7.383986
_cell_angle_alpha 90.000000
_cell_angle_beta 90.000000
_cell_angle_gamma 90.000000
_cell_volume 2890.997994
_symmetry_space_group_name_H-M "P B A N"
_symmetry_group_IT_number 50
_space_group.IT_coordinate_system_code '2'
_symmetry_cell_setting 'orthorhombic'
loop_
_space_group_symop_operation_xyz
x,y,z
1/2-x,1/2-y,z
x,1/2-y,-z
1/2-x,y,-z
-x,-y,-z
1/2+x,1/2+y,-z
-x,1/2+y,z
1/2+x,-y,z
loop_
_atom_site_type_symbol
_atom_site_label
_atom_site_fract_x
_atom_site_fract_y
_atom_site_fract_z
Si Si1 0.007633 0.054594 0.270040
Si Si2 0.843392 0.867392 0.282125
Si Si3 0.114261 0.249670 0.709904
Si Si4 0.351641 0.869182 0.201884
Si Si5 0.663122 0.140977 0.232195
Si Si6 0.416981 0.752455 0.219157
Si Si7 0.842434 0.631063 0.274909
Si Si8 0.504542 0.066163 0.302297
O O1 0.918373 0.083056 0.229421
O O2 0.015864 0.055767 0.487723
O O3 0.083975 0.092389 0.204529
O O4 0.014312 0.992415 0.212290
O O5 0.848936 0.805739 0.214762
O O6 0.751454 0.888725 0.228804
O O7 0.846691 0.866899 0.503619
O O8 0.925586 0.900506 0.223623
O O9 0.140605 0.250000 0.500000
O O10 0.141053 0.307412 0.786794
O O11 0.013058 0.244382 0.719848
O O12 0.257891 0.876657 0.281024
O O13 0.387748 0.812201 0.274615
O O14 0.342246 0.861621 0.986235
O O15 0.641301 0.202888 0.283787
O O16 0.589192 0.101708 0.298367
O O17 0.416352 0.750000 0.000000
#
# Coordination Sequence:
#
# PCOD9395449 Si02
#       8
#     8   8   8   8   8   8   8   8
#     4  10  21  36  55  80 108 140 180 225 268 312
#     4   9  17  30  50  76 104 134 170 213 262 316
#     4  10  17  29  53  78 100 132 175 217 265 322
#     4  10  21  37  57  80 108 144 182 220 268 326
#     4  10  21  37  57  80 108 144 182 220 268 326
#     4  10  19  33  55  80 108 140 175 219 273 324
#     4   9  17  30  50  76 104 134 170 213 262 316
#     4  10  21  36  55  80 108 140 180 225 268 312
#
# _framework density 22.137682000000002
#
# number of rings (size 3 to 8) (size 9 to 14) (size 15 to 20)
#    0.000    2.250    2.500    0.750    0.000    5.000 
#    0.000    2.500    0.000    6.000    0.000    0.000 
#    0.000    0.000    0.000    0.000    0.000    0.000 
#
# Total GULP energy -357582.420654 kJ/mol
# GULP energy per Si atom -5587.225323 kJ/mol
# Density = 2.208730 g / cm^3
# Si number density = 22.137682 Si / 1000 Ang^3
#
#
#
# Elastic Constant Matrix: (Units=GPa)
#
#
# Indices 1 2 3 4 5 6 
#
# 1 138.3344 40.3275 -32.0886 0.0000 0.0000 0.0000
# 2 40.3275 120.3536 -19.6112 0.0000 0.0000 0.0000
# 3 -32.0886 -19.6112 56.5681 0.0000 0.0000 0.0000
# 4 0.0000 0.0000 0.0000 -5.1039 0.0000 0.0000
# 5 0.0000 0.0000 0.0000 0.0000 27.7749 0.0000
# 6 0.0000 0.0000 0.0000 0.0000 0.0000 1.1001
#
#
#
# Elastic Compliance Matrix: (Units=1/GPa)
#
#
# Indices 1 2 3 4 5 6 
#
# 1 0.008879 -0.002283 0.004245 0.000000 0.000000 0.000000
# 2 -0.002283 0.009394 0.001961 0.000000 0.000000 0.000000
# 3 0.004245 0.001961 0.020766 0.000000 0.000000 0.000000
# 4 0.000000 0.000000 0.000000 -0.195927 0.000000 0.000000
# 5 0.000000 0.000000 0.000000 0.000000 0.036004 0.000000
# 6 0.000000 0.000000 0.000000 0.000000 0.000000 0.909008
#
#
# Mechanical properties :
#
#
# Convention : Reuss Voigt Hill
#
# Bulk Modulus (GPa) = 21.32894 32.50126 26.91510
# Shear Modulus (GPa) = 6.28215 26.52943 16.40579
#
# Velocity S-wave (km/s) = 1.68639 3.46552 2.72523
# Velocity P-wave (km/s) = 3.66708 5.54314 4.69968
#
# Compressibility (1/GPa) = 0.04688466
#
# Stress axis : x y z
#
# Youngs Moduli (GPa) = 112.62180 106.45576 48.15595
#
# Poissons Ratio (x) = 0.24309 -0.20443
# Poissons Ratio (y) = 0.25717 -0.09445
# Poissons Ratio (z) = -0.47810 -0.20879
#
# Static dielectric constant tensor:
#      x y z
#    x 1.781860 0.000000 0.000000 
#    y 0.000000 1.786710 0.000000 
#    z 0.000000 0.000000 1.880690 
# 
# From -- ./inp_files/13459.got.cif
#   From: 2010.05.17/outbox.cif.g08.bks.cpg/sg50_7_cif.got.tgz:13459.got - 2010.06.03 11:33:33.
