data_PCOD9395538
_publ_section_title
;
Structure prediction by ZEFSAII (Michael W. Deem and Ramdas Pophale) SiO2 
 PCOD9395538
Probable space group: P B A N
;
_chemical_formula_sum "Si O2"
_cell_formula_units_Z 56
_cell_length_a 19.049279
_cell_length_b 19.928444
_cell_length_c 5.624262
_cell_angle_alpha 90.000000
_cell_angle_beta 90.000000
_cell_angle_gamma 90.000000
_cell_volume 2135.096344
_symmetry_space_group_name_H-M "P B A N"
_symmetry_group_IT_number 50
_space_group.IT_coordinate_system_code '2'
_symmetry_cell_setting 'orthorhombic'
loop_
_space_group_symop_operation_xyz
x,y,z
1/2-x,1/2-y,z
x,1/2-y,-z
1/2-x,y,-z
-x,-y,-z
1/2+x,1/2+y,-z
-x,1/2+y,z
1/2+x,-y,z
loop_
_atom_site_type_symbol
_atom_site_label
_atom_site_fract_x
_atom_site_fract_y
_atom_site_fract_z
Si Si1 0.038497 0.071027 0.750000
Si Si2 0.214355 0.346461 0.750000
Si Si3 0.900945 0.160457 0.750000
Si Si4 0.075033 0.037508 0.250000
Si Si5 0.903804 0.323673 0.750000
Si Si6 0.216544 0.509703 0.750000
Si Si7 0.057353 0.289938 0.750000
O O1 0.081864 0.073081 0.506679
O O2 0.977957 0.126620 0.750000
O O3 0.081864 0.073081 0.993321
O O4 0.000766 0.998268 0.750000
O O5 0.250000 0.325658 0.500000
O O6 0.218214 0.427845 0.750000
O O7 0.135625 0.318639 0.750000
O O8 0.250000 0.325658 0.000000
O O9 0.903989 0.242520 0.750000
O O10 0.870172 0.148254 0.489184
O O11 0.870172 0.148254 0.010816
O O12 0.132959 0.978688 0.250000
O O13 0.988011 0.337909 0.750000
O O14 0.250000 0.531526 0.500000
O O15 0.250000 0.531526 0.000000
O O16 0.051153 0.250000 0.500000
O O17 0.051153 0.250000 0.000000
#
# Coordination Sequence:
#
# PCOD9395538 Si02
#       7
#     8   8   8   8   8   8   8
#     4  10  21  33  54  77 103 133 155 209 260 295
#     4  10  23  36  44  62  82 113 161 203 248 283
#     4  10  18  31  47  66  96 122 157 193 235 290
#     4  10  21  36  51  79 102 125 171 200 254 318
#     4  10  19  31  43  71  89 118 162 190 227 295
#     4  10  21  37  53  70  93 128 164 208 248 287
#     4  12  21  32  46  59  82 113 157 197 246 282
#
# _framework density 26.228324000000001
#
# number of rings (size 3 to 8) (size 9 to 14) (size 15 to 20)
#    0.000    1.714    2.857    2.571    4.000    1.714 
#    0.000    0.000    0.000    0.000    0.000    0.000 
#    0.000    0.000    0.000   15.429    0.000    0.000 
#
# Total GULP energy -312993.474141 kJ/mol
# GULP energy per Si atom -5589.169181 kJ/mol
# Density = 2.616863 g / cm^3
# Si number density = 26.228324 Si / 1000 Ang^3
#
#
#
# Elastic Constant Matrix: (Units=GPa)
#
#
# Indices 1 2 3 4 5 6 
#
# 1 54.9510 7.8805 32.5398 0.0000 0.0000 0.0000
# 2 7.8805 87.7399 43.1074 0.0000 0.0000 0.0000
# 3 32.5398 43.1074 333.9925 0.0000 0.0000 0.0000
# 4 0.0000 0.0000 0.0000 20.7569 0.0000 0.0000
# 5 0.0000 0.0000 0.0000 0.0000 22.5395 0.0000
# 6 0.0000 0.0000 0.0000 0.0000 0.0000 31.2496
#
#
#
# Elastic Compliance Matrix: (Units=1/GPa)
#
#
# Indices 1 2 3 4 5 6 
#
# 1 0.019374 -0.000868 -0.001776 0.000000 0.000000 0.000000
# 2 -0.000868 0.012208 -0.001491 0.000000 0.000000 0.000000
# 3 -0.001776 -0.001491 0.003360 0.000000 0.000000 0.000000
# 4 0.000000 0.000000 0.000000 0.048177 0.000000 0.000000
# 5 0.000000 0.000000 0.000000 0.000000 0.044366 0.000000
# 6 0.000000 0.000000 0.000000 0.000000 0.000000 0.032000
#
#
# Mechanical properties :
#
#
# Convention : Reuss Voigt Hill
#
# Bulk Modulus (GPa) = 37.49184 71.52654 54.50919
# Shear Modulus (GPa) = 28.30544 41.11958 34.71251
#
# Velocity S-wave (km/s) = 3.28867 3.96378 3.64191
# Velocity P-wave (km/s) = 5.36152 6.94829 6.20583
#
# Compressibility (1/GPa) = 0.02667247
#
# Stress axis : x y z
#
# Youngs Moduli (GPa) = 51.61584 81.91452 297.66212
#
# Poissons Ratio (x) = 0.07108 0.52851
# Poissons Ratio (y) = 0.04479 0.44384
# Poissons Ratio (z) = 0.09165 0.12214
#
# Static dielectric constant tensor:
#      x y z
#    x 2.023790 0.000000 0.000000 
#    y 0.000000 2.214540 0.000000 
#    z 0.000000 0.000000 2.169800 
# 
# From -- ./inp_files/5526.got.cif
#   From: 2010.05.17/outbox.cif.g08.bks.cpg/sg50_3_cif.got.tgz:5526.got - 2010.06.03 11:33:33.
