data_PCOD9395634
_publ_section_title
;
Structure prediction by ZEFSAII (Michael W. Deem and Ramdas Pophale) SiO2 
 PCOD9395634
Probable space group: P B A N
;
_chemical_formula_sum "Si O2"
_cell_formula_units_Z 48
_cell_length_a 17.792687
_cell_length_b 14.334185
_cell_length_c 9.529936
_cell_angle_alpha 90.000000
_cell_angle_beta 90.000000
_cell_angle_gamma 90.000000
_cell_volume 2430.549825
_symmetry_space_group_name_H-M "P B A N"
_symmetry_group_IT_number 50
_space_group.IT_coordinate_system_code '2'
_symmetry_cell_setting 'orthorhombic'
loop_
_space_group_symop_operation_xyz
x,y,z
1/2-x,1/2-y,z
x,1/2-y,-z
1/2-x,y,-z
-x,-y,-z
1/2+x,1/2+y,-z
-x,1/2+y,z
1/2+x,-y,z
loop_
_atom_site_type_symbol
_atom_site_label
_atom_site_fract_x
_atom_site_fract_y
_atom_site_fract_z
Si Si1 0.503060 0.406528 0.188441
Si Si2 0.710761 0.555673 0.137698
Si Si3 0.419141 0.236980 0.656310
Si Si4 0.250000 0.750000 0.500000
Si Si5 0.174402 0.633630 0.253121
Si Si6 0.037792 0.389279 0.122568
Si Si7 0.250000 0.250000 0.262957
Si Si8 0.250000 0.750000 0.000000
O O1 0.438838 0.364174 0.285210
O O2 0.584627 0.378310 0.246004
O O3 0.497276 0.518004 0.177895
O O4 0.494425 0.367564 0.030206
O O5 0.708531 0.471516 0.248519
O O6 0.624816 0.581410 0.103013
O O7 0.750596 0.652727 0.178061
O O8 0.750000 0.517551 0.000000
O O9 0.447586 0.250000 0.500000
O O10 0.459439 0.307537 0.764305
O O11 0.329737 0.254674 0.659104
O O12 0.201008 0.687552 0.392071
O O13 0.201378 0.687590 0.110693
#
# Coordination Sequence:
#
# PCOD9395634 Si02
#       8
#     8   8   8   2   8   8   4   2
#     4  10  21  39  62  89 118 162 206 259 311 365
#     4  10  18  36  63  94 121 163 208 259 314 371
#     4  11  23  39  61  91 126 168 205 250 314 375
#     4  10  24  46  56  88 128 164 208 262 316 376
#     4  10  22  39  63  89 123 160 210 257 317 367
#     4   9  21  39  59  90 126 153 207 264 305 366
#     4  10  22  40  60  92 133 167 204 258 311 379
#     4  10  20  38  60  92 112 156 208 266 296 364
#
# _framework density 19.748619000000001
#
# number of rings (size 3 to 8) (size 9 to 14) (size 15 to 20)
#    0.000    2.000    0.833    2.000    3.500    3.333 
#    9.000    0.000    0.000    0.000    0.000    0.000 
#    0.000    0.000    0.000    0.000    0.000    0.000 
#
# Total GULP energy -267772.606375 kJ/mol
# GULP energy per Si atom -5578.595966 kJ/mol
# Density = 1.970367 g / cm^3
# Si number density = 19.748619 Si / 1000 Ang^3
#
#
#
# Elastic Constant Matrix: (Units=GPa)
#
#
# Indices 1 2 3 4 5 6 
#
# 1 17.8464 22.1109 30.5393 0.0000 0.0000 0.0000
# 2 22.1109 96.0659 50.8868 0.0000 0.0000 0.0000
# 3 30.5393 50.8868 121.3868 0.0000 0.0000 0.0000
# 4 0.0000 0.0000 0.0000 -42.7553 0.0000 0.0000
# 5 0.0000 0.0000 0.0000 0.0000 15.2721 0.0000
# 6 0.0000 0.0000 0.0000 0.0000 0.0000 30.3934
#
#
#
# Elastic Compliance Matrix: (Units=1/GPa)
#
#
# Indices 1 2 3 4 5 6 
#
# 1 0.111066 -0.013834 -0.022143 0.000000 0.000000 0.000000
# 2 -0.013834 0.015104 -0.002851 0.000000 0.000000 0.000000
# 3 -0.022143 -0.002851 0.015004 0.000000 0.000000 0.000000
# 4 0.000000 0.000000 0.000000 -0.023389 0.000000 0.000000
# 5 0.000000 0.000000 0.000000 0.000000 0.065479 0.000000
# 6 0.000000 0.000000 0.000000 0.000000 0.000000 0.032902
#
#
# Mechanical properties :
#
#
# Convention : Reuss Voigt Hill
#
# Bulk Modulus (GPa) = 15.74380 49.15257 32.44819
# Shear Modulus (GPa) = 15.87325 9.36618 12.61972
#
# Velocity S-wave (km/s) = 2.83815 2.18014 2.53062
# Velocity P-wave (km/s) = 4.32776 5.59290 5.00050
#
# Compressibility (1/GPa) = 0.06351706
#
# Stress axis : x y z
#
# Youngs Moduli (GPa) = 9.00367 66.20786 66.64698
#
# Poissons Ratio (x) = 0.91591 1.47579
# Poissons Ratio (y) = 0.12456 0.19003
# Poissons Ratio (z) = 0.19937 0.18878
#
# Static dielectric constant tensor:
#      x y z
#    x 1.684400 0.000000 0.000000 
#    y 0.000000 1.759610 0.000000 
#    z 0.000000 0.000000 1.674600 
# 
# From -- ./inp_files/14282.got.cif
#   From: 2010.05.17/outbox.cif.g08.bks.cpg/sg50_8_cif.got.tgz:14282.got - 2010.06.03 11:33:33.
