data_PCOD9395963
_publ_section_title
;
Structure prediction by ZEFSAII (Michael W. Deem and Ramdas Pophale) SiO2 
 PCOD9395963
Probable space group: P B A N
;
_chemical_formula_sum "Si O2"
_cell_formula_units_Z 52
_cell_length_a 14.142537
_cell_length_b 21.600156
_cell_length_c 8.120929
_cell_angle_alpha 90.000000
_cell_angle_beta 90.000000
_cell_angle_gamma 90.000000
_cell_volume 2480.789556
_symmetry_space_group_name_H-M "P B A N"
_symmetry_group_IT_number 50
_space_group.IT_coordinate_system_code '2'
_symmetry_cell_setting 'orthorhombic'
loop_
_space_group_symop_operation_xyz
x,y,z
1/2-x,1/2-y,z
x,1/2-y,-z
1/2-x,y,-z
-x,-y,-z
1/2+x,1/2+y,-z
-x,1/2+y,z
1/2+x,-y,z
loop_
_atom_site_type_symbol
_atom_site_label
_atom_site_fract_x
_atom_site_fract_y
_atom_site_fract_z
Si Si1 0.743653 0.912546 0.175166
Si Si2 0.086674 0.372029 0.628187
Si Si3 0.590912 0.021878 0.112240
Si Si4 0.641087 0.233614 0.810295
Si Si5 0.091978 0.903843 0.809718
Si Si6 0.513651 0.250000 0.500000
Si Si7 0.926138 0.966115 0.338361
O O1 0.692943 0.870087 0.308115
O O2 0.847564 0.932358 0.227711
O O3 0.674399 0.973121 0.149008
O O4 0.750000 0.880505 0.000000
O O5 0.080346 0.431898 0.510956
O O6 0.019010 0.386295 0.785559
O O7 0.048275 0.310864 0.540606
O O8 0.533096 0.042012 0.272668
O O9 0.625181 0.075565 0.990860
O O10 0.500000 0.000000 0.000000
O O11 0.750000 0.250000 0.797487
O O12 0.639910 0.160375 0.772476
O O13 0.576852 0.262090 0.664206
O O14 0.609759 0.250000 0.000000
O O15 0.103504 0.961896 0.685756
#
# Coordination Sequence:
#
# PCOD9395963 Si02
#       7
#     8   8   8   8   8   4   8
#     4  12  21  38  63  94 132 168 212 274 338 401
#     4  11  23  42  64  93 129 171 225 272 347 402
#     4  10  19  36  61  92 133 165 206 263 331 396
#     4  10  23  42  68 101 138 184 235 272 336 417
#     4  10  20  39  63  95 134 172 211 269 332 402
#     4  10  25  48  67  90 136 184 230 292 338 410
#     4  11  22  38  62  98 129 167 212 279 333 402
#
# _framework density 20.961068000000001
#
# number of rings (size 3 to 8) (size 9 to 14) (size 15 to 20)
#    0.000    1.385    6.154    1.154    2.154    2.462 
#    0.000    3.077    0.000    0.923    0.000    0.000 
#    0.000    0.000    0.000    0.000    0.000    0.000 
#
# Total GULP energy -289749.512441 kJ/mol
# GULP energy per Si atom -5572.106008 kJ/mol
# Density = 2.091336 g / cm^3
# Si number density = 20.961068 Si / 1000 Ang^3
#
#
#
# Elastic Constant Matrix: (Units=GPa)
#
#
# Indices 1 2 3 4 5 6 
#
# 1 61.8591 22.1076 34.6954 0.0000 0.0000 0.0000
# 2 22.1076 91.5106 37.8495 0.0000 0.0000 0.0000
# 3 34.6954 37.8495 120.9694 0.0000 0.0000 0.0000
# 4 0.0000 0.0000 0.0000 26.8661 0.0000 0.0000
# 5 0.0000 0.0000 0.0000 0.0000 33.7941 0.0000
# 6 0.0000 0.0000 0.0000 0.0000 0.0000 23.3009
#
#
#
# Elastic Compliance Matrix: (Units=1/GPa)
#
#
# Indices 1 2 3 4 5 6 
#
# 1 0.019873 -0.002807 -0.004822 0.000000 0.000000 0.000000
# 2 -0.002807 0.012948 -0.003246 0.000000 0.000000 0.000000
# 3 -0.004822 -0.003246 0.010665 0.000000 0.000000 0.000000
# 4 0.000000 0.000000 0.000000 0.037222 0.000000 0.000000
# 5 0.000000 0.000000 0.000000 0.000000 0.029591 0.000000
# 6 0.000000 0.000000 0.000000 0.000000 0.000000 0.042917
#
#
# Mechanical properties :
#
#
# Convention : Reuss Voigt Hill
#
# Bulk Modulus (GPa) = 46.00395 51.51604 48.75999
# Shear Modulus (GPa) = 27.44060 28.77133 28.10597
#
# Velocity S-wave (km/s) = 3.62210 3.70889 3.66576
# Velocity P-wave (km/s) = 6.28393 6.55527 6.42103
#
# Compressibility (1/GPa) = 0.02173726
#
# Stress axis : x y z
#
# Youngs Moduli (GPa) = 50.31890 77.22904 93.76281
#
# Poissons Ratio (x) = 0.21677 0.45209
# Poissons Ratio (y) = 0.14124 0.30439
# Poissons Ratio (z) = 0.24262 0.25071
#
# Static dielectric constant tensor:
#      x y z
#    x 1.813970 0.000000 0.000000 
#    y 0.000000 1.778470 0.000000 
#    z 0.000000 0.000000 1.907000 
# 
# From -- ./inp_files/13218.got.cif
#   From: 2010.05.17/outbox.cif.g08.bks.cpg/sg50_7_cif.got.tgz:13218.got - 2010.06.03 11:33:33.
