data_PCOD9395884
_publ_section_title
;
Structure prediction by ZEFSAII (Michael W. Deem and Ramdas Pophale) SiO2 
 PCOD9395884
Probable space group: P B A N
;
_chemical_formula_sum "Si O2"
_cell_formula_units_Z 64
_cell_length_a 8.300288
_cell_length_b 23.818590
_cell_length_c 14.591223
_cell_angle_alpha 90.000000
_cell_angle_beta 90.000000
_cell_angle_gamma 90.000000
_cell_volume 2884.701666
_symmetry_space_group_name_H-M "P B A N"
_symmetry_group_IT_number 50
_space_group.IT_coordinate_system_code '2'
_symmetry_cell_setting 'orthorhombic'
loop_
_space_group_symop_operation_xyz
x,y,z
1/2-x,1/2-y,z
x,1/2-y,-z
1/2-x,y,-z
-x,-y,-z
1/2+x,1/2+y,-z
-x,1/2+y,z
1/2+x,-y,z
loop_
_atom_site_type_symbol
_atom_site_label
_atom_site_fract_x
_atom_site_fract_y
_atom_site_fract_z
Si Si1 0.912276 0.414819 0.898057
Si Si2 0.409425 0.135092 0.054582
Si Si3 0.520932 0.975827 0.400297
Si Si4 0.494001 0.168808 0.256756
Si Si5 0.236464 0.477827 0.877018
Si Si6 0.558593 0.236189 0.603758
Si Si7 0.352886 0.876247 0.304335
Si Si8 0.828611 0.562016 0.683466
O O1 0.763411 0.457493 0.901906
O O2 0.921059 0.386355 0.798178
O O3 0.058812 0.458953 0.901597
O O4 0.948850 0.372133 0.980008
O O5 0.465838 0.167847 0.146288
O O6 0.352848 0.072007 0.085392
O O7 0.250000 0.157582 0.000000
O O8 0.386304 0.932115 0.363793
O O9 0.692417 0.946582 0.391494
O O10 0.500000 0.000000 0.500000
O O11 0.494087 0.031031 0.339091
O O12 0.483818 0.225707 0.315343
O O13 0.669498 0.143061 0.283744
O O14 0.360943 0.125844 0.293743
O O15 0.258332 0.470717 0.769820
O O16 0.750000 0.250000 0.601073
O O17 0.498175 0.250000 0.500000
O O18 0.556354 0.172283 0.638419
#
# Coordination Sequence:
#
# PCOD9395884 Si02
#       8
#     8   8   8   8   8   8   8   8
#     4  11  21  36  59  91 133 176 221 268 336 404
#     4   9  21  38  62  96 134 175 224 276 343 413
#     4  12  25  40  60  96 139 176 225 273 344 418
#     4  10  23  42  71  98 135 176 233 290 345 401
#     4  10  19  35  55  85 129 174 212 262 318 402
#     4   9  21  45  72  99 127 176 234 292 341 404
#     4  11  23  41  67  97 135 176 235 288 351 409
#     4  11  21  39  60  90 134 180 215 273 338 408
#
# _framework density 22.186002999999999
#
# number of rings (size 3 to 8) (size 9 to 14) (size 15 to 20)
#    0.000    1.625    2.500    1.500    5.250    0.500 
#    2.250    1.250    0.000    5.250    0.000    0.000 
#    0.000    0.000    0.000    0.000    0.000    0.000 
#
# Total GULP energy -357202.570141 kJ/mol
# GULP energy per Si atom -5581.290158 kJ/mol
# Density = 2.213551 g / cm^3
# Si number density = 22.186003 Si / 1000 Ang^3
#
#
#
# Elastic Constant Matrix: (Units=GPa)
#
#
# Indices 1 2 3 4 5 6 
#
# 1 67.0709 6.9860 30.4058 0.0000 0.0000 0.0000
# 2 6.9860 73.7618 56.8440 0.0000 0.0000 0.0000
# 3 30.4058 56.8440 178.4684 0.0000 0.0000 0.0000
# 4 0.0000 0.0000 0.0000 5.2736 0.0000 0.0000
# 5 0.0000 0.0000 0.0000 0.0000 31.3946 0.0000
# 6 0.0000 0.0000 0.0000 0.0000 0.0000 -6.7973
#
#
#
# Elastic Compliance Matrix: (Units=1/GPa)
#
#
# Indices 1 2 3 4 5 6 
#
# 1 0.016192 0.000785 -0.003009 0.000000 0.000000 0.000000
# 2 0.000785 0.018005 -0.005869 0.000000 0.000000 0.000000
# 3 -0.003009 -0.005869 0.007985 0.000000 0.000000 0.000000
# 4 0.000000 0.000000 0.000000 0.189625 0.000000 0.000000
# 5 0.000000 0.000000 0.000000 0.000000 0.031853 0.000000
# 6 0.000000 0.000000 0.000000 0.000000 0.000000 -0.147117
#
#
# Mechanical properties :
#
#
# Convention : Reuss Voigt Hill
#
# Bulk Modulus (GPa) = 38.46491 56.41920 47.44205
# Shear Modulus (GPa) = 35.36251 20.97852 28.17052
#
# Velocity S-wave (km/s) = 3.99671 3.07836 3.56721
# Velocity P-wave (km/s) = 6.21879 6.17417 6.19652
#
# Compressibility (1/GPa) = 0.02599772
#
# Stress axis : x y z
#
# Youngs Moduli (GPa) = 61.75986 55.53877 125.23402
#
# Poissons Ratio (x) = -0.04360 0.37679
# Poissons Ratio (y) = -0.04849 0.73496
# Poissons Ratio (z) = 0.18581 0.32594
#
# Static dielectric constant tensor:
#      x y z
#    x 1.923440 0.000000 0.000000 
#    y 0.000000 1.790330 0.000000 
#    z 0.000000 0.000000 1.884030 
# 
# From -- ./inp_files/25419.got.cif
#   From: 2010.05.17/outbox.cif.g08.bks.cpg/sg50_13_cif.got.tgz:25419.got - 2010.06.03 11:33:33.
