data_PCOD9395818
_publ_section_title
;
Structure prediction by ZEFSAII (Michael W. Deem and Ramdas Pophale) SiO2 
 PCOD9395818
Probable space group: P B A N
;
_chemical_formula_sum "Si O2"
_cell_formula_units_Z 48
_cell_length_a 14.980185
_cell_length_b 20.846783
_cell_length_c 8.822607
_cell_angle_alpha 90.000000
_cell_angle_beta 90.000000
_cell_angle_gamma 90.000000
_cell_volume 2755.200171
_symmetry_space_group_name_H-M "P B A N"
_symmetry_group_IT_number 50
_space_group.IT_coordinate_system_code '2'
_symmetry_cell_setting 'orthorhombic'
loop_
_space_group_symop_operation_xyz
x,y,z
1/2-x,1/2-y,z
x,1/2-y,-z
1/2-x,y,-z
-x,-y,-z
1/2+x,1/2+y,-z
-x,1/2+y,z
1/2+x,-y,z
loop_
_atom_site_type_symbol
_atom_site_label
_atom_site_fract_x
_atom_site_fract_y
_atom_site_fract_z
Si Si1 0.837346 0.172223 0.395263
Si Si2 0.637665 0.427022 0.856418
Si Si3 0.469708 0.453178 0.636626
Si Si4 0.335559 0.544115 0.798268
Si Si5 0.892279 0.279683 0.165972
Si Si6 0.481267 0.310332 0.586014
O O1 0.750000 0.172675 0.500000
O O2 0.847829 0.105809 0.307866
O O3 0.842507 0.228846 0.272711
O O4 0.923700 0.179961 0.501090
O O5 0.554396 0.444909 0.750411
O O6 0.728609 0.462866 0.809989
O O7 0.652069 0.350074 0.840580
O O8 0.625859 0.441572 0.034224
O O9 0.500000 0.500000 0.500000
O O10 0.388595 0.486080 0.724612
O O11 0.441555 0.381515 0.584691
O O12 0.989116 0.290390 0.244456
O O13 0.897839 0.250000 0.000000
O O14 0.436805 0.250000 0.500000
#
# Coordination Sequence:
#
# PCOD9395818 Si02
#       6
#     8   8   8   8   8   8
#     4  11  20  33  48  75 113 151 182 221 269 337
#     4  10  23  38  52  83 114 151 193 230 273 341
#     4  11  21  37  58  81 112 148 186 232 287 337
#     4  11  22  36  55  75 114 151 191 229 274 335
#     4  10  19  34  51  75 112 154 183 216 271 337
#     4   9  20  34  50  77 109 138 185 230 278 335
#
# _framework density 17.421600000000002
#
# number of rings (size 3 to 8) (size 9 to 14) (size 15 to 20)
#    0.000    1.667    3.333    2.500    0.000    7.667 
#    0.000    0.000    0.000    0.000    0.000    2.333 
#    0.000    2.667    0.000    0.000    0.000    0.000 
#
# Total GULP energy -267926.801494 kJ/mol
# GULP energy per Si atom -5581.808364 kJ/mol
# Density = 1.738195 g / cm^3
# Si number density = 17.421600 Si / 1000 Ang^3
#
#
#
# Elastic Constant Matrix: (Units=GPa)
#
#
# Indices 1 2 3 4 5 6 
#
# 1 42.0612 48.9428 31.8336 0.0000 0.0000 0.0000
# 2 48.9428 161.2037 65.1591 0.0000 0.0000 0.0000
# 3 31.8336 65.1591 114.6972 0.0000 0.0000 0.0000
# 4 0.0000 0.0000 0.0000 40.1185 0.0000 0.0000
# 5 0.0000 0.0000 0.0000 0.0000 15.9591 0.0000
# 6 0.0000 0.0000 0.0000 0.0000 0.0000 24.9467
#
#
#
# Elastic Compliance Matrix: (Units=1/GPa)
#
#
# Indices 1 2 3 4 5 6 
#
# 1 0.039126 -0.009722 -0.005336 0.000000 0.000000 0.000000
# 2 -0.009722 0.010468 -0.003249 0.000000 0.000000 0.000000
# 3 -0.005336 -0.003249 0.012045 0.000000 0.000000 0.000000
# 4 0.000000 0.000000 0.000000 0.024926 0.000000 0.000000
# 5 0.000000 0.000000 0.000000 0.000000 0.062660 0.000000
# 6 0.000000 0.000000 0.000000 0.000000 0.000000 0.040085
#
#
# Mechanical properties :
#
#
# Convention : Reuss Voigt Hill
#
# Bulk Modulus (GPa) = 39.95885 67.75923 53.85904
# Shear Modulus (GPa) = 21.34318 27.67332 24.50825
#
# Velocity S-wave (km/s) = 3.50394 3.98986 3.75477
# Velocity P-wave (km/s) = 6.27346 7.75909 7.05549
#
# Compressibility (1/GPa) = 0.02502575
#
# Stress axis : x y z
#
# Youngs Moduli (GPa) = 25.55828 95.52781 83.02108
#
# Poissons Ratio (x) = 0.92874 0.44301
# Poissons Ratio (y) = 0.24848 0.26970
# Poissons Ratio (z) = 0.13638 0.31033
#
# Static dielectric constant tensor:
#      x y z
#    x 1.575090 0.000000 0.000000 
#    y 0.000000 1.621890 0.000000 
#    z 0.000000 0.000000 1.631650 
# 
# From -- ./inp_files/13141.got.cif
#   From: 2010.05.17/outbox.cif.g08.bks.cpg/sg50_7_cif.got.tgz:13141.got - 2010.06.03 11:33:33.
