data_PCOD9395874
_publ_section_title
;
Structure prediction by ZEFSAII (Michael W. Deem and Ramdas Pophale) SiO2 
 PCOD9395874
Probable space group: P B A N
;
_chemical_formula_sum "Si O2"
_cell_formula_units_Z 48
_cell_length_a 12.987097
_cell_length_b 19.289489
_cell_length_c 8.277668
_cell_angle_alpha 90.000000
_cell_angle_beta 90.000000
_cell_angle_gamma 90.000000
_cell_volume 2073.675568
_symmetry_space_group_name_H-M "P B A N"
_symmetry_group_IT_number 50
_space_group.IT_coordinate_system_code '2'
_symmetry_cell_setting 'orthorhombic'
loop_
_space_group_symop_operation_xyz
x,y,z
1/2-x,1/2-y,z
x,1/2-y,-z
1/2-x,y,-z
-x,-y,-z
1/2+x,1/2+y,-z
-x,1/2+y,z
1/2+x,-y,z
loop_
_atom_site_type_symbol
_atom_site_label
_atom_site_fract_x
_atom_site_fract_y
_atom_site_fract_z
Si Si1 0.825735 0.433272 0.322778
Si Si2 0.537313 0.875309 0.807198
Si Si3 0.514536 0.885288 0.170074
Si Si4 0.631530 0.763197 0.309668
Si Si5 0.628735 0.498620 0.329974
Si Si6 0.294055 0.826289 0.167726
O O1 0.742092 0.487203 0.251408
O O2 0.863234 0.468236 0.488698
O O3 0.748262 0.367542 0.321202
O O4 0.922019 0.401506 0.229835
O O5 0.561253 0.794794 0.779196
O O6 0.604065 0.921044 0.683883
O O7 0.558398 0.896272 0.991623
O O8 0.595818 0.841354 0.272021
O O9 0.462294 0.954476 0.243396
O O10 0.415582 0.834083 0.157595
O O11 0.750000 0.750000 0.261683
O O12 0.621136 0.750000 0.500000
O O13 0.250000 0.750000 0.176278
O O14 0.250000 0.857354 0.000000
#
# Coordination Sequence:
#
# PCOD9395874 Si02
#       6
#     8   8   8   8   8   8
#     4  10  21  40  62  92 133 175 226 280 335 410
#     4  12  23  41  68  94 131 180 222 280 339 402
#     4  11  23  41  65 100 133 169 225 279 341 407
#     4  11  27  47  69  96 134 178 226 281 342 410
#     4  10  24  40  63  98 134 178 226 277 343 408
#     4  10  19  34  62  97 129 172 219 277 346 402
#
# _framework density 23.147304999999999
#
# number of rings (size 3 to 8) (size 9 to 14) (size 15 to 20)
#    0.000    1.333    1.667    3.500    2.333    5.333 
#    0.000    7.500    0.000    0.000    0.000    0.000 
#    0.000    0.000    0.000    0.000    0.000    0.000 
#
# Total GULP energy -267952.005763 kJ/mol
# GULP energy per Si atom -5582.333453 kJ/mol
# Density = 2.309462 g / cm^3
# Si number density = 23.147305 Si / 1000 Ang^3
#
#
#
# Elastic Constant Matrix: (Units=GPa)
#
#
# Indices 1 2 3 4 5 6 
#
# 1 83.1169 6.2392 7.1571 0.0000 0.0000 0.0000
# 2 6.2392 75.4274 18.7779 0.0000 0.0000 0.0000
# 3 7.1571 18.7779 96.5876 0.0000 0.0000 0.0000
# 4 0.0000 0.0000 0.0000 -27.7412 0.0000 0.0000
# 5 0.0000 0.0000 0.0000 0.0000 8.4324 0.0000
# 6 0.0000 0.0000 0.0000 0.0000 0.0000 5.2373
#
#
#
# Elastic Compliance Matrix: (Units=1/GPa)
#
#
# Indices 1 2 3 4 5 6 
#
# 1 0.012157 -0.000821 -0.000741 0.000000 0.000000 0.000000
# 2 -0.000821 0.013988 -0.002659 0.000000 0.000000 0.000000
# 3 -0.000741 -0.002659 0.010925 0.000000 0.000000 0.000000
# 4 0.000000 0.000000 0.000000 -0.036047 0.000000 0.000000
# 5 0.000000 0.000000 0.000000 0.000000 0.118590 0.000000
# 6 0.000000 0.000000 0.000000 0.000000 0.000000 0.190936
#
#
# Mechanical properties :
#
#
# Convention : Reuss Voigt Hill
#
# Bulk Modulus (GPa) = 34.93111 35.49783 35.21447
# Shear Modulus (GPa) = 15.21922 12.04956 13.63439
#
# Velocity S-wave (km/s) = 2.56695 2.28405 2.42962
# Velocity P-wave (km/s) = 4.88970 4.72491 4.80801
#
# Compressibility (1/GPa) = 0.02862778
#
# Stress axis : x y z
#
# Youngs Moduli (GPa) = 82.25915 71.49216 91.53257
#
# Poissons Ratio (x) = 0.05870 0.06784
# Poissons Ratio (y) = 0.06754 0.24334
# Poissons Ratio (z) = 0.06097 0.19006
#
# Static dielectric constant tensor:
#      x y z
#    x 1.944490 0.000000 0.000000 
#    y 0.000000 1.893220 0.000000 
#    z 0.000000 0.000000 1.942930 
# 
# From -- ./inp_files/12981.got.cif
#   From: 2010.05.17/outbox.cif.g08.bks.cpg/sg50_7_cif.got.tgz:12981.got - 2010.06.03 11:33:33.
