data_PCOD9395587
_publ_section_title
;
Structure prediction by ZEFSAII (Michael W. Deem and Ramdas Pophale) SiO2 
 PCOD9395587
Probable space group: P B A N
;
_chemical_formula_sum "Si O2"
_cell_formula_units_Z 48
_cell_length_a 20.031350
_cell_length_b 11.092172
_cell_length_c 10.543428
_cell_angle_alpha 90.000000
_cell_angle_beta 90.000000
_cell_angle_gamma 90.000000
_cell_volume 2342.656704
_symmetry_space_group_name_H-M "P B A N"
_symmetry_group_IT_number 50
_space_group.IT_coordinate_system_code '2'
_symmetry_cell_setting 'orthorhombic'
loop_
_space_group_symop_operation_xyz
x,y,z
1/2-x,1/2-y,z
x,1/2-y,-z
1/2-x,y,-z
-x,-y,-z
1/2+x,1/2+y,-z
-x,1/2+y,z
1/2+x,-y,z
loop_
_atom_site_type_symbol
_atom_site_label
_atom_site_fract_x
_atom_site_fract_y
_atom_site_fract_z
Si Si1 0.224240 0.127307 0.143322
Si Si2 0.609280 0.369243 0.352858
Si Si3 0.405433 0.593203 0.377121
Si Si4 0.427884 0.430535 0.142958
Si Si5 0.068577 0.632147 0.072835
Si Si6 0.753939 0.118068 0.717742
O O1 0.250000 0.250000 0.207652
O O2 0.144063 0.130265 0.149171
O O3 0.250976 0.002302 0.199764
O O4 0.250000 0.128142 0.000000
O O5 0.582071 0.438646 0.475862
O O6 0.578056 0.234594 0.358074
O O7 0.600756 0.405188 0.206594
O O8 0.689561 0.370521 0.372019
O O9 0.437859 0.505480 0.273665
O O10 0.326011 0.597985 0.345856
O O11 0.491046 0.348214 0.111253
O O12 0.424955 0.526366 0.028639
O O13 0.095350 0.750000 0.000000
O O14 0.750000 0.250000 0.785957
#
# Coordination Sequence:
#
# PCOD9395587 Si02
#       6
#     8   8   8   8   8   8
#     4  10  21  36  56  84 118 159 193 243 303 362
#     4  10  18  33  57  86 113 144 193 242 298 358
#     4   9  18  34  57  83 114 146 187 247 301 348
#     4  10  22  39  56  82 115 156 200 244 301 365
#     4  11  22  36  58  83 115 158 198 253 299 353
#     4   9  18  33  56  87 113 148 191 245 297 353
#
# _framework density 20.489557999999999
#
# number of rings (size 3 to 8) (size 9 to 14) (size 15 to 20)
#    0.000    2.167    1.667    1.500    2.333    3.000 
#    0.000    0.000    0.000    8.000    0.000    0.000 
#    0.000    0.000    0.000    0.000    0.000    0.000 
#
# Total GULP energy -267323.497557 kJ/mol
# GULP energy per Si atom -5569.239532 kJ/mol
# Density = 2.044292 g / cm^3
# Si number density = 20.489558 Si / 1000 Ang^3
#
#
#
# Elastic Constant Matrix: (Units=GPa)
#
#
# Indices 1 2 3 4 5 6 
#
# 1 60.0370 10.4887 0.7306 0.0000 0.0000 0.0000
# 2 10.4887 83.1588 34.1907 0.0000 0.0000 0.0000
# 3 0.7306 34.1907 143.5176 0.0000 0.0000 0.0000
# 4 0.0000 0.0000 0.0000 15.1191 0.0000 0.0000
# 5 0.0000 0.0000 0.0000 0.0000 58.5396 0.0000
# 6 0.0000 0.0000 0.0000 0.0000 0.0000 11.8303
#
#
#
# Elastic Compliance Matrix: (Units=1/GPa)
#
#
# Indices 1 2 3 4 5 6 
#
# 1 0.017060 -0.002346 0.000472 0.000000 0.000000 0.000000
# 2 -0.002346 0.013654 -0.003241 0.000000 0.000000 0.000000
# 3 0.000472 -0.003241 0.007737 0.000000 0.000000 0.000000
# 4 0.000000 0.000000 0.000000 0.066141 0.000000 0.000000
# 5 0.000000 0.000000 0.000000 0.000000 0.017082 0.000000
# 6 0.000000 0.000000 0.000000 0.000000 0.000000 0.084529
#
#
# Mechanical properties :
#
#
# Convention : Reuss Voigt Hill
#
# Bulk Modulus (GPa) = 35.43318 41.94818 38.69068
# Shear Modulus (GPa) = 22.13949 33.18468 27.66209
#
# Velocity S-wave (km/s) = 3.29070 4.02878 3.67830
# Velocity P-wave (km/s) = 5.63641 6.49298 6.07980
#
# Compressibility (1/GPa) = 0.02822214
#
# Stress axis : x y z
#
# Youngs Moduli (GPa) = 58.61498 73.24120 129.24158
#
# Poissons Ratio (x) = 0.17182 -0.06100
# Poissons Ratio (y) = 0.13750 0.41884
# Poissons Ratio (z) = -0.02767 0.23736
#
# Static dielectric constant tensor:
#      x y z
#    x 1.775410 0.000000 0.000000 
#    y 0.000000 1.777530 0.000000 
#    z 0.000000 0.000000 1.768330 
# 
# From -- ./inp_files/22352.got.cif
#   From: 2010.05.17/outbox.cif.g08.bks.cpg/sg50_12_cif.got.tgz:22352.got - 2010.06.03 11:33:33.
