data_PCOD9395082
_publ_section_title
;
Structure prediction by ZEFSAII (Michael W. Deem and Ramdas Pophale) SiO2 
 PCOD9395082
Probable space group: P C C M
;
_chemical_formula_sum "Si O2"
_cell_formula_units_Z 24
_cell_length_a 8.937452
_cell_length_b 7.430073
_cell_length_c 16.543202
_cell_angle_alpha 90.000000
_cell_angle_beta 90.000000
_cell_angle_gamma 90.000000
_cell_volume 1098.566562
_symmetry_space_group_name_H-M "P C C M"
_symmetry_group_IT_number 49
_symmetry_cell_setting 'orthorhombic'
loop_
_space_group_symop_operation_xyz
x,y,z
-x,-y,z
x,-y,1/2-z
-x,y,1/2-z
-x,-y,-z
x,y,-z
-x,y,1/2+z
x,-y,1/2+z
loop_
_atom_site_type_symbol
_atom_site_label
_atom_site_fract_x
_atom_site_fract_y
_atom_site_fract_z
Si Si1 0.836144 0.544613 0.845482
Si Si2 0.398148 0.256569 0.591303
Si Si3 0.692404 0.091422 0.338114
O O1 0.831635 0.500000 0.750000
O O2 0.703479 0.425094 0.884018
O O3 0.813955 0.757241 0.852271
O O4 0.000000 0.500000 0.878280
O O5 0.453324 0.278346 0.500000
O O6 0.537838 0.204317 0.648780
O O7 0.302861 0.073230 0.599734
O O8 0.701238 0.000000 0.250000
#
# Coordination Sequence:
#
# PCOD9395082 Si02
#       3
#     8   8   8
#     4  11  25  43  64  94 132 177 219 260 317 388
#     4  11  24  42  68 101 131 165 214 273 325 376
#     4  11  22  41  69  97 128 169 220 268 317 379
#
# _framework density 21.846651999999999
#
# number of rings (size 3 to 8) (size 9 to 14) (size 15 to 20)
#    0.000    1.000    3.333    5.000    0.000    7.333 
#    0.000    1.667    0.000    0.000    0.000    0.000 
#    0.000    0.000    0.000    0.000    0.000    0.000 
#
# Total GULP energy -134092.796350 kJ/mol
# GULP energy per Si atom -5587.199848 kJ/mol
# Density = 2.179693 g / cm^3
# Si number density = 21.846652 Si / 1000 Ang^3
#
#
#
# Elastic Constant Matrix: (Units=GPa)
#
#
# Indices 1 2 3 4 5 6 
#
# 1 61.6132 55.3440 24.8409 0.0000 0.0000 0.0000
# 2 55.3440 160.0472 22.0245 0.0000 0.0000 0.0000
# 3 24.8409 22.0245 65.7845 0.0000 0.0000 0.0000
# 4 0.0000 0.0000 0.0000 16.2934 0.0000 0.0000
# 5 0.0000 0.0000 0.0000 0.0000 74.1727 0.0000
# 6 0.0000 0.0000 0.0000 0.0000 0.0000 21.9112
#
#
#
# Elastic Compliance Matrix: (Units=1/GPa)
#
#
# Indices 1 2 3 4 5 6 
#
# 1 0.026492 -0.008160 -0.007272 0.000000 0.000000 0.000000
# 2 -0.008160 0.009063 0.000047 0.000000 0.000000 0.000000
# 3 -0.007272 0.000047 0.017931 0.000000 0.000000 0.000000
# 4 0.000000 0.000000 0.000000 0.061374 0.000000 0.000000
# 5 0.000000 0.000000 0.000000 0.000000 0.013482 0.000000
# 6 0.000000 0.000000 0.000000 0.000000 0.000000 0.045639
#
#
# Mechanical properties :
#
#
# Convention : Reuss Voigt Hill
#
# Bulk Modulus (GPa) = 44.02001 54.65152 49.33576
# Shear Modulus (GPa) = 23.54894 34.82451 29.18672
#
# Velocity S-wave (km/s) = 3.28673 3.99688 3.65907
# Velocity P-wave (km/s) = 5.88190 6.80958 6.36267
#
# Compressibility (1/GPa) = 0.02271694
#
# Stress axis : x y z
#
# Youngs Moduli (GPa) = 37.74744 110.33293 55.76860
#
# Poissons Ratio (x) = 0.90034 0.40553
# Poissons Ratio (y) = 0.30803 -0.00262
# Poissons Ratio (z) = 0.27448 -0.00518
#
# Static dielectric constant tensor:
#      x y z
#    x 1.852430 0.000000 0.000000 
#    y 0.000000 1.817770 0.000000 
#    z 0.000000 0.000000 1.784980 
# 
# From -- ./inp_files/10984.got.cif
#   From: 2010.05.17/outbox.cif.g08.bks.cpg/sg49_6_cif.got.tgz:10984.got - 2010.06.03 21:02:19.
