data_PCOD9395556
_publ_section_title
;
Structure prediction by ZEFSAII (Michael W. Deem and Ramdas Pophale) SiO2 
 PCOD9395556
Probable space group: P B A N
;
_chemical_formula_sum "Si O2"
_cell_formula_units_Z 56
_cell_length_a 10.468248
_cell_length_b 20.673547
_cell_length_c 12.877046
_cell_angle_alpha 90.000000
_cell_angle_beta 90.000000
_cell_angle_gamma 90.000000
_cell_volume 2786.796431
_symmetry_space_group_name_H-M "P B A N"
_symmetry_group_IT_number 50
_space_group.IT_coordinate_system_code '2'
_symmetry_cell_setting 'orthorhombic'
loop_
_space_group_symop_operation_xyz
x,y,z
1/2-x,1/2-y,z
x,1/2-y,-z
1/2-x,y,-z
-x,-y,-z
1/2+x,1/2+y,-z
-x,1/2+y,z
1/2+x,-y,z
loop_
_atom_site_type_symbol
_atom_site_label
_atom_site_fract_x
_atom_site_fract_y
_atom_site_fract_z
Si Si1 0.416965 0.814970 0.170445
Si Si2 0.118039 0.669668 0.843326
Si Si3 0.512686 0.507092 0.712333
Si Si4 0.358611 0.085297 0.873165
Si Si5 0.401456 0.865950 0.389662
Si Si6 0.416965 0.431569 0.905458
Si Si7 0.596493 0.125977 0.383262
O O1 0.271564 0.840345 0.150104
O O2 0.415691 0.742707 0.126175
O O3 0.532557 0.859874 0.132529
O O4 0.431587 0.816903 0.296221
O O5 0.071906 0.663560 0.723395
O O6 0.039979 0.614548 0.901865
O O7 0.630614 0.540711 0.771736
O O8 0.448512 0.563695 0.647110
O O9 0.430834 0.482408 0.811750
O O10 0.550400 0.446630 0.641988
O O11 0.213246 0.108612 0.882103
O O12 0.391676 0.044825 0.977427
O O13 0.452956 0.850736 0.504727
O O14 0.249005 0.870843 0.392899
#
# Coordination Sequence:
#
# PCOD9395556 Si02
#       7
#     8   8   8   8   8   8   8
#     4   9  19  35  53  74 101 133 169 209 252 297
#     4   9  19  35  53  74 101 133 169 209 252 297
#     4  10  18  32  50  72 102 134 164 202 246 300
#     4  10  21  35  52  75 102 134 170 208 252 299
#     4   9  17  29  48  74 100 128 164 204 245 292
#     4  10  21  35  52  75 102 134 170 208 252 299
#     4   9  17  29  48  74 100 128 164 204 245 292
#
# _framework density 20.094759
#
# number of rings (size 3 to 8) (size 9 to 14) (size 15 to 20)
#    0.000    2.571    0.000    1.714    0.000    3.429 
#    0.000    5.714    0.000    7.714    0.000    8.000 
#    0.000    0.000    0.000    0.000    0.000    0.000 
#
# Total GULP energy -311921.173455 kJ/mol
# GULP energy per Si atom -5570.020955 kJ/mol
# Density = 2.004902 g / cm^3
# Si number density = 20.094759 Si / 1000 Ang^3
#
#
#
# Elastic Constant Matrix: (Units=GPa)
#
#
# Indices 1 2 3 4 5 6 
#
# 1 41.1702 0.8921 -17.0451 0.0000 0.0000 0.0000
# 2 0.8921 34.9693 -21.7177 0.0000 0.0000 0.0000
# 3 -17.0451 -21.7177 75.9057 0.0000 0.0000 0.0000
# 4 0.0000 0.0000 0.0000 -1.4938 0.0000 0.0000
# 5 0.0000 0.0000 0.0000 0.0000 19.3295 0.0000
# 6 0.0000 0.0000 0.0000 0.0000 0.0000 18.7303
#
#
#
# Elastic Compliance Matrix: (Units=1/GPa)
#
#
# Indices 1 2 3 4 5 6 
#
# 1 0.027181 0.003767 0.007181 0.000000 0.000000 0.000000
# 2 0.003767 0.035298 0.010945 0.000000 0.000000 0.000000
# 3 0.007181 0.010945 0.017918 0.000000 0.000000 0.000000
# 4 0.000000 0.000000 0.000000 -0.669444 0.000000 0.000000
# 5 0.000000 0.000000 0.000000 0.000000 0.051734 0.000000
# 6 0.000000 0.000000 0.000000 0.000000 0.000000 0.053389
#
#
# Mechanical properties :
#
#
# Convention : Reuss Voigt Hill
#
# Bulk Modulus (GPa) = 8.05263 8.47819 8.26541
# Shear Modulus (GPa) = -10.28142 19.97425 4.84642
#
# Velocity S-wave (km/s) = -2.26441 3.15620 1.55468
# Velocity P-wave (km/s) = 1.67951 4.18454 2.71014
#
# Compressibility (1/GPa) = 0.12418299
#
# Stress axis : x y z
#
# Youngs Moduli (GPa) = 36.79041 28.33034 55.80858
#
# Poissons Ratio (x) = -0.10671 -0.40078
# Poissons Ratio (y) = -0.13857 -0.61083
# Poissons Ratio (z) = -0.26420 -0.31008
#
# Static dielectric constant tensor:
#      x y z
#    x 1.789300 0.000000 0.000000 
#    y 0.000000 1.703670 0.000000 
#    z 0.000000 0.000000 1.798480 
# 
# From -- ./inp_files/20480.got.cif
#   From: 2010.05.17/outbox.cif.g08.bks.cpg/sg50_11_cif.got.tgz:20480.got - 2010.06.03 11:33:33.
