data_PCOD9395287
_publ_section_title
;
Structure prediction by ZEFSAII (Michael W. Deem and Ramdas Pophale) SiO2 
 PCOD9395287
Probable space group: P C C M
;
_chemical_formula_sum "Si O2"
_cell_formula_units_Z 64
_cell_length_a 9.000000
_cell_length_b 18.000000
_cell_length_c 21.000000
_cell_angle_alpha 90.000000
_cell_angle_beta 90.000000
_cell_angle_gamma 90.000000
_cell_volume 3402.000000
_symmetry_space_group_name_H-M "P C C M"
_symmetry_group_IT_number 49
_symmetry_cell_setting 'orthorhombic'
loop_
_space_group_symop_operation_xyz
x,y,z
-x,-y,z
x,-y,1/2-z
-x,y,1/2-z
-x,-y,-z
x,y,-z
-x,y,1/2+z
x,-y,1/2+z
loop_
_atom_site_type_symbol
_atom_site_label
_atom_site_fract_x
_atom_site_fract_y
_atom_site_fract_z
Si Si1 0.558665 0.184081 0.428857
Si Si2 0.991504 0.139228 0.325350
Si Si3 0.425772 0.306607 0.819643
Si Si4 0.202543 0.055415 0.927948
Si Si5 0.914770 0.310795 0.315072
Si Si6 0.566881 0.418362 0.571994
Si Si7 0.769231 0.879871 0.571333
Si Si8 0.926993 0.580427 0.072777
O O1 0.593227 0.217088 0.500000
O O2 0.582590 0.236011 0.367626
O O3 0.658374 0.110446 0.424251
O O4 0.389388 0.158691 0.428338
O O5 0.901217 0.081447 0.369757
O O6 0.924899 0.222306 0.327177
O O7 0.000000 0.118490 0.250000
O O8 0.142986 0.145389 0.365843
O O9 0.500000 0.295627 0.750000
O O10 0.257158 0.329485 0.805305
O O11 0.488965 0.368606 0.868796
O O12 0.243481 0.969182 0.923390
O O13 0.137925 0.065152 0.000000
O O14 0.971876 0.358310 0.375094
O O15 0.000000 0.327159 0.250000
O O16 0.500000 0.500000 0.577680
O O17 0.528429 0.390728 0.500000
O O18 0.746838 0.423237 0.574648
O O19 0.834143 0.863796 0.500000
O O20 0.000000 0.500000 0.086124
O O21 0.968783 0.600954 0.000000
#
# Coordination Sequence:
#
# PCOD9395287 Si02
#       8
#     8   8   8   8   8   8   8   8
#     4  10  21  38  60  85 113 147 190 238 292 343
#     4  11  23  38  56  82 118 154 193 235 283 340
#     4  11  23  38  61  84 116 155 194 235 281 341
#     4  10  20  38  62  84 110 149 192 235 290 348
#     4  10  23  40  57  82 116 157 191 233 280 334
#     4   9  19  38  61  87 118 149 188 234 281 334
#     4  10  22  38  58  86 115 144 188 244 291 340
#     4   9  19  37  61  88 114 146 189 233 279 333
#
# _framework density 18.812463000000001
#
# number of rings (size 3 to 8) (size 9 to 14) (size 15 to 20)
#    0.000    2.000    1.250    1.500    3.500    6.500 
#    0.000    2.500    0.000    2.250    0.000    0.000 
#    0.000    0.000    0.000    0.000    0.000    0.000 
#
# Total GULP energy -356654.185950 kJ/mol
# GULP energy per Si atom -5572.721655 kJ/mol
# Density = 1.876965 g / cm^3
# Si number density = 18.812463 Si / 1000 Ang^3
#
#
#
# Elastic Constant Matrix: (Units=GPa)
#
#
# Indices 1 2 3 4 5 6 
#
# 1 40.2549 -7.7177 32.6676 0.0000 0.0000 0.0000
# 2 -7.7177 44.9646 42.5945 0.0000 0.0000 0.0000
# 3 32.6676 42.5945 182.0589 0.0000 0.0000 0.0000
# 4 0.0000 0.0000 0.0000 -30.6943 0.0000 0.0000
# 5 0.0000 0.0000 0.0000 0.0000 26.6624 0.0000
# 6 0.0000 0.0000 0.0000 0.0000 0.0000 25.8918
#
#
#
# Elastic Compliance Matrix: (Units=1/GPa)
#
#
# Indices 1 2 3 4 5 6 
#
# 1 0.036164 0.015872 -0.010203 0.000000 0.000000 0.000000
# 2 0.015872 0.035538 -0.011162 0.000000 0.000000 0.000000
# 3 -0.010203 -0.011162 0.009935 0.000000 0.000000 0.000000
# 4 0.000000 0.000000 0.000000 -0.032579 0.000000 0.000000
# 5 0.000000 0.000000 0.000000 0.000000 0.037506 0.000000
# 6 0.000000 0.000000 0.000000 0.000000 0.000000 0.038622
#
#
# Mechanical properties :
#
#
# Convention : Reuss Voigt Hill
#
# Bulk Modulus (GPa) = 14.15402 44.70747 29.43074
# Shear Modulus (GPa) = 31.30424 17.68757 24.49591
#
# Velocity S-wave (km/s) = 4.08366 3.06960 3.61239
# Velocity P-wave (km/s) = 5.45666 6.03156 5.75130
#
# Compressibility (1/GPa) = 0.07065130
#
# Stress axis : x y z
#
# Youngs Moduli (GPa) = 27.65162 28.13882 100.65447
#
# Poissons Ratio (x) = -0.44662 1.02693
# Poissons Ratio (y) = -0.43889 1.12355
# Poissons Ratio (z) = 0.28212 0.31410
#
# Static dielectric constant tensor:
#      x y z
#    x 1.681190 0.000000 0.000000 
#    y 0.000000 1.642900 0.000000 
#    z 0.000000 0.000000 1.783030 
# 
# From -- ./inp_files/20018.got.cif
#   From: 2010.05.17/outbox.ucp.g08.bks.cvg/sg49_11_cif.got.tgz:20018.got - 2010.06.11 16:40:14.
