data_PCOD9395950
_publ_section_title
;
Structure prediction by ZEFSAII (Michael W. Deem and Ramdas Pophale) SiO2 
 PCOD9395950
Probable space group: P B A N
;
_chemical_formula_sum "Si O2"
_cell_formula_units_Z 38
_cell_length_a 13.626740
_cell_length_b 12.496621
_cell_length_c 11.282606
_cell_angle_alpha 90.000000
_cell_angle_beta 90.000000
_cell_angle_gamma 90.000000
_cell_volume 1921.294726
_symmetry_space_group_name_H-M "P B A N"
_symmetry_group_IT_number 50
_space_group.IT_coordinate_system_code '2'
_symmetry_cell_setting 'orthorhombic'
loop_
_space_group_symop_operation_xyz
x,y,z
1/2-x,1/2-y,z
x,1/2-y,-z
1/2-x,y,-z
-x,-y,-z
1/2+x,1/2+y,-z
-x,1/2+y,z
1/2+x,-y,z
loop_
_atom_site_type_symbol
_atom_site_label
_atom_site_fract_x
_atom_site_fract_y
_atom_site_fract_z
Si Si1 0.417068 0.634196 0.352714
Si Si2 0.584893 0.750000 0.500000
Si Si3 0.211340 0.126621 0.875788
Si Si4 0.990321 0.769128 0.136445
Si Si5 0.628670 0.898415 0.293851
Si Si6 0.750000 0.250000 0.500000
O O1 0.512047 0.673110 0.426071
O O2 0.426258 0.689857 0.224102
O O3 0.418319 0.507561 0.337515
O O4 0.321435 0.676608 0.420671
O O5 0.642766 0.818345 0.403529
O O6 0.250000 0.250000 0.873771
O O7 0.095500 0.140055 0.866284
O O8 0.268019 0.074089 0.767722
O O9 0.250000 0.080768 0.000000
O O10 0.939953 0.664668 0.198310
O O11 0.017430 0.750000 0.000000
#
# Coordination Sequence:
#
# PCOD9395950 Si02
#       6
#     8   4   8   8   8   2
#     4  10  22  41  62  82 116 166 202 244 305 357
#     4   9  20  39  60  84 122 150 203 263 281 347
#     4   9  15  33  55  83 125 152 172 239 310 340
#     4  10  19  38  62  89 124 152 195 256 296 354
#     4  10  19  36  59  93 115 160 199 235 308 361
#     4  10  24  52  56  74 130 164 194 262 312 336
#
# _framework density 19.778327999999998
#
# number of rings (size 3 to 8) (size 9 to 14) (size 15 to 20)
#    0.000    2.316    4.211    0.632    0.000    0.842 
#   26.526    2.632    0.000    0.000    0.000    0.000 
#    0.000    0.000    0.000    0.000    0.000    0.000 
#
# Total GULP energy -211991.732979 kJ/mol
# GULP energy per Si atom -5578.729815 kJ/mol
# Density = 1.973331 g / cm^3
# Si number density = 19.778328 Si / 1000 Ang^3
#
#
#
# Elastic Constant Matrix: (Units=GPa)
#
#
# Indices 1 2 3 4 5 6 
#
# 1 61.2402 16.1168 44.5598 0.0000 0.0000 0.0000
# 2 16.1168 82.1647 46.2103 0.0000 0.0000 0.0000
# 3 44.5598 46.2103 163.8377 0.0000 0.0000 0.0000
# 4 0.0000 0.0000 0.0000 7.1007 0.0000 0.0000
# 5 0.0000 0.0000 0.0000 0.0000 218.9922 0.0000
# 6 0.0000 0.0000 0.0000 0.0000 0.0000 0.6471
#
#
#
# Elastic Compliance Matrix: (Units=1/GPa)
#
#
# Indices 1 2 3 4 5 6 
#
# 1 0.020434 -0.001049 -0.005262 0.000000 0.000000 0.000000
# 2 -0.001049 0.014519 -0.003810 0.000000 0.000000 0.000000
# 3 -0.005262 -0.003810 0.008609 0.000000 0.000000 0.000000
# 4 0.000000 0.000000 0.000000 0.140831 0.000000 0.000000
# 5 0.000000 0.000000 0.000000 0.000000 0.004566 0.000000
# 6 0.000000 0.000000 0.000000 0.000000 0.000000 1.545442
#
#
# Mechanical properties :
#
#
# Convention : Reuss Voigt Hill
#
# Bulk Modulus (GPa) = 42.87933 57.89069 50.38501
# Shear Modulus (GPa) = 2.83702 58.70504 30.77103
#
# Velocity S-wave (km/s) = 1.19897 5.45398 3.94864
# Velocity P-wave (km/s) = 4.86248 8.30630 6.80582
#
# Compressibility (1/GPa) = 0.02332126
#
# Stress axis : x y z
#
# Youngs Moduli (GPa) = 48.93887 68.87475 116.15510
#
# Poissons Ratio (x) = 0.07225 0.61116
# Poissons Ratio (y) = 0.05133 0.44253
# Poissons Ratio (z) = 0.25750 0.26240
#
# Static dielectric constant tensor:
#      x y z
#    x 1.729030 0.000000 0.000000 
#    y 0.000000 1.683600 0.000000 
#    z 0.000000 0.000000 1.741370 
# 
# From -- ./inp_files/20029.got.cif
#   From: 2010.05.17/outbox.cif.g08.bks.cpg/sg50_11_cif.got.tgz:20029.got - 2010.06.03 11:33:33.
