data_PCOD9395133
_publ_section_title
;
Structure prediction by ZEFSAII (Michael W. Deem and Ramdas Pophale) SiO2 
 PCOD9395133
Probable space group: P C C M
;
_chemical_formula_sum "Si O2"
_cell_formula_units_Z 64
_cell_length_a 23.091464
_cell_length_b 9.992905
_cell_length_c 14.861171
_cell_angle_alpha 90.000000
_cell_angle_beta 90.000000
_cell_angle_gamma 90.000000
_cell_volume 3429.227187
_symmetry_space_group_name_H-M "P C C M"
_symmetry_group_IT_number 49
_symmetry_cell_setting 'orthorhombic'
loop_
_space_group_symop_operation_xyz
x,y,z
-x,-y,z
x,-y,1/2-z
-x,y,1/2-z
-x,-y,-z
x,y,-z
-x,y,1/2+z
x,-y,1/2+z
loop_
_atom_site_type_symbol
_atom_site_label
_atom_site_fract_x
_atom_site_fract_y
_atom_site_fract_z
Si Si1 0.683270 0.847980 0.750000
Si Si2 0.263751 0.651666 0.893675
Si Si3 0.736249 0.348334 0.393675
Si Si4 0.568772 0.279575 0.250000
Si Si5 0.874977 0.651859 0.893614
Si Si6 0.125023 0.348141 0.393614
Si Si7 0.569807 0.500000 0.101598
Si Si8 0.069389 0.155714 0.250000
O O1 0.706472 0.764808 0.664882
O O2 0.706472 0.764808 0.835118
O O3 0.613602 0.840418 0.750000
O O4 0.703638 0.000000 0.750000
O O5 0.282075 0.500000 0.867756
O O6 0.194377 0.659280 0.879619
O O7 0.274426 0.667427 0.000000
O O8 0.725575 0.332573 0.500000
O O9 0.805623 0.340720 0.379619
O O10 0.500000 0.250137 0.250000
O O11 0.582787 0.371020 0.162605
O O12 0.582787 0.371020 0.337395
O O13 0.892917 0.500000 0.868254
O O14 0.906142 0.763692 0.835433
O O15 0.885637 0.668122 0.000000
O O16 0.114363 0.331878 0.500000
O O17 0.093858 0.236308 0.335432
O O18 0.500000 0.500000 0.094639
O O19 0.593598 0.500000 0.000000
O O20 0.000000 0.160449 0.250000
O O21 0.087414 0.000000 0.250000
#
# Coordination Sequence:
#
# PCOD9395133 Si02
#       8
#     8   8   8   8   8   8   8   8
#     4  12  25  36  52  82 117 150 183 223 273 332
#     4   9  20  39  62  85 109 141 183 232 283 332
#     4   9  20  39  62  85 109 141 183 232 283 332
#     4   9  20  36  52  77 109 142 184 224 268 329
#     4   9  19  38  62  85 108 140 186 236 283 329
#     4   9  19  38  62  85 108 140 186 236 283 329
#     4   8  15  31  56  81 101 126 171 229 272 307
#     4  11  24  37  51  80 120 157 190 224 270 329
#
# _framework density 18.663095999999999
#
# number of rings (size 3 to 8) (size 9 to 14) (size 15 to 20)
#    0.000    2.500    0.000    3.750    3.500    7.750 
#    0.000    5.000    0.000    0.000    0.000    5.250 
#    0.000    0.000    0.000    0.000    0.000    0.000 
#
# Total GULP energy -357297.325415 kJ/mol
# GULP energy per Si atom -5582.770710 kJ/mol
# Density = 1.862062 g / cm^3
# Si number density = 18.663096 Si / 1000 Ang^3
#
#
#
# Elastic Constant Matrix: (Units=GPa)
#
#
# Indices 1 2 3 4 5 6 
#
# 1 60.3899 64.7536 42.5579 0.0000 0.0000 0.0000
# 2 64.7536 173.9408 77.4880 0.0000 0.0000 0.0000
# 3 42.5579 77.4880 108.5080 0.0000 0.0000 0.0000
# 4 0.0000 0.0000 0.0000 159.4011 0.0000 0.0000
# 5 0.0000 0.0000 0.0000 0.0000 79.0000 0.0000
# 6 0.0000 0.0000 0.0000 0.0000 0.0000 20.6230
#
#
#
# Elastic Compliance Matrix: (Units=1/GPa)
#
#
# Indices 1 2 3 4 5 6 
#
# 1 0.029636 -0.008586 -0.005492 0.000000 0.000000 0.000000
# 2 -0.008586 0.010919 -0.004430 0.000000 0.000000 0.000000
# 3 -0.005492 -0.004430 0.014533 0.000000 0.000000 0.000000
# 4 0.000000 0.000000 0.000000 0.006273 0.000000 0.000000
# 5 0.000000 0.000000 0.000000 0.000000 0.012658 0.000000
# 6 0.000000 0.000000 0.000000 0.000000 0.000000 0.048490
#
#
# Mechanical properties :
#
#
# Convention : Reuss Voigt Hill
#
# Bulk Modulus (GPa) = 55.33334 79.15976 67.24655
# Shear Modulus (GPa) = 30.20248 62.34078 46.27163
#
# Velocity S-wave (km/s) = 4.02717 5.78582 4.98467
# Velocity P-wave (km/s) = 7.16499 9.33496 8.32102
#
# Compressibility (1/GPa) = 0.01807229
#
# Stress axis : x y z
#
# Youngs Moduli (GPa) = 33.74295 91.58436 68.80697
#
# Poissons Ratio (x) = 0.78635 0.37789
# Poissons Ratio (y) = 0.28972 0.30481
# Poissons Ratio (z) = 0.18532 0.40571
#
# Static dielectric constant tensor:
#      x y z
#    x 1.662890 0.000000 0.000000 
#    y 0.000000 1.606830 0.000000 
#    z 0.000000 0.000000 1.646640 
# 
# From -- ./inp_files/14554.got.cif
#   From: 2010.05.17/outbox.cif.g08.bks.cpg/sg49_8_cif.got.tgz:14554.got - 2010.06.03 21:02:19.
