data_PCOD9395142
_publ_section_title
;
Structure prediction by ZEFSAII (Michael W. Deem and Ramdas Pophale) SiO2 
 PCOD9395142
Probable space group: P C C M
;
_chemical_formula_sum "Si O2"
_cell_formula_units_Z 30
_cell_length_a 9.053849
_cell_length_b 9.721087
_cell_length_c 16.815759
_cell_angle_alpha 90.000000
_cell_angle_beta 90.000000
_cell_angle_gamma 90.000000
_cell_volume 1480.009665
_symmetry_space_group_name_H-M "P C C M"
_symmetry_group_IT_number 49
_symmetry_cell_setting 'orthorhombic'
loop_
_space_group_symop_operation_xyz
x,y,z
-x,-y,z
x,-y,1/2-z
-x,y,1/2-z
-x,-y,-z
x,y,-z
-x,y,1/2+z
x,-y,1/2+z
loop_
_atom_site_type_symbol
_atom_site_label
_atom_site_fract_x
_atom_site_fract_y
_atom_site_fract_z
Si Si1 0.053072 0.341250 0.500000
Si Si2 0.000000 0.500000 0.750000
Si Si3 0.830965 0.695713 0.129364
Si Si4 0.397281 0.629453 0.500000
Si Si5 0.322783 0.985904 0.657845
Si Si6 0.670317 0.171954 0.000000
O O1 0.222890 0.304096 0.500000
O O2 0.000000 0.500000 0.500000
O O3 0.975510 0.276266 0.423464
O O4 0.107500 0.400417 0.800818
O O5 0.710287 0.619380 0.075455
O O6 0.747358 0.837782 0.142327
O O7 0.500000 0.500000 0.500000
O O8 0.501622 0.767676 0.500000
O O9 0.500000 0.000000 0.661861
O O10 0.270843 0.000000 0.750000
O O11 0.293303 0.084648 0.580585
#
# Coordination Sequence:
#
# PCOD9395142 Si02
#       6
#     4   2   8   4   8   4
#     4  11  24  44  70 100 141 187 239 288 365 437
#     4  12  28  46  72 104 160 190 236 312 364 454
#     4  11  25  47  69 100 145 190 235 298 367 437
#     4  11  24  42  77 103 133 194 248 301 367 432
#     4  11  25  45  72 104 140 184 240 301 362 431
#     4  12  23  46  74 103 145 188 238 312 363 424
#
# _framework density 20.270136999999998
#
# number of rings (size 3 to 8) (size 9 to 14) (size 15 to 20)
#    0.000    0.800    4.000    3.600    3.733    2.133 
#    0.000    0.000    0.000    0.000    0.000    0.000 
#    0.000    0.000    0.000    0.000    0.000    0.000 
#
# Total GULP energy -167011.228954 kJ/mol
# GULP energy per Si atom -5567.040965 kJ/mol
# Density = 2.022400 g / cm^3
# Si number density = 20.270137 Si / 1000 Ang^3
#
#
#
# Elastic Constant Matrix: (Units=GPa)
#
#
# Indices 1 2 3 4 5 6 
#
# 1 124.6295 64.5073 57.1738 0.0000 0.0000 0.0000
# 2 64.5073 130.4166 74.7900 0.0000 0.0000 0.0000
# 3 57.1738 74.7900 150.6606 0.0000 0.0000 0.0000
# 4 0.0000 0.0000 0.0000 -3.8869 0.0000 0.0000
# 5 0.0000 0.0000 0.0000 0.0000 -142.9877 0.0000
# 6 0.0000 0.0000 0.0000 0.0000 0.0000 40.1161
#
#
#
# Elastic Compliance Matrix: (Units=1/GPa)
#
#
# Indices 1 2 3 4 5 6 
#
# 1 0.011243 -0.004354 -0.002105 0.000000 0.000000 0.000000
# 2 -0.004354 0.012405 -0.004506 0.000000 0.000000 0.000000
# 3 -0.002105 -0.004506 0.009673 0.000000 0.000000 0.000000
# 4 0.000000 0.000000 0.000000 -0.257274 0.000000 0.000000
# 5 0.000000 0.000000 0.000000 0.000000 -0.006994 0.000000
# 6 0.000000 0.000000 0.000000 0.000000 0.000000 0.024928
#
#
# Mechanical properties :
#
#
# Convention : Reuss Voigt Hill
#
# Bulk Modulus (GPa) = 87.78522 88.73878 88.26200
# Shear Modulus (GPa) = -27.73286 -7.40265 -17.56776
#
# Velocity S-wave (km/s) = -3.70288 -1.91309 -2.94714
# Velocity P-wave (km/s) = 5.01198 6.24446 5.66185
#
# Compressibility (1/GPa) = 0.01139144
#
# Stress axis : x y z
#
# Youngs Moduli (GPa) = 88.94354 80.61120 103.37849
#
# Poissons Ratio (x) = 0.35096 0.21765
# Poissons Ratio (y) = 0.38724 0.46582
# Poissons Ratio (z) = 0.18726 0.36323
#
# Static dielectric constant tensor:
#      x y z
#    x 1.700490 0.000000 0.000000 
#    y 0.000000 1.796720 0.000000 
#    z 0.000000 0.000000 1.803050 
# 
# From -- ./inp_files/11256.got.cif
#   From: 2010.05.17/outbox.cif.g08.bks.cpg/sg49_6_cif.got.tgz:11256.got - 2010.06.03 21:02:19.
