data_PCOD9395170
_publ_section_title
;
Structure prediction by ZEFSAII (Michael W. Deem and Ramdas Pophale) SiO2 
 PCOD9395170
Probable space group: P C C M
;
_chemical_formula_sum "Si O2"
_cell_formula_units_Z 18
_cell_length_a 5.588261
_cell_length_b 5.041604
_cell_length_c 26.311408
_cell_angle_alpha 90.000000
_cell_angle_beta 90.000000
_cell_angle_gamma 90.000000
_cell_volume 741.292321
_symmetry_space_group_name_H-M "P C C M"
_symmetry_group_IT_number 49
_symmetry_cell_setting 'orthorhombic'
loop_
_space_group_symop_operation_xyz
x,y,z
-x,-y,z
x,-y,1/2-z
-x,y,1/2-z
-x,-y,-z
x,y,-z
-x,y,1/2+z
x,-y,1/2+z
loop_
_atom_site_type_symbol
_atom_site_label
_atom_site_fract_x
_atom_site_fract_y
_atom_site_fract_z
Si Si1 0.164706 0.252392 0.832931
Si Si2 0.500000 0.000000 0.250000
Si Si3 0.500000 0.500000 0.083000
Si Si4 0.823856 0.250994 0.000000
O O1 0.320794 0.339036 0.881050
O O2 0.000000 0.500000 0.818999
O O3 0.335610 0.174668 0.786661
O O4 0.000000 0.000000 0.844761
O O5 0.650617 0.296764 0.048173
O O6 0.000000 0.500000 0.000000
O O7 0.000000 0.000000 0.000000
#
# Coordination Sequence:
#
# PCOD9395170 Si02
#       4
#     8   2   4   4
#     4  12  29  50  78 114 155 204 257 315 380 454
#     4  12  30  50  76 114 156 202 258 314 380 454
#     4  11  28  51  80 114 154 201 256 315 384 456
#     4  11  28  51  79 114 153 199 254 317 383 456
#
# _framework density 24.28192
#
# number of rings (size 3 to 8) (size 9 to 14) (size 15 to 20)
#    0.000    0.444    0.000    4.667    0.000   34.667 
#    0.000    3.333    0.000    0.000    0.000    0.000 
#    0.000    0.000    0.000    0.000    0.000    0.000 
#
# Total GULP energy -101200.346625 kJ/mol
# GULP energy per Si atom -5622.241479 kJ/mol
# Density = 2.422665 g / cm^3
# Si number density = 24.281920 Si / 1000 Ang^3
#
#
#
# Elastic Constant Matrix: (Units=GPa)
#
#
# Indices 1 2 3 4 5 6 
#
# 1 219.0199 140.4557 139.0402 0.0000 0.0000 0.0000
# 2 140.4557 235.5348 105.0853 0.0000 0.0000 0.0000
# 3 139.0402 105.0853 221.7700 0.0000 0.0000 0.0000
# 4 0.0000 0.0000 0.0000 20.1316 0.0000 0.0000
# 5 0.0000 0.0000 0.0000 0.0000 -8.7185 0.0000
# 6 0.0000 0.0000 0.0000 0.0000 0.0000 48.3487
#
#
#
# Elastic Compliance Matrix: (Units=1/GPa)
#
#
# Indices 1 2 3 4 5 6 
#
# 1 0.009813 -0.003940 -0.004285 0.000000 0.000000 0.000000
# 2 -0.003940 0.006966 -0.000831 0.000000 0.000000 0.000000
# 3 -0.004285 -0.000831 0.007590 0.000000 0.000000 0.000000
# 4 0.000000 0.000000 0.000000 0.049673 0.000000 0.000000
# 5 0.000000 0.000000 0.000000 0.000000 -0.114698 0.000000
# 6 0.000000 0.000000 0.000000 0.000000 0.000000 0.020683
#
#
# Mechanical properties :
#
#
# Convention : Reuss Voigt Hill
#
# Bulk Modulus (GPa) = 159.83335 160.60969 160.22152
# Shear Modulus (GPa) = 22476.76607 31.40192 11254.08399
#
# Velocity S-wave (km/s) = 96.31552 3.60004 68.15292
# Velocity P-wave (km/s) = 111.51177 9.14154 79.11524
#
# Compressibility (1/GPa) = 0.00625652
#
# Stress axis : x y z
#
# Youngs Moduli (GPa) = 101.90839 143.56326 131.76096
#
# Poissons Ratio (x) = 0.56559 0.56464
# Poissons Ratio (y) = 0.40148 0.10944
# Poissons Ratio (z) = 0.43671 0.11925
#
# Static dielectric constant tensor:
#      x y z
#    x 1.741570 0.000000 0.000000 
#    y 0.000000 1.869760 0.000000 
#    z 0.000000 0.000000 1.907040 
# 
# From -- ./inp_files/23457.got.cif
#   From: 2010.05.17/outbox.cif.g08.bks.cpg/sg49_12_cif.got.tgz:23457.got - 2010.06.03 21:02:19.
