data_PCOD9395905
_publ_section_title
;
Structure prediction by ZEFSAII (Michael W. Deem and Ramdas Pophale) SiO2 
 PCOD9395905
Probable space group: P B A N
;
_chemical_formula_sum "Si O2"
_cell_formula_units_Z 64
_cell_length_a 30.727164
_cell_length_b 9.249969
_cell_length_c 11.518330
_cell_angle_alpha 90.000000
_cell_angle_beta 90.000000
_cell_angle_gamma 90.000000
_cell_volume 3273.800966
_symmetry_space_group_name_H-M "P B A N"
_symmetry_group_IT_number 50
_space_group.IT_coordinate_system_code '2'
_symmetry_cell_setting 'orthorhombic'
loop_
_space_group_symop_operation_xyz
x,y,z
1/2-x,1/2-y,z
x,1/2-y,-z
1/2-x,y,-z
-x,-y,-z
1/2+x,1/2+y,-z
-x,1/2+y,z
1/2+x,-y,z
loop_
_atom_site_type_symbol
_atom_site_label
_atom_site_fract_x
_atom_site_fract_y
_atom_site_fract_z
Si Si1 0.355511 0.097283 0.460116
Si Si2 0.547128 0.253840 0.140677
Si Si3 0.620510 0.034299 0.772401
Si Si4 0.823272 0.524913 0.288228
Si Si5 0.969572 0.555114 0.108411
Si Si6 0.880327 0.720752 0.119700
Si Si7 0.203473 0.789341 0.785217
Si Si8 0.767811 0.537143 0.628417
O O1 0.375963 0.250000 0.500000
O O2 0.341906 0.022774 0.580511
O O3 0.378383 0.994178 0.366779
O O4 0.311063 0.132851 0.386345
O O5 0.584585 0.349028 0.195332
O O6 0.501432 0.330769 0.167046
O O7 0.543398 0.088082 0.177580
O O8 0.554307 0.250000 0.000000
O O9 0.665986 0.098120 0.825933
O O10 0.610486 0.876781 0.824509
O O11 0.853279 0.622960 0.207940
O O12 0.819766 0.361495 0.241345
O O13 0.773075 0.580683 0.293212
O O14 0.924448 0.635796 0.083975
O O15 0.000000 0.500000 0.000000
O O16 0.855221 0.750000 0.000000
O O17 0.250000 0.750000 0.846004
O O18 0.218563 0.878308 0.671230
O O19 0.750000 0.528810 0.500000
#
# Coordination Sequence:
#
# PCOD9395905 Si02
#       8
#     8   8   8   8   8   8   8   8
#     4  10  19  36  55  91 122 164 210 265 315 374
#     4  10  19  35  59  89 117 147 194 253 309 374
#     4  11  22  36  60  89 126 164 207 261 319 380
#     4  10  20  35  58  87 118 159 207 265 320 380
#     4  10  20  37  62  92 119 152 202 255 321 380
#     4  12  23  38  59  88 124 158 202 264 326 391
#     4   9  19  36  54  82 114 156 204 255 306 366
#     4   8  17  30  55  82 115 150 205 259 310 354
#
# _framework density 19.549143000000001
#
# number of rings (size 3 to 8) (size 9 to 14) (size 15 to 20)
#    0.000    2.000    1.250    4.125    0.000   11.500 
#    2.250    0.000    0.000   21.375    0.000    0.000 
#    0.000    0.000    0.000    0.000    0.000    0.000 
#
# Total GULP energy -356321.682104 kJ/mol
# GULP energy per Si atom -5567.526283 kJ/mol
# Density = 1.950465 g / cm^3
# Si number density = 19.549143 Si / 1000 Ang^3
#
#
#
# Elastic Constant Matrix: (Units=GPa)
#
#
# Indices 1 2 3 4 5 6 
#
# 1 86.8397 49.8034 36.3878 0.0000 0.0000 0.0000
# 2 49.8034 143.7658 31.0923 0.0000 0.0000 0.0000
# 3 36.3878 31.0923 69.5972 0.0000 0.0000 0.0000
# 4 0.0000 0.0000 0.0000 21.2275 0.0000 0.0000
# 5 0.0000 0.0000 0.0000 0.0000 21.9765 0.0000
# 6 0.0000 0.0000 0.0000 0.0000 0.0000 38.7808
#
#
#
# Elastic Compliance Matrix: (Units=1/GPa)
#
#
# Indices 1 2 3 4 5 6 
#
# 1 0.016906 -0.004367 -0.006888 0.000000 0.000000 0.000000
# 2 -0.004367 0.008828 -0.001661 0.000000 0.000000 0.000000
# 3 -0.006888 -0.001661 0.018712 0.000000 0.000000 0.000000
# 4 0.000000 0.000000 0.000000 0.047109 0.000000 0.000000
# 5 0.000000 0.000000 0.000000 0.000000 0.045503 0.000000
# 6 0.000000 0.000000 0.000000 0.000000 0.000000 0.025786
#
#
# Mechanical properties :
#
#
# Convention : Reuss Voigt Hill
#
# Bulk Modulus (GPa) = 53.72269 59.41885 56.57077
# Shear Modulus (GPa) = 25.65686 28.59158 27.12422
#
# Velocity S-wave (km/s) = 3.62668 3.82848 3.72894
# Velocity P-wave (km/s) = 6.71398 7.07132 6.89497
#
# Compressibility (1/GPa) = 0.01861411
#
# Stress axis : x y z
#
# Youngs Moduli (GPa) = 59.14952 113.27993 53.44261
#
# Poissons Ratio (x) = 0.49469 0.36813
# Poissons Ratio (y) = 0.25830 0.08874
# Poissons Ratio (z) = 0.40744 0.18811
#
# Static dielectric constant tensor:
#      x y z
#    x 1.750160 0.000000 0.000000 
#    y 0.000000 2.001750 0.000000 
#    z 0.000000 0.000000 1.703460 
# 
# From -- ./inp_files/23422.got.cif
#   From: 2010.05.17/outbox.cif.g08.bks.cpg/sg50_12_cif.got.tgz:23422.got - 2010.06.03 11:33:33.
