data_PCOD9395215
_publ_section_title
;
Structure prediction by ZEFSAII (Michael W. Deem and Ramdas Pophale) SiO2 
 PCOD9395215
Probable space group: P C C M
;
_chemical_formula_sum "Si O2"
_cell_formula_units_Z 56
_cell_length_a 21.000000
_cell_length_b 15.000000
_cell_length_c 9.000000
_cell_angle_alpha 90.000000
_cell_angle_beta 90.000000
_cell_angle_gamma 90.000000
_cell_volume 2835.000000
_symmetry_space_group_name_H-M "P C C M"
_symmetry_group_IT_number 49
_symmetry_cell_setting 'orthorhombic'
loop_
_space_group_symop_operation_xyz
x,y,z
-x,-y,z
x,-y,1/2-z
-x,y,1/2-z
-x,-y,-z
x,y,-z
-x,y,1/2+z
x,-y,1/2+z
loop_
_atom_site_type_symbol
_atom_site_label
_atom_site_fract_x
_atom_site_fract_y
_atom_site_fract_z
Si Si1 0.381687 0.095966 0.675796
Si Si2 0.565923 0.712959 0.675911
Si Si3 0.064449 0.718263 0.823159
Si Si4 0.186452 0.598128 0.819386
Si Si5 0.122518 0.902528 0.821400
Si Si6 0.747699 0.098833 0.321341
Si Si7 0.678761 0.599172 0.819792
O O1 0.368960 0.079988 0.500000
O O2 0.429123 0.179033 0.688496
O O3 0.318691 0.133468 0.758590
O O4 0.398920 0.000000 0.750000
O O5 0.500000 0.683842 0.750000
O O6 0.568658 0.692128 0.500000
O O7 0.623518 0.663655 0.759826
O O8 0.127234 0.662134 0.782138
O O9 0.073484 0.823455 0.788695
O O10 0.000000 0.684185 0.750000
O O11 0.058718 0.711412 0.000000
O O12 0.174927 0.500000 0.750000
O O13 0.252683 0.629738 0.745251
O O14 0.193204 0.593371 0.000000
O O15 0.188066 0.864807 0.750546
O O16 0.109039 0.000000 0.750000
O O17 0.129317 0.913042 0.000000
O O18 0.749848 0.098391 0.500000
O O19 0.747364 0.000000 0.250000
O O20 0.668924 0.500000 0.750000
O O21 0.680062 0.595687 0.000000
#
# Coordination Sequence:
#
# PCOD9395215 Si02
#       7
#     8   8   8   8   8   8   8
#     4  10  21  37  58  84 120 163 206 255 306 359
#     4  11  25  43  63  91 127 167 209 257 308 365
#     4  10  24  41  60  86 122 162 204 249 304 364
#     4  10  21  41  66  95 124 158 199 248 306 365
#     4  10  20  36  55  81 115 158 202 250 303 357
#     4  10  18  30  51  80 110 146 194 248 300 354
#     4  11  23  42  69  99 127 160 202 251 307 371
#
# _framework density 19.753086
#
# number of rings (size 3 to 8) (size 9 to 14) (size 15 to 20)
#    0.000    1.714    0.000    6.857    2.000    5.714 
#    0.000    5.714    0.000    0.000    0.000    0.000 
#    0.000    0.000    0.000    0.000    0.000    0.000 
#
# Total GULP energy -312590.756344 kJ/mol
# GULP energy per Si atom -5581.977792 kJ/mol
# Density = 1.970813 g / cm^3
# Si number density = 19.753086 Si / 1000 Ang^3
#
#
#
# Elastic Constant Matrix: (Units=GPa)
#
#
# Indices 1 2 3 4 5 6 
#
# 1 145.8359 64.5818 68.6047 0.0000 0.0000 0.0000
# 2 64.5818 83.7046 45.5310 0.0000 0.0000 0.0000
# 3 68.6047 45.5310 148.6877 0.0000 0.0000 0.0000
# 4 0.0000 0.0000 0.0000 20.8510 0.0000 0.0000
# 5 0.0000 0.0000 0.0000 0.0000 56.0874 0.0000
# 6 0.0000 0.0000 0.0000 0.0000 0.0000 17.3909
#
#
#
# Elastic Compliance Matrix: (Units=1/GPa)
#
#
# Indices 1 2 3 4 5 6 
#
# 1 0.011499 -0.007182 -0.003106 0.000000 0.000000 0.000000
# 2 -0.007182 0.018820 -0.002449 0.000000 0.000000 0.000000
# 3 -0.003106 -0.002449 0.008909 0.000000 0.000000 0.000000
# 4 0.000000 0.000000 0.000000 0.047959 0.000000 0.000000
# 5 0.000000 0.000000 0.000000 0.000000 0.017829 0.000000
# 6 0.000000 0.000000 0.000000 0.000000 0.000000 0.057501
#
#
# Mechanical properties :
#
#
# Convention : Reuss Voigt Hill
#
# Bulk Modulus (GPa) = 72.71391 81.74035 77.22713
# Shear Modulus (GPa) = 25.96351 32.16656 29.06504
#
# Velocity S-wave (km/s) = 3.62940 4.03976 3.84007
# Velocity P-wave (km/s) = 7.37935 7.95176 7.67089
#
# Compressibility (1/GPa) = 0.01375253
#
# Stress axis : x y z
#
# Youngs Moduli (GPa) = 86.96533 53.13363 112.24910
#
# Poissons Ratio (x) = 0.38162 0.34867
# Poissons Ratio (y) = 0.62460 0.27493
# Poissons Ratio (z) = 0.27014 0.13014
#
# Static dielectric constant tensor:
#      x y z
#    x 1.751340 0.000000 0.000000 
#    y 0.000000 1.752020 0.000000 
#    z 0.000000 0.000000 1.658220 
# 
# From -- ./inp_files/5816.got.cif
#   From: 2010.05.17/outbox.ucp.g08.bks.cvg/sg49_3_cif.got.tgz:5816.got - 2010.06.11 16:40:14.
