data_PCOD9395698
_publ_section_title
;
Structure prediction by ZEFSAII (Michael W. Deem and Ramdas Pophale) SiO2 
 PCOD9395698
Probable space group: P B A N
;
_chemical_formula_sum "Si O2"
_cell_formula_units_Z 48
_cell_length_a 35.848776
_cell_length_b 8.189452
_cell_length_c 7.264671
_cell_angle_alpha 90.000000
_cell_angle_beta 90.000000
_cell_angle_gamma 90.000000
_cell_volume 2132.775409
_symmetry_space_group_name_H-M "P B A N"
_symmetry_group_IT_number 50
_space_group.IT_coordinate_system_code '2'
_symmetry_cell_setting 'orthorhombic'
loop_
_space_group_symop_operation_xyz
x,y,z
1/2-x,1/2-y,z
x,1/2-y,-z
1/2-x,y,-z
-x,-y,-z
1/2+x,1/2+y,-z
-x,1/2+y,z
1/2+x,-y,z
loop_
_atom_site_type_symbol
_atom_site_label
_atom_site_fract_x
_atom_site_fract_y
_atom_site_fract_z
Si Si1 0.251356 0.060854 0.776905
Si Si2 0.977259 0.381686 0.360202
Si Si3 0.167523 0.935021 0.221950
Si Si4 0.870017 0.760134 0.206721
Si Si5 0.950966 0.790976 0.716731
Si Si6 0.328184 0.925685 0.226922
O O1 0.250000 0.250000 0.717384
O O2 0.290457 0.982494 0.721856
O O3 0.214805 0.959938 0.722718
O O4 0.250000 0.062986 0.000000
O O5 0.959160 0.250000 0.500000
O O6 0.952573 0.513422 0.254343
O O7 0.000000 0.500000 0.500000
O O8 0.008882 0.290182 0.239858
O O9 0.158561 0.752716 0.286803
O O10 0.140715 0.082546 0.283486
O O11 0.168165 0.926341 0.997284
O O12 0.914246 0.782755 0.195892
O O13 0.851317 0.918042 0.294833
O O14 0.854158 0.750000 0.000000
O O15 0.945712 0.750000 0.500000
#
# Coordination Sequence:
#
# PCOD9395698 Si02
#       6
#     8   8   8   8   8   8
#     4   9  13  21  39  58  84 124 167 202 230 265
#     4   7  13  29  52  71  86 110 151 192 225 261
#     4   9  16  26  39  62  90 129 163 194 236 277
#     4  10  19  31  45  68 104 130 149 187 242 288
#     4   9  17  33  53  73  92 119 154 194 232 277
#     4   9  16  26  40  60  93 127 162 197 233 277
#
# _framework density 22.505887000000001
#
# number of rings (size 3 to 8) (size 9 to 14) (size 15 to 20)
#    0.000    3.500    1.667    0.500    0.000    2.000 
#    9.000    0.833    0.000    0.000    0.000    2.333 
#    0.000    2.667    0.000    0.000    0.000    0.000 
#
# Total GULP energy -267454.788045 kJ/mol
# GULP energy per Si atom -5571.974751 kJ/mol
# Density = 2.245466 g / cm^3
# Si number density = 22.505887 Si / 1000 Ang^3
#
#
#
# Elastic Constant Matrix: (Units=GPa)
#
#
# Indices 1 2 3 4 5 6 
#
# 1 66.9269 34.8537 -12.0662 0.0000 0.0000 0.0000
# 2 34.8537 179.1059 -3.2456 0.0000 0.0000 0.0000
# 3 -12.0662 -3.2456 68.7166 0.0000 0.0000 0.0000
# 4 0.0000 0.0000 0.0000 -12.9179 0.0000 0.0000
# 5 0.0000 0.0000 0.0000 0.0000 19.3790 0.0000
# 6 0.0000 0.0000 0.0000 0.0000 0.0000 15.4983
#
#
#
# Elastic Compliance Matrix: (Units=1/GPa)
#
#
# Indices 1 2 3 4 5 6 
#
# 1 0.017170 -0.003289 0.002860 0.000000 0.000000 0.000000
# 2 -0.003289 0.006218 -0.000284 0.000000 0.000000 0.000000
# 3 0.002860 -0.000284 0.015041 0.000000 0.000000 0.000000
# 4 0.000000 0.000000 0.000000 -0.077412 0.000000 0.000000
# 5 0.000000 0.000000 0.000000 0.000000 0.051602 0.000000
# 6 0.000000 0.000000 0.000000 0.000000 0.000000 0.064523
#
#
# Mechanical properties :
#
#
# Convention : Reuss Voigt Hill
#
# Bulk Modulus (GPa) = 27.02537 39.31481 33.17009
# Shear Modulus (GPa) = 55.00255 24.07238 39.53746
#
# Velocity S-wave (km/s) = 4.94896 3.27403 4.19592
# Velocity P-wave (km/s) = 6.68510 5.63905 6.18423
#
# Compressibility (1/GPa) = 0.03700227
#
# Stress axis : x y z
#
# Youngs Moduli (GPa) = 58.24004 160.81634 66.48386
#
# Poissons Ratio (x) = 0.52900 -0.19012
# Poissons Ratio (y) = 0.19158 0.01888
# Poissons Ratio (z) = -0.16654 0.04566
#
# Static dielectric constant tensor:
#      x y z
#    x 1.832700 0.000000 0.000000 
#    y 0.000000 1.873940 0.000000 
#    z 0.000000 0.000000 1.922120 
# 
# From -- ./inp_files/23326.got.cif
#   From: 2010.05.17/outbox.cif.g08.bks.cpg/sg50_12_cif.got.tgz:23326.got - 2010.06.03 11:33:33.
