data_PCOD9395404
_publ_section_title
;
Structure prediction by ZEFSAII (Michael W. Deem and Ramdas Pophale) SiO2 
 PCOD9395404
Probable space group: P B A N
;
_chemical_formula_sum "Si O2"
_cell_formula_units_Z 44
_cell_length_a 15.599382
_cell_length_b 21.363896
_cell_length_c 5.301787
_cell_angle_alpha 90.000000
_cell_angle_beta 90.000000
_cell_angle_gamma 90.000000
_cell_volume 1766.892488
_symmetry_space_group_name_H-M "P B A N"
_symmetry_group_IT_number 50
_space_group.IT_coordinate_system_code '2'
_symmetry_cell_setting 'orthorhombic'
loop_
_space_group_symop_operation_xyz
x,y,z
1/2-x,1/2-y,z
x,1/2-y,-z
1/2-x,y,-z
-x,-y,-z
1/2+x,1/2+y,-z
-x,1/2+y,z
1/2+x,-y,z
loop_
_atom_site_type_symbol
_atom_site_label
_atom_site_fract_x
_atom_site_fract_y
_atom_site_fract_z
Si Si1 0.372579 0.517148 0.105422
Si Si2 0.957500 0.564181 0.739446
Si Si3 0.664934 0.355601 0.132852
Si Si4 0.522372 0.851113 0.239505
Si Si5 0.788452 0.680685 0.250066
Si Si6 0.250000 0.953652 0.500000
O O1 0.462852 0.515999 0.247726
O O2 0.380543 0.479749 0.844552
O O3 0.298534 0.502797 0.299497
O O4 0.358604 0.591144 0.068309
O O5 0.965895 0.605165 0.487899
O O6 0.965439 0.610663 0.979955
O O7 0.574875 0.323092 0.215182
O O8 0.689549 0.402286 0.360677
O O9 0.750000 0.324538 0.000000
O O10 0.609163 0.810916 0.251034
O O11 0.750000 0.750000 0.249535
O O12 0.750000 0.649200 0.500000
O O13 0.750000 0.648961 0.000000
#
# Coordination Sequence:
#
# PCOD9395404 Si02
#       6
#     8   8   8   8   8   4
#     4   9  19  31  49  73 116 169 212 252 298 358
#     4  10  21  33  54  81 115 159 211 254 308 359
#     4   9  19  32  52  82 118 159 209 249 294 368
#     4  11  21  38  60  86 119 156 198 266 322 363
#     4  10  22  43  68  92 119 149 197 255 321 403
#     4  10  16  32  48  72 114 161 215 254 292 362
#
# _framework density 24.902477000000001
#
# number of rings (size 3 to 8) (size 9 to 14) (size 15 to 20)
#    0.000    2.182    1.818    1.091    2.545    2.182 
#    1.636    2.727    0.000    0.000    0.000    2.545 
#    0.000    0.000    0.000    0.000    0.000    0.000 
#
# Total GULP energy -244992.621854 kJ/mol
# GULP energy per Si atom -5568.014133 kJ/mol
# Density = 2.484580 g / cm^3
# Si number density = 24.902477 Si / 1000 Ang^3
#
#
#
# Elastic Constant Matrix: (Units=GPa)
#
#
# Indices 1 2 3 4 5 6 
#
# 1 240.8239 34.2410 55.4447 0.0000 0.0000 0.0000
# 2 34.2410 36.4662 11.2581 0.0000 0.0000 0.0000
# 3 55.4447 11.2581 160.7144 0.0000 0.0000 0.0000
# 4 0.0000 0.0000 0.0000 2.7937 0.0000 0.0000
# 5 0.0000 0.0000 0.0000 0.0000 47.0490 0.0000
# 6 0.0000 0.0000 0.0000 0.0000 0.0000 35.5742
#
#
#
# Elastic Compliance Matrix: (Units=1/GPa)
#
#
# Indices 1 2 3 4 5 6 
#
# 1 0.005106 -0.004344 -0.001457 0.000000 0.000000 0.000000
# 2 -0.004344 0.031725 -0.000724 0.000000 0.000000 0.000000
# 3 -0.001457 -0.000724 0.006776 0.000000 0.000000 0.000000
# 4 0.000000 0.000000 0.000000 0.357949 0.000000 0.000000
# 5 0.000000 0.000000 0.000000 0.000000 0.021254 0.000000
# 6 0.000000 0.000000 0.000000 0.000000 0.000000 0.028110
#
#
# Mechanical properties :
#
#
# Convention : Reuss Voigt Hill
#
# Bulk Modulus (GPa) = 32.72624 71.09913 51.91269
# Shear Modulus (GPa) = 10.54507 39.55409 25.04958
#
# Velocity S-wave (km/s) = 2.06003 3.98975 3.17504
# Velocity P-wave (km/s) = 4.33919 7.05954 5.85943
#
# Compressibility (1/GPa) = 0.03055652
#
# Stress axis : x y z
#
# Youngs Moduli (GPa) = 195.86596 31.52071 147.58896
#
# Poissons Ratio (x) = 0.13693 0.21504
# Poissons Ratio (y) = 0.85087 0.10681
# Poissons Ratio (z) = 0.28538 0.02281
#
# Static dielectric constant tensor:
#      x y z
#    x 2.208070 0.000000 0.000000 
#    y 0.000000 1.760560 0.000000 
#    z 0.000000 0.000000 1.980410 
# 
# From -- ./inp_files/3492.got.cif
#   From: 2010.05.17/outbox.cif.g08.bks.cpg/sg50_2_cif.got.tgz:3492.got - 2010.06.03 11:33:33.
