data_PCOD9395345
_publ_section_title
;
Structure prediction by ZEFSAII (Michael W. Deem and Ramdas Pophale) SiO2 
 PCOD9395345
Probable space group: P B A N
;
_chemical_formula_sum "Si O2"
_cell_formula_units_Z 48
_cell_length_a 12.441301
_cell_length_b 22.880918
_cell_length_c 8.312784
_cell_angle_alpha 90.000000
_cell_angle_beta 90.000000
_cell_angle_gamma 90.000000
_cell_volume 2366.386821
_symmetry_space_group_name_H-M "P B A N"
_symmetry_group_IT_number 50
_space_group.IT_coordinate_system_code '2'
_symmetry_cell_setting 'orthorhombic'
loop_
_space_group_symop_operation_xyz
x,y,z
1/2-x,1/2-y,z
x,1/2-y,-z
1/2-x,y,-z
-x,-y,-z
1/2+x,1/2+y,-z
-x,1/2+y,z
1/2+x,-y,z
loop_
_atom_site_type_symbol
_atom_site_label
_atom_site_fract_x
_atom_site_fract_y
_atom_site_fract_z
Si Si1 0.191687 0.196594 0.321852
Si Si2 0.223706 0.549617 0.816409
Si Si3 0.478818 0.880655 0.689380
Si Si4 0.724658 0.576583 0.310906
Si Si5 0.151361 0.642099 0.381766
Si Si6 0.453540 0.746921 0.685428
O O1 0.250000 0.250000 0.233931
O O2 0.250000 0.192420 0.500000
O O3 0.207702 0.132762 0.252538
O O4 0.070841 0.218295 0.326607
O O5 0.107434 0.575970 0.768894
O O6 0.239968 0.481607 0.778921
O O7 0.308747 0.585283 0.709890
O O8 0.250000 0.561062 0.000000
O O9 0.599658 0.904242 0.706835
O O10 0.446697 0.875233 0.500289
O O11 0.462795 0.812972 0.749764
O O12 0.750000 0.566714 0.500000
O O13 0.250000 0.658328 0.500000
O O14 0.123847 0.694617 0.257760
O O15 0.416032 0.750000 0.500000
#
# Coordination Sequence:
#
# PCOD9395345 Si02
#       6
#     8   8   8   8   8   8
#     4  10  15  28  54  94 123 141 166 229 301 357
#     4  11  26  43  55  76 118 165 205 240 279 339
#     4  10  21  37  61  92 116 147 191 242 297 349
#     4  11  21  36  64  91 119 148 188 243 295 353
#     4   9  19  35  58  86 116 146 189 241 289 343
#     4  10  16  29  57  90 121 144 179 232 299 356
#
# _framework density 20.284089999999999
#
# number of rings (size 3 to 8) (size 9 to 14) (size 15 to 20)
#    0.000    1.833    3.333    4.500    0.000   12.333 
#    0.000    1.667    0.000    0.500    0.000    0.000 
#    0.000    0.000    0.000    0.000    0.000    0.000 
#
# Total GULP energy -267456.134009 kJ/mol
# GULP energy per Si atom -5572.002792 kJ/mol
# Density = 2.023792 g / cm^3
# Si number density = 20.284090 Si / 1000 Ang^3
#
#
#
# Elastic Constant Matrix: (Units=GPa)
#
#
# Indices 1 2 3 4 5 6 
#
# 1 39.5595 71.8474 14.7922 0.0000 0.0000 0.0000
# 2 71.8474 194.2221 24.7000 0.0000 0.0000 0.0000
# 3 14.7922 24.7000 28.5052 0.0000 0.0000 0.0000
# 4 0.0000 0.0000 0.0000 -14.9247 0.0000 0.0000
# 5 0.0000 0.0000 0.0000 0.0000 4.7347 0.0000
# 6 0.0000 0.0000 0.0000 0.0000 0.0000 -7.5329
#
#
#
# Elastic Compliance Matrix: (Units=1/GPa)
#
#
# Indices 1 2 3 4 5 6 
#
# 1 0.085320 -0.029143 -0.019023 0.000000 0.000000 0.000000
# 2 -0.029143 0.015741 0.001484 0.000000 0.000000 0.000000
# 3 -0.019023 0.001484 0.043667 0.000000 0.000000 0.000000
# 4 0.000000 0.000000 0.000000 -0.067003 0.000000 0.000000
# 5 0.000000 0.000000 0.000000 0.000000 0.211205 0.000000
# 6 0.000000 0.000000 0.000000 0.000000 0.000000 -0.132751
#
#
# Mechanical properties :
#
#
# Convention : Reuss Voigt Hill
#
# Bulk Modulus (GPa) = 19.46874 53.88511 36.67693
# Shear Modulus (GPa) = 18.75013 6.51856 12.63434
#
# Velocity S-wave (km/s) = 3.04365 1.79460 2.49844
# Velocity P-wave (km/s) = 4.68728 5.56031 5.14236
#
# Compressibility (1/GPa) = 0.05136440
#
# Stress axis : x y z
#
# Youngs Moduli (GPa) = 11.72052 63.52947 22.90043
#
# Poissons Ratio (x) = 1.85143 0.43563
# Poissons Ratio (y) = 0.34157 -0.03398
# Poissons Ratio (z) = 0.22296 -0.09425
#
# Static dielectric constant tensor:
#      x y z
#    x 1.823050 0.000000 0.000000 
#    y 0.000000 1.809900 0.000000 
#    z 0.000000 0.000000 1.657140 
# 
# From -- ./inp_files/11563.got.cif
#   From: 2010.05.17/outbox.cif.g08.bks.cpg/sg50_6_cif.got.tgz:11563.got - 2010.06.03 11:33:33.
