data_PCOD9395334
_publ_section_title
;
Structure prediction by ZEFSAII (Michael W. Deem and Ramdas Pophale) SiO2 
 PCOD9395334
Probable space group: P B A N
;
_chemical_formula_sum "Si O2"
_cell_formula_units_Z 48
_cell_length_a 14.837406
_cell_length_b 5.247860
_cell_length_c 29.855598
_cell_angle_alpha 90.000000
_cell_angle_beta 90.000000
_cell_angle_gamma 90.000000
_cell_volume 2324.695075
_symmetry_space_group_name_H-M "P B A N"
_symmetry_group_IT_number 50
_space_group.IT_coordinate_system_code '2'
_symmetry_cell_setting 'orthorhombic'
loop_
_space_group_symop_operation_xyz
x,y,z
1/2-x,1/2-y,z
x,1/2-y,-z
1/2-x,y,-z
-x,-y,-z
1/2+x,1/2+y,-z
-x,1/2+y,z
1/2+x,-y,z
loop_
_atom_site_type_symbol
_atom_site_label
_atom_site_fract_x
_atom_site_fract_y
_atom_site_fract_z
Si Si1 0.057791 0.890170 0.881065
Si Si2 0.559689 0.673687 0.546246
Si Si3 0.895622 0.497739 0.979944
Si Si4 0.358452 0.242843 0.642825
Si Si5 0.558742 0.445799 0.217137
Si Si6 0.857774 0.261720 0.691950
O O1 0.106553 0.967167 0.926690
O O2 0.102015 0.922724 0.832343
O O3 0.024056 0.597770 0.882252
O O4 0.610090 0.750000 0.500000
O O5 0.519076 0.389087 0.546034
O O6 0.614236 0.698485 0.591859
O O7 0.852461 0.250000 0.000000
O O8 0.000000 0.500000 0.000000
O O9 0.854993 0.750000 0.000000
O O10 0.250000 0.250000 0.645772
O O11 0.392577 0.517412 0.659005
O O12 0.390971 0.014891 0.675585
O O13 0.521778 0.734647 0.219453
O O14 0.618865 0.359020 0.258558
O O15 0.750000 0.250000 0.688423
#
# Coordination Sequence:
#
# PCOD9395334 Si02
#       6
#     8   8   8   8   8   8
#     4  10  16  25  36  57  87 118 149 188 232 284
#     4  10  21  36  54  80 110 138 165 202 251 303
#     4  10  14  20  34  52  77 117 152 174 226 287
#     4  10  21  36  56  77  99 131 172 213 247 292
#     4  10  21  32  48  71  99 128 161 207 253 296
#     4  10  21  37  53  73 100 132 171 210 252 300
#
# _framework density 20.647870000000001
#
# number of rings (size 3 to 8) (size 9 to 14) (size 15 to 20)
#    0.000    2.000    3.333    2.000    0.000    4.333 
#    0.000    0.000    0.000    6.000    0.000    0.000 
#    0.000    0.667    0.000    9.000    0.000    0.000 
#
# Total GULP energy -267507.081568 kJ/mol
# GULP energy per Si atom -5573.064199 kJ/mol
# Density = 2.060087 g / cm^3
# Si number density = 20.647870 Si / 1000 Ang^3
#
#
#
# Elastic Constant Matrix: (Units=GPa)
#
#
# Indices 1 2 3 4 5 6 
#
# 1 28.1552 7.3677 4.8098 0.0000 0.0000 0.0000
# 2 7.3677 126.4935 30.2560 0.0000 0.0000 0.0000
# 3 4.8098 30.2560 165.2608 0.0000 0.0000 0.0000
# 4 0.0000 0.0000 0.0000 35.6364 0.0000 0.0000
# 5 0.0000 0.0000 0.0000 0.0000 -40.3764 0.0000
# 6 0.0000 0.0000 0.0000 0.0000 0.0000 3.3352
#
#
#
# Elastic Compliance Matrix: (Units=1/GPa)
#
#
# Indices 1 2 3 4 5 6 
#
# 1 0.036144 -0.001939 -0.000697 0.000000 0.000000 0.000000
# 2 -0.001939 0.008372 -0.001476 0.000000 0.000000 0.000000
# 3 -0.000697 -0.001476 0.006342 0.000000 0.000000 0.000000
# 4 0.000000 0.000000 0.000000 0.028061 0.000000 0.000000
# 5 0.000000 0.000000 0.000000 0.000000 -0.024767 0.000000
# 6 0.000000 0.000000 0.000000 0.000000 0.000000 0.299831
#
#
# Mechanical properties :
#
#
# Convention : Reuss Voigt Hill
#
# Bulk Modulus (GPa) = 23.45580 44.97516 34.21548
# Shear Modulus (GPa) = 13.28314 18.21743 15.75028
#
# Velocity S-wave (km/s) = 2.53912 2.97356 2.76489
# Velocity P-wave (km/s) = 4.46998 5.79816 5.17685
#
# Compressibility (1/GPa) = 0.04263338
#
# Stress axis : x y z
#
# Youngs Moduli (GPa) = 27.66728 119.45207 157.68891
#
# Poissons Ratio (x) = 0.23156 0.10991
# Poissons Ratio (y) = 0.05363 0.23279
# Poissons Ratio (z) = 0.01928 0.17634
#
# Static dielectric constant tensor:
#      x y z
#    x 1.710360 0.000000 0.000000 
#    y 0.000000 1.752080 0.000000 
#    z 0.000000 0.000000 1.777420 
# 
# From -- ./inp_files/31460.got.cif
#   From: 2010.05.17/outbox.cif.g08.bks.cpg/sg50_16_cif.got.tgz:31460.got - 2010.06.03 11:33:33.
