data_PCOD9395857
_publ_section_title
;
Structure prediction by ZEFSAII (Michael W. Deem and Ramdas Pophale) SiO2 
 PCOD9395857
Probable space group: P B A N
;
_chemical_formula_sum "Si O2"
_cell_formula_units_Z 60
_cell_length_a 12.085384
_cell_length_b 12.443261
_cell_length_c 19.321746
_cell_angle_alpha 90.000000
_cell_angle_beta 90.000000
_cell_angle_gamma 90.000000
_cell_volume 2905.634835
_symmetry_space_group_name_H-M "P B A N"
_symmetry_group_IT_number 50
_space_group.IT_coordinate_system_code '2'
_symmetry_cell_setting 'orthorhombic'
loop_
_space_group_symop_operation_xyz
x,y,z
1/2-x,1/2-y,z
x,1/2-y,-z
1/2-x,y,-z
-x,-y,-z
1/2+x,1/2+y,-z
-x,1/2+y,z
1/2+x,-y,z
loop_
_atom_site_type_symbol
_atom_site_label
_atom_site_fract_x
_atom_site_fract_y
_atom_site_fract_z
Si Si1 0.626048 0.378535 0.485140
Si Si2 0.123854 0.284168 0.078610
Si Si3 0.965273 0.184160 0.194296
Si Si4 0.571476 0.579593 0.411648
Si Si5 0.372826 0.034626 0.172439
Si Si6 0.444721 0.884353 0.726030
Si Si7 0.175583 0.090341 0.275887
Si Si8 0.250000 0.250000 0.395398
O O1 0.625254 0.250000 0.500000
O O2 0.750000 0.414248 0.500000
O O3 0.601969 0.452104 0.416585
O O4 0.535065 0.413508 0.540088
O O5 0.250000 0.250000 0.096066
O O6 0.030708 0.232107 0.128072
O O7 0.126035 0.410331 0.097646
O O8 0.103858 0.250000 0.000000
O O9 0.067174 0.137814 0.239455
O O10 0.908475 0.270184 0.245133
O O11 0.878553 0.093200 0.172538
O O12 0.532514 0.616455 0.336116
O O13 0.662228 0.670554 0.433735
O O14 0.486723 0.068666 0.209415
O O15 0.275867 0.084029 0.220698
O O16 0.350263 0.967232 0.704663
O O17 0.195979 0.162989 0.342864
#
# Coordination Sequence:
#
# PCOD9395857 Si02
#       8
#     8   8   8   8   8   8   8   4
#     4  10  26  47  64  89 131 172 213 272 323 389
#     4  10  19  34  58  85 119 169 225 274 319 383
#     4  10  20  37  57  88 128 164 212 267 331 398
#     4  11  24  41  69  95 126 168 222 260 331 402
#     4  10  20  35  58  87 126 168 206 265 333 382
#     4  10  22  35  61  94 122 163 210 263 327 397
#     4  11  20  36  58  92 130 160 205 267 335 388
#     4  12  22  38  69  98 127 164 210 278 318 408
#
# _framework density 20.649533000000002
#
# number of rings (size 3 to 8) (size 9 to 14) (size 15 to 20)
#    0.000    1.600    4.000    0.800    3.733    2.133 
#    0.000    0.000    0.000    0.000    0.000    0.933 
#    0.000    0.000    0.000    0.000    0.000    0.000 
#
# Total GULP energy -334024.415342 kJ/mol
# GULP energy per Si atom -5567.073589 kJ/mol
# Density = 2.060253 g / cm^3
# Si number density = 20.649533 Si / 1000 Ang^3
#
#
#
# Elastic Constant Matrix: (Units=GPa)
#
#
# Indices 1 2 3 4 5 6 
#
# 1 48.3371 23.8593 16.6269 0.0000 0.0000 0.0000
# 2 23.8593 145.5801 46.3356 0.0000 0.0000 0.0000
# 3 16.6269 46.3356 66.1687 0.0000 0.0000 0.0000
# 4 0.0000 0.0000 0.0000 30.6532 0.0000 0.0000
# 5 0.0000 0.0000 0.0000 0.0000 17.1557 0.0000
# 6 0.0000 0.0000 0.0000 0.0000 0.0000 38.2849
#
#
#
# Elastic Compliance Matrix: (Units=1/GPa)
#
#
# Indices 1 2 3 4 5 6 
#
# 1 0.023343 -0.002521 -0.004101 0.000000 0.000000 0.000000
# 2 -0.002521 0.009111 -0.005747 0.000000 0.000000 0.000000
# 3 -0.004101 -0.005747 0.020168 0.000000 0.000000 0.000000
# 4 0.000000 0.000000 0.000000 0.032623 0.000000 0.000000
# 5 0.000000 0.000000 0.000000 0.000000 0.058290 0.000000
# 6 0.000000 0.000000 0.000000 0.000000 0.000000 0.026120
#
#
# Mechanical properties :
#
#
# Convention : Reuss Voigt Hill
#
# Bulk Modulus (GPa) = 35.86077 48.19216 42.02646
# Shear Modulus (GPa) = 24.54764 28.76970 26.65867
#
# Velocity S-wave (km/s) = 3.45160 3.73666 3.59696
# Velocity P-wave (km/s) = 5.76965 6.48117 6.13573
#
# Compressibility (1/GPa) = 0.02788563
#
# Stress axis : x y z
#
# Youngs Moduli (GPa) = 42.83997 109.75353 49.58428
#
# Poissons Ratio (x) = 0.27664 0.20332
# Poissons Ratio (y) = 0.10798 0.28496
# Poissons Ratio (z) = 0.17567 0.63075
#
# Static dielectric constant tensor:
#      x y z
#    x 1.753800 0.000000 0.000000 
#    y 0.000000 1.900710 0.000000 
#    z 0.000000 0.000000 1.749100 
# 
# From -- ./inp_files/30886.got.cif
#   From: 2010.05.17/outbox.cif.g08.bks.cpg/sg50_16_cif.got.tgz:30886.got - 2010.06.03 11:33:33.
