data_PCOD9395085
_publ_section_title
;
Structure prediction by ZEFSAII (Michael W. Deem and Ramdas Pophale) SiO2 
 PCOD9395085
Probable space group: P C C M
;
_chemical_formula_sum "Si O2"
_cell_formula_units_Z 32
_cell_length_a 7.986554
_cell_length_b 11.044984
_cell_length_c 14.569602
_cell_angle_alpha 90.000000
_cell_angle_beta 90.000000
_cell_angle_gamma 90.000000
_cell_volume 1285.204424
_symmetry_space_group_name_H-M "P C C M"
_symmetry_group_IT_number 49
_symmetry_cell_setting 'orthorhombic'
loop_
_space_group_symop_operation_xyz
x,y,z
-x,-y,z
x,-y,1/2-z
-x,y,1/2-z
-x,-y,-z
x,y,-z
-x,y,1/2+z
x,-y,1/2+z
loop_
_atom_site_type_symbol
_atom_site_label
_atom_site_fract_x
_atom_site_fract_y
_atom_site_fract_z
Si Si1 0.255640 0.859674 0.271999
Si Si2 0.553089 0.308886 0.397727
Si Si3 0.055157 0.236925 0.393300
Si Si4 0.227884 0.527638 0.856656
O O1 0.404678 0.796183 0.327094
O O2 0.205011 0.805182 0.173521
O O3 0.101406 0.825059 0.341371
O O4 0.275915 0.000000 0.250000
O O5 0.524716 0.261864 0.500000
O O6 0.713296 0.400318 0.399259
O O7 0.396607 0.392055 0.370309
O O8 0.062783 0.201234 0.500000
O O9 0.079597 0.383407 0.389466
O O10 0.202301 0.500000 0.750000
#
# Coordination Sequence:
#
# PCOD9395085 Si02
#       4
#     8   8   8   8
#     4  11  26  45  67  98 139 193 242 291 348 412
#     4  11  22  41  71 107 145 185 230 289 358 429
#     4  11  23  43  70 100 137 184 234 292 355 420
#     4  11  22  42  71 108 146 183 221 292 364 427
#
# _framework density 24.898764
#
# number of rings (size 3 to 8) (size 9 to 14) (size 15 to 20)
#    0.000    1.000    2.500    6.750    0.000    4.000 
#    0.000    6.250    0.000    3.000    0.000    0.000 
#    0.000    0.000    0.000    0.000    0.000    0.000 
#
# Total GULP energy -179025.568453 kJ/mol
# GULP energy per Si atom -5594.549014 kJ/mol
# Density = 2.484209 g / cm^3
# Si number density = 24.898764 Si / 1000 Ang^3
#
#
#
# Elastic Constant Matrix: (Units=GPa)
#
#
# Indices 1 2 3 4 5 6 
#
# 1 116.3757 35.0544 41.6968 0.0000 0.0000 0.0000
# 2 35.0544 196.8907 67.6046 0.0000 0.0000 0.0000
# 3 41.6968 67.6046 260.2635 0.0000 0.0000 0.0000
# 4 0.0000 0.0000 0.0000 -209.0070 0.0000 0.0000
# 5 0.0000 0.0000 0.0000 0.0000 -0.0625 0.0000
# 6 0.0000 0.0000 0.0000 0.0000 0.0000 27.8367
#
#
#
# Elastic Compliance Matrix: (Units=1/GPa)
#
#
# Indices 1 2 3 4 5 6 
#
# 1 0.009396 -0.001269 -0.001176 0.000000 0.000000 0.000000
# 2 -0.001269 0.005748 -0.001290 0.000000 0.000000 0.000000
# 3 -0.001176 -0.001290 0.004366 0.000000 0.000000 0.000000
# 4 0.000000 0.000000 0.000000 -0.004785 0.000000 0.000000
# 5 0.000000 0.000000 0.000000 0.000000-16.002352 0.000000
# 6 0.000000 0.000000 0.000000 0.000000 0.000000 0.035924
#
#
# Mechanical properties :
#
#
# Convention : Reuss Voigt Hill
#
# Bulk Modulus (GPa) = 83.05254 95.80460 89.42857
# Shear Modulus (GPa) = -0.31367 -7.63495 -3.97431
#
# Velocity S-wave (km/s) = -0.35532 -1.75301 -1.26477
# Velocity P-wave (km/s) = 5.76716 5.87059 5.81910
#
# Compressibility (1/GPa) = 0.01204057
#
# Stress axis : x y z
#
# Youngs Moduli (GPa) = 106.42344 173.98093 229.06277
#
# Poissons Ratio (x) = 0.22082 0.26931
# Poissons Ratio (y) = 0.13508 0.29541
# Poissons Ratio (z) = 0.12512 0.22438
#
# Static dielectric constant tensor:
#      x y z
#    x 2.311820 0.000000 0.000000 
#    y 0.000000 2.000490 0.000000 
#    z 0.000000 0.000000 1.936170 
# 
# From -- ./inp_files/11295.got.cif
#   From: 2010.05.17/outbox.cif.g08.bks.cpg/sg49_6_cif.got.tgz:11295.got - 2010.06.03 21:02:19.
