data_PCOD9395048
_publ_section_title
;
Structure prediction by ZEFSAII (Michael W. Deem and Ramdas Pophale) SiO2 
 PCOD9395048
Probable space group: P C C M
;
_chemical_formula_sum "Si O2"
_cell_formula_units_Z 58
_cell_length_a 7.200630
_cell_length_b 16.116389
_cell_length_c 25.166122
_cell_angle_alpha 90.000000
_cell_angle_beta 90.000000
_cell_angle_gamma 90.000000
_cell_volume 2920.482005
_symmetry_space_group_name_H-M "P C C M"
_symmetry_group_IT_number 49
_symmetry_cell_setting 'orthorhombic'
loop_
_space_group_symop_operation_xyz
x,y,z
-x,-y,z
x,-y,1/2-z
-x,y,1/2-z
-x,-y,-z
x,y,-z
-x,y,1/2+z
x,-y,1/2+z
loop_
_atom_site_type_symbol
_atom_site_label
_atom_site_fract_x
_atom_site_fract_y
_atom_site_fract_z
Si Si1 0.704855 0.844271 0.440516
Si Si2 0.274884 0.904326 0.252513
Si Si3 0.500000 0.500000 0.250000
Si Si4 0.216630 0.021430 0.938697
Si Si5 0.198400 0.627338 0.765294
Si Si6 0.314010 0.754514 0.327195
Si Si7 0.238170 0.222751 0.336011
Si Si8 0.284758 0.792880 0.439241
O O1 0.786402 0.850078 0.500000
O O2 0.679849 0.938809 0.419002
O O3 0.818301 0.796333 0.396086
O O4 0.508032 0.799518 0.444618
O O5 0.500000 0.906947 0.250000
O O6 0.238228 0.840708 0.301292
O O7 0.198252 0.855514 0.201448
O O8 0.213135 0.000000 0.250000
O O9 0.643610 0.439040 0.219979
O O10 0.237110 0.114086 0.919149
O O11 0.278285 0.029177 0.000000
O O12 0.000000 0.000000 0.936137
O O13 0.272955 0.682565 0.715495
O O14 0.159016 0.694006 0.811320
O O15 0.000000 0.590622 0.750000
O O16 0.537479 0.765632 0.331762
O O17 0.244453 0.737826 0.387262
O O18 0.213997 0.776912 0.500000
#
# Coordination Sequence:
#
# PCOD9395048 Si02
#       8
#     8   8   2   8   8   8   8   8
#     4   9  17  28  46  70  98 142 194 234 274 318
#     4   8  14  23  40  64  91 142 195 221 267 320
#     4  12  22  44  68  90 120 132 166 216 264 348
#     4   9  17  27  37  56  93 138 189 245 281 298
#     4  11  22  38  63  91 114 142 170 211 274 333
#     4   9  17  32  50  72 112 145 177 233 275 313
#     4   9  17  32  50  72 112 145 177 233 275 313
#     4   9  17  28  46  70  98 142 194 234 274 318
#
# _framework density 19.859735000000001
#
# number of rings (size 3 to 8) (size 9 to 14) (size 15 to 20)
#    0.000    2.759    1.379    1.448    1.931    2.759 
#    0.000    0.000    0.000    1.655    0.000    1.931 
#    0.000    2.207    0.000    0.000    0.000    0.000 
#
# Total GULP energy -323090.976733 kJ/mol
# GULP energy per Si atom -5570.534082 kJ/mol
# Density = 1.981453 g / cm^3
# Si number density = 19.859735 Si / 1000 Ang^3
#
#
#
# Elastic Constant Matrix: (Units=GPa)
#
#
# Indices 1 2 3 4 5 6 
#
# 1 67.9959 9.3460 2.0830 0.0000 0.0000 0.0000
# 2 9.3460 86.2343 33.2543 0.0000 0.0000 0.0000
# 3 2.0830 33.2543 123.4437 0.0000 0.0000 0.0000
# 4 0.0000 0.0000 0.0000 4.0215 0.0000 0.0000
# 5 0.0000 0.0000 0.0000 0.0000 2.4073 0.0000
# 6 0.0000 0.0000 0.0000 0.0000 0.0000 9.9894
#
#
#
# Elastic Compliance Matrix: (Units=1/GPa)
#
#
# Indices 1 2 3 4 5 6 
#
# 1 0.014934 -0.001698 0.000205 0.000000 0.000000 0.000000
# 2 -0.001698 0.013134 -0.003509 0.000000 0.000000 0.000000
# 3 0.000205 -0.003509 0.009043 0.000000 0.000000 0.000000
# 4 0.000000 0.000000 0.000000 0.248663 0.000000 0.000000
# 5 0.000000 0.000000 0.000000 0.000000 0.415401 0.000000
# 6 0.000000 0.000000 0.000000 0.000000 0.000000 0.100106
#
#
# Mechanical properties :
#
#
# Convention : Reuss Voigt Hill
#
# Bulk Modulus (GPa) = 36.89119 40.78226 38.83673
# Shear Modulus (GPa) = 6.09518 18.81634 12.45576
#
# Velocity S-wave (km/s) = 1.75379 3.08143 2.50709
# Velocity P-wave (km/s) = 4.76626 5.76541 5.28948
#
# Compressibility (1/GPa) = 0.02710674
#
# Stress axis : x y z
#
# Youngs Moduli (GPa) = 66.96208 76.14039 110.58537
#
# Poissons Ratio (x) = 0.12926 -0.02271
# Poissons Ratio (y) = 0.11368 0.38809
# Poissons Ratio (z) = -0.01375 0.26721
#
# Static dielectric constant tensor:
#      x y z
#    x 1.801680 0.000000 0.000000 
#    y 0.000000 1.718410 0.000000 
#    z 0.000000 0.000000 1.747860 
# 
# From -- ./inp_files/24596.got.cif
#   From: 2010.05.17/outbox.cif.g08.bks.cpg/sg49_13_cif.got.tgz:24596.got - 2010.06.03 21:02:19.
