data_PCOD9395197
_publ_section_title
;
Structure prediction by ZEFSAII (Michael W. Deem and Ramdas Pophale) SiO2 
 PCOD9395197
Probable space group: P C C M
;
_chemical_formula_sum "Si O2"
_cell_formula_units_Z 32
_cell_length_a 16.523409
_cell_length_b 7.187794
_cell_length_c 11.393293
_cell_angle_alpha 90.000000
_cell_angle_beta 90.000000
_cell_angle_gamma 90.000000
_cell_volume 1353.145635
_symmetry_space_group_name_H-M "P C C M"
_symmetry_group_IT_number 49
_symmetry_cell_setting 'orthorhombic'
loop_
_space_group_symop_operation_xyz
x,y,z
-x,-y,z
x,-y,1/2-z
-x,y,1/2-z
-x,-y,-z
x,y,-z
-x,y,1/2+z
x,-y,1/2+z
loop_
_atom_site_type_symbol
_atom_site_label
_atom_site_fract_x
_atom_site_fract_y
_atom_site_fract_z
Si Si1 0.473307 0.716488 0.374876
Si Si2 0.774347 0.207025 0.873489
Si Si3 0.718333 0.223982 0.625462
Si Si4 0.031672 0.787856 0.872653
O O1 0.500000 0.500000 0.373547
O O2 0.500000 0.796551 0.250000
O O3 0.506392 0.791256 0.500000
O O4 0.377059 0.739621 0.377272
O O5 0.747750 0.295950 0.751157
O O6 0.871375 0.204482 0.870371
O O7 0.740133 0.995919 0.873276
O O8 0.747800 0.287664 0.000000
O O9 0.753390 0.292432 0.500000
O O10 0.000000 0.705488 0.750000
O O11 0.005937 0.708368 0.000000
O O12 0.000000 0.000000 0.873398
#
# Coordination Sequence:
#
# PCOD9395197 Si02
#       4
#     8   8   8   8
#     4   9  18  32  48  64  80 101 134 177 223 267
#     4   9  17  27  39  59  87 118 149 177 209 252
#     4   9  16  27  43  60  80 108 140 175 215 258
#     4   9  15  22  34  53  79 114 151 179 202 235
#
# _framework density 23.648602
#
# number of rings (size 3 to 8) (size 9 to 14) (size 15 to 20)
#    0.000    3.000    0.000    3.000    0.000    4.000 
#    0.000    2.500    0.000   13.500    0.000    0.000 
#    0.000    0.000    0.000   72.000    0.000 1332.000 
#
# Total GULP energy -178340.393334 kJ/mol
# GULP energy per Si atom -5573.137292 kJ/mol
# Density = 2.359478 g / cm^3
# Si number density = 23.648602 Si / 1000 Ang^3
#
#
#
# Elastic Constant Matrix: (Units=GPa)
#
#
# Indices 1 2 3 4 5 6 
#
# 1 67.4763 7.0917 56.3330 0.0000 0.0000 0.0000
# 2 7.0917 120.5782 26.5876 0.0000 0.0000 0.0000
# 3 56.3330 26.5876 369.3462 0.0000 0.0000 0.0000
# 4 0.0000 0.0000 0.0000 -42.8075 0.0000 0.0000
# 5 0.0000 0.0000 0.0000 0.0000 49.7645 0.0000
# 6 0.0000 0.0000 0.0000 0.0000 0.0000 -441.2665
#
#
#
# Elastic Compliance Matrix: (Units=1/GPa)
#
#
# Indices 1 2 3 4 5 6 
#
# 1 0.017005 -0.000435 -0.002562 0.000000 0.000000 0.000000
# 2 -0.000435 0.008438 -0.000541 0.000000 0.000000 0.000000
# 3 -0.002562 -0.000541 0.003137 0.000000 0.000000 0.000000
# 4 0.000000 0.000000 0.000000 -0.023360 0.000000 0.000000
# 5 0.000000 0.000000 0.000000 0.000000 0.020095 0.000000
# 6 0.000000 0.000000 0.000000 0.000000 0.000000 -0.002266
#
#
# Mechanical properties :
#
#
# Convention : Reuss Voigt Hill
#
# Bulk Modulus (GPa) = 46.50421 81.93612 64.22017
# Shear Modulus (GPa) = 134.07280 -55.70266 39.18507
#
# Velocity S-wave (km/s) = 7.53769 -4.85854 4.07501
# Velocity P-wave (km/s) = 9.77052 1.80239 7.02537
#
# Compressibility (1/GPa) = 0.02150343
#
# Stress axis : x y z
#
# Youngs Moduli (GPa) = 58.80667 118.50768 318.75198
#
# Poissons Ratio (x) = 0.05157 0.81673
# Poissons Ratio (y) = 0.02559 0.17247
# Poissons Ratio (z) = 0.15068 0.06412
#
# Static dielectric constant tensor:
#      x y z
#    x 1.794200 0.000000 0.000000 
#    y 0.000000 1.876450 0.000000 
#    z 0.000000 0.000000 2.038200 
# 
# From -- ./inp_files/7941.got.cif
#   From: 2010.05.17/outbox.cif.g08.bks.cpg/sg49_4_cif.got.tgz:7941.got - 2010.06.03 21:02:19.
