data_PCOD9395539
_publ_section_title
;
Structure prediction by ZEFSAII (Michael W. Deem and Ramdas Pophale) SiO2 
 PCOD9395539
Probable space group: P B A N
;
_chemical_formula_sum "Si O2"
_cell_formula_units_Z 46
_cell_length_a 8.193593
_cell_length_b 23.190218
_cell_length_c 11.236184
_cell_angle_alpha 90.000000
_cell_angle_beta 90.000000
_cell_angle_gamma 90.000000
_cell_volume 2135.000894
_symmetry_space_group_name_H-M "P B A N"
_symmetry_group_IT_number 50
_space_group.IT_coordinate_system_code '2'
_symmetry_cell_setting 'orthorhombic'
loop_
_space_group_symop_operation_xyz
x,y,z
1/2-x,1/2-y,z
x,1/2-y,-z
1/2-x,y,-z
-x,-y,-z
1/2+x,1/2+y,-z
-x,1/2+y,z
1/2+x,-y,z
loop_
_atom_site_type_symbol
_atom_site_label
_atom_site_fract_x
_atom_site_fract_y
_atom_site_fract_z
Si Si1 0.167869 0.124908 0.677337
Si Si2 0.750000 0.063124 0.500000
Si Si3 0.250000 0.750000 0.500000
Si Si4 0.387313 0.542864 0.872702
Si Si5 0.006659 0.655474 0.431336
Si Si6 0.085590 0.093402 0.933905
Si Si7 0.664991 0.507382 0.705101
O O1 0.348185 0.153007 0.653734
O O2 0.061535 0.148364 0.567423
O O3 0.086291 0.127397 0.808458
O O4 0.202619 0.056012 0.670180
O O5 0.631353 0.102291 0.578821
O O6 0.863365 0.024931 0.583651
O O7 0.374610 0.789659 0.424810
O O8 0.385266 0.475879 0.915994
O O9 0.530420 0.542171 0.776106
O O10 0.221586 0.542365 0.798027
O O11 0.434726 0.588860 0.973051
O O12 0.250000 0.114115 0.000000
#
# Coordination Sequence:
#
# PCOD9395539 Si02
#       7
#     8   4   2   8   8   8   8
#     4  10  20  34  55  83 117 147 192 225 268 344
#     4  11  20  29  50  80 122 165 182 227 288 326
#     4  10  24  46  68  84 106 126 172 258 328 370
#     4  10  19  30  44  68 112 165 213 229 239 294
#     4  10  22  39  58  85 109 136 187 237 303 365
#     4  10  18  31  48  73 113 158 200 237 240 297
#     4  11  20  31  48  79 128 170 196 224 260 325
#
# _framework density 21.545658
#
# number of rings (size 3 to 8) (size 9 to 14) (size 15 to 20)
#    0.000    1.739    3.478    4.174    0.000    3.478 
#    0.000    0.000    0.000    0.000    0.000    3.652 
#    0.000    0.000    0.000    0.000    0.000    0.000 
#
# Total GULP energy -256184.541304 kJ/mol
# GULP energy per Si atom -5569.229159 kJ/mol
# Density = 2.149662 g / cm^3
# Si number density = 21.545658 Si / 1000 Ang^3
#
#
#
# Elastic Constant Matrix: (Units=GPa)
#
#
# Indices 1 2 3 4 5 6 
#
# 1 113.1854 23.4565 58.2671 0.0000 0.0000 0.0000
# 2 23.4565 40.3774 39.7647 0.0000 0.0000 0.0000
# 3 58.2671 39.7647 112.0210 0.0000 0.0000 0.0000
# 4 0.0000 0.0000 0.0000 8.7918 0.0000 0.0000
# 5 0.0000 0.0000 0.0000 0.0000 46.1235 0.0000
# 6 0.0000 0.0000 0.0000 0.0000 0.0000 31.8818
#
#
#
# Elastic Compliance Matrix: (Units=1/GPa)
#
#
# Indices 1 2 3 4 5 6 
#
# 1 0.012109 -0.001279 -0.005844 0.000000 0.000000 0.000000
# 2 -0.001279 0.038213 -0.012900 0.000000 0.000000 0.000000
# 3 -0.005844 -0.012900 0.016546 0.000000 0.000000 0.000000
# 4 0.000000 0.000000 0.000000 0.113742 0.000000 0.000000
# 5 0.000000 0.000000 0.000000 0.000000 0.021681 0.000000
# 6 0.000000 0.000000 0.000000 0.000000 0.000000 0.031366
#
#
# Mechanical properties :
#
#
# Convention : Reuss Voigt Hill
#
# Bulk Modulus (GPa) = 37.28234 56.50668 46.89451
# Shear Modulus (GPa) = 17.69020 26.96578 22.32799
#
# Velocity S-wave (km/s) = 2.86852 3.54158 3.22267
# Velocity P-wave (km/s) = 5.32096 6.55799 5.97159
#
# Compressibility (1/GPa) = 0.02682235
#
# Stress axis : x y z
#
# Youngs Moduli (GPa) = 82.58527 26.16909 60.43804
#
# Poissons Ratio (x) = 0.03346 0.35322
# Poissons Ratio (y) = 0.10559 0.77963
# Poissons Ratio (z) = 0.48266 0.33757
#
# Static dielectric constant tensor:
#      x y z
#    x 2.006560 0.000000 0.000000 
#    y 0.000000 1.751970 0.000000 
#    z 0.000000 0.000000 1.926390 
# 
# From -- ./inp_files/19314.got.cif
#   From: 2010.05.17/outbox.cif.g08.bks.cpg/sg50_10_cif.got.tgz:19314.got - 2010.06.03 11:33:33.
