data_PCOD9395042
_publ_section_title
;
Structure prediction by ZEFSAII (Michael W. Deem and Ramdas Pophale) SiO2 
 PCOD9395042
Probable space group: P C C M
;
_chemical_formula_sum "Si O2"
_cell_formula_units_Z 24
_cell_length_a 4.991125
_cell_length_b 13.762427
_cell_length_c 15.503443
_cell_angle_alpha 90.000000
_cell_angle_beta 90.000000
_cell_angle_gamma 90.000000
_cell_volume 1064.931398
_symmetry_space_group_name_H-M "P C C M"
_symmetry_group_IT_number 49
_symmetry_cell_setting 'orthorhombic'
loop_
_space_group_symop_operation_xyz
x,y,z
-x,-y,z
x,-y,1/2-z
-x,y,1/2-z
-x,-y,-z
x,y,-z
-x,y,1/2+z
x,-y,1/2+z
loop_
_atom_site_type_symbol
_atom_site_label
_atom_site_fract_x
_atom_site_fract_y
_atom_site_fract_z
Si Si1 0.430176 0.110968 0.850668
Si Si2 0.260799 0.565936 0.900328
Si Si3 0.082321 0.229621 0.402858
O O1 0.500000 0.119817 0.750000
O O2 0.636577 0.175288 0.903405
O O3 0.135113 0.155990 0.862890
O O4 0.500000 0.000000 0.874902
O O5 0.500000 0.500000 0.862354
O O6 0.159439 0.667237 0.859655
O O7 0.000000 0.500000 0.903658
O O8 0.346616 0.589535 0.000000
O O9 0.984047 0.250733 0.500000
#
# Coordination Sequence:
#
# PCOD9395042 Si02
#       3
#     8   8   8
#     4  11  24  41  59  82 119 164 201 240 303 372
#     4   9  17  31  53  83 117 148 182 230 288 347
#     4  11  22  37  62  92 117 150 202 256 297 344
#
# _framework density 22.536663999999998
#
# number of rings (size 3 to 8) (size 9 to 14) (size 15 to 20)
#    0.000    1.667    0.000    5.000    0.000   12.000 
#    0.000    0.000    0.000   15.000    0.000    0.000 
#    0.000    0.000    0.000    0.000    0.000    0.333 
#
# Total GULP energy -133878.481353 kJ/mol
# GULP energy per Si atom -5578.270056 kJ/mol
# Density = 2.248537 g / cm^3
# Si number density = 22.536664 Si / 1000 Ang^3
#
#
#
# Elastic Constant Matrix: (Units=GPa)
#
#
# Indices 1 2 3 4 5 6 
#
# 1 116.3777 42.2201 5.4969 0.0000 0.0000 0.0000
# 2 42.2201 174.8610 18.9478 0.0000 0.0000 0.0000
# 3 5.4969 18.9478 22.5180 0.0000 0.0000 0.0000
# 4 0.0000 0.0000 0.0000 -6.2137 0.0000 0.0000
# 5 0.0000 0.0000 0.0000 0.0000 15.7758 0.0000
# 6 0.0000 0.0000 0.0000 0.0000 0.0000 42.0831
#
#
#
# Elastic Compliance Matrix: (Units=1/GPa)
#
#
# Indices 1 2 3 4 5 6 
#
# 1 0.009421 -0.002229 -0.000424 0.000000 0.000000 0.000000
# 2 -0.002229 0.006820 -0.005194 0.000000 0.000000 0.000000
# 3 -0.000424 -0.005194 0.048884 0.000000 0.000000 0.000000
# 4 0.000000 0.000000 0.000000 -0.160934 0.000000 0.000000
# 5 0.000000 0.000000 0.000000 0.000000 0.063388 0.000000
# 6 0.000000 0.000000 0.000000 0.000000 0.000000 0.023763
#
#
# Mechanical properties :
#
#
# Convention : Reuss Voigt Hill
#
# Bulk Modulus (GPa) = 20.23095 49.67626 34.95360
# Shear Modulus (GPa) = 212.64569 26.80181 119.72375
#
# Velocity S-wave (km/s) = 9.72421 3.45230 7.29653
# Velocity P-wave (km/s) = 11.62225 6.16291 9.30210
#
# Compressibility (1/GPa) = 0.04942922
#
# Stress axis : x y z
#
# Youngs Moduli (GPa) = 106.14213 146.63099 20.45680
#
# Poissons Ratio (x) = 0.32681 0.00868
# Poissons Ratio (y) = 0.23657 0.10626
# Poissons Ratio (z) = 0.04505 0.76167
#
# Static dielectric constant tensor:
#      x y z
#    x 2.610800 0.000000 0.000000 
#    y 0.000000 1.901360 0.000000 
#    z 0.000000 0.000000 1.922980 
# 
# From -- ./inp_files/10433.got.cif
#   From: 2010.05.17/outbox.cif.g08.bks.cpg/sg49_6_cif.got.tgz:10433.got - 2010.06.03 21:02:19.
