data_PCOD9395394
_publ_section_title
;
Structure prediction by ZEFSAII (Michael W. Deem and Ramdas Pophale) SiO2 
 PCOD9395394
Probable space group: P B A N
;
_chemical_formula_sum "Si O2"
_cell_formula_units_Z 56
_cell_length_a 16.820140
_cell_length_b 5.310331
_cell_length_c 30.597543
_cell_angle_alpha 90.000000
_cell_angle_beta 90.000000
_cell_angle_gamma 90.000000
_cell_volume 2732.988172
_symmetry_space_group_name_H-M "P B A N"
_symmetry_group_IT_number 50
_space_group.IT_coordinate_system_code '2'
_symmetry_cell_setting 'orthorhombic'
loop_
_space_group_symop_operation_xyz
x,y,z
1/2-x,1/2-y,z
x,1/2-y,-z
1/2-x,y,-z
-x,-y,-z
1/2+x,1/2+y,-z
-x,1/2+y,z
1/2+x,-y,z
loop_
_atom_site_type_symbol
_atom_site_label
_atom_site_fract_x
_atom_site_fract_y
_atom_site_fract_z
Si Si1 0.448206 0.896611 0.135564
Si Si2 0.053857 0.764584 0.047623
Si Si3 0.773053 0.999520 0.624701
Si Si4 0.590225 0.499963 0.519015
Si Si5 0.205875 0.501392 0.280530
Si Si6 0.949147 0.000627 0.621910
Si Si7 0.049796 0.867112 0.766062
O O1 0.517957 0.681582 0.133544
O O2 0.400202 0.811690 0.092167
O O3 0.415168 0.877523 0.184460
O O4 0.985876 0.542827 0.048449
O O5 0.094205 0.750000 0.000000
O O6 0.750000 0.250000 0.599487
O O7 0.750000 0.750000 0.599189
O O8 0.715863 0.998479 0.667037
O O9 0.862364 0.999601 0.643355
O O10 0.628824 0.250000 0.500000
O O11 0.500000 0.500000 0.500000
O O12 0.577260 0.499646 0.570815
O O13 0.628774 0.750000 0.500000
O O14 0.250000 0.250000 0.264344
O O15 0.115820 0.538810 0.267187
O O16 0.250000 0.750000 0.263960
O O17 0.000169 0.750950 0.630916
O O18 0.018812 0.580858 0.761388
#
# Coordination Sequence:
#
# PCOD9395394 Si02
#       7
#     8   8   8   8   8   8   8
#     4   8  14  23  37  61  93 118 156 213 253 288
#     4   8  12  18  29  48  80 124 156 182 241 311
#     4  10  23  43  57  77 116 152 170 214 275 321
#     4  10  16  30  51  87 113 134 163 223 258 290
#     4  10  21  40  58  75 108 146 170 215 281 330
#     4  12  21  35  63  91 107 142 188 224 252 305
#     4  10  19  33  55  82 100 131 181 226 264 312
#
# _framework density 20.490392
#
# number of rings (size 3 to 8) (size 9 to 14) (size 15 to 20)
#    0.000    2.286    2.857    1.714    0.000    0.000 
#    0.000   17.143    0.000    2.571    0.000    0.000 
#    0.000    0.571    0.000    5.429    0.000    4.000 
#
# Total GULP energy -311799.893656 kJ/mol
# GULP energy per Si atom -5567.855244 kJ/mol
# Density = 2.044375 g / cm^3
# Si number density = 20.490392 Si / 1000 Ang^3
#
#
#
# Elastic Constant Matrix: (Units=GPa)
#
#
# Indices 1 2 3 4 5 6 
#
# 1 40.5014 23.0905 13.6640 0.0000 0.0000 0.0000
# 2 23.0905 191.4060 -8.8251 0.0000 0.0000 0.0000
# 3 13.6640 -8.8251 73.9705 0.0000 0.0000 0.0000
# 4 0.0000 0.0000 0.0000 -0.3281 0.0000 0.0000
# 5 0.0000 0.0000 0.0000 0.0000 -11.9401 0.0000
# 6 0.0000 0.0000 0.0000 0.0000 0.0000 17.7451
#
#
#
# Elastic Compliance Matrix: (Units=1/GPa)
#
#
# Indices 1 2 3 4 5 6 
#
# 1 0.028763 -0.003735 -0.005759 0.000000 0.000000 0.000000
# 2 -0.003735 0.005739 0.001375 0.000000 0.000000 0.000000
# 3 -0.005759 0.001375 0.014747 0.000000 0.000000 0.000000
# 4 0.000000 0.000000 0.000000 -3.048069 0.000000 0.000000
# 5 0.000000 0.000000 0.000000 0.000000 -0.083751 0.000000
# 6 0.000000 0.000000 0.000000 0.000000 0.000000 0.056353
#
#
# Mechanical properties :
#
#
# Convention : Reuss Voigt Hill
#
# Bulk Modulus (GPa) = 30.29470 40.19297 35.24383
# Shear Modulus (GPa) = -1.66724 19.62529 8.97903
#
# Velocity S-wave (km/s) = -0.90301 3.09816 2.09561
# Velocity P-wave (km/s) = 3.70536 5.69704 4.80551
#
# Compressibility (1/GPa) = 0.03300907
#
# Stress axis : x y z
#
# Youngs Moduli (GPa) = 34.76691 174.26155 67.81189
#
# Poissons Ratio (x) = 0.65093 0.39052
# Poissons Ratio (y) = 0.12987 -0.09322
# Poissons Ratio (z) = 0.20022 -0.23955
#
# Static dielectric constant tensor:
#      x y z
#    x 1.739110 0.000000 0.000000 
#    y 0.000000 1.827060 0.000000 
#    z 0.000000 0.000000 1.840650 
# 
# From -- ./inp_files/32521.got.cif
#   From: 2010.05.17/outbox.cif.g08.bks.cpg/sg50_17_cif.got.tgz:32521.got - 2010.06.03 11:33:33.
