data_PCOD9395968
_publ_section_title
;
Structure prediction by ZEFSAII (Michael W. Deem and Ramdas Pophale) SiO2 
 PCOD9395968
Probable space group: P B A N
;
_chemical_formula_sum "Si O2"
_cell_formula_units_Z 48
_cell_length_a 28.647174
_cell_length_b 10.050116
_cell_length_c 7.312723
_cell_angle_alpha 90.000000
_cell_angle_beta 90.000000
_cell_angle_gamma 90.000000
_cell_volume 2105.387225
_symmetry_space_group_name_H-M "P B A N"
_symmetry_group_IT_number 50
_space_group.IT_coordinate_system_code '2'
_symmetry_cell_setting 'orthorhombic'
loop_
_space_group_symop_operation_xyz
x,y,z
1/2-x,1/2-y,z
x,1/2-y,-z
1/2-x,y,-z
-x,-y,-z
1/2+x,1/2+y,-z
-x,1/2+y,z
1/2+x,-y,z
loop_
_atom_site_type_symbol
_atom_site_label
_atom_site_fract_x
_atom_site_fract_y
_atom_site_fract_z
Si Si1 0.246345 0.905434 0.721137
Si Si2 0.151241 0.527366 0.766671
Si Si3 0.902886 0.704613 0.182387
Si Si4 0.911603 0.281380 0.718524
Si Si5 0.648690 0.965893 0.672170
Si Si6 0.991551 0.874211 0.630142
O O1 0.250000 0.750000 0.775468
O O2 0.250000 0.902726 0.500000
O O3 0.294463 0.955394 0.803970
O O4 0.200661 0.997940 0.746548
O O5 0.135615 0.400041 0.879113
O O6 0.117383 0.655328 0.797141
O O7 0.148906 0.487125 0.549429
O O8 0.877510 0.826431 0.285595
O O9 0.941175 0.613931 0.281116
O O10 0.928419 0.750000 0.000000
O O11 0.912721 0.250000 0.500000
O O12 0.881933 0.413114 0.748613
O O13 0.965000 0.327885 0.757616
O O14 0.984642 0.750000 0.500000
O O15 0.000000 0.000000 0.500000
#
# Coordination Sequence:
#
# PCOD9395968 Si02
#       6
#     8   8   8   8   8   8
#     4   9  16  31  61  99 121 142 197 267 312 356
#     4  10  19  36  62  90 120 154 201 253 314 372
#     4  12  26  41  55  84 128 168 205 253 308 373
#     4   9  17  32  61  91 113 146 195 252 305 362
#     4  10  19  36  63  90 121 157 198 255 311 365
#     4  11  21  39  64  90 118 158 210 256 310 379
#
# _framework density 22.798656999999999
#
# number of rings (size 3 to 8) (size 9 to 14) (size 15 to 20)
#    0.000    1.833    1.667    5.500    0.000    0.667 
#    0.000   12.500    0.000    1.000    0.000    0.000 
#    0.000    0.000    0.000    0.000    0.000    0.000 
#
# Total GULP energy -267485.555154 kJ/mol
# GULP energy per Si atom -5572.615732 kJ/mol
# Density = 2.274677 g / cm^3
# Si number density = 22.798657 Si / 1000 Ang^3
#
#
#
# Elastic Constant Matrix: (Units=GPa)
#
#
# Indices 1 2 3 4 5 6 
#
# 1 171.6315 47.7302 7.0196 0.0000 0.0000 0.0000
# 2 47.7302 116.4193 5.9073 0.0000 0.0000 0.0000
# 3 7.0196 5.9073 39.4635 0.0000 0.0000 0.0000
# 4 0.0000 0.0000 0.0000 10.2483 0.0000 0.0000
# 5 0.0000 0.0000 0.0000 0.0000 -1.7586 0.0000
# 6 0.0000 0.0000 0.0000 0.0000 0.0000 35.4603
#
#
#
# Elastic Compliance Matrix: (Units=1/GPa)
#
#
# Indices 1 2 3 4 5 6 
#
# 1 0.006600 -0.002666 -0.000775 0.000000 0.000000 0.000000
# 2 -0.002666 0.009733 -0.000983 0.000000 0.000000 0.000000
# 3 -0.000775 -0.000983 0.025625 0.000000 0.000000 0.000000
# 4 0.000000 0.000000 0.000000 0.097577 0.000000 0.000000
# 5 0.000000 0.000000 0.000000 0.000000 -0.568627 0.000000
# 6 0.000000 0.000000 0.000000 0.000000 0.000000 0.028201
#
#
# Mechanical properties :
#
#
# Convention : Reuss Voigt Hill
#
# Bulk Modulus (GPa) = 30.20281 49.86983 40.03632
# Shear Modulus (GPa) = -13.12310 26.58047 6.72869
#
# Velocity S-wave (km/s) = -2.40179 3.41820 1.71981
# Velocity P-wave (km/s) = 2.36325 6.12375 4.64140
#
# Compressibility (1/GPa) = 0.03310950
#
# Stress axis : x y z
#
# Youngs Moduli (GPa) = 151.52308 102.74633 39.02475
#
# Poissons Ratio (x) = 0.27397 0.03024
# Poissons Ratio (y) = 0.40403 0.03835
# Poissons Ratio (z) = 0.11740 0.10096
#
# Static dielectric constant tensor:
#      x y z
#    x 1.974310 0.000000 0.000000 
#    y 0.000000 1.871660 0.000000 
#    z 0.000000 0.000000 1.918710 
# 
# From -- ./inp_files/16964.got.cif
#   From: 2010.05.17/outbox.cif.g08.bks.cpg/sg50_9_cif.got.tgz:16964.got - 2010.06.03 11:33:33.
