data_PCOD9395626
_publ_section_title
;
Structure prediction by ZEFSAII (Michael W. Deem and Ramdas Pophale) SiO2 
 PCOD9395626
Probable space group: P B A N
;
_chemical_formula_sum "Si O2"
_cell_formula_units_Z 42
_cell_length_a 15.429704
_cell_length_b 9.856727
_cell_length_c 14.466873
_cell_angle_alpha 90.000000
_cell_angle_beta 90.000000
_cell_angle_gamma 90.000000
_cell_volume 2200.214345
_symmetry_space_group_name_H-M "P B A N"
_symmetry_group_IT_number 50
_space_group.IT_coordinate_system_code '2'
_symmetry_cell_setting 'orthorhombic'
loop_
_space_group_symop_operation_xyz
x,y,z
1/2-x,1/2-y,z
x,1/2-y,-z
1/2-x,y,-z
-x,-y,-z
1/2+x,1/2+y,-z
-x,1/2+y,z
1/2+x,-y,z
loop_
_atom_site_type_symbol
_atom_site_label
_atom_site_fract_x
_atom_site_fract_y
_atom_site_fract_z
Si Si1 0.086078 0.139659 0.427085
Si Si2 0.395950 0.575729 0.579948
Si Si3 0.083321 0.121945 0.220984
Si Si4 0.753185 0.584926 0.106260
Si Si5 0.250000 0.750000 0.500000
Si Si6 0.912696 0.940270 0.227053
O O1 0.120069 0.250000 0.500000
O O2 0.123139 0.121944 0.325233
O O3 0.983332 0.164316 0.408169
O O4 0.093474 0.000855 0.482845
O O5 0.311123 0.663188 0.566929
O O6 0.391745 0.470004 0.664715
O O7 0.155029 0.058395 0.154125
O O8 0.066197 0.282557 0.206770
O O9 0.995654 0.035829 0.210881
O O10 0.750000 0.750000 0.107846
O O11 0.671869 0.530272 0.164997
O O12 0.750000 0.540543 0.000000
#
# Coordination Sequence:
#
# PCOD9395626 Si02
#       6
#     8   8   8   8   2   8
#     4  10  18  36  55  78 116 159 195 229 284 356
#     4  10  22  34  55  83 120 158 192 241 291 353
#     4  10  21  37  63  88 120 160 202 249 301 363
#     4   9  20  40  62  86 119 158 202 253 310 370
#     4  12  24  36  50  92 122 158 204 250 304 332
#     4  10  21  39  60  91 117 158 205 245 304 361
#
# _framework density 19.089048999999999
#
# number of rings (size 3 to 8) (size 9 to 14) (size 15 to 20)
#    0.000    2.095    2.857    0.000    2.667    0.762 
#    0.000    0.476    0.000    1.143    0.000    0.000 
#    0.000    0.000    0.000    0.000    0.000    0.000 
#
# Total GULP energy -234086.411101 kJ/mol
# GULP energy per Si atom -5573.485979 kJ/mol
# Density = 1.904560 g / cm^3
# Si number density = 19.089049 Si / 1000 Ang^3
#
#
#
# Elastic Constant Matrix: (Units=GPa)
#
#
# Indices 1 2 3 4 5 6 
#
# 1 111.6855 45.4602 54.5494 0.0000 0.0000 0.0000
# 2 45.4602 54.3343 24.9184 0.0000 0.0000 0.0000
# 3 54.5494 24.9184 93.0316 0.0000 0.0000 0.0000
# 4 0.0000 0.0000 0.0000 15.1399 0.0000 0.0000
# 5 0.0000 0.0000 0.0000 0.0000 26.5346 0.0000
# 6 0.0000 0.0000 0.0000 0.0000 0.0000 23.1673
#
#
#
# Elastic Compliance Matrix: (Units=1/GPa)
#
#
# Indices 1 2 3 4 5 6 
#
# 1 0.016741 -0.010836 -0.006914 0.000000 0.000000 0.000000
# 2 -0.010836 0.027996 -0.001145 0.000000 0.000000 0.000000
# 3 -0.006914 -0.001145 0.015110 0.000000 0.000000 0.000000
# 4 0.000000 0.000000 0.000000 0.066051 0.000000 0.000000
# 5 0.000000 0.000000 0.000000 0.000000 0.037687 0.000000
# 6 0.000000 0.000000 0.000000 0.000000 0.000000 0.043164
#
#
# Mechanical properties :
#
#
# Convention : Reuss Voigt Hill
#
# Bulk Modulus (GPa) = 45.33686 56.54528 50.94107
# Shear Modulus (GPa) = 19.84986 21.90992 20.87989
#
# Velocity S-wave (km/s) = 3.22818 3.39156 3.31088
# Velocity P-wave (km/s) = 6.13976 6.70992 6.43116
#
# Compressibility (1/GPa) = 0.02205711
#
# Stress axis : x y z
#
# Youngs Moduli (GPa) = 59.73228 35.71928 66.18294
#
# Poissons Ratio (x) = 0.38706 0.45758
# Poissons Ratio (y) = 0.64728 0.07577
# Poissons Ratio (z) = 0.41298 0.04089
#
# Static dielectric constant tensor:
#      x y z
#    x 1.691180 0.000000 0.000000 
#    y 0.000000 1.684810 0.000000 
#    z 0.000000 0.000000 1.679280 
# 
# From -- ./inp_files/26323.got.cif
#   From: 2010.05.17/outbox.cif.g08.bks.cpg/sg50_14_cif.got.tgz:26323.got - 2010.06.03 11:33:33.
