data_PCOD9395131
_publ_section_title
;
Structure prediction by ZEFSAII (Michael W. Deem and Ramdas Pophale) SiO2 
 PCOD9395131
Probable space group: P C C M
;
_chemical_formula_sum "Si O2"
_cell_formula_units_Z 64
_cell_length_a 21.413345
_cell_length_b 9.847376
_cell_length_c 16.276275
_cell_angle_alpha 90.000000
_cell_angle_beta 90.000000
_cell_angle_gamma 90.000000
_cell_volume 3432.100954
_symmetry_space_group_name_H-M "P C C M"
_symmetry_group_IT_number 49
_symmetry_cell_setting 'orthorhombic'
loop_
_space_group_symop_operation_xyz
x,y,z
-x,-y,z
x,-y,1/2-z
-x,y,1/2-z
-x,-y,-z
x,y,-z
-x,y,1/2+z
x,-y,1/2+z
loop_
_atom_site_type_symbol
_atom_site_label
_atom_site_fract_x
_atom_site_fract_y
_atom_site_fract_z
Si Si1 0.500095 0.654039 0.652172
Si Si2 0.133608 0.343633 0.598951
Si Si3 0.246282 0.156413 0.100281
Si Si4 0.866205 0.344489 0.598965
Si Si5 0.753938 0.844509 0.600280
Si Si6 0.000085 0.656962 0.347992
Si Si7 0.387280 0.155397 0.599158
Si Si8 0.612520 0.844764 0.099149
O O1 0.500000 0.500000 0.618635
O O2 0.500000 0.646139 0.750000
O O3 0.560959 0.738631 0.626283
O O4 0.439388 0.739053 0.626153
O O5 0.136593 0.347594 0.500000
O O6 0.137514 0.499559 0.629409
O O7 0.191675 0.254940 0.629303
O O8 0.065793 0.284600 0.622343
O O9 0.191983 0.256120 0.129272
O O10 0.316969 0.191565 0.126151
O O11 0.234173 0.000497 0.124300
O O12 0.245997 0.159966 0.000000
O O13 0.863295 0.348411 0.500000
O O14 0.933926 0.285038 0.622457
O O15 0.754237 0.840993 0.500000
O O16 0.683298 0.808836 0.626112
O O17 0.000000 0.500000 0.379050
O O18 0.000000 0.655709 0.250000
O O19 0.387268 0.152855 0.500000
O O20 0.401032 0.000116 0.626623
O O21 0.612605 0.847430 0.000000
#
# Coordination Sequence:
#
# PCOD9395131 Si02
#       8
#     8   8   8   8   8   8   8   8
#     4  11  24  37  48  70 104 135 164 201 242 284
#     4   9  16  27  46  70  92 117 153 193 229 271
#     4   8  15  29  49  73  98 120 147 189 237 282
#     4   9  16  27  46  70  92 117 153 193 229 271
#     4   8  15  29  49  73  98 120 147 189 237 282
#     4   9  17  29  44  63  90 124 158 191 230 274
#     4   9  18  34  56  78  98 125 163 202 241 291
#     4   9  18  34  56  78  98 125 163 202 241 291
#
# _framework density 18.647469999999998
#
# number of rings (size 3 to 8) (size 9 to 14) (size 15 to 20)
#    0.000    3.000    0.000    2.625    0.000    5.500 
#    0.000    4.375    0.000    9.000    0.000    0.000 
#    0.000    0.000    0.000    0.000    0.000    0.000 
#
# Total GULP energy -356665.152809 kJ/mol
# GULP energy per Si atom -5572.893013 kJ/mol
# Density = 1.860503 g / cm^3
# Si number density = 18.647470 Si / 1000 Ang^3
#
#
#
# Elastic Constant Matrix: (Units=GPa)
#
#
# Indices 1 2 3 4 5 6 
#
# 1 206.6350 121.2577 15.5282 0.0000 0.0000 0.0000
# 2 121.2577 105.9625 12.0676 0.0000 0.0000 0.0000
# 3 15.5282 12.0676 10.3845 0.0000 0.0000 0.0000
# 4 0.0000 0.0000 0.0000 8.6952 0.0000 0.0000
# 5 0.0000 0.0000 0.0000 0.0000 -36.9197 0.0000
# 6 0.0000 0.0000 0.0000 0.0000 0.0000 38.7411
#
#
#
# Elastic Compliance Matrix: (Units=1/GPa)
#
#
# Indices 1 2 3 4 5 6 
#
# 1 0.014805 -0.016620 -0.002824 0.000000 0.000000 0.000000
# 2 -0.016620 0.029535 -0.009469 0.000000 0.000000 0.000000
# 3 -0.002824 -0.009469 0.111524 0.000000 0.000000 0.000000
# 4 0.000000 0.000000 0.000000 0.115006 0.000000 0.000000
# 5 0.000000 0.000000 0.000000 0.000000 -0.027086 0.000000
# 6 0.000000 0.000000 0.000000 0.000000 0.000000 0.025812
#
#
# Mechanical properties :
#
#
# Convention : Reuss Voigt Hill
#
# Bulk Modulus (GPa) = 10.20025 68.96544 39.58285
# Shear Modulus (GPa) = 13.88498 13.71191 13.79844
#
# Velocity S-wave (km/s) = 2.73170 2.71463 2.72318
# Velocity P-wave (km/s) = 3.92830 6.84760 5.58217
#
# Compressibility (1/GPa) = 0.09803679
#
# Stress axis : x y z
#
# Youngs Moduli (GPa) = 67.54653 33.85845 8.96667
#
# Poissons Ratio (x) = 0.56273 0.02532
# Poissons Ratio (y) = 1.12262 0.08491
# Poissons Ratio (z) = 0.19075 0.32062
#
# Static dielectric constant tensor:
#      x y z
#    x 1.652260 0.000000 0.000000 
#    y 0.000000 1.642470 0.000000 
#    z 0.000000 0.000000 1.648360 
# 
# From -- ./inp_files/18320.got.cif
#   From: 2010.05.17/outbox.cif.g08.bks.cpg/sg49_10_cif.got.tgz:18320.got - 2010.06.03 21:02:19.
