data_PCOD9395889
_publ_section_title
;
Structure prediction by ZEFSAII (Michael W. Deem and Ramdas Pophale) SiO2 
 PCOD9395889
Probable space group: P B A N
;
_chemical_formula_sum "Si O2"
_cell_formula_units_Z 56
_cell_length_a 5.321329
_cell_length_b 15.965191
_cell_length_c 33.949841
_cell_angle_alpha 90.000000
_cell_angle_beta 90.000000
_cell_angle_gamma 90.000000
_cell_volume 2884.243841
_symmetry_space_group_name_H-M "P B A N"
_symmetry_group_IT_number 50
_space_group.IT_coordinate_system_code '2'
_symmetry_cell_setting 'orthorhombic'
loop_
_space_group_symop_operation_xyz
x,y,z
1/2-x,1/2-y,z
x,1/2-y,-z
1/2-x,y,-z
-x,-y,-z
1/2+x,1/2+y,-z
-x,1/2+y,z
1/2+x,-y,z
loop_
_atom_site_type_symbol
_atom_site_label
_atom_site_fract_x
_atom_site_fract_y
_atom_site_fract_z
Si Si1 0.499940 0.715813 0.544485
Si Si2 0.999920 0.595917 0.017259
Si Si3 0.039743 0.945773 0.664182
Si Si4 0.500482 0.305205 0.184552
Si Si5 0.000537 0.693404 0.093112
Si Si6 0.043742 0.055530 0.250577
Si Si7 0.432636 0.448415 0.420320
O O1 0.250000 0.750000 0.564054
O O2 0.499648 0.750000 0.500000
O O3 0.511340 0.616629 0.545411
O O4 0.750000 0.750000 0.564321
O O5 0.999348 0.614115 0.063620
O O6 0.750000 0.635868 0.000000
O O7 0.250000 0.635739 0.000000
O O8 0.000000 0.500000 0.000000
O O9 0.989569 0.902669 0.706059
O O10 0.984165 0.904229 0.622084
O O11 0.326021 0.980156 0.664003
O O12 0.750000 0.250000 0.190941
O O13 0.504332 0.333483 0.138829
O O14 0.491364 0.380492 0.215194
O O15 0.250000 0.250000 0.189722
O O16 0.250000 0.750000 0.086331
O O17 0.750000 0.750000 0.087060
O O18 0.817999 0.987423 0.248612
O O19 0.147575 0.480565 0.422069
#
# Coordination Sequence:
#
# PCOD9395889 Si02
#       7
#     8   8   8   8   8   8   8
#     4  10  21  38  53  74 111 144 171 226 291 322
#     4  10  21  37  53  78 107 133 167 225 271 299
#     4   8  16  30  52  78 110 136 175 228 271 311
#     4  10  21  38  56  80 116 147 180 223 266 320
#     4  10  21  37  57  78 104 143 178 210 262 319
#     4  10  19  35  56  85 111 145 184 221 269 324
#     4  10  19  35  58  81 101 142 190 229 264 327
#
# _framework density 19.415834
#
# number of rings (size 3 to 8) (size 9 to 14) (size 15 to 20)
#    0.000    2.286    0.000    2.571    0.000    1.714 
#    5.143   10.000    0.000    0.000    0.000    0.000 
#    0.000    0.000    0.000    0.000    0.000    0.000 
#
# Total GULP energy -311847.093274 kJ/mol
# GULP energy per Si atom -5568.698094 kJ/mol
# Density = 1.937164 g / cm^3
# Si number density = 19.415834 Si / 1000 Ang^3
#
#
#
# Elastic Constant Matrix: (Units=GPa)
#
#
# Indices 1 2 3 4 5 6 
#
# 1 148.5685 2.5155 3.5010 0.0000 0.0000 0.0000
# 2 2.5155 38.1589 45.2169 0.0000 0.0000 0.0000
# 3 3.5010 45.2169 110.5170 0.0000 0.0000 0.0000
# 4 0.0000 0.0000 0.0000 14.8361 0.0000 0.0000
# 5 0.0000 0.0000 0.0000 0.0000 -63.5827 0.0000
# 6 0.0000 0.0000 0.0000 0.0000 0.0000 10.8132
#
#
#
# Elastic Compliance Matrix: (Units=1/GPa)
#
#
# Indices 1 2 3 4 5 6 
#
# 1 0.006739 -0.000371 -0.000062 0.000000 0.000000 0.000000
# 2 -0.000371 0.050888 -0.020809 0.000000 0.000000 0.000000
# 3 -0.000062 -0.020809 0.017564 0.000000 0.000000 0.000000
# 4 0.000000 0.000000 0.000000 0.067403 0.000000 0.000000
# 5 0.000000 0.000000 0.000000 0.000000 -0.015728 0.000000
# 6 0.000000 0.000000 0.000000 0.000000 0.000000 0.092479
#
#
# Mechanical properties :
#
#
# Convention : Reuss Voigt Hill
#
# Bulk Modulus (GPa) = 30.57373 44.41236 37.49304
# Shear Modulus (GPa) = 18.33309 8.81406 13.57357
#
# Velocity S-wave (km/s) = 3.07617 2.13295 2.64692
# Velocity P-wave (km/s) = 5.32899 5.38423 5.35668
#
# Compressibility (1/GPa) = 0.03270782
#
# Stress axis : x y z
#
# Youngs Moduli (GPa) = 148.39787 19.65098 56.93479
#
# Poissons Ratio (x) = 0.00730 0.00351
# Poissons Ratio (y) = 0.05510 1.18473
# Poissons Ratio (z) = 0.00914 0.40891
#
# Static dielectric constant tensor:
#      x y z
#    x 1.717870 0.000000 0.000000 
#    y 0.000000 1.668260 0.000000 
#    z 0.000000 0.000000 1.722860 
# 
# From -- ./inp_files/32382.got.cif
#   From: 2010.05.17/outbox.cif.g08.bks.cpg/sg50_17_cif.got.tgz:32382.got - 2010.06.03 11:33:33.
