data_PCOD9395221
_publ_section_title
;
Structure prediction by ZEFSAII (Michael W. Deem and Ramdas Pophale) SiO2 
 PCOD9395221
Probable space group: P C C M
;
_chemical_formula_sum "Si O2"
_cell_formula_units_Z 64
_cell_length_a 15.000000
_cell_length_b 24.000000
_cell_length_c 9.000000
_cell_angle_alpha 90.000000
_cell_angle_beta 90.000000
_cell_angle_gamma 90.000000
_cell_volume 3240.000000
_symmetry_space_group_name_H-M "P C C M"
_symmetry_group_IT_number 49
_symmetry_cell_setting 'orthorhombic'
loop_
_space_group_symop_operation_xyz
x,y,z
-x,-y,z
x,-y,1/2-z
-x,y,1/2-z
-x,-y,-z
x,y,-z
-x,y,1/2+z
x,-y,1/2+z
loop_
_atom_site_type_symbol
_atom_site_label
_atom_site_fract_x
_atom_site_fract_y
_atom_site_fract_z
Si Si1 0.586923 0.356626 0.176974
Si Si2 0.128872 0.713746 0.829864
Si Si3 0.082762 0.829215 0.326557
Si Si4 0.090654 0.402648 0.176633
Si Si5 0.669217 0.246351 0.828960
Si Si6 0.717505 0.135379 0.670792
Si Si7 0.585932 0.939936 0.325606
Si Si8 0.266641 0.445614 0.677452
O O1 0.500000 0.381324 0.250000
O O2 0.601481 0.293051 0.224876
O O3 0.672364 0.393018 0.213298
O O4 0.578281 0.355975 0.000000
O O5 0.094140 0.771014 0.760355
O O6 0.103558 0.661293 0.730469
O O7 0.235213 0.722544 0.834655
O O8 0.097781 0.705270 0.000000
O O9 0.065916 0.818816 0.500000
O O10 0.176290 0.860666 0.314018
O O11 0.000000 0.859387 0.250000
O O12 0.172599 0.435863 0.245172
O O13 0.000000 0.423248 0.250000
O O14 0.088498 0.406093 0.000000
O O15 0.679040 0.195163 0.718972
O O16 0.649937 0.228453 0.000000
O O17 0.695039 0.122223 0.500000
O O18 0.674135 0.092517 0.782842
O O19 0.500000 0.911133 0.250000
O O20 0.572639 0.944524 0.500000
O O21 0.592160 0.000000 0.250000
O O22 0.308904 0.500000 0.750000
O O23 0.257413 0.450395 0.500000
#
# Coordination Sequence:
#
# PCOD9395221 Si02
#       8
#     8   8   8   8   8   8   8   8
#     4  10  22  40  62  87 117 149 188 233 286 345
#     4  10  18  33  55  79 113 152 192 236 283 338
#     4  10  20  33  51  80 118 159 202 244 289 341
#     4  12  24  38  59  86 114 148 187 231 284 344
#     4   9  18  35  56  81 116 157 191 233 287 341
#     4  10  21  36  56  87 122 158 200 246 290 347
#     4  11  22  39  63  89 119 156 198 247 298 350
#     4  11  24  45  65  86 113 145 186 237 288 343
#
# _framework density 19.753086
#
# number of rings (size 3 to 8) (size 9 to 14) (size 15 to 20)
#    0.000    1.625    1.250    4.500    0.000    4.500 
#    0.000    3.750    0.000    0.375    0.000    2.625 
#    0.000    0.000    0.000    0.000    0.000    0.000 
#
# Total GULP energy -357291.653186 kJ/mol
# GULP energy per Si atom -5582.682081 kJ/mol
# Density = 1.970813 g / cm^3
# Si number density = 19.753086 Si / 1000 Ang^3
#
#
#
# Elastic Constant Matrix: (Units=GPa)
#
#
# Indices 1 2 3 4 5 6 
#
# 1 73.7912 32.8788 56.6327 0.0000 0.0000 0.0000
# 2 32.8788 39.9942 26.7376 0.0000 0.0000 0.0000
# 3 56.6327 26.7376 113.1126 0.0000 0.0000 0.0000
# 4 0.0000 0.0000 0.0000 18.5046 0.0000 0.0000
# 5 0.0000 0.0000 0.0000 0.0000 29.6827 0.0000
# 6 0.0000 0.0000 0.0000 0.0000 0.0000 15.8895
#
#
#
# Elastic Compliance Matrix: (Units=1/GPa)
#
#
# Indices 1 2 3 4 5 6 
#
# 1 0.029279 -0.016948 -0.010653 0.000000 0.000000 0.000000
# 2 -0.016948 0.039507 -0.000853 0.000000 0.000000 0.000000
# 3 -0.010653 -0.000853 0.014376 0.000000 0.000000 0.000000
# 4 0.000000 0.000000 0.000000 0.054040 0.000000 0.000000
# 5 0.000000 0.000000 0.000000 0.000000 0.033690 0.000000
# 6 0.000000 0.000000 0.000000 0.000000 0.000000 0.062935
#
#
# Mechanical properties :
#
#
# Convention : Reuss Voigt Hill
#
# Bulk Modulus (GPa) = 38.09030 51.04402 44.56716
# Shear Modulus (GPa) = 16.69520 20.19196 18.44358
#
# Velocity S-wave (km/s) = 2.91038 3.20068 3.05898
# Velocity P-wave (km/s) = 5.53343 6.28938 5.92347
#
# Compressibility (1/GPa) = 0.02625340
#
# Stress axis : x y z
#
# Youngs Moduli (GPa) = 34.15382 25.31208 69.55935
#
# Poissons Ratio (x) = 0.42899 0.74103
# Poissons Ratio (y) = 0.57884 0.05934
# Poissons Ratio (z) = 0.36385 0.02159
#
# Static dielectric constant tensor:
#      x y z
#    x 1.761300 0.000000 0.000000 
#    y 0.000000 1.747540 0.000000 
#    z 0.000000 0.000000 1.656040 
# 
# From -- ./inp_files/4357.got.cif
#   From: 2010.05.17/outbox.ucp.g08.bks.cvg/sg49_3_cif.got.tgz:4357.got - 2010.06.11 16:40:14.
