data_PCOD9395003
_publ_section_title
;
Structure prediction by ZEFSAII (Michael W. Deem and Ramdas Pophale) SiO2 
 PCOD9395003
Probable space group: P C C M
;
_chemical_formula_sum "Si O2"
_cell_formula_units_Z 38
_cell_length_a 5.340016
_cell_length_b 16.941850
_cell_length_c 25.552170
_cell_angle_alpha 90.000000
_cell_angle_beta 90.000000
_cell_angle_gamma 90.000000
_cell_volume 2311.698434
_symmetry_space_group_name_H-M "P C C M"
_symmetry_group_IT_number 49
_symmetry_cell_setting 'orthorhombic'
loop_
_space_group_symop_operation_xyz
x,y,z
-x,-y,z
x,-y,1/2-z
-x,y,1/2-z
-x,-y,-z
x,y,-z
-x,y,1/2+z
x,-y,1/2+z
loop_
_atom_site_type_symbol
_atom_site_label
_atom_site_fract_x
_atom_site_fract_y
_atom_site_fract_z
Si Si1 0.333977 0.273740 0.062079
Si Si2 0.887234 0.086918 0.193432
Si Si3 0.750474 0.946986 0.500000
Si Si4 0.750693 0.545825 0.936337
Si Si5 0.500000 0.000000 0.750000
Si Si6 0.172782 0.818554 0.089710
O O1 0.273531 0.363003 0.079580
O O2 0.580499 0.236939 0.089196
O O3 0.078875 0.224314 0.069629
O O4 0.394012 0.275002 0.000000
O O5 0.610993 0.062263 0.208975
O O6 0.893902 0.146922 0.146534
O O7 0.000000 0.111183 0.250000
O O8 0.000000 0.000000 0.180302
O O9 0.760265 0.890386 0.449370
O O10 0.500000 0.000000 0.500000
O O11 0.000000 0.000000 0.500000
O O12 0.500000 0.500000 0.920572
O O13 0.000000 0.500000 0.918455
O O14 0.759348 0.545907 0.000000
#
# Coordination Sequence:
#
# PCOD9395003 Si02
#       6
#     8   8   4   8   2   8
#     4  11  21  36  51  79 115 146 176 211 277 318
#     4   9  21  37  55  75  97 138 188 238 280 314
#     4  12  24  36  50  74 104 148 192 212 256 328
#     4   9  17  30  51  74 102 143 180 208 242 314
#     4   8  18  36  56  72  92 132 184 244 286 306
#     4  12  23  36  54  76 111 145 178 230 273 319
#
# _framework density 16.438130000000001
#
# number of rings (size 3 to 8) (size 9 to 14) (size 15 to 20)
#    0.000    1.895    2.105    3.158    7.368    3.368 
#    0.000    0.000    0.000    0.000    0.000    0.000 
#    0.000   12.632    0.000    0.000    0.000    0.000 
#
# Total GULP energy -211536.766201 kJ/mol
# GULP energy per Si atom -5566.757005 kJ/mol
# Density = 1.640072 g / cm^3
# Si number density = 16.438130 Si / 1000 Ang^3
#
#
#
# Elastic Constant Matrix: (Units=GPa)
#
#
# Indices 1 2 3 4 5 6 
#
# 1 106.7511 57.5973 22.4123 0.0000 0.0000 0.0000
# 2 57.5973 112.3929 45.0662 0.0000 0.0000 0.0000
# 3 22.4123 45.0662 70.6343 0.0000 0.0000 0.0000
# 4 0.0000 0.0000 0.0000 12.0986 0.0000 0.0000
# 5 0.0000 0.0000 0.0000 0.0000 32.2662 0.0000
# 6 0.0000 0.0000 0.0000 0.0000 0.0000 37.4735
#
#
#
# Elastic Compliance Matrix: (Units=1/GPa)
#
#
# Indices 1 2 3 4 5 6 
#
# 1 0.012949 -0.006703 0.000168 0.000000 0.000000 0.000000
# 2 -0.006703 0.015426 -0.007715 0.000000 0.000000 0.000000
# 3 0.000168 -0.007715 0.019027 0.000000 0.000000 0.000000
# 4 0.000000 0.000000 0.000000 0.082654 0.000000 0.000000
# 5 0.000000 0.000000 0.000000 0.000000 0.030992 0.000000
# 6 0.000000 0.000000 0.000000 0.000000 0.000000 0.026686
#
#
# Mechanical properties :
#
#
# Convention : Reuss Voigt Hill
#
# Bulk Modulus (GPa) = 52.90761 59.99223 56.44992
# Shear Modulus (GPa) = 22.46837 27.34783 24.90810
#
# Velocity S-wave (km/s) = 3.70110 4.08325 3.89686
# Velocity P-wave (km/s) = 7.10774 7.66848 7.39343
#
# Compressibility (1/GPa) = 0.01890087
#
# Stress axis : x y z
#
# Youngs Moduli (GPa) = 77.22571 64.82495 52.55812
#
# Poissons Ratio (x) = 0.43454 -0.00884
# Poissons Ratio (y) = 0.51767 0.40550
# Poissons Ratio (z) = -0.01298 0.50014
#
# Static dielectric constant tensor:
#      x y z
#    x 1.625520 0.000000 0.000000 
#    y 0.000000 1.550000 0.000000 
#    z 0.000000 0.000000 1.514560 
# 
# From -- ./inp_files/21744.got.cif
#   From: 2010.05.17/outbox.cif.g08.bks.cpg/sg49_11_cif.got.tgz:21744.got - 2010.06.03 21:02:19.
