data_PCOD9395766
_publ_section_title
;
Structure prediction by ZEFSAII (Michael W. Deem and Ramdas Pophale) SiO2 
 PCOD9395766
Probable space group: P B A N
;
_chemical_formula_sum "Si O2"
_cell_formula_units_Z 64
_cell_length_a 18.541588
_cell_length_b 9.725174
_cell_length_c 17.565414
_cell_angle_alpha 90.000000
_cell_angle_beta 90.000000
_cell_angle_gamma 90.000000
_cell_volume 3167.398430
_symmetry_space_group_name_H-M "P B A N"
_symmetry_group_IT_number 50
_space_group.IT_coordinate_system_code '2'
_symmetry_cell_setting 'orthorhombic'
loop_
_space_group_symop_operation_xyz
x,y,z
1/2-x,1/2-y,z
x,1/2-y,-z
1/2-x,y,-z
-x,-y,-z
1/2+x,1/2+y,-z
-x,1/2+y,z
1/2+x,-y,z
loop_
_atom_site_type_symbol
_atom_site_label
_atom_site_fract_x
_atom_site_fract_y
_atom_site_fract_z
Si Si1 0.834965 0.702902 0.584365
Si Si2 0.830947 0.499553 0.152749
Si Si3 0.462908 0.792377 0.662868
Si Si4 0.672360 0.253492 0.252196
Si Si5 0.904842 0.787532 0.744165
Si Si6 0.452168 0.518519 0.575928
Si Si7 0.662195 0.408687 0.006463
Si Si8 0.664282 0.966792 0.830976
O O1 0.750000 0.750000 0.589012
O O2 0.858950 0.750000 0.500000
O O3 0.870574 0.772726 0.659050
O O4 0.871034 0.548127 0.581894
O O5 0.822096 0.340356 0.176959
O O6 0.881534 0.577014 0.211699
O O7 0.750387 0.561031 0.161411
O O8 0.859650 0.497753 0.067056
O O9 0.384163 0.815975 0.693351
O O10 0.510502 0.727359 0.730430
O O11 0.455626 0.677576 0.597810
O O12 0.503267 0.927870 0.636454
O O13 0.750000 0.250000 0.289966
O O14 0.654179 0.407441 0.227858
O O15 0.875298 0.663494 0.796188
O O16 0.500000 0.500000 0.500000
O O17 0.641348 0.479394 0.085820
O O18 0.637675 0.250000 0.000000
O O19 0.750000 0.405819 0.000000
#
# Coordination Sequence:
#
# PCOD9395766 Si02
#       8
#     8   8   8   8   8   8   8   8
#     4  10  21  38  61  90 125 165 204 252 312 371
#     4  10  19  32  56  86 115 151 202 254 297 358
#     4  11  23  39  61  86 120 158 202 259 309 374
#     4  10  20  35  57  83 109 146 193 244 302 361
#     4  11  22  36  55  85 122 159 201 247 308 370
#     4  11  22  41  65  89 119 166 215 253 309 382
#     4   9  16  31  54  83 116 156 205 248 302 367
#     4  10  19  33  56  82 117 157 197 251 302 361
#
# _framework density 20.205857000000002
#
# number of rings (size 3 to 8) (size 9 to 14) (size 15 to 20)
#    0.000    1.750    1.250    5.250    0.000    1.500 
#    0.000    4.375    0.000    5.250    0.000    0.000 
#    0.000    0.000    0.000    0.000    0.000    0.000 
#
# Total GULP energy -356819.961586 kJ/mol
# GULP energy per Si atom -5575.311900 kJ/mol
# Density = 2.015987 g / cm^3
# Si number density = 20.205857 Si / 1000 Ang^3
#
#
#
# Elastic Constant Matrix: (Units=GPa)
#
#
# Indices 1 2 3 4 5 6 
#
# 1 70.0789 5.4168 15.1784 0.0000 0.0000 0.0000
# 2 5.4168 65.7068 14.9737 0.0000 0.0000 0.0000
# 3 15.1784 14.9737 95.7743 0.0000 0.0000 0.0000
# 4 0.0000 0.0000 0.0000 26.9911 0.0000 0.0000
# 5 0.0000 0.0000 0.0000 0.0000 8.0136 0.0000
# 6 0.0000 0.0000 0.0000 0.0000 0.0000 24.9322
#
#
#
# Elastic Compliance Matrix: (Units=1/GPa)
#
#
# Indices 1 2 3 4 5 6 
#
# 1 0.014809 -0.000711 -0.002236 0.000000 0.000000 0.000000
# 2 -0.000711 0.015816 -0.002360 0.000000 0.000000 0.000000
# 3 -0.002236 -0.002360 0.011164 0.000000 0.000000 0.000000
# 4 0.000000 0.000000 0.000000 0.037049 0.000000 0.000000
# 5 0.000000 0.000000 0.000000 0.000000 0.124788 0.000000
# 6 0.000000 0.000000 0.000000 0.000000 0.000000 0.040109
#
#
# Mechanical properties :
#
#
# Convention : Reuss Voigt Hill
#
# Bulk Modulus (GPa) = 32.07703 33.63309 32.85506
# Shear Modulus (GPa) = 18.88640 25.05345 21.96993
#
# Velocity S-wave (km/s) = 3.06060 3.52506 3.30101
# Velocity P-wave (km/s) = 5.32910 5.76623 5.55197
#
# Compressibility (1/GPa) = 0.03117496
#
# Stress axis : x y z
#
# Youngs Moduli (GPa) = 67.52724 63.22882 89.56971
#
# Poissons Ratio (x) = 0.04498 0.20025
# Poissons Ratio (y) = 0.04803 0.21138
# Poissons Ratio (z) = 0.15097 0.14922
#
# Static dielectric constant tensor:
#      x y z
#    x 1.749630 0.000000 0.000000 
#    y 0.000000 1.772170 0.000000 
#    z 0.000000 0.000000 1.732670 
# 
# From -- ./inp_files/29873.got.cif
#   From: 2010.05.17/outbox.cif.g08.bks.cpg/sg50_15_cif.got.tgz:29873.got - 2010.06.03 11:33:33.
