data_PCOD9395922
_publ_section_title
;
Structure prediction by ZEFSAII (Michael W. Deem and Ramdas Pophale) SiO2 
 PCOD9395922
Probable space group: P B A N
;
_chemical_formula_sum "Si O2"
_cell_formula_units_Z 48
_cell_length_a 27.898165
_cell_length_b 9.053222
_cell_length_c 7.799840
_cell_angle_alpha 90.000000
_cell_angle_beta 90.000000
_cell_angle_gamma 90.000000
_cell_volume 1969.992182
_symmetry_space_group_name_H-M "P B A N"
_symmetry_group_IT_number 50
_space_group.IT_coordinate_system_code '2'
_symmetry_cell_setting 'orthorhombic'
loop_
_space_group_symop_operation_xyz
x,y,z
1/2-x,1/2-y,z
x,1/2-y,-z
1/2-x,y,-z
-x,-y,-z
1/2+x,1/2+y,-z
-x,1/2+y,z
1/2+x,-y,z
loop_
_atom_site_type_symbol
_atom_site_label
_atom_site_fract_x
_atom_site_fract_y
_atom_site_fract_z
Si Si1 0.664830 0.113712 0.385897
Si Si2 0.248124 0.071304 0.199177
Si Si3 0.495404 0.506857 0.791363
Si Si4 0.069013 0.269639 0.792933
Si Si5 0.091457 0.812240 0.820812
Si Si6 0.854829 0.935557 0.304894
O O1 0.686089 0.250000 0.500000
O O2 0.627218 0.196428 0.263557
O O3 0.704734 0.014525 0.290981
O O4 0.634605 0.012425 0.515665
O O5 0.250000 0.250000 0.202749
O O6 0.298477 0.042507 0.289672
O O7 0.250000 0.025633 0.000000
O O8 0.469986 0.355222 0.737180
O O9 0.547040 0.572406 0.742258
O O10 0.456520 0.629654 0.732526
O O11 0.500000 0.500000 0.000000
O O12 0.120548 0.222366 0.717740
O O13 0.072579 0.250000 0.000000
O O14 0.121808 0.962721 0.842094
O O15 0.074963 0.750000 0.000000
#
# Coordination Sequence:
#
# PCOD9395922 Si02
#       6
#     8   8   8   8   8   8
#     4  10  23  43  65  95 131 175 217 269 337 406
#     4  11  25  44  68  96 131 172 224 282 340 405
#     4   9  17  33  56  91 125 168 216 283 331 382
#     4   9  18  33  59  88 125 165 222 270 326 392
#     4  10  19  35  62  91 124 165 228 276 319 389
#     4  10  22  38  60  90 127 172 209 269 339 399
#
# _framework density 24.365577999999999
#
# number of rings (size 3 to 8) (size 9 to 14) (size 15 to 20)
#    0.000    2.167    0.000    3.000    2.333    6.000 
#    6.000    5.000    0.000    4.000    0.000    0.000 
#    0.000    0.000    0.000    0.000    0.000    0.000 
#
# Total GULP energy -267916.011867 kJ/mol
# GULP energy per Si atom -5581.583581 kJ/mol
# Density = 2.431012 g / cm^3
# Si number density = 24.365578 Si / 1000 Ang^3
#
#
#
# Elastic Constant Matrix: (Units=GPa)
#
#
# Indices 1 2 3 4 5 6 
#
# 1 115.2178 57.3631 22.3571 0.0000 0.0000 0.0000
# 2 57.3631 95.1438 42.1868 0.0000 0.0000 0.0000
# 3 22.3571 42.1868 53.4254 0.0000 0.0000 0.0000
# 4 0.0000 0.0000 0.0000 26.4576 0.0000 0.0000
# 5 0.0000 0.0000 0.0000 0.0000 7.9474 0.0000
# 6 0.0000 0.0000 0.0000 0.0000 0.0000 47.4907
#
#
#
# Elastic Compliance Matrix: (Units=1/GPa)
#
#
# Indices 1 2 3 4 5 6 
#
# 1 0.012444 -0.007992 0.001103 0.000000 0.000000 0.000000
# 2 -0.007992 0.021305 -0.013479 0.000000 0.000000 0.000000
# 3 0.001103 -0.013479 0.028900 0.000000 0.000000 0.000000
# 4 0.000000 0.000000 0.000000 0.037796 0.000000 0.000000
# 5 0.000000 0.000000 0.000000 0.000000 0.125828 0.000000
# 6 0.000000 0.000000 0.000000 0.000000 0.000000 0.021057
#
#
# Mechanical properties :
#
#
# Convention : Reuss Voigt Hill
#
# Bulk Modulus (GPa) = 45.63406 56.40010 51.01708
# Shear Modulus (GPa) = 16.92788 25.83778 21.38283
#
# Velocity S-wave (km/s) = 2.63866 3.25994 2.96562
# Velocity P-wave (km/s) = 5.29650 6.11288 5.71928
#
# Compressibility (1/GPa) = 0.02191346
#
# Stress axis : x y z
#
# Youngs Moduli (GPa) = 80.36021 46.93646 34.60226
#
# Poissons Ratio (x) = 0.37510 -0.03817
# Poissons Ratio (y) = 0.64221 0.46641
# Poissons Ratio (z) = -0.08865 0.63267
#
# Static dielectric constant tensor:
#      x y z
#    x 1.960160 0.000000 0.000000 
#    y 0.000000 2.079910 0.000000 
#    z 0.000000 0.000000 1.976930 
# 
# From -- ./inp_files/16974.got.cif
#   From: 2010.05.17/outbox.cif.g08.bks.cpg/sg50_9_cif.got.tgz:16974.got - 2010.06.03 11:33:33.
