data_PCOD9395804
_publ_section_title
;
Structure prediction by ZEFSAII (Michael W. Deem and Ramdas Pophale) SiO2 
 PCOD9395804
Probable space group: P B A N
;
_chemical_formula_sum "Si O2"
_cell_formula_units_Z 40
_cell_length_a 17.975457
_cell_length_b 12.241343
_cell_length_c 9.179035
_cell_angle_alpha 90.000000
_cell_angle_beta 90.000000
_cell_angle_gamma 90.000000
_cell_volume 2019.789143
_symmetry_space_group_name_H-M "P B A N"
_symmetry_group_IT_number 50
_space_group.IT_coordinate_system_code '2'
_symmetry_cell_setting 'orthorhombic'
loop_
_space_group_symop_operation_xyz
x,y,z
1/2-x,1/2-y,z
x,1/2-y,-z
1/2-x,y,-z
-x,-y,-z
1/2+x,1/2+y,-z
-x,1/2+y,z
1/2+x,-y,z
loop_
_atom_site_type_symbol
_atom_site_label
_atom_site_fract_x
_atom_site_fract_y
_atom_site_fract_z
Si Si1 0.138712 0.518527 0.617951
Si Si2 0.827224 0.801318 0.160074
Si Si3 0.123989 0.740429 0.326149
Si Si4 0.307615 0.973793 0.290442
Si Si5 0.455683 0.193017 0.657607
O O1 0.120376 0.630719 0.702481
O O2 0.144173 0.519021 0.440593
O O3 0.223247 0.498355 0.666597
O O4 0.078932 0.427167 0.654061
O O5 0.750000 0.750000 0.224755
O O6 0.899666 0.761363 0.243891
O O7 0.827022 0.932766 0.174181
O O8 0.830705 0.750000 0.000000
O O9 0.143305 0.750000 0.500000
O O10 0.180546 0.654380 0.253312
O O11 0.041692 0.694253 0.298920
O O12 0.453993 0.250000 0.500000
#
# Coordination Sequence:
#
# PCOD9395804 Si02
#       5
#     8   8   8   8   8
#     4  10  19  33  57  89 117 148 196 238 288 354
#     4  11  23  38  56  84 116 151 195 244 295 341
#     4   9  21  33  55  88 123 151 182 242 301 349
#     4  10  19  35  58  82 118 154 192 237 289 350
#     4  11  21  34  59  88 117 147 190 243 296 347
#
# _framework density 19.804047000000001
#
# number of rings (size 3 to 8) (size 9 to 14) (size 15 to 20)
#    0.000    1.800    4.000    0.600    2.800    5.200 
#    0.000    1.000    0.000    0.000    0.000    0.000 
#    0.000    0.000    0.000    0.000    0.000    0.000 
#
# Total GULP energy -222760.108188 kJ/mol
# GULP energy per Si atom -5569.002705 kJ/mol
# Density = 1.975897 g / cm^3
# Si number density = 19.804047 Si / 1000 Ang^3
#
#
#
# Elastic Constant Matrix: (Units=GPa)
#
#
# Indices 1 2 3 4 5 6 
#
# 1 49.7576 16.7963 14.3483 0.0000 0.0000 0.0000
# 2 16.7963 153.4515 12.4773 0.0000 0.0000 0.0000
# 3 14.3483 12.4773 24.5889 0.0000 0.0000 0.0000
# 4 0.0000 0.0000 0.0000 21.6400 0.0000 0.0000
# 5 0.0000 0.0000 0.0000 0.0000 39.3981 0.0000
# 6 0.0000 0.0000 0.0000 0.0000 0.0000 28.3086
#
#
#
# Elastic Compliance Matrix: (Units=1/GPa)
#
#
# Indices 1 2 3 4 5 6 
#
# 1 0.024528 -0.001586 -0.013508 0.000000 0.000000 0.000000
# 2 -0.001586 0.006900 -0.002575 0.000000 0.000000 0.000000
# 3 -0.013508 -0.002575 0.049858 0.000000 0.000000 0.000000
# 4 0.000000 0.000000 0.000000 0.046211 0.000000 0.000000
# 5 0.000000 0.000000 0.000000 0.000000 0.025382 0.000000
# 6 0.000000 0.000000 0.000000 0.000000 0.000000 0.035325
#
#
# Mechanical properties :
#
#
# Convention : Reuss Voigt Hill
#
# Bulk Modulus (GPa) = 21.76452 35.00463 28.38458
# Shear Modulus (GPa) = 20.93291 30.14773 25.54032
#
# Velocity S-wave (km/s) = 3.25468 3.90590 3.59507
# Velocity P-wave (km/s) = 5.01376 6.16890 5.62108
#
# Compressibility (1/GPa) = 0.04594633
#
# Stress axis : x y z
#
# Youngs Moduli (GPa) = 40.76957 144.93222 20.05700
#
# Poissons Ratio (x) = 0.22993 0.27093
# Poissons Ratio (y) = 0.06468 0.05166
# Poissons Ratio (z) = 0.55071 0.37327
#
# Static dielectric constant tensor:
#      x y z
#    x 1.713930 0.000000 0.000000 
#    y 0.000000 1.762820 0.000000 
#    z 0.000000 0.000000 1.698070 
# 
# From -- ./inp_files/11030.got.cif
#   From: 2010.05.17/outbox.cif.g08.bks.cpg/sg50_6_cif.got.tgz:11030.got - 2010.06.03 11:33:33.
