data_PCOD9395445
_publ_section_title
;
Structure prediction by ZEFSAII (Michael W. Deem and Ramdas Pophale) SiO2 
 PCOD9395445
Probable space group: P B A N
;
_chemical_formula_sum "Si O2"
_cell_formula_units_Z 34
_cell_length_a 14.075713
_cell_length_b 19.797623
_cell_length_c 5.077183
_cell_angle_alpha 90.000000
_cell_angle_beta 90.000000
_cell_angle_gamma 90.000000
_cell_volume 1414.836549
_symmetry_space_group_name_H-M "P B A N"
_symmetry_group_IT_number 50
_space_group.IT_coordinate_system_code '2'
_symmetry_cell_setting 'orthorhombic'
loop_
_space_group_symop_operation_xyz
x,y,z
1/2-x,1/2-y,z
x,1/2-y,-z
1/2-x,y,-z
-x,-y,-z
1/2+x,1/2+y,-z
-x,1/2+y,z
1/2+x,-y,z
loop_
_atom_site_type_symbol
_atom_site_label
_atom_site_fract_x
_atom_site_fract_y
_atom_site_fract_z
Si Si1 0.614071 0.140765 0.932425
Si Si2 0.750000 0.250000 0.000000
Si Si3 0.386467 0.087333 0.428642
Si Si4 0.893206 0.055949 0.583692
Si Si5 0.393384 0.172943 0.944425
O O1 0.679758 0.201971 0.842261
O O2 0.612911 0.085462 0.706979
O O3 0.508138 0.168550 0.981301
O O4 0.651045 0.104978 0.198098
O O5 0.493671 0.061615 0.355060
O O6 0.380763 0.145738 0.648464
O O7 0.352050 0.019236 0.573657
O O8 0.349910 0.121142 0.160105
O O9 0.363989 0.250000 0.000000
#
# Coordination Sequence:
#
# PCOD9395445 Si02
#       5
#     8   2   8   8   8
#     4  10  21  32  48  62  96 126 176 198 238 265
#     4  12  24  38  48  74  96 150 166 218 224 276
#     4   9  17  28  49  64  92 118 162 195 254 283
#     4   9  18  33  46  67  82 125 165 212 231 291
#     4  10  17  29  44  72  96 128 151 200 237 303
#
# _framework density 24.031046
#
# number of rings (size 3 to 8) (size 9 to 14) (size 15 to 20)
#    0.000    2.353    1.176    2.118    0.000    8.471 
#    0.000    0.000    0.000    0.000    0.000    0.000 
#    0.000    0.000    0.000   74.118    0.000    0.000 
#
# Total GULP energy -189813.013515 kJ/mol
# GULP energy per Si atom -5582.735692 kJ/mol
# Density = 2.397635 g / cm^3
# Si number density = 24.031046 Si / 1000 Ang^3
#
#
#
# Elastic Constant Matrix: (Units=GPa)
#
#
# Indices 1 2 3 4 5 6 
#
# 1 68.0542 8.5459 -2.1143 0.0000 0.0000 0.0000
# 2 8.5459 132.3962 39.2470 0.0000 0.0000 0.0000
# 3 -2.1143 39.2470 91.6193 0.0000 0.0000 0.0000
# 4 0.0000 0.0000 0.0000 20.9721 0.0000 0.0000
# 5 0.0000 0.0000 0.0000 0.0000 -4.9374 0.0000
# 6 0.0000 0.0000 0.0000 0.0000 0.0000 1.5211
#
#
#
# Elastic Compliance Matrix: (Units=1/GPa)
#
#
# Indices 1 2 3 4 5 6 
#
# 1 0.014874 -0.001216 0.000864 0.000000 0.000000 0.000000
# 2 -0.001216 0.008751 -0.003777 0.000000 0.000000 0.000000
# 3 0.000864 -0.003777 0.012553 0.000000 0.000000 0.000000
# 4 0.000000 0.000000 0.000000 0.047682 0.000000 0.000000
# 5 0.000000 0.000000 0.000000 0.000000 -0.202536 0.000000
# 6 0.000000 0.000000 0.000000 0.000000 0.000000 0.657410
#
#
# Mechanical properties :
#
#
# Convention : Reuss Voigt Hill
#
# Bulk Modulus (GPa) = 35.81684 42.60300 39.20992
# Shear Modulus (GPa) = 8.98799 19.93723 14.46261
#
# Velocity S-wave (km/s) = 1.93605 2.88348 2.45588
# Velocity P-wave (km/s) = 4.46480 5.37148 4.93899
#
# Compressibility (1/GPa) = 0.02791983
#
# Stress axis : x y z
#
# Youngs Moduli (GPa) = 67.23249 114.27029 79.66510
#
# Poissons Ratio (x) = 0.13898 -0.06885
# Poissons Ratio (y) = 0.08177 0.30088
# Poissons Ratio (z) = -0.05811 0.43158
#
# Static dielectric constant tensor:
#      x y z
#    x 2.028530 0.000000 0.000000 
#    y 0.000000 2.216910 0.000000 
#    z 0.000000 0.000000 1.832300 
# 
# From -- ./inp_files/4168.got.cif
#   From: 2010.05.17/outbox.cif.g08.bks.cpg/sg50_3_cif.got.tgz:4168.got - 2010.06.03 11:33:33.
