data_PCOD9395801
_publ_section_title
;
Structure prediction by ZEFSAII (Michael W. Deem and Ramdas Pophale) SiO2 
 PCOD9395801
Probable space group: P B A N
;
_chemical_formula_sum "Si O2"
_cell_formula_units_Z 64
_cell_length_a 10.505711
_cell_length_b 30.655548
_cell_length_c 9.961472
_cell_angle_alpha 90.000000
_cell_angle_beta 90.000000
_cell_angle_gamma 90.000000
_cell_volume 3208.175015
_symmetry_space_group_name_H-M "P B A N"
_symmetry_group_IT_number 50
_space_group.IT_coordinate_system_code '2'
_symmetry_cell_setting 'orthorhombic'
loop_
_space_group_symop_operation_xyz
x,y,z
1/2-x,1/2-y,z
x,1/2-y,-z
1/2-x,y,-z
-x,-y,-z
1/2+x,1/2+y,-z
-x,1/2+y,z
1/2+x,-y,z
loop_
_atom_site_type_symbol
_atom_site_label
_atom_site_fract_x
_atom_site_fract_y
_atom_site_fract_z
Si Si1 0.633367 0.420339 0.340904
Si Si2 0.986046 0.837811 0.660062
Si Si3 0.238282 0.127968 0.158470
Si Si4 0.928546 0.435160 0.373159
Si Si5 0.885050 0.446420 0.949163
Si Si6 0.456918 0.160011 0.350210
Si Si7 0.397113 0.043594 0.147383
Si Si8 0.605962 0.252666 0.662516
O O1 0.611870 0.368339 0.359224
O O2 0.778518 0.437525 0.340701
O O3 0.561686 0.441269 0.467349
O O4 0.579348 0.430453 0.196847
O O5 0.893124 0.860094 0.767892
O O6 0.924913 0.835468 0.509854
O O7 0.026274 0.789702 0.704859
O O8 0.339754 0.153856 0.250166
O O9 0.280554 0.076688 0.167567
O O10 0.250000 0.138881 0.000000
O O11 0.966878 0.385347 0.341371
O O12 0.025414 0.463608 0.285863
O O13 0.868357 0.498352 0.925605
O O14 0.750000 0.428705 0.000000
O O15 0.995686 0.434878 0.052289
O O16 0.539037 0.201646 0.307800
O O17 0.750000 0.250000 0.713784
O O18 0.611409 0.250000 0.500000
#
# Coordination Sequence:
#
# PCOD9395801 Si02
#       8
#     8   8   8   8   8   8   8   8
#     4  10  19  33  56  82 111 144 182 228 280 344
#     4  10  20  35  58  86 115 150 190 228 283 338
#     4  11  22  38  56  78 114 153 191 232 283 344
#     4   9  18  35  55  81 114 141 179 229 289 335
#     4  11  21  36  58  82 107 144 192 240 285 341
#     4   9  19  35  59  84 113 149 188 232 276 336
#     4  10  22  38  57  80 108 143 191 242 287 335
#     4   9  17  33  60  92 117 144 190 242 279 325
#
# _framework density 19.949036
#
# number of rings (size 3 to 8) (size 9 to 14) (size 15 to 20)
#    0.000    2.125    1.250    2.250    0.000    5.000 
#    0.000    3.125    5.500    0.750    0.000    0.000 
#    0.000    0.000    0.000    0.000    0.000    0.000 
#
# Total GULP energy -356844.420280 kJ/mol
# GULP energy per Si atom -5575.694067 kJ/mol
# Density = 1.990363 g / cm^3
# Si number density = 19.949036 Si / 1000 Ang^3
#
#
#
# Elastic Constant Matrix: (Units=GPa)
#
#
# Indices 1 2 3 4 5 6 
#
# 1 75.0889 21.0011 31.6261 0.0000 0.0000 0.0000
# 2 21.0011 48.5956 6.1064 0.0000 0.0000 0.0000
# 3 31.6261 6.1064 112.5689 0.0000 0.0000 0.0000
# 4 0.0000 0.0000 0.0000 -40.0193 0.0000 0.0000
# 5 0.0000 0.0000 0.0000 0.0000 9.9726 0.0000
# 6 0.0000 0.0000 0.0000 0.0000 0.0000 14.5573
#
#
#
# Elastic Compliance Matrix: (Units=1/GPa)
#
#
# Indices 1 2 3 4 5 6 
#
# 1 0.017095 -0.006831 -0.004432 0.000000 0.000000 0.000000
# 2 -0.006831 0.023449 0.000647 0.000000 0.000000 0.000000
# 3 -0.004432 0.000647 0.010094 0.000000 0.000000 0.000000
# 4 0.000000 0.000000 0.000000 -0.024988 0.000000 0.000000
# 5 0.000000 0.000000 0.000000 0.000000 0.100275 0.000000
# 6 0.000000 0.000000 0.000000 0.000000 0.000000 0.068694
#
#
# Mechanical properties :
#
#
# Convention : Reuss Voigt Hill
#
# Bulk Modulus (GPa) = 34.00749 39.30229 36.65489
# Shear Modulus (GPa) = 22.15803 8.73676 15.44739
#
# Velocity S-wave (km/s) = 3.33638 2.09500 2.78572
# Velocity P-wave (km/s) = 5.65032 5.05927 5.36294
#
# Compressibility (1/GPa) = 0.02940529
#
# Stress axis : x y z
#
# Youngs Moduli (GPa) = 58.49748 42.64634 99.07299
#
# Poissons Ratio (x) = 0.29131 0.43911
# Poissons Ratio (y) = 0.39958 -0.06411
# Poissons Ratio (z) = 0.25927 -0.02760
#
# Static dielectric constant tensor:
#      x y z
#    x 1.742060 0.000000 0.000000 
#    y 0.000000 1.716030 0.000000 
#    z 0.000000 0.000000 1.725160 
# 
# From -- ./inp_files/11844.got.cif
#   From: 2010.05.17/outbox.cif.g08.bks.cpg/sg50_6_cif.got.tgz:11844.got - 2010.06.03 11:33:33.
