data_PCOD9395919
_publ_section_title
;
Structure prediction by ZEFSAII (Michael W. Deem and Ramdas Pophale) SiO2 
 PCOD9395919
Probable space group: P B A N
;
_chemical_formula_sum "Si O2"
_cell_formula_units_Z 32
_cell_length_a 5.080493
_cell_length_b 33.693354
_cell_length_c 7.721966
_cell_angle_alpha 90.000000
_cell_angle_beta 90.000000
_cell_angle_gamma 90.000000
_cell_volume 1321.837253
_symmetry_space_group_name_H-M "P B A N"
_symmetry_group_IT_number 50
_space_group.IT_coordinate_system_code '2'
_symmetry_cell_setting 'orthorhombic'
loop_
_space_group_symop_operation_xyz
x,y,z
1/2-x,1/2-y,z
x,1/2-y,-z
1/2-x,y,-z
-x,-y,-z
1/2+x,1/2+y,-z
-x,1/2+y,z
1/2+x,-y,z
loop_
_atom_site_type_symbol
_atom_site_label
_atom_site_fract_x
_atom_site_fract_y
_atom_site_fract_z
Si Si1 0.211564 0.478804 0.791524
Si Si2 0.101315 0.599882 0.318040
Si Si3 0.613697 0.860835 0.816921
Si Si4 0.499399 0.231482 0.196375
O O1 0.560000 0.560729 0.736981
O O2 0.008627 0.513231 0.729678
O O3 0.250000 0.479095 0.000000
O O4 0.250000 0.596045 0.500000
O O5 0.351726 0.612573 0.201541
O O6 0.860498 0.631580 0.312308
O O7 0.516969 0.815542 0.811719
O O8 0.750000 0.869069 0.000000
O O9 0.250000 0.250000 0.285352
O O10 0.750000 0.250000 0.283566
O O11 0.499749 0.250000 0.000000
#
# Coordination Sequence:
#
# PCOD9395919 Si02
#       4
#     8   8   8   8
#     4  10  22  43  70 100 135 180 240 300 344 401
#     4  12  27  44  66 103 150 186 225 282 358 435
#     4  12  24  42  71 103 134 180 236 294 345 405
#     4  10  19  35  62 101 127 158 220 302 330 387
#
# _framework density 24.208729999999999
#
# number of rings (size 3 to 8) (size 9 to 14) (size 15 to 20)
#    0.000    1.000    2.500    5.250    3.500    5.000 
#    0.000    0.000    0.000   11.250    0.000    0.000 
#    0.000    0.000    0.000    0.000    0.000    0.000 
#
# Total GULP energy -178783.567095 kJ/mol
# GULP energy per Si atom -5586.986472 kJ/mol
# Density = 2.415363 g / cm^3
# Si number density = 24.208730 Si / 1000 Ang^3
#
#
#
# Elastic Constant Matrix: (Units=GPa)
#
#
# Indices 1 2 3 4 5 6 
#
# 1 217.4968 71.6405 66.3746 0.0000 0.0000 0.0000
# 2 71.6405 148.8833 38.8865 0.0000 0.0000 0.0000
# 3 66.3746 38.8865 87.5351 0.0000 0.0000 0.0000
# 4 0.0000 0.0000 0.0000 -350.9180 0.0000 0.0000
# 5 0.0000 0.0000 0.0000 0.0000 15.7341 0.0000
# 6 0.0000 0.0000 0.0000 0.0000 0.0000 53.6392
#
#
#
# Elastic Compliance Matrix: (Units=1/GPa)
#
#
# Indices 1 2 3 4 5 6 
#
# 1 0.006508 -0.002084 -0.004009 0.000000 0.000000 0.000000
# 2 -0.002084 0.008266 -0.002092 0.000000 0.000000 0.000000
# 3 -0.004009 -0.002092 0.015393 0.000000 0.000000 0.000000
# 4 0.000000 0.000000 0.000000 -0.002850 0.000000 0.000000
# 5 0.000000 0.000000 0.000000 0.000000 0.063556 0.000000
# 6 0.000000 0.000000 0.000000 0.000000 0.000000 0.018643
#
#
# Mechanical properties :
#
#
# Convention : Reuss Voigt Hill
#
# Bulk Modulus (GPa) = 72.47790 89.74647 81.11218
# Shear Modulus (GPa) = 38.31896 -37.84134 0.23881
#
# Velocity S-wave (km/s) = 3.98283 -3.95793 0.31442
# Velocity P-wave (km/s) = 7.15222 4.03305 5.80602
#
# Compressibility (1/GPa) = 0.01379731
#
# Stress axis : x y z
#
# Youngs Moduli (GPa) = 153.66539 120.97843 64.96612
#
# Poissons Ratio (x) = 0.25217 0.26042
# Poissons Ratio (y) = 0.32030 0.13588
# Poissons Ratio (z) = 0.61597 0.25303
#
# Static dielectric constant tensor:
#      x y z
#    x 1.915370 0.000000 0.000000 
#    y 0.000000 1.988950 0.000000 
#    z 0.000000 0.000000 1.952240 
# 
# From -- ./inp_files/7902.got.cif
#   From: 2010.05.17/outbox.cif.g08.bks.cpg/sg50_4_cif.got.tgz:7902.got - 2010.06.03 11:33:33.
