data_PCOD9395872
_publ_section_title
;
Structure prediction by ZEFSAII (Michael W. Deem and Ramdas Pophale) SiO2 
 PCOD9395872
Probable space group: P B A N
;
_chemical_formula_sum "Si O2"
_cell_formula_units_Z 56
_cell_length_a 20.575983
_cell_length_b 15.514173
_cell_length_c 8.306162
_cell_angle_alpha 90.000000
_cell_angle_beta 90.000000
_cell_angle_gamma 90.000000
_cell_volume 2651.487717
_symmetry_space_group_name_H-M "P B A N"
_symmetry_group_IT_number 50
_space_group.IT_coordinate_system_code '2'
_symmetry_cell_setting 'orthorhombic'
loop_
_space_group_symop_operation_xyz
x,y,z
1/2-x,1/2-y,z
x,1/2-y,-z
1/2-x,y,-z
-x,-y,-z
1/2+x,1/2+y,-z
-x,1/2+y,z
1/2+x,-y,z
loop_
_atom_site_type_symbol
_atom_site_label
_atom_site_fract_x
_atom_site_fract_y
_atom_site_fract_z
Si Si1 0.860328 0.250000 0.500000
Si Si2 0.317224 0.298367 0.165522
Si Si3 0.927582 0.833653 0.575106
Si Si4 0.584333 0.250000 0.000000
Si Si5 0.801426 0.325206 0.204556
Si Si6 0.144860 0.025328 0.592072
Si Si7 0.943993 0.374896 0.723456
Si Si8 0.784689 0.515908 0.252275
O O1 0.816260 0.312104 0.392655
O O2 0.904217 0.307786 0.613744
O O3 0.250000 0.250000 0.217374
O O4 0.372767 0.299968 0.301220
O O5 0.304231 0.401296 0.146511
O O6 0.336073 0.250000 0.000000
O O7 0.960657 0.750000 0.500000
O O8 0.894476 0.887275 0.433308
O O9 0.983426 0.889525 0.659272
O O10 0.632482 0.304609 0.887074
O O11 0.549354 0.177269 0.891999
O O12 0.750000 0.250000 0.166737
O O13 0.780617 0.422303 0.171985
O O14 0.213740 0.035996 0.677492
O O15 0.165066 0.005380 0.404134
O O16 0.100527 0.959300 0.694671
#
# Coordination Sequence:
#
# PCOD9395872 Si02
#       8
#     4   8   8   4   8   8   8   8
#     4  10  19  34  62  86 125 162 216 248 302 388
#     4  10  23  45  65  96 125 164 219 277 335 402
#     4  11  23  40  68  92 122 166 219 279 329 381
#     4  10  25  38  54  90 135 172 214 256 310 406
#     4  11  21  36  59  96 132 171 208 257 322 399
#     4  10  21  37  64 100 124 160 217 276 323 385
#     4  11  21  41  60  89 130 172 214 258 321 393
#     4  10  20  38  67  94 130 166 210 273 335 380
#
# _framework density 21.120218000000001
#
# number of rings (size 3 to 8) (size 9 to 14) (size 15 to 20)
#    0.000    1.571    2.143    3.429    3.000    1.429 
#   12.857    0.000    0.000    2.571    0.000    0.000 
#    0.000    0.000    0.000    0.000    0.000    0.000 
#
# Total GULP energy -312276.521864 kJ/mol
# GULP energy per Si atom -5576.366462 kJ/mol
# Density = 2.107215 g / cm^3
# Si number density = 21.120218 Si / 1000 Ang^3
#
#
#
# Elastic Constant Matrix: (Units=GPa)
#
#
# Indices 1 2 3 4 5 6 
#
# 1 64.4659 17.8206 4.8867 0.0000 0.0000 0.0000
# 2 17.8206 155.1612 32.5260 0.0000 0.0000 0.0000
# 3 4.8867 32.5260 63.9243 0.0000 0.0000 0.0000
# 4 0.0000 0.0000 0.0000 20.2403 0.0000 0.0000
# 5 0.0000 0.0000 0.0000 0.0000 44.9853 0.0000
# 6 0.0000 0.0000 0.0000 0.0000 0.0000 -343.7031
#
#
#
# Elastic Compliance Matrix: (Units=1/GPa)
#
#
# Indices 1 2 3 4 5 6 
#
# 1 0.016027 -0.001773 -0.000323 0.000000 0.000000 0.000000
# 2 -0.001773 0.007411 -0.003635 0.000000 0.000000 0.000000
# 3 -0.000323 -0.003635 0.017518 0.000000 0.000000 0.000000
# 4 0.000000 0.000000 0.000000 0.049406 0.000000 0.000000
# 5 0.000000 0.000000 0.000000 0.000000 0.022229 0.000000
# 6 0.000000 0.000000 0.000000 0.000000 0.000000 -0.002909
#
#
# Mechanical properties :
#
#
# Convention : Reuss Voigt Hill
#
# Bulk Modulus (GPa) = 33.90656 43.77976 38.84316
# Shear Modulus (GPa) = 38.17536 -40.47430 -1.14947
#
# Velocity S-wave (km/s) = 4.25611 -4.38239 -0.73853
# Velocity P-wave (km/s) = 6.34363 2.19848 4.20763
#
# Compressibility (1/GPa) = 0.02949282
#
# Stress axis : x y z
#
# Youngs Moduli (GPa) = 62.39594 134.94265 57.08472
#
# Poissons Ratio (x) = 0.23925 0.01844
# Poissons Ratio (y) = 0.11063 0.20751
# Poissons Ratio (z) = 0.02016 0.49053
#
# Static dielectric constant tensor:
#      x y z
#    x 1.736630 0.000000 0.000000 
#    y 0.000000 1.773210 0.000000 
#    z 0.000000 0.000000 1.828090 
# 
# From -- ./inp_files/15385.got.cif
#   From: 2010.05.17/outbox.cif.g08.bks.cpg/sg50_8_cif.got.tgz:15385.got - 2010.06.03 11:33:33.
