data_PCOD9395071
_publ_section_title
;
Structure prediction by ZEFSAII (Michael W. Deem and Ramdas Pophale) SiO2 
 PCOD9395071
Probable space group: P C C M
;
_chemical_formula_sum "Si O2"
_cell_formula_units_Z 34
_cell_length_a 7.892938
_cell_length_b 22.441108
_cell_length_c 8.735854
_cell_angle_alpha 90.000000
_cell_angle_beta 90.000000
_cell_angle_gamma 90.000000
_cell_volume 1547.349270
_symmetry_space_group_name_H-M "P C C M"
_symmetry_group_IT_number 49
_symmetry_cell_setting 'orthorhombic'
loop_
_space_group_symop_operation_xyz
x,y,z
-x,-y,z
x,-y,1/2-z
-x,y,1/2-z
-x,-y,-z
x,y,-z
-x,y,1/2+z
x,-y,1/2+z
loop_
_atom_site_type_symbol
_atom_site_label
_atom_site_fract_x
_atom_site_fract_y
_atom_site_fract_z
Si Si1 0.690578 0.561377 0.816340
Si Si2 0.824946 0.915050 0.678292
Si Si3 0.179760 0.315358 0.317285
Si Si4 0.500000 0.000000 0.750000
Si Si5 0.674422 0.801325 0.818216
O O1 0.766833 0.500000 0.750000
O O2 0.500000 0.564120 0.750000
O O3 0.778147 0.620841 0.755973
O O4 0.688056 0.559536 0.000000
O O5 0.854204 0.903997 0.500000
O O6 0.647896 0.953907 0.686397
O O7 0.801480 0.852793 0.767497
O O8 0.000000 0.940292 0.750000
O O9 0.180213 0.320053 0.500000
O O10 0.299108 0.262520 0.260995
O O11 0.000000 0.296868 0.250000
O O12 0.500000 0.824434 0.750000
O O13 0.672532 0.794238 0.000000
#
# Coordination Sequence:
#
# PCOD9395071 Si02
#       5
#     8   8   8   2   8
#     4  11  22  40  64  94 129 172 223 278 339 408
#     4  12  27  48  75 109 148 192 241 297 357 424
#     4  12  25  43  65  95 133 176 225 282 344 411
#     4  12  28  48  80 108 150 192 250 288 358 418
#     4  12  25  45  72 103 138 181 231 288 350 417
#
# _framework density 21.973061000000001
#
# number of rings (size 3 to 8) (size 9 to 14) (size 15 to 20)
#    0.000    0.235    1.176    9.882    0.000    4.235 
#    0.000    2.353    0.000    0.000    0.000    0.000 
#    0.000    0.000    0.000    0.000    0.000    0.000 
#
# Total GULP energy -189822.216921 kJ/mol
# GULP energy per Si atom -5583.006380 kJ/mol
# Density = 2.192305 g / cm^3
# Si number density = 21.973061 Si / 1000 Ang^3
#
#
#
# Elastic Constant Matrix: (Units=GPa)
#
#
# Indices 1 2 3 4 5 6 
#
# 1 115.4940 20.1020 29.6084 0.0000 0.0000 0.0000
# 2 20.1020 132.3864 57.1559 0.0000 0.0000 0.0000
# 3 29.6084 57.1559 233.3923 0.0000 0.0000 0.0000
# 4 0.0000 0.0000 0.0000 108.4207 0.0000 0.0000
# 5 0.0000 0.0000 0.0000 0.0000 43.9608 0.0000
# 6 0.0000 0.0000 0.0000 0.0000 0.0000 0.7932
#
#
#
# Elastic Compliance Matrix: (Units=1/GPa)
#
#
# Indices 1 2 3 4 5 6 
#
# 1 0.009063 -0.000984 -0.000909 0.000000 0.000000 0.000000
# 2 -0.000984 0.008553 -0.001970 0.000000 0.000000 0.000000
# 3 -0.000909 -0.001970 0.004882 0.000000 0.000000 0.000000
# 4 0.000000 0.000000 0.000000 0.009223 0.000000 0.000000
# 5 0.000000 0.000000 0.000000 0.000000 0.022748 0.000000
# 6 0.000000 0.000000 0.000000 0.000000 0.000000 1.260676
#
#
# Mechanical properties :
#
#
# Convention : Reuss Voigt Hill
#
# Bulk Modulus (GPa) = 67.68810 77.22281 72.45545
# Shear Modulus (GPa) = 3.76564 55.59537 29.68051
#
# Velocity S-wave (km/s) = 1.31052 5.03553 3.67927
# Velocity P-wave (km/s) = 5.75864 8.30839 7.14812
#
# Compressibility (1/GPa) = 0.01477365
#
# Stress axis : x y z
#
# Youngs Moduli (GPa) = 110.34282 116.91136 204.82024
#
# Poissons Ratio (x) = 0.11501 0.18614
# Poissons Ratio (y) = 0.10855 0.40347
# Poissons Ratio (z) = 0.10028 0.23030
#
# Static dielectric constant tensor:
#      x y z
#    x 1.800430 0.000000 0.000000 
#    y 0.000000 1.814300 0.000000 
#    z 0.000000 0.000000 1.730790 
# 
# From -- ./inp_files/1512.got.cif
#   From: 2010.05.17/outbox.cif.g08.bks.cpg/sg49_1_cif.got.tgz:1512.got - 2010.06.03 21:02:19.
