data_PCOD9395473
_publ_section_title
;
Structure prediction by ZEFSAII (Michael W. Deem and Ramdas Pophale) SiO2 
 PCOD9395473
Probable space group: P B A N
;
_chemical_formula_sum "Si O2"
_cell_formula_units_Z 54
_cell_length_a 21.813853
_cell_length_b 17.203222
_cell_length_c 8.415659
_cell_angle_alpha 90.000000
_cell_angle_beta 90.000000
_cell_angle_gamma 90.000000
_cell_volume 3158.132199
_symmetry_space_group_name_H-M "P B A N"
_symmetry_group_IT_number 50
_space_group.IT_coordinate_system_code '2'
_symmetry_cell_setting 'orthorhombic'
loop_
_space_group_symop_operation_xyz
x,y,z
1/2-x,1/2-y,z
x,1/2-y,-z
1/2-x,y,-z
-x,-y,-z
1/2+x,1/2+y,-z
-x,1/2+y,z
1/2+x,-y,z
loop_
_atom_site_type_symbol
_atom_site_label
_atom_site_fract_x
_atom_site_fract_y
_atom_site_fract_z
Si Si1 0.556906 0.911835 0.874598
Si Si2 0.019400 0.934046 0.677997
Si Si3 0.750000 0.554067 0.000000
Si Si4 0.250000 0.250000 0.500000
Si Si5 0.820026 0.620896 0.699746
Si Si6 0.372713 0.979730 0.894952
Si Si7 0.445668 0.837016 0.023921
Si Si8 0.393645 0.485455 0.459826
O O1 0.615034 0.872171 0.791436
O O2 0.527624 0.982633 0.771537
O O3 0.505531 0.850583 0.915903
O O4 0.581250 0.954746 0.033396
O O5 0.033660 0.865444 0.800819
O O6 0.953489 0.932306 0.589993
O O7 0.074402 0.943546 0.552493
O O8 0.729290 0.599337 0.161453
O O9 0.807827 0.501385 0.035444
O O10 0.207123 0.305619 0.392750
O O11 0.841784 0.556726 0.566900
O O12 0.368883 0.985800 0.707253
O O13 0.396716 0.898903 0.961188
O O14 0.424293 0.750000 0.000000
#
# Coordination Sequence:
#
# PCOD9395473 Si02
#       8
#     8   8   4   2   8   8   8   8
#     4   9  17  36  54  81 106 147 188 220 270 337
#     4   9  17  31  56  83 113 140 178 234 281 330
#     4  10  22  41  59  80  98 148 210 224 256 332
#     4  12  24  42  48  80 128 150 178 232 282 314
#     4  10  23  36  56  78 111 150 191 229 270 326
#     4  10  18  35  60  78 107 144 190 236 264 328
#     4  11  20  33  53  85 117 146 176 224 296 349
#     4  10  17  32  61  82 104 140 193 233 272 312
#
# _framework density 17.098713
#
# number of rings (size 3 to 8) (size 9 to 14) (size 15 to 20)
#    0.000    2.074    2.963    2.667    0.000    1.481 
#    5.333    1.111    0.000    0.000    0.000    2.074 
#    0.000    0.000    0.000    0.000    0.000    0.000 
#
# Total GULP energy -300703.572664 kJ/mol
# GULP energy per Si atom -5568.584679 kJ/mol
# Density = 1.705980 g / cm^3
# Si number density = 17.098713 Si / 1000 Ang^3
#
#
#
# Elastic Constant Matrix: (Units=GPa)
#
#
# Indices 1 2 3 4 5 6 
#
# 1 78.8887 42.3963 25.6929 0.0000 0.0000 0.0000
# 2 42.3963 82.2039 40.3485 0.0000 0.0000 0.0000
# 3 25.6929 40.3485 103.8785 0.0000 0.0000 0.0000
# 4 0.0000 0.0000 0.0000 19.5653 0.0000 0.0000
# 5 0.0000 0.0000 0.0000 0.0000 37.0076 0.0000
# 6 0.0000 0.0000 0.0000 0.0000 0.0000 15.6926
#
#
#
# Elastic Compliance Matrix: (Units=1/GPa)
#
#
# Indices 1 2 3 4 5 6 
#
# 1 0.017624 -0.008587 -0.001024 0.000000 0.000000 0.000000
# 2 -0.008587 0.019214 -0.005339 0.000000 0.000000 0.000000
# 3 -0.001024 -0.005339 0.011954 0.000000 0.000000 0.000000
# 4 0.000000 0.000000 0.000000 0.051111 0.000000 0.000000
# 5 0.000000 0.000000 0.000000 0.000000 0.027021 0.000000
# 6 0.000000 0.000000 0.000000 0.000000 0.000000 0.063724
#
#
# Mechanical properties :
#
#
# Convention : Reuss Voigt Hill
#
# Bulk Modulus (GPa) = 52.93236 53.53849 53.23542
# Shear Modulus (GPa) = 22.04127 24.88867 23.46497
#
# Velocity S-wave (km/s) = 3.59424 3.81935 3.70851
# Velocity P-wave (km/s) = 6.94614 7.12947 7.03840
#
# Compressibility (1/GPa) = 0.01889204
#
# Stress axis : x y z
#
# Youngs Moduli (GPa) = 56.73938 52.04420 83.65589
#
# Poissons Ratio (x) = 0.44692 0.08564
# Poissons Ratio (y) = 0.48724 0.44667
# Poissons Ratio (z) = 0.05808 0.27788
#
# Static dielectric constant tensor:
#      x y z
#    x 1.599700 0.000000 0.000000 
#    y 0.000000 1.538000 0.000000 
#    z 0.000000 0.000000 1.683210 
# 
# From -- ./inp_files/16172.got.cif
#   From: 2010.05.17/outbox.cif.g08.bks.cpg/sg50_9_cif.got.tgz:16172.got - 2010.06.03 11:33:33.
