data_PCOD9395314
_publ_section_title
;
Structure prediction by ZEFSAII (Michael W. Deem and Ramdas Pophale) SiO2 
 PCOD9395314
Probable space group: P C C M
;
_chemical_formula_sum "Si O2"
_cell_formula_units_Z 48
_cell_length_a 9.000000
_cell_length_b 15.000000
_cell_length_c 18.000000
_cell_angle_alpha 90.000000
_cell_angle_beta 90.000000
_cell_angle_gamma 90.000000
_cell_volume 2430.000000
_symmetry_space_group_name_H-M "P C C M"
_symmetry_group_IT_number 49
_symmetry_cell_setting 'orthorhombic'
loop_
_space_group_symop_operation_xyz
x,y,z
-x,-y,z
x,-y,1/2-z
-x,y,1/2-z
-x,-y,-z
x,y,-z
-x,y,1/2+z
x,-y,1/2+z
loop_
_atom_site_type_symbol
_atom_site_label
_atom_site_fract_x
_atom_site_fract_y
_atom_site_fract_z
Si Si1 0.686258 0.103580 0.914723
Si Si2 0.581911 0.407472 0.413718
Si Si3 0.443344 0.783221 0.329401
Si Si4 0.936032 0.593834 0.086544
Si Si5 0.004939 0.200090 0.412872
Si Si6 0.802632 0.936184 0.823288
O O1 0.555472 0.150158 0.870238
O O2 0.822458 0.174078 0.912470
O O3 0.734518 0.008994 0.879852
O O4 0.644245 0.089548 0.000000
O O5 0.500000 0.500000 0.386359
O O6 0.534458 0.397760 0.500000
O O7 0.565913 0.309521 0.375603
O O8 0.759380 0.420260 0.410999
O O9 0.500000 0.753020 0.250000
O O10 0.306555 0.851105 0.311421
O O11 0.973592 0.696612 0.113076
O O12 0.000000 0.500000 0.119329
O O13 0.986313 0.596337 0.000000
O O14 0.951636 0.194097 0.500000
O O15 0.935264 0.119484 0.363259
O O16 0.829220 0.000000 0.750000
#
# Coordination Sequence:
#
# PCOD9395314 Si02
#       6
#     8   8   8   8   8   8
#     4  11  25  40  64  96 129 173 222 277 328 389
#     4  10  22  40  68 100 127 165 217 270 329 397
#     4  12  25  44  64  93 133 174 220 270 330 398
#     4   9  18  35  62  94 129 161 200 263 329 389
#     4  10  22  41  65  98 133 170 220 273 331 392
#     4  12  24  43  64  93 131 178 227 270 327 397
#
# _framework density 19.753086
#
# number of rings (size 3 to 8) (size 9 to 14) (size 15 to 20)
#    0.000    1.333    3.333    2.000    2.333    5.667 
#    0.000    0.000    0.000    0.000    0.000    0.000 
#    0.000    0.000    0.000    0.000    0.000    0.167 
#
# Total GULP energy -267311.856292 kJ/mol
# GULP energy per Si atom -5568.997006 kJ/mol
# Density = 1.970813 g / cm^3
# Si number density = 19.753086 Si / 1000 Ang^3
#
#
#
# Elastic Constant Matrix: (Units=GPa)
#
#
# Indices 1 2 3 4 5 6 
#
# 1 48.6786 19.0598 18.1510 0.0000 0.0000 0.0000
# 2 19.0598 170.6876 27.9911 0.0000 0.0000 0.0000
# 3 18.1510 27.9911 82.4157 0.0000 0.0000 0.0000
# 4 0.0000 0.0000 0.0000 36.7799 0.0000 0.0000
# 5 0.0000 0.0000 0.0000 0.0000 4.2402 0.0000
# 6 0.0000 0.0000 0.0000 0.0000 0.0000 -38.7542
#
#
#
# Elastic Compliance Matrix: (Units=1/GPa)
#
#
# Indices 1 2 3 4 5 6 
#
# 1 0.022910 -0.001833 -0.004423 0.000000 0.000000 0.000000
# 2 -0.001833 0.006351 -0.001753 0.000000 0.000000 0.000000
# 3 -0.004423 -0.001753 0.013703 0.000000 0.000000 0.000000
# 4 0.000000 0.000000 0.000000 0.027189 0.000000 0.000000
# 5 0.000000 0.000000 0.000000 0.000000 0.235836 0.000000
# 6 0.000000 0.000000 0.000000 0.000000 0.000000 -0.025804
#
#
# Mechanical properties :
#
#
# Convention : Reuss Voigt Hill
#
# Bulk Modulus (GPa) = 37.11210 48.02061 42.56636
# Shear Modulus (GPa) = 16.38349 16.22520 16.30435
#
# Velocity S-wave (km/s) = 2.88308 2.86912 2.87611
# Velocity P-wave (km/s) = 5.46915 5.94466 5.71186
#
# Compressibility (1/GPa) = 0.02694539
#
# Stress axis : x y z
#
# Youngs Moduli (GPa) = 43.64939 157.45933 72.97560
#
# Poissons Ratio (x) = 0.28860 0.32278
# Poissons Ratio (y) = 0.08000 0.12795
# Poissons Ratio (z) = 0.19306 0.27607
#
# Static dielectric constant tensor:
#      x y z
#    x 1.768520 0.000000 0.000000 
#    y 0.000000 1.685130 0.000000 
#    z 0.000000 0.000000 1.726540 
# 
# From -- ./inp_files/16341.got.cif
#   From: 2010.05.17/outbox.ucp.g08.bks.cvg/sg49_9_cif.got.tgz:16341.got - 2010.06.11 16:40:14.
