data_PCOD9395934
_publ_section_title
;
Structure prediction by ZEFSAII (Michael W. Deem and Ramdas Pophale) SiO2 
 PCOD9395934
Probable space group: P B A N
;
_chemical_formula_sum "Si O2"
_cell_formula_units_Z 46
_cell_length_a 5.030289
_cell_length_b 26.497547
_cell_length_c 17.615253
_cell_angle_alpha 90.000000
_cell_angle_beta 90.000000
_cell_angle_gamma 90.000000
_cell_volume 2347.942695
_symmetry_space_group_name_H-M "P B A N"
_symmetry_group_IT_number 50
_space_group.IT_coordinate_system_code '2'
_symmetry_cell_setting 'orthorhombic'
loop_
_space_group_symop_operation_xyz
x,y,z
1/2-x,1/2-y,z
x,1/2-y,-z
1/2-x,y,-z
-x,-y,-z
1/2+x,1/2+y,-z
-x,1/2+y,z
1/2+x,-y,z
loop_
_atom_site_type_symbol
_atom_site_label
_atom_site_fract_x
_atom_site_fract_y
_atom_site_fract_z
Si Si1 0.250000 0.250000 0.500000
Si Si2 0.937577 0.388459 0.368889
Si Si3 0.750000 0.463244 0.500000
Si Si4 0.641247 0.804787 0.206118
Si Si5 0.629944 0.126978 0.193901
Si Si6 0.778651 0.033451 0.089744
Si Si7 0.442799 0.325529 0.379556
O O1 0.410895 0.286217 0.445526
O O2 0.809345 0.428749 0.426049
O O3 0.900478 0.397599 0.278614
O O4 0.749647 0.340103 0.378690
O O5 0.239836 0.373203 0.389580
O O6 0.500000 0.500000 0.500000
O O7 0.750000 0.750000 0.180217
O O8 0.348835 0.827780 0.190057
O O9 0.644435 0.804489 0.297915
O O10 0.849013 0.846777 0.177883
O O11 0.711207 0.082828 0.137365
O O12 0.568547 0.988816 0.106525
O O13 0.750000 0.044302 0.000000
#
# Coordination Sequence:
#
# PCOD9395934 Si02
#       7
#     2   8   4   8   8   8   8
#     4  12  20  32  52  78 100 142 178 224 272 334
#     4  10  22  39  50  75 106 138 178 226 267 318
#     4  12  24  37  54  71  98 141 182 225 270 318
#     4  10  19  36  53  83 114 148 190 226 269 329
#     4  10  21  35  61  81 111 152 183 227 282 334
#     4  10  21  38  61  90 118 142 180 235 288 339
#     4  10  21  33  53  74 105 136 175 225 274 316
#
# _framework density 19.591619999999999
#
# number of rings (size 3 to 8) (size 9 to 14) (size 15 to 20)
#    0.000    1.739    0.870    3.652    0.000    2.783 
#    0.000    0.000    0.000    3.130    0.000    0.000 
#    0.000    0.000    0.000    0.000    0.000    0.000 
#
# Total GULP energy -256614.122424 kJ/mol
# GULP energy per Si atom -5578.567879 kJ/mol
# Density = 1.954703 g / cm^3
# Si number density = 19.591620 Si / 1000 Ang^3
#
#
#
# Elastic Constant Matrix: (Units=GPa)
#
#
# Indices 1 2 3 4 5 6 
#
# 1 69.8219 -17.3189 -2.3575 0.0000 0.0000 0.0000
# 2 -17.3189 54.5581 29.8123 0.0000 0.0000 0.0000
# 3 -2.3575 29.8123 46.5601 0.0000 0.0000 0.0000
# 4 0.0000 0.0000 0.0000 28.2254 0.0000 0.0000
# 5 0.0000 0.0000 0.0000 0.0000 12.6786 0.0000
# 6 0.0000 0.0000 0.0000 0.0000 0.0000 -2.8409
#
#
#
# Elastic Compliance Matrix: (Units=1/GPa)
#
#
# Indices 1 2 3 4 5 6 
#
# 1 0.015960 0.007114 -0.003747 0.000000 0.000000 0.000000
# 2 0.007114 0.031364 -0.019722 0.000000 0.000000 0.000000
# 3 -0.003747 -0.019722 0.033916 0.000000 0.000000 0.000000
# 4 0.000000 0.000000 0.000000 0.035429 0.000000 0.000000
# 5 0.000000 0.000000 0.000000 0.000000 0.078873 0.000000
# 6 0.000000 0.000000 0.000000 0.000000 0.000000 -0.351996
#
#
# Mechanical properties :
#
#
# Convention : Reuss Voigt Hill
#
# Bulk Modulus (GPa) = 20.60590 21.24579 20.92584
# Shear Modulus (GPa) = -46.48292 18.33289 -14.07502
#
# Velocity S-wave (km/s) = -4.87621 3.06232 -2.68324
# Velocity P-wave (km/s) = 4.60029 4.83442 1.05094
#
# Compressibility (1/GPa) = 0.04852979
#
# Stress axis : x y z
#
# Youngs Moduli (GPa) = 62.65598 31.88352 29.48463
#
# Poissons Ratio (x) = -0.22681 0.11047
# Poissons Ratio (y) = -0.44572 0.58150
# Poissons Ratio (z) = 0.23476 0.62881
#
# Static dielectric constant tensor:
#      x y z
#    x 1.678760 0.000000 0.000000 
#    y 0.000000 1.653810 0.000000 
#    z 0.000000 0.000000 1.699680 
# 
# From -- ./inp_files/28298.got.cif
#   From: 2010.05.17/outbox.cif.g08.bks.cpg/sg50_15_cif.got.tgz:28298.got - 2010.06.03 11:33:33.
