data_PCOD9395775
_publ_section_title
;
Structure prediction by ZEFSAII (Michael W. Deem and Ramdas Pophale) SiO2 
 PCOD9395775
Probable space group: P B A N
;
_chemical_formula_sum "Si O2"
_cell_formula_units_Z 60
_cell_length_a 15.021486
_cell_length_b 16.251530
_cell_length_c 13.846926
_cell_angle_alpha 90.000000
_cell_angle_beta 90.000000
_cell_angle_gamma 90.000000
_cell_volume 3380.341074
_symmetry_space_group_name_H-M "P B A N"
_symmetry_group_IT_number 50
_space_group.IT_coordinate_system_code '2'
_symmetry_cell_setting 'orthorhombic'
loop_
_space_group_symop_operation_xyz
x,y,z
1/2-x,1/2-y,z
x,1/2-y,-z
1/2-x,y,-z
-x,-y,-z
1/2+x,1/2+y,-z
-x,1/2+y,z
1/2+x,-y,z
loop_
_atom_site_type_symbol
_atom_site_label
_atom_site_fract_x
_atom_site_fract_y
_atom_site_fract_z
Si Si1 0.071705 0.342815 0.502418
Si Si2 0.493194 0.405108 0.708724
Si Si3 0.709902 0.138421 0.893635
Si Si4 0.396062 0.659805 0.632081
Si Si5 0.618974 0.218229 0.191767
Si Si6 0.250000 0.873769 0.500000
Si Si7 0.326996 0.503442 0.748541
Si Si8 0.652273 0.510245 0.625939
O O1 0.110851 0.250000 0.500000
O O2 0.132076 0.413822 0.552913
O O3 0.036155 0.366177 0.395251
O O4 0.985976 0.339601 0.572274
O O5 0.542385 0.348307 0.788534
O O6 0.400584 0.433957 0.753808
O O7 0.563393 0.477868 0.680272
O O8 0.633250 0.208775 0.887742
O O9 0.789132 0.168326 0.821578
O O10 0.682611 0.051538 0.849358
O O11 0.750000 0.134320 0.000000
O O12 0.393305 0.727090 0.713944
O O13 0.313849 0.678002 0.565019
O O14 0.371739 0.571153 0.676985
O O15 0.186383 0.933544 0.437689
O O16 0.233412 0.475168 0.701369
#
# Coordination Sequence:
#
# PCOD9395775 Si02
#       8
#     8   8   8   8   8   4   8   8
#     4  12  22  34  52  78 120 166 208 246 271 335
#     4  12  21  35  56  83 122 159 203 246 286 350
#     4  10  21  40  65  91 115 144 183 258 337 381
#     4  10  19  33  49  79 112 151 199 243 287 347
#     4  10  20  34  56  87 118 142 182 246 313 355
#     4  10  20  32  52  74 106 156 202 244 285 334
#     4  10  22  38  59  80 111 161 197 244 308 362
#     4  11  21  37  52  77 117 161 209 243 286 336
#
# _framework density 17.749689
#
# number of rings (size 3 to 8) (size 9 to 14) (size 15 to 20)
#    0.000    1.333    5.333    2.800    1.867    0.000 
#    0.000    4.333    0.000    0.000    0.000    0.000 
#    0.000    0.000    0.000    0.000    0.000    0.000 
#
# Total GULP energy -334344.485879 kJ/mol
# GULP energy per Si atom -5572.408098 kJ/mol
# Density = 1.770929 g / cm^3
# Si number density = 17.749689 Si / 1000 Ang^3
#
#
#
# Elastic Constant Matrix: (Units=GPa)
#
#
# Indices 1 2 3 4 5 6 
#
# 1 84.0629 40.9411 33.7578 0.0000 0.0000 0.0000
# 2 40.9411 68.0981 31.6168 0.0000 0.0000 0.0000
# 3 33.7578 31.6168 80.1030 0.0000 0.0000 0.0000
# 4 0.0000 0.0000 0.0000 -3.4907 0.0000 0.0000
# 5 0.0000 0.0000 0.0000 0.0000 27.6125 0.0000
# 6 0.0000 0.0000 0.0000 0.0000 0.0000 29.0987
#
#
#
# Elastic Compliance Matrix: (Units=1/GPa)
#
#
# Indices 1 2 3 4 5 6 
#
# 1 0.017818 -0.008847 -0.004017 0.000000 0.000000 0.000000
# 2 -0.008847 0.022372 -0.005102 0.000000 0.000000 0.000000
# 3 -0.004017 -0.005102 0.016191 0.000000 0.000000 0.000000
# 4 0.000000 0.000000 0.000000 -0.286473 0.000000 0.000000
# 5 0.000000 0.000000 0.000000 0.000000 0.036215 0.000000
# 6 0.000000 0.000000 0.000000 0.000000 0.000000 0.034366
#
#
# Mechanical properties :
#
#
# Convention : Reuss Voigt Hill
#
# Bulk Modulus (GPa) = 48.90316 49.43280 49.16798
# Shear Modulus (GPa) = -42.82215 19.04064 -11.89075
#
# Velocity S-wave (km/s) = -4.91711 3.27881 -2.59108
# Velocity P-wave (km/s) = 2.15079 6.49958 4.33697
#
# Compressibility (1/GPa) = 0.02044858
#
# Stress axis : x y z
#
# Youngs Moduli (GPa) = 56.12354 44.69782 61.76438
#
# Poissons Ratio (x) = 0.39545 0.24811
# Poissons Ratio (y) = 0.49654 0.31512
# Poissons Ratio (z) = 0.22545 0.22805
#
# Static dielectric constant tensor:
#      x y z
#    x 1.704590 0.000000 0.000000 
#    y 0.000000 1.683360 0.000000 
#    z 0.000000 0.000000 1.571360 
# 
# From -- ./inp_files/26596.got.cif
#   From: 2010.05.17/outbox.cif.g08.bks.cpg/sg50_14_cif.got.tgz:26596.got - 2010.06.03 11:33:33.
