data_PCOD9395183
_publ_section_title
;
Structure prediction by ZEFSAII (Michael W. Deem and Ramdas Pophale) SiO2 
 PCOD9395183
Probable space group: P C C M
;
_chemical_formula_sum "Si O2"
_cell_formula_units_Z 30
_cell_length_a 13.206314
_cell_length_b 5.387027
_cell_length_c 18.529931
_cell_angle_alpha 90.000000
_cell_angle_beta 90.000000
_cell_angle_gamma 90.000000
_cell_volume 1318.270621
_symmetry_space_group_name_H-M "P C C M"
_symmetry_group_IT_number 49
_symmetry_cell_setting 'orthorhombic'
loop_
_space_group_symop_operation_xyz
x,y,z
-x,-y,z
x,-y,1/2-z
-x,y,1/2-z
-x,-y,-z
x,y,-z
-x,y,1/2+z
x,-y,1/2+z
loop_
_atom_site_type_symbol
_atom_site_label
_atom_site_fract_x
_atom_site_fract_y
_atom_site_fract_z
Si Si1 0.434500 0.249888 0.657936
Si Si2 0.210713 0.325089 0.000000
Si Si3 0.000000 0.500000 0.250000
Si Si4 0.274159 0.000000 0.250000
Si Si5 0.895782 0.851785 0.859042
Si Si6 0.335494 0.181510 0.500000
O O1 0.500000 0.500000 0.664882
O O2 0.348142 0.217157 0.719632
O O3 0.393096 0.234173 0.575332
O O4 0.500000 0.000000 0.665561
O O5 0.143874 0.274854 0.069704
O O6 0.249031 0.606706 0.000000
O O7 0.295870 0.104377 0.000000
O O8 0.929323 0.658077 0.200131
O O9 0.199655 0.023262 0.180858
O O10 0.000000 0.000000 0.873431
#
# Coordination Sequence:
#
# PCOD9395183 Si02
#       6
#     8   4   2   4   8   4
#     4  12  28  51  80 114 154 207 264 328 396 466
#     4  12  29  48  84 116 156 212 261 321 388 473
#     4  12  26  42  84 110 158 214 254 320 390 458
#     4  12  26  50  78 114 166 196 272 324 396 472
#     4  12  27  52  76 119 159 211 259 323 393 469
#     4  12  26  53  80 112 152 210 263 326 395 463
#
# _framework density 22.757086999999999
#
# number of rings (size 3 to 8) (size 9 to 14) (size 15 to 20)
#    0.000    0.000    5.333    3.200    7.467    2.667 
#    0.000    0.000    0.000    0.000    0.000    0.000 
#    0.000    0.000    0.000    0.000    0.000    0.000 
#
# Total GULP energy -167710.093695 kJ/mol
# GULP energy per Si atom -5590.336457 kJ/mol
# Density = 2.270529 g / cm^3
# Si number density = 22.757087 Si / 1000 Ang^3
#
#
#
# Elastic Constant Matrix: (Units=GPa)
#
#
# Indices 1 2 3 4 5 6 
#
# 1 105.3589 31.5218 32.1027 0.0000 0.0000 0.0000
# 2 31.5218 74.1212 -16.2192 0.0000 0.0000 0.0000
# 3 32.1027 -16.2192 122.2580 0.0000 0.0000 0.0000
# 4 0.0000 0.0000 0.0000 25.3927 0.0000 0.0000
# 5 0.0000 0.0000 0.0000 0.0000 45.9773 0.0000
# 6 0.0000 0.0000 0.0000 0.0000 0.0000 41.0024
#
#
#
# Elastic Compliance Matrix: (Units=1/GPa)
#
#
# Indices 1 2 3 4 5 6 
#
# 1 0.012636 -0.006282 -0.004151 0.000000 0.000000 0.000000
# 2 -0.006282 0.017018 0.003907 0.000000 0.000000 0.000000
# 3 -0.004151 0.003907 0.009788 0.000000 0.000000 0.000000
# 4 0.000000 0.000000 0.000000 0.039381 0.000000 0.000000
# 5 0.000000 0.000000 0.000000 0.000000 0.021750 0.000000
# 6 0.000000 0.000000 0.000000 0.000000 0.000000 0.024389
#
#
# Mechanical properties :
#
#
# Convention : Reuss Voigt Hill
#
# Bulk Modulus (GPa) = 37.89416 44.06096 40.97756
# Shear Modulus (GPa) = 34.05754 39.42999 36.74377
#
# Velocity S-wave (km/s) = 3.87275 4.16702 4.02258
# Velocity P-wave (km/s) = 6.05684 6.52346 6.29448
#
# Compressibility (1/GPa) = 0.02638929
#
# Stress axis : x y z
#
# Youngs Moduli (GPa) = 79.14044 58.76132 102.16763
#
# Poissons Ratio (x) = 0.36914 0.42413
# Poissons Ratio (y) = 0.49716 -0.39919
# Poissons Ratio (z) = 0.32854 -0.22959
#
# Static dielectric constant tensor:
#      x y z
#    x 1.977680 0.000000 0.000000 
#    y 0.000000 1.851580 0.000000 
#    z 0.000000 0.000000 1.815620 
# 
# From -- ./inp_files/20159.got.cif
#   From: 2010.05.17/outbox.cif.g08.bks.cpg/sg49_11_cif.got.tgz:20159.got - 2010.06.03 21:02:19.
