data_PCOD9395653
_publ_section_title
;
Structure prediction by ZEFSAII (Michael W. Deem and Ramdas Pophale) SiO2 
 PCOD9395653
Probable space group: P B A N
;
_chemical_formula_sum "Si O2"
_cell_formula_units_Z 64
_cell_length_a 28.329351
_cell_length_b 9.770488
_cell_length_c 11.856252
_cell_angle_alpha 90.000000
_cell_angle_beta 90.000000
_cell_angle_gamma 90.000000
_cell_volume 3281.710771
_symmetry_space_group_name_H-M "P B A N"
_symmetry_group_IT_number 50
_space_group.IT_coordinate_system_code '2'
_symmetry_cell_setting 'orthorhombic'
loop_
_space_group_symop_operation_xyz
x,y,z
1/2-x,1/2-y,z
x,1/2-y,-z
1/2-x,y,-z
-x,-y,-z
1/2+x,1/2+y,-z
-x,1/2+y,z
1/2+x,-y,z
loop_
_atom_site_type_symbol
_atom_site_label
_atom_site_fract_x
_atom_site_fract_y
_atom_site_fract_z
Si Si1 0.905808 0.854534 0.898684
Si Si2 0.656867 0.745145 0.709565
Si Si3 0.527419 0.126672 0.322674
Si Si4 0.299912 0.994976 0.619707
Si Si5 0.128247 0.726645 0.634100
Si Si6 0.945768 0.821531 0.661107
Si Si7 0.696234 0.034383 0.652060
Si Si8 0.537252 0.398603 0.940702
O O1 0.857948 0.813923 0.832247
O O2 0.943706 0.829412 0.798463
O O3 0.914321 0.010798 0.936769
O O4 0.913273 0.750000 0.000000
O O5 0.696242 0.651045 0.654379
O O6 0.608223 0.723295 0.637529
O O7 0.675411 0.898268 0.707463
O O8 0.573953 0.219640 0.334956
O O9 0.482633 0.205255 0.372999
O O10 0.520994 0.115370 0.188519
O O11 0.539313 0.975850 0.372496
O O12 0.346028 0.915455 0.663448
O O13 0.303005 0.983401 0.484514
O O14 0.251565 0.936284 0.670777
O O15 0.130242 0.750000 0.500000
O O16 0.160856 0.844748 0.683952
O O17 0.540955 0.250000 0.000000
O O18 0.500000 0.500000 0.000000
#
# Coordination Sequence:
#
# PCOD9395653 Si02
#       8
#     8   8   8   8   8   8   8   8
#     4   9  19  35  50  77 111 141 177 229 267 322
#     4  10  20  35  52  83 111 139 178 233 273 323
#     4  11  20  37  52  77 112 150 183 224 274 320
#     4  10  18  39  56  84 110 133 183 234 288 319
#     4  10  21  37  54  80 115 146 182 225 279 337
#     4   9  21  32  54  71 108 148 177 224 257 316
#     4  10  21  32  63  84 103 142 180 233 281 341
#     4  11  20  31  53  80 103 141 187 236 279 314
#
# _framework density 19.502023000000001
#
# number of rings (size 3 to 8) (size 9 to 14) (size 15 to 20)
#    0.750    1.250    1.250    3.750    1.750    3.500 
#    0.000    1.875    0.000    1.500    0.000    0.000 
#    0.000    3.000    0.000    0.000    0.000    0.000 
#
# Total GULP energy -356518.320045 kJ/mol
# GULP energy per Si atom -5570.598751 kJ/mol
# Density = 1.945764 g / cm^3
# Si number density = 19.502023 Si / 1000 Ang^3
#
#
#
# Elastic Constant Matrix: (Units=GPa)
#
#
# Indices 1 2 3 4 5 6 
#
# 1 62.6861 10.8436 4.8274 0.0000 0.0000 0.0000
# 2 10.8436 64.9369 15.6635 0.0000 0.0000 0.0000
# 3 4.8274 15.6635 36.3573 0.0000 0.0000 0.0000
# 4 0.0000 0.0000 0.0000 17.5376 0.0000 0.0000
# 5 0.0000 0.0000 0.0000 0.0000 -24.7379 0.0000
# 6 0.0000 0.0000 0.0000 0.0000 0.0000 29.2968
#
#
#
# Elastic Compliance Matrix: (Units=1/GPa)
#
#
# Indices 1 2 3 4 5 6 
#
# 1 0.016468 -0.002480 -0.001118 0.000000 0.000000 0.000000
# 2 -0.002480 0.017559 -0.007235 0.000000 0.000000 0.000000
# 3 -0.001118 -0.007235 0.030770 0.000000 0.000000 0.000000
# 4 0.000000 0.000000 0.000000 0.057020 0.000000 0.000000
# 5 0.000000 0.000000 0.000000 0.000000 -0.040424 0.000000
# 6 0.000000 0.000000 0.000000 0.000000 0.000000 0.034133
#
#
# Mechanical properties :
#
#
# Convention : Reuss Voigt Hill
#
# Bulk Modulus (GPa) = 23.18587 25.18326 24.18456
# Shear Modulus (GPa) = 32.98789 13.26237 23.12513
#
# Velocity S-wave (km/s) = 4.11726 2.61061 3.44725
# Velocity P-wave (km/s) = 5.87513 4.69342 5.31721
#
# Compressibility (1/GPa) = 0.04312972
#
# Stress axis : x y z
#
# Youngs Moduli (GPa) = 60.72520 56.95087 32.49872
#
# Poissons Ratio (x) = 0.14125 0.03633
# Poissons Ratio (y) = 0.15061 0.23514
# Poissons Ratio (z) = 0.06789 0.41207
#
# Static dielectric constant tensor:
#      x y z
#    x 1.706030 0.000000 0.000000 
#    y 0.000000 1.703240 0.000000 
#    z 0.000000 0.000000 1.701070 
# 
# From -- ./inp_files/23410.got.cif
#   From: 2010.05.17/outbox.cif.g08.bks.cpg/sg50_12_cif.got.tgz:23410.got - 2010.06.03 11:33:33.
