data_PCOD9395787
_publ_section_title
;
Structure prediction by ZEFSAII (Michael W. Deem and Ramdas Pophale) SiO2 
 PCOD9395787
Probable space group: P B A N
;
_chemical_formula_sum "Si O2"
_cell_formula_units_Z 54
_cell_length_a 5.226340
_cell_length_b 27.802113
_cell_length_c 19.919027
_cell_angle_alpha 90.000000
_cell_angle_beta 90.000000
_cell_angle_gamma 90.000000
_cell_volume 2894.300261
_symmetry_space_group_name_H-M "P B A N"
_symmetry_group_IT_number 50
_space_group.IT_coordinate_system_code '2'
_symmetry_cell_setting 'orthorhombic'
loop_
_space_group_symop_operation_xyz
x,y,z
1/2-x,1/2-y,z
x,1/2-y,-z
1/2-x,y,-z
-x,-y,-z
1/2+x,1/2+y,-z
-x,1/2+y,z
1/2+x,-y,z
loop_
_atom_site_type_symbol
_atom_site_label
_atom_site_fract_x
_atom_site_fract_y
_atom_site_fract_z
Si Si1 0.681819 0.305556 0.259953
Si Si2 0.160158 0.676478 0.100561
Si Si3 0.762988 0.965442 0.350020
Si Si4 0.664082 0.622501 0.107274
Si Si5 0.803290 0.516996 0.923127
Si Si6 0.250000 0.750000 0.000000
Si Si7 0.750000 0.532910 0.500000
Si Si8 0.180184 0.132929 0.732021
O O1 0.750000 0.250000 0.277546
O O2 0.661179 0.308013 0.178351
O O3 0.414419 0.330049 0.282563
O O4 0.913843 0.339926 0.283677
O O5 0.446555 0.659362 0.084589
O O6 0.086005 0.718759 0.051079
O O7 0.951764 0.635639 0.088269
O O8 0.755826 0.943858 0.426354
O O9 0.780066 0.918791 0.302683
O O10 0.510063 0.999177 0.341547
O O11 0.596407 0.570757 0.078992
O O12 0.664567 0.623023 0.188098
O O13 0.524810 0.514380 0.889875
O O14 0.750000 0.501625 0.000000
O O15 0.500000 0.500000 0.500000
#
# Coordination Sequence:
#
# PCOD9395787 Si02
#       8
#     8   8   8   8   8   2   4   8
#     4  10  19  38  52  74 105 138 172 226 262 310
#     4  10  23  35  54  76 100 123 161 207 267 325
#     4  10  19  33  53  84 117 147 176 216 257 313
#     4  10  22  38  51  74 102 129 158 213 257 300
#     4  10  21  35  51  67  88 122 163 194 233 290
#     4  12  24  38  56  82  92 130 164 204 276 342
#     4   8  16  30  50  76 115 150 175 206 260 308
#     4  10  21  33  55  79 103 136 182 208 261 319
#
# _framework density 18.657361000000002
#
# number of rings (size 3 to 8) (size 9 to 14) (size 15 to 20)
#    0.000    2.074    0.741    2.222    2.074    2.370 
#    0.000    0.000    0.000    0.000    0.000    3.111 
#    0.000    0.000    0.000    0.000    0.000    0.000 
#
# Total GULP energy -300843.498692 kJ/mol
# GULP energy per Si atom -5571.175902 kJ/mol
# Density = 1.861490 g / cm^3
# Si number density = 18.657361 Si / 1000 Ang^3
#
#
#
# Elastic Constant Matrix: (Units=GPa)
#
#
# Indices 1 2 3 4 5 6 
#
# 1 127.7816 31.0715 22.2422 0.0000 0.0000 0.0000
# 2 31.0715 95.5190 26.7301 0.0000 0.0000 0.0000
# 3 22.2422 26.7301 40.5444 0.0000 0.0000 0.0000
# 4 0.0000 0.0000 0.0000 16.6608 0.0000 0.0000
# 5 0.0000 0.0000 0.0000 0.0000 -1.1386 0.0000
# 6 0.0000 0.0000 0.0000 0.0000 0.0000 20.6748
#
#
#
# Elastic Compliance Matrix: (Units=1/GPa)
#
#
# Indices 1 2 3 4 5 6 
#
# 1 0.008919 -0.001879 -0.003654 0.000000 0.000000 0.000000
# 2 -0.001879 0.013233 -0.007694 0.000000 0.000000 0.000000
# 3 -0.003654 -0.007694 0.031741 0.000000 0.000000 0.000000
# 4 0.000000 0.000000 0.000000 0.060021 0.000000 0.000000
# 5 0.000000 0.000000 0.000000 0.000000 -0.878237 0.000000
# 6 0.000000 0.000000 0.000000 0.000000 0.000000 0.048368
#
#
# Mechanical properties :
#
#
# Convention : Reuss Voigt Hill
#
# Bulk Modulus (GPa) = 36.44303 47.10361 41.77332
# Shear Modulus (GPa) = -7.34911 19.49280 6.07185
#
# Velocity S-wave (km/s) = -1.98684 3.23581 1.80595
# Velocity P-wave (km/s) = 3.78310 6.26595 5.17561
#
# Compressibility (1/GPa) = 0.02744009
#
# Stress axis : x y z
#
# Youngs Moduli (GPa) = 112.12379 75.56726 31.50467
#
# Poissons Ratio (x) = 0.14196 0.11512
# Poissons Ratio (y) = 0.21063 0.24239
# Poissons Ratio (z) = 0.40972 0.58140
#
# Static dielectric constant tensor:
#      x y z
#    x 1.709990 0.000000 0.000000 
#    y 0.000000 1.629390 0.000000 
#    z 0.000000 0.000000 1.664070 
# 
# From -- ./inp_files/30450.got.cif
#   From: 2010.05.17/outbox.cif.g08.bks.cpg/sg50_16_cif.got.tgz:30450.got - 2010.06.03 11:33:33.
