data_PCOD9395840
_publ_section_title
;
Structure prediction by ZEFSAII (Michael W. Deem and Ramdas Pophale) SiO2 
 PCOD9395840
Probable space group: P B A N
;
_chemical_formula_sum "Si O2"
_cell_formula_units_Z 48
_cell_length_a 8.724864
_cell_length_b 22.391986
_cell_length_c 12.196153
_cell_angle_alpha 90.000000
_cell_angle_beta 90.000000
_cell_angle_gamma 90.000000
_cell_volume 2382.726220
_symmetry_space_group_name_H-M "P B A N"
_symmetry_group_IT_number 50
_space_group.IT_coordinate_system_code '2'
_symmetry_cell_setting 'orthorhombic'
loop_
_space_group_symop_operation_xyz
x,y,z
1/2-x,1/2-y,z
x,1/2-y,-z
1/2-x,y,-z
-x,-y,-z
1/2+x,1/2+y,-z
-x,1/2+y,z
1/2+x,-y,z
loop_
_atom_site_type_symbol
_atom_site_label
_atom_site_fract_x
_atom_site_fract_y
_atom_site_fract_z
Si Si1 0.598889 0.210094 0.195311
Si Si2 0.244089 0.411238 0.365702
Si Si3 0.439604 0.521178 0.381164
Si Si4 0.427145 0.177079 0.995176
Si Si5 0.740064 0.135346 0.621982
Si Si6 0.054203 0.328301 0.751126
O O1 0.750000 0.250000 0.160282
O O2 0.535924 0.167353 0.099198
O O3 0.652357 0.171606 0.297085
O O4 0.472290 0.257373 0.237951
O O5 0.250000 0.402424 0.500000
O O6 0.371252 0.460768 0.331820
O O7 0.286731 0.352223 0.297606
O O8 0.082071 0.441073 0.335700
O O9 0.500000 0.500000 0.500000
O O10 0.298751 0.567553 0.384036
O O11 0.427101 0.250000 0.000000
O O12 0.250000 0.158458 0.000000
O O13 0.479695 0.153302 0.877150
O O14 0.750000 0.160221 0.500000
O O15 0.571969 0.145135 0.669411
#
# Coordination Sequence:
#
# PCOD9395840 Si02
#       6
#     8   8   8   8   8   8
#     4   9  21  37  61  88 123 161 205 244 300 357
#     4  10  19  34  56  85 116 151 197 246 297 355
#     4  10  20  35  58  82 115 157 203 242 288 357
#     4   9  19  37  60  82 117 158 208 248 283 347
#     4  11  21  36  58  88 125 160 197 243 299 363
#     4  10  21  36  58  88 121 158 198 244 301 353
#
# _framework density 20.144992999999999
#
# number of rings (size 3 to 8) (size 9 to 14) (size 15 to 20)
#    0.000    2.167    0.000    4.500    2.333   10.667 
#    0.000    0.000    0.000    1.000    0.000    0.000 
#    0.000    0.000    0.000    0.000    0.000    0.000 
#
# Total GULP energy -267460.069721 kJ/mol
# GULP energy per Si atom -5572.084786 kJ/mol
# Density = 2.009914 g / cm^3
# Si number density = 20.144993 Si / 1000 Ang^3
#
#
#
# Elastic Constant Matrix: (Units=GPa)
#
#
# Indices 1 2 3 4 5 6 
#
# 1 68.0063 24.1579 48.7199 0.0000 0.0000 0.0000
# 2 24.1579 40.2232 21.0147 0.0000 0.0000 0.0000
# 3 48.7199 21.0147 135.5434 0.0000 0.0000 0.0000
# 4 0.0000 0.0000 0.0000 -17.2143 0.0000 0.0000
# 5 0.0000 0.0000 0.0000 0.0000 34.7843 0.0000
# 6 0.0000 0.0000 0.0000 0.0000 0.0000 29.5882
#
#
#
# Elastic Compliance Matrix: (Units=1/GPa)
#
#
# Indices 1 2 3 4 5 6 
#
# 1 0.023236 -0.010438 -0.006734 0.000000 0.000000 0.000000
# 2 -0.010438 0.031741 -0.001169 0.000000 0.000000 0.000000
# 3 -0.006734 -0.001169 0.009979 0.000000 0.000000 0.000000
# 4 0.000000 0.000000 0.000000 -0.058091 0.000000 0.000000
# 5 0.000000 0.000000 0.000000 0.000000 0.028749 0.000000
# 6 0.000000 0.000000 0.000000 0.000000 0.000000 0.033797
#
#
# Mechanical properties :
#
#
# Convention : Reuss Voigt Hill
#
# Bulk Modulus (GPa) = 35.36684 47.95088 41.65886
# Shear Modulus (GPa) = 43.28320 19.42366 31.35343
#
# Velocity S-wave (km/s) = 4.64031 3.10851 3.94939
# Velocity P-wave (km/s) = 6.80472 6.06122 6.44370
#
# Compressibility (1/GPa) = 0.02827508
#
# Stress axis : x y z
#
# Youngs Moduli (GPa) = 43.03587 31.50502 100.20579
#
# Poissons Ratio (x) = 0.32884 0.67478
# Poissons Ratio (y) = 0.44919 0.11718
# Poissons Ratio (z) = 0.28980 0.03684
#
# Static dielectric constant tensor:
#      x y z
#    x 1.821160 0.000000 0.000000 
#    y 0.000000 1.728560 0.000000 
#    z 0.000000 0.000000 1.745210 
# 
# From -- ./inp_files/19162.got.cif
#   From: 2010.05.17/outbox.cif.g08.bks.cpg/sg50_10_cif.got.tgz:19162.got - 2010.06.03 11:33:33.
