data_PCOD9395219
_publ_section_title
;
Structure prediction by ZEFSAII (Michael W. Deem and Ramdas Pophale) SiO2 
 PCOD9395219
Probable space group: P C C M
;
_chemical_formula_sum "Si O2"
_cell_formula_units_Z 56
_cell_length_a 21.000000
_cell_length_b 15.000000
_cell_length_c 9.000000
_cell_angle_alpha 90.000000
_cell_angle_beta 90.000000
_cell_angle_gamma 90.000000
_cell_volume 2835.000000
_symmetry_space_group_name_H-M "P C C M"
_symmetry_group_IT_number 49
_symmetry_cell_setting 'orthorhombic'
loop_
_space_group_symop_operation_xyz
x,y,z
-x,-y,z
x,-y,1/2-z
-x,y,1/2-z
-x,-y,-z
x,y,-z
-x,y,1/2+z
x,-y,1/2+z
loop_
_atom_site_type_symbol
_atom_site_label
_atom_site_fract_x
_atom_site_fract_y
_atom_site_fract_z
Si Si1 0.329807 0.907792 0.820557
Si Si2 0.104128 0.411641 0.176721
Si Si3 0.934178 0.789140 0.822274
Si Si4 0.370570 0.411059 0.175557
Si Si5 0.195219 0.837546 0.828982
Si Si6 0.432195 0.778243 0.676377
Si Si7 0.764345 0.630967 0.671667
O O1 0.255812 0.893673 0.774998
O O2 0.375353 0.831827 0.755383
O O3 0.352298 0.000000 0.750000
O O4 0.332211 0.907378 0.000000
O O5 0.075317 0.500000 0.250000
O O6 0.073939 0.316166 0.218792
O O7 0.176719 0.405862 0.234324
O O8 0.102101 0.419752 0.000000
O O9 0.870099 0.836800 0.763147
O O10 0.000000 0.821552 0.750000
O O11 0.937100 0.795475 0.000000
O O12 0.397292 0.500000 0.250000
O O13 0.415547 0.325928 0.195893
O O14 0.302743 0.391584 0.254144
O O15 0.360251 0.423976 0.000000
O O16 0.223202 0.736980 0.829095
O O17 0.180539 0.861358 0.000000
O O18 0.500000 0.799455 0.750000
O O19 0.433037 0.797729 0.500000
O O20 0.766380 0.599898 0.500000
#
# Coordination Sequence:
#
# PCOD9395219 Si02
#       7
#     8   8   8   8   8   8   8
#     4  11  23  42  69 101 131 161 200 248 305 370
#     4  10  20  32  46  70 104 146 194 248 303 357
#     4  10  21  35  54  79 111 152 199 246 299 362
#     4  11  23  37  57  85 119 161 208 256 306 360
#     4   9  19  36  60  87 118 155 195 243 298 356
#     4  11  25  44  66  92 126 167 208 256 308 365
#     4  10  18  32  54  79 110 150 196 248 302 356
#
# _framework density 19.753086
#
# number of rings (size 3 to 8) (size 9 to 14) (size 15 to 20)
#    0.000    1.714    1.429    3.000    0.000    6.000 
#    0.000    4.286    0.000    0.429    0.000    3.000 
#    0.000    0.000    0.000    0.000    0.000    0.000 
#
# Total GULP energy -312860.202337 kJ/mol
# GULP energy per Si atom -5586.789327 kJ/mol
# Density = 1.970813 g / cm^3
# Si number density = 19.753086 Si / 1000 Ang^3
#
#
#
# Elastic Constant Matrix: (Units=GPa)
#
#
# Indices 1 2 3 4 5 6 
#
# 1 116.4823 22.2754 51.7255 0.0000 0.0000 0.0000
# 2 22.2754 57.0554 27.7292 0.0000 0.0000 0.0000
# 3 51.7255 27.7292 78.5361 0.0000 0.0000 0.0000
# 4 0.0000 0.0000 0.0000 18.1166 0.0000 0.0000
# 5 0.0000 0.0000 0.0000 0.0000 26.5013 0.0000
# 6 0.0000 0.0000 0.0000 0.0000 0.0000 -0.0144
#
#
#
# Elastic Compliance Matrix: (Units=1/GPa)
#
#
# Indices 1 2 3 4 5 6 
#
# 1 0.012184 -0.001034 -0.007660 0.000000 0.000000 0.000000
# 2 -0.001034 0.021245 -0.006820 0.000000 0.000000 0.000000
# 3 -0.007660 -0.006820 0.020186 0.000000 0.000000 0.000000
# 4 0.000000 0.000000 0.000000 0.055198 0.000000 0.000000
# 5 0.000000 0.000000 0.000000 0.000000 0.037734 0.000000
# 6 0.000000 0.000000 0.000000 0.000000 0.000000-69.653353
#
#
# Mechanical properties :
#
#
# Convention : Reuss Voigt Hill
#
# Bulk Modulus (GPa) = 44.27247 50.61490 47.44369
# Shear Modulus (GPa) = -0.07198 18.94361 9.43582
#
# Velocity S-wave (km/s) = -0.19109 3.10016 2.18798
# Velocity P-wave (km/s) = 4.73423 6.20436 5.51847
#
# Compressibility (1/GPa) = 0.02258740
#
# Stress axis : x y z
#
# Youngs Moduli (GPa) = 82.07411 47.06952 49.54004
#
# Poissons Ratio (x) = 0.04868 0.37945
# Poissons Ratio (y) = 0.08489 0.33786
# Poissons Ratio (z) = 0.62865 0.32101
#
# Static dielectric constant tensor:
#      x y z
#    x 1.662080 0.000000 0.000000 
#    y 0.000000 1.734550 0.000000 
#    z 0.000000 0.000000 1.663280 
# 
# From -- ./inp_files/4053.got.cif
#   From: 2010.05.17/outbox.ucp.g08.bks.cvg/sg49_3_cif.got.tgz:4053.got - 2010.06.11 16:40:14.
