data_PCOD9395410
_publ_section_title
;
Structure prediction by ZEFSAII (Michael W. Deem and Ramdas Pophale) SiO2 
 PCOD9395410
Probable space group: P B A N
;
_chemical_formula_sum "Si O2"
_cell_formula_units_Z 36
_cell_length_a 15.355635
_cell_length_b 13.815690
_cell_length_c 8.980791
_cell_angle_alpha 90.000000
_cell_angle_beta 90.000000
_cell_angle_gamma 90.000000
_cell_volume 1905.263072
_symmetry_space_group_name_H-M "P B A N"
_symmetry_group_IT_number 50
_space_group.IT_coordinate_system_code '2'
_symmetry_cell_setting 'orthorhombic'
loop_
_space_group_symop_operation_xyz
x,y,z
1/2-x,1/2-y,z
x,1/2-y,-z
1/2-x,y,-z
-x,-y,-z
1/2+x,1/2+y,-z
-x,1/2+y,z
1/2+x,-y,z
loop_
_atom_site_type_symbol
_atom_site_label
_atom_site_fract_x
_atom_site_fract_y
_atom_site_fract_z
Si Si1 0.535656 0.082404 0.180530
Si Si2 0.250000 0.250000 0.500000
Si Si3 0.000048 0.364703 0.837143
Si Si4 0.750000 0.750000 0.000000
Si Si5 0.872420 0.813343 0.244852
Si Si6 0.852329 0.247351 0.678381
O O1 0.441780 0.102361 0.253620
O O2 0.607095 0.147309 0.260841
O O3 0.545645 0.967894 0.191143
O O4 0.525273 0.124449 0.011972
O O5 0.186187 0.192598 0.609506
O O6 0.912108 0.332349 0.750632
O O7 0.069509 0.282544 0.789694
O O8 0.808421 0.817116 0.104743
O O9 0.750000 0.250000 0.716494
O O10 0.861339 0.250000 0.500000
#
# Coordination Sequence:
#
# PCOD9395410 Si02
#       6
#     8   2   8   2   8   8
#     4  10  21  39  62  86 113 149 194 238 291 334
#     4  10  24  34  56  82 118 148 196 214 292 338
#     4  10  21  39  62  86 113 149 194 238 291 334
#     4  10  16  34  60  74 118 148 184 230 288 322
#     4  10  19  38  54  85 114 153 180 238 280 340
#     4  10  22  41  59  85 119 156 192 235 284 348
#
# _framework density 18.895029000000001
#
# number of rings (size 3 to 8) (size 9 to 14) (size 15 to 20)
#    0.000    2.000    2.222    2.000    6.222    2.667 
#    8.000    0.000    0.000    0.000    0.000    0.000 
#    0.000    0.000    0.000    0.000    0.000    0.000 
#
# Total GULP energy -200667.705159 kJ/mol
# GULP energy per Si atom -5574.102921 kJ/mol
# Density = 1.885202 g / cm^3
# Si number density = 18.895029 Si / 1000 Ang^3
#
#
#
# Elastic Constant Matrix: (Units=GPa)
#
#
# Indices 1 2 3 4 5 6 
#
# 1 118.8985 16.0881 53.0271 0.0000 0.0000 0.0000
# 2 16.0881 81.3348 18.8051 0.0000 0.0000 0.0000
# 3 53.0271 18.8051 94.1990 0.0000 0.0000 0.0000
# 4 0.0000 0.0000 0.0000 7.3645 0.0000 0.0000
# 5 0.0000 0.0000 0.0000 0.0000 51.9092 0.0000
# 6 0.0000 0.0000 0.0000 0.0000 0.0000 5.2907
#
#
#
# Elastic Compliance Matrix: (Units=1/GPa)
#
#
# Indices 1 2 3 4 5 6 
#
# 1 0.011279 -0.000800 -0.006190 0.000000 0.000000 0.000000
# 2 -0.000800 0.012947 -0.002134 0.000000 0.000000 0.000000
# 3 -0.006190 -0.002134 0.014526 0.000000 0.000000 0.000000
# 4 0.000000 0.000000 0.000000 0.135786 0.000000 0.000000
# 5 0.000000 0.000000 0.000000 0.000000 0.019264 0.000000
# 6 0.000000 0.000000 0.000000 0.000000 0.000000 0.189011
#
#
# Mechanical properties :
#
#
# Convention : Reuss Voigt Hill
#
# Bulk Modulus (GPa) = 48.77029 52.25254 50.51142
# Shear Modulus (GPa) = 12.25801 26.68035 19.46918
#
# Velocity S-wave (km/s) = 2.54981 3.76178 3.21345
# Velocity P-wave (km/s) = 5.87672 6.82511 6.36859
#
# Compressibility (1/GPa) = 0.02050428
#
# Stress axis : x y z
#
# Youngs Moduli (GPa) = 88.65790 77.24076 68.84089
#
# Poissons Ratio (x) = 0.06179 0.42611
# Poissons Ratio (y) = 0.07092 0.14692
# Poissons Ratio (z) = 0.54877 0.16485
#
# Static dielectric constant tensor:
#      x y z
#    x 1.661630 0.000000 0.000000 
#    y 0.000000 1.643380 0.000000 
#    z 0.000000 0.000000 1.687680 
# 
# From -- ./inp_files/12468.got.cif
#   From: 2010.05.17/outbox.cif.g08.bks.cpg/sg50_7_cif.got.tgz:12468.got - 2010.06.03 11:33:33.
