data_PCOD9395794
_publ_section_title
;
Structure prediction by ZEFSAII (Michael W. Deem and Ramdas Pophale) SiO2 
 PCOD9395794
Probable space group: P B A N
;
_chemical_formula_sum "Si O2"
_cell_formula_units_Z 48
_cell_length_a 24.920944
_cell_length_b 5.076480
_cell_length_c 15.497494
_cell_angle_alpha 90.000000
_cell_angle_beta 90.000000
_cell_angle_gamma 90.000000
_cell_volume 1960.598408
_symmetry_space_group_name_H-M "P B A N"
_symmetry_group_IT_number 50
_space_group.IT_coordinate_system_code '2'
_symmetry_cell_setting 'orthorhombic'
loop_
_space_group_symop_operation_xyz
x,y,z
1/2-x,1/2-y,z
x,1/2-y,-z
1/2-x,y,-z
-x,-y,-z
1/2+x,1/2+y,-z
-x,1/2+y,z
1/2+x,-y,z
loop_
_atom_site_type_symbol
_atom_site_label
_atom_site_fract_x
_atom_site_fract_y
_atom_site_fract_z
Si Si1 0.174495 0.689539 0.239087
Si Si2 0.472295 0.922274 0.109706
Si Si3 0.351984 0.495783 0.940802
Si Si4 0.922375 0.662331 0.405185
Si Si5 0.305506 0.173656 0.649288
Si Si6 0.557512 0.182096 0.705999
O O1 0.182783 0.577103 0.143107
O O2 0.180134 0.440382 0.300912
O O3 0.112119 0.778576 0.245707
O O4 0.204163 0.942181 0.279726
O O5 0.482357 0.625130 0.078781
O O6 0.413754 0.041812 0.091047
O O7 0.479174 0.889140 0.213223
O O8 0.352527 0.750000 0.000000
O O9 0.335080 0.250000 0.000000
O O10 0.939103 0.750000 0.500000
O O11 0.858061 0.595922 0.405434
O O12 0.952345 0.410872 0.364180
O O13 0.930621 0.912220 0.343806
O O14 0.250000 0.250000 0.602987
#
# Coordination Sequence:
#
# PCOD9395794 Si02
#       6
#     8   8   8   8   8   8
#     4   9  19  35  53  75 104 143 182 209 251 320
#     4  11  22  36  56  80 108 141 176 221 273 323
#     4  11  22  36  56  81 109 140 176 221 270 323
#     4  10  19  33  55  80 107 139 176 221 268 315
#     4  10  19  33  55  81 108 138 175 220 266 315
#     4   9  19  35  53  74 103 144 184 210 251 322
#
# _framework density 24.482320999999999
#
# number of rings (size 3 to 8) (size 9 to 14) (size 15 to 20)
#    0.000    2.000    0.000    4.000    0.000    7.667 
#    0.000    0.000    0.000   23.500    0.000    0.000 
#    0.000    0.000    0.000    0.000    0.000    0.000 
#
# Total GULP energy -268226.205063 kJ/mol
# GULP energy per Si atom -5588.045939 kJ/mol
# Density = 2.442660 g / cm^3
# Si number density = 24.482321 Si / 1000 Ang^3
#
#
#
# Elastic Constant Matrix: (Units=GPa)
#
#
# Indices 1 2 3 4 5 6 
#
# 1 68.1122 12.0999 9.1226 0.0000 0.0000 0.0000
# 2 12.0999 148.7980 25.4618 0.0000 0.0000 0.0000
# 3 9.1226 25.4618 91.1752 0.0000 0.0000 0.0000
# 4 0.0000 0.0000 0.0000 41.5715 0.0000 0.0000
# 5 0.0000 0.0000 0.0000 0.0000 -19.5652 0.0000
# 6 0.0000 0.0000 0.0000 0.0000 0.0000 53.6401
#
#
#
# Elastic Compliance Matrix: (Units=1/GPa)
#
#
# Indices 1 2 3 4 5 6 
#
# 1 0.015025 -0.001013 -0.001220 0.000000 0.000000 0.000000
# 2 -0.001013 0.007126 -0.001889 0.000000 0.000000 0.000000
# 3 -0.001220 -0.001889 0.011617 0.000000 0.000000 0.000000
# 4 0.000000 0.000000 0.000000 0.024055 0.000000 0.000000
# 5 0.000000 0.000000 0.000000 0.000000 -0.051111 0.000000
# 6 0.000000 0.000000 0.000000 0.000000 0.000000 0.018643
#
#
# Mechanical properties :
#
#
# Convention : Reuss Voigt Hill
#
# Bulk Modulus (GPa) = 39.17824 44.60600 41.89212
# Shear Modulus (GPa) = 118.74407 32.55605 75.65006
#
# Velocity S-wave (km/s) = 6.97189 3.65057 5.56480
# Velocity P-wave (km/s) = 8.99150 6.00234 7.64445
#
# Compressibility (1/GPa) = 0.02552437
#
# Stress axis : x y z
#
# Youngs Moduli (GPa) = 66.55544 140.32967 86.07743
#
# Poissons Ratio (x) = 0.14215 0.10505
# Poissons Ratio (y) = 0.06742 0.16257
# Poissons Ratio (z) = 0.08123 0.26504
#
# Static dielectric constant tensor:
#      x y z
#    x 2.248740 0.000000 0.000000 
#    y 0.000000 1.897790 0.000000 
#    z 0.000000 0.000000 1.932990 
# 
# From -- ./inp_files/24082.got.cif
#   From: 2010.05.17/outbox.cif.g08.bks.cpg/sg50_13_cif.got.tgz:24082.got - 2010.06.03 11:33:33.
