data_PCOD9395981
_publ_section_title
;
Structure prediction by ZEFSAII (Michael W. Deem and Ramdas Pophale) SiO2 
 PCOD9395981
Probable space group: P B A N
;
_chemical_formula_sum "Si O2"
_cell_formula_units_Z 58
_cell_length_a 17.363325
_cell_length_b 17.001024
_cell_length_c 11.454546
_cell_angle_alpha 90.000000
_cell_angle_beta 90.000000
_cell_angle_gamma 90.000000
_cell_volume 3381.316746
_symmetry_space_group_name_H-M "P B A N"
_symmetry_group_IT_number 50
_space_group.IT_coordinate_system_code '2'
_symmetry_cell_setting 'orthorhombic'
loop_
_space_group_symop_operation_xyz
x,y,z
1/2-x,1/2-y,z
x,1/2-y,-z
1/2-x,y,-z
-x,-y,-z
1/2+x,1/2+y,-z
-x,1/2+y,z
1/2+x,-y,z
loop_
_atom_site_type_symbol
_atom_site_label
_atom_site_fract_x
_atom_site_fract_y
_atom_site_fract_z
Si Si1 0.019798 0.589088 0.464233
Si Si2 0.574749 0.603107 0.883929
Si Si3 0.385989 0.309510 0.346711
Si Si4 0.250000 0.250000 0.500000
Si Si5 0.431508 0.518706 0.756561
Si Si6 0.050582 0.671424 0.943444
Si Si7 0.484780 0.344893 0.692074
Si Si8 0.839335 0.468583 0.985496
O O1 0.076688 0.575931 0.355287
O O2 0.000000 0.500000 0.500000
O O3 0.944088 0.632912 0.415636
O O4 0.039871 0.636219 0.581598
O O5 0.614505 0.656219 0.784796
O O6 0.510411 0.547808 0.820346
O O7 0.634828 0.548402 0.950474
O O8 0.525550 0.651059 0.979779
O O9 0.306083 0.300551 0.415671
O O10 0.425530 0.223654 0.341463
O O11 0.443035 0.427955 0.720226
O O12 0.364715 0.526104 0.850703
O O13 0.109188 0.600141 0.958817
O O14 0.028187 0.681024 0.808945
O O15 0.083914 0.750000 0.000000
O O16 0.750000 0.453938 0.000000
#
# Coordination Sequence:
#
# PCOD9395981 Si02
#       8
#     8   8   8   2   8   8   8   8
#     4   9  19  34  57  81 105 146 205 238 268 328
#     4  10  19  37  56  81 109 149 198 231 281 344
#     4  11  22  35  56  83 114 155 184 231 293 354
#     4  12  24  40  48  82 140 148 176 236 314 364
#     4   9  18  34  59  80 109 147 198 245 272 337
#     4  11  20  35  62  86 109 148 195 251 282 338
#     4  11  17  33  60  83 112 142 199 241 281 332
#     4  11  22  37  56  83 121 152 185 239 306 354
#
# _framework density 17.153081
#
# number of rings (size 3 to 8) (size 9 to 14) (size 15 to 20)
#    0.000    1.655    5.517    0.828    0.000    1.379 
#    0.000    0.000    0.000    0.828    0.000    0.000 
#    0.000    0.000    0.000    0.000    0.000    0.000 
#
# Total GULP energy -323319.919635 kJ/mol
# GULP energy per Si atom -5574.481373 kJ/mol
# Density = 1.711404 g / cm^3
# Si number density = 17.153081 Si / 1000 Ang^3
#
#
#
# Elastic Constant Matrix: (Units=GPa)
#
#
# Indices 1 2 3 4 5 6 
#
# 1 66.3368 19.0594 44.9170 0.0000 0.0000 0.0000
# 2 19.0594 66.2736 33.0325 0.0000 0.0000 0.0000
# 3 44.9170 33.0325 143.5806 0.0000 0.0000 0.0000
# 4 0.0000 0.0000 0.0000 35.2886 0.0000 0.0000
# 5 0.0000 0.0000 0.0000 0.0000 15.3969 0.0000
# 6 0.0000 0.0000 0.0000 0.0000 0.0000 7.3303
#
#
#
# Elastic Compliance Matrix: (Units=1/GPa)
#
#
# Indices 1 2 3 4 5 6 
#
# 1 0.019613 -0.002917 -0.005464 0.000000 0.000000 0.000000
# 2 -0.002917 0.017477 -0.003108 0.000000 0.000000 0.000000
# 3 -0.005464 -0.003108 0.009389 0.000000 0.000000 0.000000
# 4 0.000000 0.000000 0.000000 0.028338 0.000000 0.000000
# 5 0.000000 0.000000 0.000000 0.000000 0.064948 0.000000
# 6 0.000000 0.000000 0.000000 0.000000 0.000000 0.136420
#
#
# Mechanical properties :
#
#
# Convention : Reuss Voigt Hill
#
# Bulk Modulus (GPa) = 42.55334 52.24544 47.39939
# Shear Modulus (GPa) = 16.28679 23.54862 19.91771
#
# Velocity S-wave (km/s) = 3.08473 3.70922 3.41130
# Velocity P-wave (km/s) = 6.12775 6.99063 6.57336
#
# Compressibility (1/GPa) = 0.02349992
#
# Stress axis : x y z
#
# Youngs Moduli (GPa) = 50.98749 57.21781 106.50379
#
# Poissons Ratio (x) = 0.16689 0.58199
# Poissons Ratio (y) = 0.14872 0.33105
# Poissons Ratio (z) = 0.27862 0.17785
#
# Static dielectric constant tensor:
#      x y z
#    x 1.521680 0.000000 0.000000 
#    y 0.000000 1.590150 0.000000 
#    z 0.000000 0.000000 1.644640 
# 
# From -- ./inp_files/21311.got.cif
#   From: 2010.05.17/outbox.cif.g08.bks.cpg/sg50_11_cif.got.tgz:21311.got - 2010.06.03 11:33:33.
