data_PCOD9395892
_publ_section_title
;
Structure prediction by ZEFSAII (Michael W. Deem and Ramdas Pophale) SiO2 
 PCOD9395892
Probable space group: P B A N
;
_chemical_formula_sum "Si O2"
_cell_formula_units_Z 56
_cell_length_a 11.568874
_cell_length_b 15.337060
_cell_length_c 15.160492
_cell_angle_alpha 90.000000
_cell_angle_beta 90.000000
_cell_angle_gamma 90.000000
_cell_volume 2689.964219
_symmetry_space_group_name_H-M "P B A N"
_symmetry_group_IT_number 50
_space_group.IT_coordinate_system_code '2'
_symmetry_cell_setting 'orthorhombic'
loop_
_space_group_symop_operation_xyz
x,y,z
1/2-x,1/2-y,z
x,1/2-y,-z
1/2-x,y,-z
-x,-y,-z
1/2+x,1/2+y,-z
-x,1/2+y,z
1/2+x,-y,z
loop_
_atom_site_type_symbol
_atom_site_label
_atom_site_fract_x
_atom_site_fract_y
_atom_site_fract_z
Si Si1 0.525389 0.900971 0.644329
Si Si2 0.884549 0.044659 0.812124
Si Si3 0.963748 0.637274 0.204367
Si Si4 0.872663 0.787294 0.629578
Si Si5 0.170653 0.944132 0.679396
Si Si6 0.583232 0.150117 0.521728
Si Si7 0.121140 0.773975 0.102634
O O1 0.476685 0.926641 0.738721
O O2 0.553083 0.799764 0.644203
O O3 0.435351 0.910427 0.563913
O O4 0.635350 0.963342 0.636760
O O5 0.769969 0.045059 0.751395
O O6 0.887024 0.122290 0.882493
O O7 0.914216 0.947632 0.846050
O O8 0.066284 0.599654 0.265492
O O9 0.022039 0.716200 0.150323
O O10 0.867087 0.667915 0.274599
O O11 0.750000 0.750000 0.598975
O O12 0.951954 0.845193 0.564622
O O13 0.174654 0.882301 0.593793
O O14 0.610543 0.250000 0.500000
O O15 0.250000 0.750000 0.137971
O O16 0.117675 0.750000 0.000000
#
# Coordination Sequence:
#
# PCOD9395892 Si02
#       7
#     8   8   8   8   8   8   8
#     4  10  20  34  54  83 118 164 211 251 300 359
#     4  11  22  38  64  89 119 163 201 253 313 362
#     4  10  21  39  62  93 124 155 205 254 301 377
#     4  10  19  35  57  83 117 165 206 250 305 359
#     4  10  20  36  56  84 123 162 208 254 301 359
#     4   9  20  34  50  81 121 162 214 261 297 348
#     4  11  23  42  69  96 123 158 198 248 311 383
#
# _framework density 20.81812
#
# number of rings (size 3 to 8) (size 9 to 14) (size 15 to 20)
#    0.000    1.857    2.857    1.286    0.000    3.714 
#    0.000    3.571    0.000    0.429    0.000    0.000 
#    0.000    0.000    0.000    0.000    0.000    0.000 
#
# Total GULP energy -312161.262669 kJ/mol
# GULP energy per Si atom -5574.308262 kJ/mol
# Density = 2.077074 g / cm^3
# Si number density = 20.818120 Si / 1000 Ang^3
#
#
#
# Elastic Constant Matrix: (Units=GPa)
#
#
# Indices 1 2 3 4 5 6 
#
# 1 53.9321 12.3327 11.9004 0.0000 0.0000 0.0000
# 2 12.3327 110.8893 33.2225 0.0000 0.0000 0.0000
# 3 11.9004 33.2225 63.6485 0.0000 0.0000 0.0000
# 4 0.0000 0.0000 0.0000 27.8004 0.0000 0.0000
# 5 0.0000 0.0000 0.0000 0.0000 16.9513 0.0000
# 6 0.0000 0.0000 0.0000 0.0000 0.0000 21.1299
#
#
#
# Elastic Compliance Matrix: (Units=1/GPa)
#
#
# Indices 1 2 3 4 5 6 
#
# 1 0.019491 -0.001275 -0.002978 0.000000 0.000000 0.000000
# 2 -0.001275 0.010773 -0.005385 0.000000 0.000000 0.000000
# 3 -0.002978 -0.005385 0.019079 0.000000 0.000000 0.000000
# 4 0.000000 0.000000 0.000000 0.035971 0.000000 0.000000
# 5 0.000000 0.000000 0.000000 0.000000 0.058993 0.000000
# 6 0.000000 0.000000 0.000000 0.000000 0.000000 0.047326
#
#
# Mechanical properties :
#
#
# Convention : Reuss Voigt Hill
#
# Bulk Modulus (GPa) = 33.26075 38.15345 35.70710
# Shear Modulus (GPa) = 22.63145 24.57725 23.60435
#
# Velocity S-wave (km/s) = 3.30070 3.43967 3.37090
# Velocity P-wave (km/s) = 5.52609 5.84311 5.68681
#
# Compressibility (1/GPa) = 0.03006547
#
# Stress axis : x y z
#
# Youngs Moduli (GPa) = 51.30657 92.82359 52.41401
#
# Poissons Ratio (x) = 0.11838 0.15611
# Poissons Ratio (y) = 0.06543 0.28224
# Poissons Ratio (z) = 0.15282 0.49983
#
# Static dielectric constant tensor:
#      x y z
#    x 1.830320 0.000000 0.000000 
#    y 0.000000 1.806220 0.000000 
#    z 0.000000 0.000000 1.754100 
# 
# From -- ./inp_files/25945.got.cif
#   From: 2010.05.17/outbox.cif.g08.bks.cpg/sg50_13_cif.got.tgz:25945.got - 2010.06.03 11:33:33.
