data_PCOD9395524
_publ_section_title
;
Structure prediction by ZEFSAII (Michael W. Deem and Ramdas Pophale) SiO2 
 PCOD9395524
Probable space group: P B A N
;
_chemical_formula_sum "Si O2"
_cell_formula_units_Z 54
_cell_length_a 5.038182
_cell_length_b 22.083187
_cell_length_c 26.927696
_cell_angle_alpha 90.000000
_cell_angle_beta 90.000000
_cell_angle_gamma 90.000000
_cell_volume 2995.951633
_symmetry_space_group_name_H-M "P B A N"
_symmetry_group_IT_number 50
_space_group.IT_coordinate_system_code '2'
_symmetry_cell_setting 'orthorhombic'
loop_
_space_group_symop_operation_xyz
x,y,z
1/2-x,1/2-y,z
x,1/2-y,-z
1/2-x,y,-z
-x,-y,-z
1/2+x,1/2+y,-z
-x,1/2+y,z
1/2+x,-y,z
loop_
_atom_site_type_symbol
_atom_site_label
_atom_site_fract_x
_atom_site_fract_y
_atom_site_fract_z
Si Si1 0.679729 0.179699 0.848869
Si Si2 0.750000 0.750000 0.000000
Si Si3 0.250000 0.455143 0.500000
Si Si4 0.808674 0.543379 0.285175
Si Si5 0.820538 0.885995 0.188339
Si Si6 0.420458 0.644815 0.047432
Si Si7 0.252502 0.461808 0.907668
Si Si8 0.156998 0.041799 0.395368
O O1 0.750000 0.250000 0.844953
O O2 0.383246 0.164237 0.832342
O O3 0.736764 0.157529 0.904960
O O4 0.884136 0.140087 0.816055
O O5 0.569161 0.706810 0.033461
O O6 0.500000 0.500000 0.500000
O O7 0.274134 0.423018 0.446378
O O8 0.587905 0.490841 0.279907
O O9 0.757356 0.591820 0.242585
O O10 0.794459 0.569767 0.341238
O O11 0.787421 0.941558 0.149628
O O12 0.637858 0.594535 0.061185
O O13 0.250000 0.626409 0.000000
O O14 0.454464 0.517151 0.917348
O O15 0.357493 0.983878 0.396514
#
# Coordination Sequence:
#
# PCOD9395524 Si02
#       8
#     8   2   4   8   8   8   8   8
#     4  11  24  40  61  81 104 129 167 212 261 312
#     4  12  26  44  68  86 108 132 182 218 262 306
#     4   8  12  20  32  52  86 124 169 206 245 286
#     4  10  18  30  49  72 102 136 177 211 244 295
#     4  11  22  37  58  79 105 140 171 209 256 299
#     4  11  27  42  66  86 109 138 171 216 262 309
#     4  11  24  41  61  84 114 141 170 201 252 314
#     4   8  14  22  36  59  88 129 169 209 244 284
#
# _framework density 18.024322000000002
#
# number of rings (size 3 to 8) (size 9 to 14) (size 15 to 20)
#    0.000    1.778    0.000    5.111   10.370    0.593 
#    0.000    0.000    0.000    0.000    0.000    0.000 
#    0.000    0.000    0.000    4.000    0.000    1.481 
#
# Total GULP energy -301651.192529 kJ/mol
# GULP energy per Si atom -5586.133195 kJ/mol
# Density = 1.798330 g / cm^3
# Si number density = 18.024322 Si / 1000 Ang^3
#
#
#
# Elastic Constant Matrix: (Units=GPa)
#
#
# Indices 1 2 3 4 5 6 
#
# 1 50.7393 -6.6717 -8.3181 0.0000 0.0000 0.0000
# 2 -6.6717 50.5725 24.6450 0.0000 0.0000 0.0000
# 3 -8.3181 24.6450 129.2115 0.0000 0.0000 0.0000
# 4 0.0000 0.0000 0.0000 7.6535 0.0000 0.0000
# 5 0.0000 0.0000 0.0000 0.0000 20.8284 0.0000
# 6 0.0000 0.0000 0.0000 0.0000 0.0000 26.7335
#
#
#
# Elastic Compliance Matrix: (Units=1/GPa)
#
#
# Indices 1 2 3 4 5 6 
#
# 1 0.020145 0.002233 0.000871 0.000000 0.000000 0.000000
# 2 0.002233 0.022047 -0.004061 0.000000 0.000000 0.000000
# 3 0.000871 -0.004061 0.008570 0.000000 0.000000 0.000000
# 4 0.000000 0.000000 0.000000 0.130659 0.000000 0.000000
# 5 0.000000 0.000000 0.000000 0.000000 0.048011 0.000000
# 6 0.000000 0.000000 0.000000 0.000000 0.000000 0.037406
#
#
# Mechanical properties :
#
#
# Convention : Reuss Voigt Hill
#
# Bulk Modulus (GPa) = 20.47176 27.75929 24.11552
# Shear Modulus (GPa) = 17.54159 25.76760 21.65459
#
# Velocity S-wave (km/s) = 3.12303 3.78511 3.46990
# Velocity P-wave (km/s) = 4.93831 5.87683 5.42790
#
# Compressibility (1/GPa) = 0.04884778
#
# Stress axis : x y z
#
# Youngs Moduli (GPa) = 49.64008 45.35674 116.68663
#
# Poissons Ratio (x) = -0.10129 -0.10162
# Poissons Ratio (y) = -0.11086 0.47391
# Poissons Ratio (z) = -0.04323 0.18421
#
# Static dielectric constant tensor:
#      x y z
#    x 1.634550 0.000000 0.000000 
#    y 0.000000 1.598190 0.000000 
#    z 0.000000 0.000000 1.679240 
# 
# From -- ./inp_files/32116.got.cif
#   From: 2010.05.17/outbox.cif.g08.bks.cpg/sg50_17_cif.got.tgz:32116.got - 2010.06.03 11:33:33.
