data_PCOD9395051
_publ_section_title
;
Structure prediction by ZEFSAII (Michael W. Deem and Ramdas Pophale) SiO2 
 PCOD9395051
Probable space group: P C C M
;
_chemical_formula_sum "Si O2"
_cell_formula_units_Z 40
_cell_length_a 9.345111
_cell_length_b 7.384083
_cell_length_c 26.509135
_cell_angle_alpha 90.000000
_cell_angle_beta 90.000000
_cell_angle_gamma 90.000000
_cell_volume 1829.264856
_symmetry_space_group_name_H-M "P C C M"
_symmetry_group_IT_number 49
_symmetry_cell_setting 'orthorhombic'
loop_
_space_group_symop_operation_xyz
x,y,z
-x,-y,z
x,-y,1/2-z
-x,y,1/2-z
-x,-y,-z
x,y,-z
-x,y,1/2+z
x,-y,1/2+z
loop_
_atom_site_type_symbol
_atom_site_label
_atom_site_fract_x
_atom_site_fract_y
_atom_site_fract_z
Si Si1 0.638137 0.176451 0.717643
Si Si2 0.101848 0.754436 0.100056
Si Si3 0.060263 0.701128 0.299693
Si Si4 0.823539 0.381388 0.443059
Si Si5 0.348699 0.059335 0.898447
O O1 0.500000 0.243551 0.750000
O O2 0.771065 0.308099 0.709814
O O3 0.619406 0.109021 0.660160
O O4 0.682960 0.000000 0.750000
O O5 0.170349 0.552583 0.095049
O O6 0.006810 0.787064 0.150276
O O7 0.974658 0.728299 0.059345
O O8 0.225547 0.904516 0.096898
O O9 0.000000 0.500000 0.301931
O O10 0.000000 0.793917 0.250000
O O11 0.800020 0.445798 0.500000
O O12 0.707104 0.239018 0.425315
O O13 0.500000 0.000000 0.920950
#
# Coordination Sequence:
#
# PCOD9395051 Si02
#       5
#     8   8   8   8   8
#     4  11  22  41  65  98 141 182 226 282 351 422
#     4  11  22  44  71 102 141 179 238 301 352 422
#     4  11  22  38  65 101 135 177 235 285 345 420
#     4  11  25  47  74 104 137 182 243 306 363 412
#     4  12  25  42  70 103 142 187 234 287 356 438
#
# _framework density 21.866709
#
# number of rings (size 3 to 8) (size 9 to 14) (size 15 to 20)
#    0.000    0.800    6.000    3.000    0.000    5.600 
#    0.000    3.000    0.000    1.200    0.000    0.000 
#    0.000    0.000    0.000    0.000    0.000    0.000 
#
# Total GULP energy -223012.488243 kJ/mol
# GULP energy per Si atom -5575.312206 kJ/mol
# Density = 2.181694 g / cm^3
# Si number density = 21.866709 Si / 1000 Ang^3
#
#
#
# Elastic Constant Matrix: (Units=GPa)
#
#
# Indices 1 2 3 4 5 6 
#
# 1 146.0948 76.0767 15.5294 0.0000 0.0000 0.0000
# 2 76.0767 96.0058 30.4394 0.0000 0.0000 0.0000
# 3 15.5294 30.4394 107.3478 0.0000 0.0000 0.0000
# 4 0.0000 0.0000 0.0000 655.8860 0.0000 0.0000
# 5 0.0000 0.0000 0.0000 0.0000 -30.5256 0.0000
# 6 0.0000 0.0000 0.0000 0.0000 0.0000 4.7725
#
#
#
# Elastic Compliance Matrix: (Units=1/GPa)
#
#
# Indices 1 2 3 4 5 6 
#
# 1 0.011757 -0.009644 0.001034 0.000000 0.000000 0.000000
# 2 -0.009644 0.019356 -0.004093 0.000000 0.000000 0.000000
# 3 0.001034 -0.004093 0.010327 0.000000 0.000000 0.000000
# 4 0.000000 0.000000 0.000000 0.001525 0.000000 0.000000
# 5 0.000000 0.000000 0.000000 0.000000 -0.032759 0.000000
# 6 0.000000 0.000000 0.000000 0.000000 0.000000 0.209535
#
#
# Mechanical properties :
#
#
# Convention : Reuss Voigt Hill
#
# Bulk Modulus (GPa) = 62.37421 65.94882 64.16152
# Shear Modulus (GPa) = 19.96068 141.18675 80.57371
#
# Velocity S-wave (km/s) = 3.02459 8.04408 6.07681
# Velocity P-wave (km/s) = 6.38625 10.79357 8.86807
#
# Compressibility (1/GPa) = 0.01603227
#
# Stress axis : x y z
#
# Youngs Moduli (GPa) = 85.05465 51.66275 96.83650
#
# Poissons Ratio (x) = 0.49826 -0.10012
# Poissons Ratio (y) = 0.82030 0.39640
# Poissons Ratio (z) = -0.08794 0.21148
#
# Static dielectric constant tensor:
#      x y z
#    x 1.857170 0.000000 0.000000 
#    y 0.000000 1.870970 0.000000 
#    z 0.000000 0.000000 1.870190 
# 
# From -- ./inp_files/24358.got.cif
#   From: 2010.05.17/outbox.cif.g08.bks.cpg/sg49_13_cif.got.tgz:24358.got - 2010.06.03 21:02:19.
