data_PCOD9395690
_publ_section_title
;
Structure prediction by ZEFSAII (Michael W. Deem and Ramdas Pophale) SiO2 
 PCOD9395690
Probable space group: P B A N
;
_chemical_formula_sum "Si O2"
_cell_formula_units_Z 48
_cell_length_a 14.435378
_cell_length_b 5.213255
_cell_length_c 29.668871
_cell_angle_alpha 90.000000
_cell_angle_beta 90.000000
_cell_angle_gamma 90.000000
_cell_volume 2232.739982
_symmetry_space_group_name_H-M "P B A N"
_symmetry_group_IT_number 50
_space_group.IT_coordinate_system_code '2'
_symmetry_cell_setting 'orthorhombic'
loop_
_space_group_symop_operation_xyz
x,y,z
1/2-x,1/2-y,z
x,1/2-y,-z
1/2-x,y,-z
-x,-y,-z
1/2+x,1/2+y,-z
-x,1/2+y,z
1/2+x,-y,z
loop_
_atom_site_type_symbol
_atom_site_label
_atom_site_fract_x
_atom_site_fract_y
_atom_site_fract_z
Si Si1 0.137634 0.741688 0.706706
Si Si2 0.560097 0.736645 0.856985
Si Si3 0.563272 0.679597 0.046578
Si Si4 0.560051 0.144996 0.391976
Si Si5 0.139344 0.245597 0.759219
Si Si6 0.146264 0.995635 0.479539
O O1 0.250000 0.750000 0.702994
O O2 0.097080 0.657916 0.658808
O O3 0.108643 0.523675 0.742119
O O4 0.107486 0.017929 0.725940
O O5 0.523224 0.445146 0.857098
O O6 0.610659 0.782156 0.904910
O O7 0.612689 0.793310 0.810903
O O8 0.520014 0.393657 0.046023
O O9 0.614709 0.750000 0.000000
O O10 0.519217 0.429873 0.399515
O O11 0.639832 0.050471 0.426389
O O12 0.250000 0.250000 0.756318
O O13 0.097652 0.750000 0.500000
O O14 0.250000 0.996407 0.500000
O O15 0.104141 0.250000 0.500000
#
# Coordination Sequence:
#
# PCOD9395690 Si02
#       6
#     8   8   8   8   8   8
#     4  10  23  41  61  82 113 156 190 221 273 347
#     4  10  19  30  51  79 104 142 185 232 287 331
#     4   8  14  25  41  66 100 134 176 226 276 333
#     4  12  26  42  65  97 123 147 185 240 288 319
#     4  10  21  38  55  81 112 149 190 229 276 335
#     4  10  23  43  66  92 118 160 193 219 270 337
#
# _framework density 21.498249000000001
#
# number of rings (size 3 to 8) (size 9 to 14) (size 15 to 20)
#    0.000    2.000    0.000    3.000    2.333    6.000 
#    6.000    0.000    0.000    0.500    0.000    0.000 
#    0.000   17.333    0.000    0.000    0.000    2.667 
#
# Total GULP energy -267698.034807 kJ/mol
# GULP energy per Si atom -5577.042392 kJ/mol
# Density = 2.144932 g / cm^3
# Si number density = 21.498249 Si / 1000 Ang^3
#
#
#
# Elastic Constant Matrix: (Units=GPa)
#
#
# Indices 1 2 3 4 5 6 
#
# 1 60.0495 3.3163 20.8444 0.0000 0.0000 0.0000
# 2 3.3163 145.5303 27.6575 0.0000 0.0000 0.0000
# 3 20.8444 27.6575 189.8873 0.0000 0.0000 0.0000
# 4 0.0000 0.0000 0.0000 36.6853 0.0000 0.0000
# 5 0.0000 0.0000 0.0000 0.0000 41.5653 0.0000
# 6 0.0000 0.0000 0.0000 0.0000 0.0000 -0.7868
#
#
#
# Elastic Compliance Matrix: (Units=1/GPa)
#
#
# Indices 1 2 3 4 5 6 
#
# 1 0.017313 -0.000034 -0.001895 0.000000 0.000000 0.000000
# 2 -0.000034 0.007067 -0.001026 0.000000 0.000000 0.000000
# 3 -0.001895 -0.001026 0.005624 0.000000 0.000000 0.000000
# 4 0.000000 0.000000 0.000000 0.027259 0.000000 0.000000
# 5 0.000000 0.000000 0.000000 0.000000 0.024059 0.000000
# 6 0.000000 0.000000 0.000000 0.000000 0.000000 -1.271019
#
#
# Mechanical properties :
#
#
# Convention : Reuss Voigt Hill
#
# Bulk Modulus (GPa) = 41.50593 55.45595 48.48094
# Shear Modulus (GPa) = -4.25258 38.40270 17.07506
#
# Velocity S-wave (km/s) = -1.40798 4.23107 2.82131
# Velocity P-wave (km/s) = 4.08722 7.05130 5.76308
#
# Compressibility (1/GPa) = 0.02409294
#
# Stress axis : x y z
#
# Youngs Moduli (GPa) = 57.76080 141.50056 177.81795
#
# Poissons Ratio (x) = 0.00485 0.33705
# Poissons Ratio (y) = 0.00198 0.18237
# Poissons Ratio (z) = 0.10948 0.14512
#
# Static dielectric constant tensor:
#      x y z
#    x 1.772960 0.000000 0.000000 
#    y 0.000000 1.772620 0.000000 
#    z 0.000000 0.000000 1.866450 
# 
# From -- ./inp_files/31815.got.cif
#   From: 2010.05.17/outbox.cif.g08.bks.cpg/sg50_16_cif.got.tgz:31815.got - 2010.06.03 11:33:33.
