data_PCOD9395306
_publ_section_title
;
Structure prediction by ZEFSAII (Michael W. Deem and Ramdas Pophale) SiO2 
 PCOD9395306
Probable space group: P C C M
;
_chemical_formula_sum "Si O2"
_cell_formula_units_Z 56
_cell_length_a 15.000000
_cell_length_b 9.000000
_cell_length_c 21.000000
_cell_angle_alpha 90.000000
_cell_angle_beta 90.000000
_cell_angle_gamma 90.000000
_cell_volume 2835.000000
_symmetry_space_group_name_H-M "P C C M"
_symmetry_group_IT_number 49
_symmetry_cell_setting 'orthorhombic'
loop_
_space_group_symop_operation_xyz
x,y,z
-x,-y,z
x,-y,1/2-z
-x,y,1/2-z
-x,-y,-z
x,y,-z
-x,y,1/2+z
x,-y,1/2+z
loop_
_atom_site_type_symbol
_atom_site_label
_atom_site_fract_x
_atom_site_fract_y
_atom_site_fract_z
Si Si1 0.817824 0.297384 0.141057
Si Si2 0.980037 0.329470 0.644935
Si Si3 0.166374 0.837752 0.726011
Si Si4 0.685419 0.826791 0.116929
Si Si5 0.181525 0.591623 0.569449
Si Si6 0.499931 0.818926 0.824222
Si Si7 0.652833 0.156494 0.926261
O O1 0.798528 0.255170 0.213785
O O2 0.806179 0.470320 0.124499
O O3 0.749759 0.214815 0.094766
O O4 0.922958 0.260895 0.132045
O O5 0.918562 0.244447 0.695523
O O6 0.915496 0.338413 0.583540
O O7 0.000000 0.500000 0.665335
O O8 0.245635 0.858205 0.674954
O O9 0.139751 0.000000 0.750000
O O10 0.740633 0.711505 0.074773
O O11 0.592766 0.766907 0.144920
O O12 0.659835 0.978389 0.081326
O O13 0.181682 0.520159 0.500000
O O14 0.500000 0.769206 0.750000
O O15 0.418436 0.785440 0.873103
O O16 0.500000 0.000000 0.821700
O O17 0.631408 0.194095 0.000000
#
# Coordination Sequence:
#
# PCOD9395306 Si02
#       7
#     8   8   8   8   8   8   8
#     4  11  22  37  59  85 120 158 201 250 308 363
#     4   9  22  38  59  88 117 161 208 248 305 370
#     4  11  21  38  63  90 125 154 201 261 316 364
#     4  10  21  38  61  86 117 158 198 252 310 364
#     4  10  22  40  59  83 117 162 208 249 304 372
#     4   9  19  35  61  88 119 154 200 255 313 374
#     4  11  22  37  59  91 121 158 208 256 309 375
#
# _framework density 19.753086
#
# number of rings (size 3 to 8) (size 9 to 14) (size 15 to 20)
#    0.000    1.857    1.429    2.143    2.000   14.286 
#    0.000    0.714    0.000    5.143    0.000    0.000 
#    0.000    0.000    0.000    0.000    0.000    0.000 
#
# Total GULP energy -312424.555853 kJ/mol
# GULP energy per Si atom -5579.009926 kJ/mol
# Density = 1.970813 g / cm^3
# Si number density = 19.753086 Si / 1000 Ang^3
#
#
#
# Elastic Constant Matrix: (Units=GPa)
#
#
# Indices 1 2 3 4 5 6 
#
# 1 118.5592 24.3028 54.0515 0.0000 0.0000 0.0000
# 2 24.3028 35.7687 28.9233 0.0000 0.0000 0.0000
# 3 54.0515 28.9233 129.0241 0.0000 0.0000 0.0000
# 4 0.0000 0.0000 0.0000 17.1093 0.0000 0.0000
# 5 0.0000 0.0000 0.0000 0.0000 15.8300 0.0000
# 6 0.0000 0.0000 0.0000 0.0000 0.0000 16.7593
#
#
#
# Elastic Compliance Matrix: (Units=1/GPa)
#
#
# Indices 1 2 3 4 5 6 
#
# 1 0.011008 -0.004581 -0.003585 0.000000 0.000000 0.000000
# 2 -0.004581 0.036053 -0.006163 0.000000 0.000000 0.000000
# 3 -0.003585 -0.006163 0.010634 0.000000 0.000000 0.000000
# 4 0.000000 0.000000 0.000000 0.058448 0.000000 0.000000
# 5 0.000000 0.000000 0.000000 0.000000 0.063171 0.000000
# 6 0.000000 0.000000 0.000000 0.000000 0.000000 0.059668
#
#
# Mechanical properties :
#
#
# Convention : Reuss Voigt Hill
#
# Bulk Modulus (GPa) = 34.43741 55.32304 44.88023
# Shear Modulus (GPa) = 18.02984 21.67802 19.85393
#
# Velocity S-wave (km/s) = 3.02447 3.31637 3.17378
# Velocity P-wave (km/s) = 5.44687 6.53701 6.01668
#
# Compressibility (1/GPa) = 0.02903819
#
# Stress axis : x y z
#
# Youngs Moduli (GPa) = 90.84475 27.73671 94.04000
#
# Poissons Ratio (x) = 0.12705 0.33710
# Poissons Ratio (y) = 0.41612 0.57958
# Poissons Ratio (z) = 0.32564 0.17095
#
# Static dielectric constant tensor:
#      x y z
#    x 1.694220 0.000000 0.000000 
#    y 0.000000 1.716760 0.000000 
#    z 0.000000 0.000000 1.712530 
# 
# From -- ./inp_files/20866.got.cif
#   From: 2010.05.17/outbox.ucp.g08.bks.cvg/sg49_11_cif.got.tgz:20866.got - 2010.06.11 16:40:14.
