data_PCOD9395020
_publ_section_title
;
Structure prediction by ZEFSAII (Michael W. Deem and Ramdas Pophale) SiO2 
 PCOD9395020
Probable space group: P C C M
;
_chemical_formula_sum "Si O2"
_cell_formula_units_Z 40
_cell_length_a 7.063848
_cell_length_b 8.596122
_cell_length_c 31.389206
_cell_angle_alpha 90.000000
_cell_angle_beta 90.000000
_cell_angle_gamma 90.000000
_cell_volume 1906.005925
_symmetry_space_group_name_H-M "P C C M"
_symmetry_group_IT_number 49
_symmetry_cell_setting 'orthorhombic'
loop_
_space_group_symop_operation_xyz
x,y,z
-x,-y,z
x,-y,1/2-z
-x,y,1/2-z
-x,-y,-z
x,y,-z
-x,y,1/2+z
x,-y,1/2+z
loop_
_atom_site_type_symbol
_atom_site_label
_atom_site_fract_x
_atom_site_fract_y
_atom_site_fract_z
Si Si1 0.797105 0.160942 0.376993
Si Si2 0.117733 0.357835 0.666538
Si Si3 0.717730 0.059246 0.951992
Si Si4 0.279020 0.050657 0.703801
Si Si5 0.578609 0.346994 0.098374
O O1 0.791973 0.041904 0.337504
O O2 0.595618 0.248301 0.382001
O O3 0.964987 0.276214 0.364725
O O4 0.815991 0.063286 0.420384
O O5 0.289368 0.409562 0.636295
O O6 0.000000 0.500000 0.686938
O O7 0.213894 0.228420 0.696700
O O8 0.698281 0.228377 0.930436
O O9 0.500000 0.000000 0.954188
O O10 0.791849 0.065318 0.000000
O O11 0.500000 0.000000 0.703921
O O12 0.207312 0.000000 0.750000
O O13 0.500000 0.500000 0.074990
#
# Coordination Sequence:
#
# PCOD9395020 Si02
#       5
#     8   8   8   8   8
#     4  11  21  40  68  94 130 172 223 275 324 394
#     4  12  24  40  68  99 133 176 217 269 343 396
#     4   9  19  37  64  95 127 173 229 275 324 393
#     4  11  23  43  71 100 130 173 224 275 327 396
#     4  11  21  39  63  95 133 174 216 274 339 391
#
# _framework density 20.986295999999999
#
# number of rings (size 3 to 8) (size 9 to 14) (size 15 to 20)
#    0.000    1.200    6.000    1.200    0.000    2.000 
#    0.000    4.000    0.000    4.800    0.000    0.000 
#    0.000    0.000    0.000    0.000    0.000    0.000 
#
# Total GULP energy -223226.007537 kJ/mol
# GULP energy per Si atom -5580.650188 kJ/mol
# Density = 2.093853 g / cm^3
# Si number density = 20.986296 Si / 1000 Ang^3
#
#
#
# Elastic Constant Matrix: (Units=GPa)
#
#
# Indices 1 2 3 4 5 6 
#
# 1 113.2792 30.1148 15.5606 0.0000 0.0000 0.0000
# 2 30.1148 134.7036 41.8342 0.0000 0.0000 0.0000
# 3 15.5606 41.8342 114.0892 0.0000 0.0000 0.0000
# 4 0.0000 0.0000 0.0000 13.3125 0.0000 0.0000
# 5 0.0000 0.0000 0.0000 0.0000 112.8599 0.0000
# 6 0.0000 0.0000 0.0000 0.0000 0.0000 36.7886
#
#
#
# Elastic Compliance Matrix: (Units=1/GPa)
#
#
# Indices 1 2 3 4 5 6 
#
# 1 0.009419 -0.001926 -0.000578 0.000000 0.000000 0.000000
# 2 -0.001926 0.008772 -0.002954 0.000000 0.000000 0.000000
# 3 -0.000578 -0.002954 0.009927 0.000000 0.000000 0.000000
# 4 0.000000 0.000000 0.000000 0.075117 0.000000 0.000000
# 5 0.000000 0.000000 0.000000 0.000000 0.008861 0.000000
# 6 0.000000 0.000000 0.000000 0.000000 0.000000 0.027182
#
#
# Mechanical properties :
#
#
# Convention : Reuss Voigt Hill
#
# Bulk Modulus (GPa) = 58.13474 59.67681 58.90578
# Shear Modulus (GPa) = 32.06599 50.89637 41.48118
#
# Velocity S-wave (km/s) = 3.91314 4.92999 4.45070
# Velocity P-wave (km/s) = 6.94106 7.80412 7.38521
#
# Compressibility (1/GPa) = 0.01720142
#
# Stress axis : x y z
#
# Youngs Moduli (GPa) = 106.16544 114.00386 100.73526
#
# Poissons Ratio (x) = 0.21959 0.05827
# Poissons Ratio (y) = 0.20449 0.29754
# Poissons Ratio (z) = 0.06141 0.33673
#
# Static dielectric constant tensor:
#      x y z
#    x 1.828920 0.000000 0.000000 
#    y 0.000000 1.778390 0.000000 
#    z 0.000000 0.000000 1.724250 
# 
# From -- ./inp_files/24352.got.cif
#   From: 2010.05.17/outbox.cif.g08.bks.cpg/sg49_13_cif.got.tgz:24352.got - 2010.06.03 21:02:19.
