data_PCOD9395854
_publ_section_title
;
Structure prediction by ZEFSAII (Michael W. Deem and Ramdas Pophale) SiO2 
 PCOD9395854
Probable space group: P B A N
;
_chemical_formula_sum "Si O2"
_cell_formula_units_Z 48
_cell_length_a 18.184725
_cell_length_b 17.089897
_cell_length_c 8.854724
_cell_angle_alpha 90.000000
_cell_angle_beta 90.000000
_cell_angle_gamma 90.000000
_cell_volume 2751.827535
_symmetry_space_group_name_H-M "P B A N"
_symmetry_group_IT_number 50
_space_group.IT_coordinate_system_code '2'
_symmetry_cell_setting 'orthorhombic'
loop_
_space_group_symop_operation_xyz
x,y,z
1/2-x,1/2-y,z
x,1/2-y,-z
1/2-x,y,-z
-x,-y,-z
1/2+x,1/2+y,-z
-x,1/2+y,z
1/2+x,-y,z
loop_
_atom_site_type_symbol
_atom_site_label
_atom_site_fract_x
_atom_site_fract_y
_atom_site_fract_z
Si Si1 0.250000 0.750000 0.000000
Si Si2 0.743517 0.511535 0.819473
Si Si3 0.529756 0.111427 0.613639
Si Si4 0.750000 0.250000 0.500000
Si Si5 0.181329 0.127898 0.604925
Si Si6 0.897665 0.501812 0.387560
Si Si7 0.072586 0.250000 0.500000
Si Si8 0.173855 0.853017 0.751999
O O1 0.199958 0.695687 0.104338
O O2 0.783060 0.588818 0.752385
O O3 0.661801 0.501395 0.747259
O O4 0.786709 0.436426 0.756560
O O5 0.750000 0.511167 0.000000
O O6 0.473783 0.042797 0.659506
O O7 0.479830 0.185545 0.574115
O O8 0.587607 0.133418 0.740888
O O9 0.577858 0.078246 0.471161
O O10 0.799320 0.195877 0.392874
O O11 0.250000 0.151069 0.500000
O O12 0.138721 0.058241 0.515209
O O13 0.125741 0.200823 0.612614
#
# Coordination Sequence:
#
# PCOD9395854 Si02
#       8
#     2   8   8   2   8   8   4   8
#     4  10  24  38  52  78 120 154 192 218 304 346
#     4  11  21  36  60  86 118 155 200 238 293 355
#     4  10  19  34  58  84 115 145 191 244 296 339
#     4  10  22  30  60  84 112 144 210 234 294 338
#     4   9  18  35  61  85 110 149 200 246 287 335
#     4   9  19  35  58  85 113 143 193 246 287 342
#     4  10  20  34  56  90 114 146 188 252 301 339
#     4  11  20  37  55  83 113 156 187 244 283 355
#
# _framework density 17.442952999999999
#
# number of rings (size 3 to 8) (size 9 to 14) (size 15 to 20)
#    0.000    2.000    2.500    1.750    1.167    1.333 
#    0.000    2.500    0.000   17.000    0.000    0.000 
#    0.000    0.000    0.000    0.000    0.000    0.000 
#
# Total GULP energy -267572.072968 kJ/mol
# GULP energy per Si atom -5574.418187 kJ/mol
# Density = 1.740325 g / cm^3
# Si number density = 17.442953 Si / 1000 Ang^3
#
#
#
# Elastic Constant Matrix: (Units=GPa)
#
#
# Indices 1 2 3 4 5 6 
#
# 1 133.5897 49.2581 50.7468 0.0000 0.0000 0.0000
# 2 49.2581 99.4600 38.8453 0.0000 0.0000 0.0000
# 3 50.7468 38.8453 88.9516 0.0000 0.0000 0.0000
# 4 0.0000 0.0000 0.0000 -37.5809 0.0000 0.0000
# 5 0.0000 0.0000 0.0000 0.0000 10.0128 0.0000
# 6 0.0000 0.0000 0.0000 0.0000 0.0000 -36.8100
#
#
#
# Elastic Compliance Matrix: (Units=1/GPa)
#
#
# Indices 1 2 3 4 5 6 
#
# 1 0.010445 -0.003431 -0.004461 0.000000 0.000000 0.000000
# 2 -0.003431 0.013249 -0.003828 0.000000 0.000000 0.000000
# 3 -0.004461 -0.003828 0.015459 0.000000 0.000000 0.000000
# 4 0.000000 0.000000 0.000000 -0.026609 0.000000 0.000000
# 5 0.000000 0.000000 0.000000 0.000000 0.099872 0.000000
# 6 0.000000 0.000000 0.000000 0.000000 0.000000 -0.027167
#
#
# Mechanical properties :
#
#
# Convention : Reuss Voigt Hill
#
# Bulk Modulus (GPa) = 63.64290 66.63352 65.13821
# Shear Modulus (GPa) = 43.88814 -0.66554 21.61130
#
# Velocity S-wave (km/s) = 5.02151 -0.61837 3.52372
# Velocity P-wave (km/s) = 8.37773 6.14605 7.34712
#
# Compressibility (1/GPa) = 0.01571267
#
# Stress axis : x y z
#
# Youngs Moduli (GPa) = 95.73843 75.47927 64.68820
#
# Poissons Ratio (x) = 0.25896 0.28855
# Poissons Ratio (y) = 0.32846 0.24765
# Poissons Ratio (z) = 0.42706 0.28897
#
# Static dielectric constant tensor:
#      x y z
#    x 1.611790 0.000000 0.000000 
#    y 0.000000 1.628130 0.000000 
#    z 0.000000 0.000000 1.577680 
# 
# From -- ./inp_files/14416.got.cif
#   From: 2010.05.17/outbox.cif.g08.bks.cpg/sg50_8_cif.got.tgz:14416.got - 2010.06.03 11:33:33.
