data_PCOD9395856
_publ_section_title
;
Structure prediction by ZEFSAII (Michael W. Deem and Ramdas Pophale) SiO2 
 PCOD9395856
Probable space group: P B A N
;
_chemical_formula_sum "Si O2"
_cell_formula_units_Z 64
_cell_length_a 19.667718
_cell_length_b 8.107941
_cell_length_c 17.612757
_cell_angle_alpha 90.000000
_cell_angle_beta 90.000000
_cell_angle_gamma 90.000000
_cell_volume 2808.612961
_symmetry_space_group_name_H-M "P B A N"
_symmetry_group_IT_number 50
_space_group.IT_coordinate_system_code '2'
_symmetry_cell_setting 'orthorhombic'
loop_
_space_group_symop_operation_xyz
x,y,z
1/2-x,1/2-y,z
x,1/2-y,-z
1/2-x,y,-z
-x,-y,-z
1/2+x,1/2+y,-z
-x,1/2+y,z
1/2+x,-y,z
loop_
_atom_site_type_symbol
_atom_site_label
_atom_site_fract_x
_atom_site_fract_y
_atom_site_fract_z
Si Si1 0.977491 0.427681 0.660864
Si Si2 0.402091 0.854167 0.824813
Si Si3 0.553270 0.704578 0.235344
Si Si4 0.651702 0.980976 0.861786
Si Si5 0.773287 0.443894 0.418379
Si Si6 0.426688 0.863837 0.573607
Si Si7 0.421334 0.553564 0.011337
Si Si8 0.268200 0.556103 0.249847
O O1 0.933500 0.565836 0.700789
O O2 0.934366 0.267724 0.641744
O O3 0.036630 0.367791 0.717761
O O4 0.013370 0.507294 0.588175
O O5 0.480988 0.837046 0.803436
O O6 0.378662 0.662624 0.837987
O O7 0.400052 0.961907 0.901551
O O8 0.347980 0.938088 0.768960
O O9 0.610810 0.670750 0.174975
O O10 0.725143 0.981779 0.820580
O O11 0.632263 0.977617 0.951165
O O12 0.750000 0.250000 0.418833
O O13 0.750000 0.515146 0.500000
O O14 0.854453 0.448083 0.422634
O O15 0.752741 0.511684 0.334943
O O16 0.431045 0.750000 0.500000
O O17 0.420706 0.750000 0.000000
O O18 0.500000 0.500000 0.000000
O O19 0.250000 0.750000 0.252798
#
# Coordination Sequence:
#
# PCOD9395856 Si02
#       8
#     8   8   8   8   8   8   8   8
#     4  10  23  33  56  87 117 151 188 257 301 367
#     4  10  19  35  56  84 121 157 199 256 302 369
#     4  11  19  34  55  83 115 153 202 238 304 360
#     4  10  20  33  56  86 117 157 203 255 305 365
#     4  10  19  34  58  85 111 151 201 248 285 368
#     4  11  21  39  58  88 119 150 200 246 321 369
#     4  10  20  34  54  87 119 156 202 247 309 365
#     4   9  19  32  54  85 117 146 195 252 310 353
#
# _framework density 22.787049
#
# number of rings (size 3 to 8) (size 9 to 14) (size 15 to 20)
#    0.000    1.875    3.750    1.875    3.500    0.500 
#    0.000    2.500    0.000    3.000    0.000    5.250 
#    0.000    0.000    0.000    0.000    0.000    0.000 
#
# Total GULP energy -356974.934166 kJ/mol
# GULP energy per Si atom -5577.733346 kJ/mol
# Density = 2.273518 g / cm^3
# Si number density = 22.787049 Si / 1000 Ang^3
#
#
#
# Elastic Constant Matrix: (Units=GPa)
#
#
# Indices 1 2 3 4 5 6 
#
# 1 75.1365 -4.9737 42.5086 0.0000 0.0000 0.0000
# 2 -4.9737 35.2006 4.0617 0.0000 0.0000 0.0000
# 3 42.5086 4.0617 133.1202 0.0000 0.0000 0.0000
# 4 0.0000 0.0000 0.0000 21.1046 0.0000 0.0000
# 5 0.0000 0.0000 0.0000 0.0000 31.4865 0.0000
# 6 0.0000 0.0000 0.0000 0.0000 0.0000 13.5164
#
#
#
# Elastic Compliance Matrix: (Units=1/GPa)
#
#
# Indices 1 2 3 4 5 6 
#
# 1 0.016545 0.002958 -0.005373 0.000000 0.000000 0.000000
# 2 0.002958 0.029038 -0.001830 0.000000 0.000000 0.000000
# 3 -0.005373 -0.001830 0.009284 0.000000 0.000000 0.000000
# 4 0.000000 0.000000 0.000000 0.047383 0.000000 0.000000
# 5 0.000000 0.000000 0.000000 0.000000 0.031760 0.000000
# 6 0.000000 0.000000 0.000000 0.000000 0.000000 0.073984
#
#
# Mechanical properties :
#
#
# Convention : Reuss Voigt Hill
#
# Bulk Modulus (GPa) = 21.56376 36.29449 28.92912
# Shear Modulus (GPa) = 21.55697 26.67888 24.11792
#
# Velocity S-wave (km/s) = 3.07908 3.42539 3.25684
# Velocity P-wave (km/s) = 4.70369 5.62198 5.18321
#
# Compressibility (1/GPa) = 0.04637411
#
# Stress axis : x y z
#
# Youngs Moduli (GPa) = 60.44141 34.43794 107.71517
#
# Poissons Ratio (x) = -0.10186 0.57880
# Poissons Ratio (y) = -0.17877 0.19717
# Poissons Ratio (z) = 0.32478 0.06304
#
# Static dielectric constant tensor:
#      x y z
#    x 1.820560 0.000000 0.000000 
#    y 0.000000 1.734380 0.000000 
#    z 0.000000 0.000000 1.980600 
# 
# From -- ./inp_files/29877.got.cif
#   From: 2010.05.17/outbox.cif.g08.bks.cpg/sg50_15_cif.got.tgz:29877.got - 2010.06.03 11:33:33.
