data_PCOD9395264
_publ_section_title
;
Structure prediction by ZEFSAII (Michael W. Deem and Ramdas Pophale) SiO2 
 PCOD9395264
Probable space group: P C C M
;
_chemical_formula_sum "Si O2"
_cell_formula_units_Z 40
_cell_length_a 9.000000
_cell_length_b 24.000000
_cell_length_c 9.000000
_cell_angle_alpha 90.000000
_cell_angle_beta 90.000000
_cell_angle_gamma 90.000000
_cell_volume 1944.000000
_symmetry_space_group_name_H-M "P C C M"
_symmetry_group_IT_number 49
_symmetry_cell_setting 'orthorhombic'
loop_
_space_group_symop_operation_xyz
x,y,z
-x,-y,z
x,-y,1/2-z
-x,y,1/2-z
-x,-y,-z
x,y,-z
-x,y,1/2+z
x,-y,1/2+z
loop_
_atom_site_type_symbol
_atom_site_label
_atom_site_fract_x
_atom_site_fract_y
_atom_site_fract_z
Si Si1 0.146487 0.939711 0.323787
Si Si2 0.856193 0.237323 0.162523
Si Si3 0.663239 0.551856 0.825251
Si Si4 0.660544 0.673876 0.825558
Si Si5 0.636686 0.136040 0.164410
O O1 0.129876 0.941959 0.500000
O O2 0.294383 0.909564 0.272044
O O3 0.000000 0.912643 0.250000
O O4 0.153652 0.000000 0.250000
O O5 0.766363 0.281794 0.254710
O O6 0.756891 0.183337 0.148470
O O7 0.000000 0.221438 0.250000
O O8 0.893016 0.259738 0.000000
O O9 0.743139 0.500000 0.750000
O O10 0.500000 0.555113 0.750000
O O11 0.728712 0.612558 0.801719
O O12 0.645826 0.542347 0.000000
O O13 0.500000 0.676953 0.750000
O O14 0.640264 0.682511 0.000000
O O15 0.500000 0.162184 0.250000
O O16 0.599948 0.114263 0.000000
#
# Coordination Sequence:
#
# PCOD9395264 Si02
#       5
#     8   8   8   8   8
#     4  11  22  39  63  90 121 157 195 235 279 331
#     4  11  24  40  60  83 111 147 187 231 281 337
#     4   9  16  26  44  72 105 141 178 222 271 324
#     4  10  20  34  54  81 113 146 185 230 279 331
#     4  11  24  41  61  88 118 150 189 234 283 334
#
# _framework density 20.576132000000001
#
# number of rings (size 3 to 8) (size 9 to 14) (size 15 to 20)
#    0.000    1.600    0.000    6.600    0.000    9.200 
#    0.000    2.000    0.000    0.600    0.000    4.200 
#    0.000    0.000    0.000    0.000    0.000    0.000 
#
# Total GULP energy -222917.273508 kJ/mol
# GULP energy per Si atom -5572.931838 kJ/mol
# Density = 2.052930 g / cm^3
# Si number density = 20.576132 Si / 1000 Ang^3
#
#
#
# Elastic Constant Matrix: (Units=GPa)
#
#
# Indices 1 2 3 4 5 6 
#
# 1 70.4275 29.4639 54.0201 0.0000 0.0000 0.0000
# 2 29.4639 83.4074 65.6932 0.0000 0.0000 0.0000
# 3 54.0201 65.6932 159.8238 0.0000 0.0000 0.0000
# 4 0.0000 0.0000 0.0000 -240.0097 0.0000 0.0000
# 5 0.0000 0.0000 0.0000 0.0000 10.4113 0.0000
# 6 0.0000 0.0000 0.0000 0.0000 0.0000 10.0464
#
#
#
# Elastic Compliance Matrix: (Units=1/GPa)
#
#
# Indices 1 2 3 4 5 6 
#
# 1 0.019518 -0.002512 -0.005565 0.000000 0.000000 0.000000
# 2 -0.002512 0.018052 -0.006571 0.000000 0.000000 0.000000
# 3 -0.005565 -0.006571 0.010839 0.000000 0.000000 0.000000
# 4 0.000000 0.000000 0.000000 -0.004166 0.000000 0.000000
# 5 0.000000 0.000000 0.000000 0.000000 0.096049 0.000000
# 6 0.000000 0.000000 0.000000 0.000000 0.000000 0.099538
#
#
# Mechanical properties :
#
#
# Convention : Reuss Voigt Hill
#
# Bulk Modulus (GPa) = 52.31861 68.00145 60.16003
# Shear Modulus (GPa) = 18.14908 -32.94495 -7.39794
#
# Velocity S-wave (km/s) = 2.97315 -4.00575 -1.89821
# Velocity P-wave (km/s) = 6.10477 3.42429 4.94944
#
# Compressibility (1/GPa) = 0.01911366
#
# Stress axis : x y z
#
# Youngs Moduli (GPa) = 51.23442 55.39487 92.26283
#
# Poissons Ratio (x) = 0.13916 0.51340
# Poissons Ratio (y) = 0.12871 0.60626
# Poissons Ratio (z) = 0.28509 0.36400
#
# Static dielectric constant tensor:
#      x y z
#    x 1.874790 0.000000 0.000000 
#    y 0.000000 1.808260 0.000000 
#    z 0.000000 0.000000 1.664430 
# 
# From -- ./inp_files/1674.got.cif
#   From: 2010.05.17/outbox.ucp.g08.bks.cvg/sg49_1_cif.got.tgz:1674.got - 2010.06.11 16:40:14.
