data_PCOD9395967
_publ_section_title
;
Structure prediction by ZEFSAII (Michael W. Deem and Ramdas Pophale) SiO2 
 PCOD9395967
Probable space group: P B A N
;
_chemical_formula_sum "Si O2"
_cell_formula_units_Z 40
_cell_length_a 17.810329
_cell_length_b 11.970254
_cell_length_c 9.755547
_cell_angle_alpha 90.000000
_cell_angle_beta 90.000000
_cell_angle_gamma 90.000000
_cell_volume 2079.825667
_symmetry_space_group_name_H-M "P B A N"
_symmetry_group_IT_number 50
_space_group.IT_coordinate_system_code '2'
_symmetry_cell_setting 'orthorhombic'
loop_
_space_group_symop_operation_xyz
x,y,z
1/2-x,1/2-y,z
x,1/2-y,-z
1/2-x,y,-z
-x,-y,-z
1/2+x,1/2+y,-z
-x,1/2+y,z
1/2+x,-y,z
loop_
_atom_site_type_symbol
_atom_site_label
_atom_site_fract_x
_atom_site_fract_y
_atom_site_fract_z
Si Si1 0.598844 0.108156 0.155729
Si Si2 0.245050 0.463926 0.843103
Si Si3 0.532064 0.523755 0.350894
Si Si4 0.810473 0.861746 0.408417
Si Si5 0.616380 0.366235 0.160219
O O1 0.527598 0.083839 0.251291
O O2 0.627978 0.234515 0.178094
O O3 0.663553 0.017077 0.184365
O O4 0.583925 0.106959 0.991732
O O5 0.269467 0.368507 0.738080
O O6 0.306170 0.564427 0.829371
O O7 0.250000 0.425663 0.000000
O O8 0.500000 0.500000 0.500000
O O9 0.607655 0.592902 0.378024
O O10 0.559103 0.412563 0.272580
O O11 0.820487 0.750000 0.500000
O O12 0.750000 0.931691 0.500000
#
# Coordination Sequence:
#
# PCOD9395967 Si02
#       5
#     8   8   8   8   8
#     4  10  19  36  62  88 119 151 197 249 307 357
#     4   9  18  37  63  89 115 153 199 252 304 362
#     4  11  23  35  57  84 119 159 200 242 291 354
#     4  10  22  40  57  77 117 160 200 243 295 353
#     4   9  20  36  58  90 121 152 192 249 307 360
#
# _framework density 19.232379999999999
#
# number of rings (size 3 to 8) (size 9 to 14) (size 15 to 20)
#    0.000    2.200    0.000    2.400    2.800    2.400 
#    0.000    2.000    0.000    3.600    0.000    0.000 
#    0.000    0.000    0.000    0.000    0.000    0.000 
#
# Total GULP energy -222829.348901 kJ/mol
# GULP energy per Si atom -5570.733723 kJ/mol
# Density = 1.918861 g / cm^3
# Si number density = 19.232380 Si / 1000 Ang^3
#
#
#
# Elastic Constant Matrix: (Units=GPa)
#
#
# Indices 1 2 3 4 5 6 
#
# 1 124.3525 36.9684 78.3796 0.0000 0.0000 0.0000
# 2 36.9684 84.8300 61.7920 0.0000 0.0000 0.0000
# 3 78.3796 61.7920 138.4470 0.0000 0.0000 0.0000
# 4 0.0000 0.0000 0.0000 30.5206 0.0000 0.0000
# 5 0.0000 0.0000 0.0000 0.0000 43.6141 0.0000
# 6 0.0000 0.0000 0.0000 0.0000 0.0000 12.0608
#
#
#
# Elastic Compliance Matrix: (Units=1/GPa)
#
#
# Indices 1 2 3 4 5 6 
#
# 1 0.012514 -0.000434 -0.006891 0.000000 0.000000 0.000000
# 2 -0.000434 0.017482 -0.007557 0.000000 0.000000 0.000000
# 3 -0.006891 -0.007557 0.014497 0.000000 0.000000 0.000000
# 4 0.000000 0.000000 0.000000 0.032765 0.000000 0.000000
# 5 0.000000 0.000000 0.000000 0.000000 0.022928 0.000000
# 6 0.000000 0.000000 0.000000 0.000000 0.000000 0.082913
#
#
# Mechanical properties :
#
#
# Convention : Reuss Voigt Hill
#
# Bulk Modulus (GPa) = 67.89165 77.98994 72.94080
# Shear Modulus (GPa) = 22.95972 28.60507 25.78240
#
# Velocity S-wave (km/s) = 3.45890 3.86079 3.66535
# Velocity P-wave (km/s) = 7.16445 7.77905 7.47807
#
# Compressibility (1/GPa) = 0.01472935
#
# Stress axis : x y z
#
# Youngs Moduli (GPa) = 79.91025 57.20151 68.97996
#
# Poissons Ratio (x) = 0.02483 0.47533
# Poissons Ratio (y) = 0.03469 0.52127
# Poissons Ratio (z) = 0.55065 0.43227
#
# Static dielectric constant tensor:
#      x y z
#    x 1.679910 0.000000 0.000000 
#    y 0.000000 1.675550 0.000000 
#    z 0.000000 0.000000 1.682630 
# 
# From -- ./inp_files/11020.got.cif
#   From: 2010.05.17/outbox.cif.g08.bks.cpg/sg50_6_cif.got.tgz:11020.got - 2010.06.03 11:33:33.
