data_PCOD9395279
_publ_section_title
;
Structure prediction by ZEFSAII (Michael W. Deem and Ramdas Pophale) SiO2 
 PCOD9395279
Probable space group: P C C M
;
_chemical_formula_sum "Si O2"
_cell_formula_units_Z 48
_cell_length_a 9.000000
_cell_length_b 9.000000
_cell_length_c 30.000000
_cell_angle_alpha 90.000000
_cell_angle_beta 90.000000
_cell_angle_gamma 90.000000
_cell_volume 2430.000000
_symmetry_space_group_name_H-M "P C C M"
_symmetry_group_IT_number 49
_symmetry_cell_setting 'orthorhombic'
loop_
_space_group_symop_operation_xyz
x,y,z
-x,-y,z
x,-y,1/2-z
-x,y,1/2-z
-x,-y,-z
x,y,-z
-x,y,1/2+z
x,-y,1/2+z
loop_
_atom_site_type_symbol
_atom_site_label
_atom_site_fract_x
_atom_site_fract_y
_atom_site_fract_z
Si Si1 0.323582 0.536440 0.113019
Si Si2 0.187124 0.224252 0.550574
Si Si3 0.165150 0.427186 0.293518
Si Si4 0.109258 0.727866 0.600767
Si Si5 0.322049 0.006046 0.892730
Si Si6 0.900635 0.137268 0.177005
O O1 0.500000 0.500000 0.110105
O O2 0.290074 0.679555 0.083372
O O3 0.271256 0.555042 0.164058
O O4 0.190872 0.427934 0.095549
O O5 0.211193 0.265990 0.500000
O O6 0.248378 0.061973 0.562585
O O7 0.012405 0.238454 0.562689
O O8 0.231960 0.500000 0.250000
O O9 0.146593 0.251747 0.285748
O O10 0.000000 0.500000 0.299709
O O11 0.004193 0.763967 0.643494
O O12 0.252642 0.831161 0.607561
O O13 0.238742 0.922730 0.851665
O O14 0.500000 0.000000 0.891186
O O15 0.000000 0.000000 0.191327
#
# Coordination Sequence:
#
# PCOD9395279 Si02
#       6
#     8   8   8   8   8   8
#     4  12  23  39  62  88 128 164 203 263 321 370
#     4  11  23  40  61  87 121 165 216 262 307 373
#     4  11  21  39  66  94 122 163 209 254 306 375
#     4  10  20  36  61  87 117 166 209 244 312 369
#     4  10  20  36  61  92 122 167 200 255 318 373
#     4   9  18  36  62  89 123 160 206 248 301 373
#
# _framework density 19.753086
#
# number of rings (size 3 to 8) (size 9 to 14) (size 15 to 20)
#    0.000    1.500    5.000    3.000    0.000    3.667 
#    0.000    3.333    0.000    0.000    0.000    1.167 
#    0.000    0.000    0.000    0.000    0.000    0.000 
#
# Total GULP energy -267235.646539 kJ/mol
# GULP energy per Si atom -5567.409303 kJ/mol
# Density = 1.970813 g / cm^3
# Si number density = 19.753086 Si / 1000 Ang^3
#
#
#
# Elastic Constant Matrix: (Units=GPa)
#
#
# Indices 1 2 3 4 5 6 
#
# 1 132.2338 -2.0156 8.3275 0.0000 0.0000 0.0000
# 2 -2.0156 34.2182 8.0834 0.0000 0.0000 0.0000
# 3 8.3275 8.0834 79.9571 0.0000 0.0000 0.0000
# 4 0.0000 0.0000 0.0000 3.6257 0.0000 0.0000
# 5 0.0000 0.0000 0.0000 0.0000 9.3824 0.0000
# 6 0.0000 0.0000 0.0000 0.0000 0.0000 21.2941
#
#
#
# Elastic Compliance Matrix: (Units=1/GPa)
#
#
# Indices 1 2 3 4 5 6 
#
# 1 0.007626 0.000652 -0.000860 0.000000 0.000000 0.000000
# 2 0.000652 0.029995 -0.003100 0.000000 0.000000 0.000000
# 3 -0.000860 -0.003100 0.012910 0.000000 0.000000 0.000000
# 4 0.000000 0.000000 0.000000 0.275806 0.000000 0.000000
# 5 0.000000 0.000000 0.000000 0.000000 0.106583 0.000000
# 6 0.000000 0.000000 0.000000 0.000000 0.000000 0.046961
#
#
# Mechanical properties :
#
#
# Convention : Reuss Voigt Hill
#
# Bulk Modulus (GPa) = 22.77126 30.57773 26.67450
# Shear Modulus (GPa) = 9.97731 22.32802 16.15266
#
# Velocity S-wave (km/s) = 2.24988 3.36572 2.86270
# Velocity P-wave (km/s) = 4.27812 5.53333 4.94570
#
# Compressibility (1/GPa) = 0.04391500
#
# Stress axis : x y z
#
# Youngs Moduli (GPa) = 131.12206 33.33881 77.46088
#
# Poissons Ratio (x) = -0.02175 0.06664
# Poissons Ratio (y) = -0.08555 0.24016
# Poissons Ratio (z) = 0.11280 0.10336
#
# Static dielectric constant tensor:
#      x y z
#    x 1.642070 0.000000 0.000000 
#    y 0.000000 1.783590 0.000000 
#    z 0.000000 0.000000 1.723760 
# 
# From -- ./inp_files/26304.got.cif
#   From: 2010.05.17/outbox.ucp.g08.bks.cvg/sg49_14_cif.got.tgz:26304.got - 2010.06.11 16:40:14.
