data_PCOD9395230
_publ_section_title
;
Structure prediction by ZEFSAII (Michael W. Deem and Ramdas Pophale) SiO2 
 PCOD9395230
Probable space group: P C C M
;
_chemical_formula_sum "Si O2"
_cell_formula_units_Z 56
_cell_length_a 21.000000
_cell_length_b 15.000000
_cell_length_c 9.000000
_cell_angle_alpha 90.000000
_cell_angle_beta 90.000000
_cell_angle_gamma 90.000000
_cell_volume 2835.000000
_symmetry_space_group_name_H-M "P C C M"
_symmetry_group_IT_number 49
_symmetry_cell_setting 'orthorhombic'
loop_
_space_group_symop_operation_xyz
x,y,z
-x,-y,z
x,-y,1/2-z
-x,y,1/2-z
-x,-y,-z
x,y,-z
-x,y,1/2+z
x,-y,1/2+z
loop_
_atom_site_type_symbol
_atom_site_label
_atom_site_fract_x
_atom_site_fract_y
_atom_site_fract_z
Si Si1 0.064719 0.289490 0.820738
Si Si2 0.897544 0.911847 0.820906
Si Si3 0.671144 0.587056 0.178885
Si Si4 0.563694 0.276020 0.677700
Si Si5 0.798765 0.339879 0.323215
Si Si6 0.382590 0.910086 0.679691
Si Si7 0.758936 0.864821 0.176501
O O1 0.072652 0.184142 0.783472
O O2 0.129194 0.337955 0.765929
O O3 0.000000 0.323712 0.750000
O O4 0.062469 0.295172 0.000000
O O5 0.824252 0.905968 0.764236
O O6 0.926715 0.000000 0.750000
O O7 0.898094 0.918767 0.000000
O O8 0.641942 0.500000 0.250000
O O9 0.626695 0.669633 0.217512
O O10 0.742971 0.599143 0.238725
O O11 0.673425 0.581218 0.000000
O O12 0.500000 0.312398 0.750000
O O13 0.557654 0.278775 0.500000
O O14 0.576334 0.174800 0.724463
O O15 0.803890 0.357129 0.500000
O O16 0.770035 0.240582 0.308444
O O17 0.381663 0.914206 0.500000
O O18 0.309398 0.895082 0.734057
O O19 0.407364 0.000000 0.750000
O O20 0.758092 0.883374 0.000000
#
# Coordination Sequence:
#
# PCOD9395230 Si02
#       7
#     8   8   8   8   8   8   8
#     4   9  18  31  48  70  96 133 175 213 256 310
#     4   9  17  27  41  63  92 127 168 215 262 306
#     4  10  20  37  62  88 110 137 175 219 268 324
#     4  10  22  39  58  79 110 149 182 217 265 320
#     4   8  14  30  55  76  99 135 175 211 256 315
#     4  10  19  32  52  77 104 140 183 224 265 310
#     4   8  13  26  48  70  94 128 173 217 258 308
#
# _framework density 19.753086
#
# number of rings (size 3 to 8) (size 9 to 14) (size 15 to 20)
#    0.000    2.857    1.429    2.143    0.000    2.571 
#    0.000    5.000    0.000    2.143    0.000    3.000 
#    0.000    0.000    0.000    0.000    0.000    0.000 
#
# Total GULP energy -311830.381453 kJ/mol
# GULP energy per Si atom -5568.399669 kJ/mol
# Density = 1.970813 g / cm^3
# Si number density = 19.753086 Si / 1000 Ang^3
#
#
#
# Elastic Constant Matrix: (Units=GPa)
#
#
# Indices 1 2 3 4 5 6 
#
# 1 110.6293 58.3993 30.7549 0.0000 0.0000 0.0000
# 2 58.3993 15.0339 -5.2333 0.0000 0.0000 0.0000
# 3 30.7549 -5.2333 -13.3675 0.0000 0.0000 0.0000
# 4 0.0000 0.0000 0.0000 13.8456 0.0000 0.0000
# 5 0.0000 0.0000 0.0000 0.0000 19.9148 0.0000
# 6 0.0000 0.0000 0.0000 0.0000 0.0000 -17.9228
#
#
#
# Elastic Compliance Matrix: (Units=1/GPa)
#
#
# Indices 1 2 3 4 5 6 
#
# 1 0.017993 -0.048829 0.060513 0.000000 0.000000 0.000000
# 2 -0.048829 0.191052 -0.187137 0.000000 0.000000 0.000000
# 3 0.060513 -0.187137 0.137677 0.000000 0.000000 0.000000
# 4 0.000000 0.000000 0.000000 0.072225 0.000000 0.000000
# 5 0.000000 0.000000 0.000000 0.000000 0.050214 0.000000
# 6 0.000000 0.000000 0.000000 0.000000 0.000000 -0.055795
#
#
# Mechanical properties :
#
#
# Convention : Reuss Voigt Hill
#
# Bulk Modulus (GPa) = -238.88650 31.12640 -103.88005
# Shear Modulus (GPa) = 6.55412 5.05915 5.80664
#
# Velocity S-wave (km/s) = 1.82352 1.60211 1.71639
# Velocity P-wave (km/s) = 10.80579 4.38341 6.98394
#
# Compressibility (1/GPa) = -0.00418609
#
# Stress axis : x y z
#
# Youngs Moduli (GPa) = 55.57773 5.23417 7.26340
#
# Poissons Ratio (x) = 0.25558 -0.43953
# Poissons Ratio (y) = 2.71381 1.35925
# Poissons Ratio (z) = -3.36315 0.97951
#
# Static dielectric constant tensor:
#      x y z
#    x 1.732890 0.000000 0.000000 
#    y 0.000000 1.700140 0.000000 
#    z 0.000000 0.000000 1.656550 
# 
# From -- ./inp_files/5802.got.cif
#   From: 2010.05.17/outbox.ucp.g08.bks.cvg/sg49_3_cif.got.tgz:5802.got - 2010.06.11 16:40:14.
