data_PCOD9395060
_publ_section_title
;
Structure prediction by ZEFSAII (Michael W. Deem and Ramdas Pophale) SiO2 
 PCOD9395060
Probable space group: P C C M
;
_chemical_formula_sum "Si O2"
_cell_formula_units_Z 48
_cell_length_a 31.729052
_cell_length_b 9.825098
_cell_length_c 8.552356
_cell_angle_alpha 90.000000
_cell_angle_beta 90.000000
_cell_angle_gamma 90.000000
_cell_volume 2666.120400
_symmetry_space_group_name_H-M "P C C M"
_symmetry_group_IT_number 49
_symmetry_cell_setting 'orthorhombic'
loop_
_space_group_symop_operation_xyz
x,y,z
-x,-y,z
x,-y,1/2-z
-x,y,1/2-z
-x,-y,-z
x,y,-z
-x,y,1/2+z
x,-y,1/2+z
loop_
_atom_site_type_symbol
_atom_site_label
_atom_site_fract_x
_atom_site_fract_y
_atom_site_fract_z
Si Si1 0.952646 0.852084 0.813048
Si Si2 0.543162 0.655154 0.686893
Si Si3 0.194006 0.151233 0.688531
Si Si4 0.364340 0.653629 0.811084
Si Si5 0.289736 0.848979 0.189004
Si Si6 0.118316 0.653252 0.811850
O O1 0.921784 0.735577 0.752090
O O2 0.000000 0.831129 0.750000
O O3 0.938312 0.000000 0.750000
O O4 0.953234 0.855341 0.000000
O O5 0.543684 0.500000 0.750000
O O6 0.500000 0.720175 0.750000
O O7 0.540650 0.651769 0.500000
O O8 0.589223 0.710646 0.733619
O O9 0.193319 0.145982 0.500000
O O10 0.241860 0.186441 0.738157
O O11 0.159661 0.261499 0.739006
O O12 0.184091 0.000000 0.750000
O O13 0.360582 0.500000 0.750000
O O14 0.325524 0.745171 0.755903
O O15 0.363370 0.649153 0.000000
O O16 0.298560 0.000000 0.250000
O O17 0.290425 0.850403 0.000000
O O18 0.119330 0.500000 0.750000
O O19 0.116863 0.651898 0.000000
#
# Coordination Sequence:
#
# PCOD9395060 Si02
#       6
#     8   8   8   8   8   8
#     4  11  22  39  62  87 113 145 183 223 262 307
#     4   9  15  24  39  61  88 120 154 195 240 288
#     4   9  19  35  56  77 101 133 172 212 253 301
#     4   9  18  30  46  69  98 126 159 201 248 296
#     4   9  18  34  52  73  99 130 166 207 250 299
#     4  11  23  38  55  81 113 145 178 217 264 313
#
# _framework density 18.003686999999999
#
# number of rings (size 3 to 8) (size 9 to 14) (size 15 to 20)
#    0.000    2.333    0.000    4.000    0.000    5.000 
#    0.000    1.667    0.000    0.500    0.000    3.500 
#    0.000    0.000    0.000    0.000    0.000    0.000 
#
# Total GULP energy -267713.268059 kJ/mol
# GULP energy per Si atom -5577.359751 kJ/mol
# Density = 1.796271 g / cm^3
# Si number density = 18.003687 Si / 1000 Ang^3
#
#
#
# Elastic Constant Matrix: (Units=GPa)
#
#
# Indices 1 2 3 4 5 6 
#
# 1 153.7325 107.1139 40.9362 0.0000 0.0000 0.0000
# 2 107.1139 116.3575 31.1443 0.0000 0.0000 0.0000
# 3 40.9362 31.1443 53.3530 0.0000 0.0000 0.0000
# 4 0.0000 0.0000 0.0000 26.6208 0.0000 0.0000
# 5 0.0000 0.0000 0.0000 0.0000 18.7483 0.0000
# 6 0.0000 0.0000 0.0000 0.0000 0.0000 35.0558
#
#
#
# Elastic Compliance Matrix: (Units=1/GPa)
#
#
# Indices 1 2 3 4 5 6 
#
# 1 0.019310 -0.016368 -0.005262 0.000000 0.000000 0.000000
# 2 -0.016368 0.024060 -0.001486 0.000000 0.000000 0.000000
# 3 -0.005262 -0.001486 0.023648 0.000000 0.000000 0.000000
# 4 0.000000 0.000000 0.000000 0.037565 0.000000 0.000000
# 5 0.000000 0.000000 0.000000 0.000000 0.053338 0.000000
# 6 0.000000 0.000000 0.000000 0.000000 0.000000 0.028526
#
#
# Mechanical properties :
#
#
# Convention : Reuss Voigt Hill
#
# Bulk Modulus (GPa) = 48.10808 75.75907 61.93358
# Shear Modulus (GPa) = 20.86759 25.70156 23.28457
#
# Velocity S-wave (km/s) = 3.40821 3.78242 3.60018
# Velocity P-wave (km/s) = 6.50132 7.82603 7.19423
#
# Compressibility (1/GPa) = 0.02078653
#
# Stress axis : x y z
#
# Youngs Moduli (GPa) = 51.78568 41.56345 42.28769
#
# Poissons Ratio (x) = 0.68031 0.22250
# Poissons Ratio (y) = 0.84763 0.06283
# Poissons Ratio (z) = 0.27248 0.06176
#
# Static dielectric constant tensor:
#      x y z
#    x 1.661610 0.000000 0.000000 
#    y 0.000000 1.571330 0.000000 
#    z 0.000000 0.000000 1.611550 
# 
# From -- ./inp_files/2038.got.cif
#   From: 2010.05.17/outbox.cif.g08.bks.cpg/sg49_2_cif.got.tgz:2038.got - 2010.06.03 21:02:19.
