data_PCOD9395026
_publ_section_title
;
Structure prediction by ZEFSAII (Michael W. Deem and Ramdas Pophale) SiO2 
 PCOD9395026
Probable space group: P C C M
;
_chemical_formula_sum "Si O2"
_cell_formula_units_Z 64
_cell_length_a 9.286612
_cell_length_b 19.932376
_cell_length_c 15.825554
_cell_angle_alpha 90.000000
_cell_angle_beta 90.000000
_cell_angle_gamma 90.000000
_cell_volume 2929.377180
_symmetry_space_group_name_H-M "P C C M"
_symmetry_group_IT_number 49
_symmetry_cell_setting 'orthorhombic'
loop_
_space_group_symop_operation_xyz
x,y,z
-x,-y,z
x,-y,1/2-z
-x,y,1/2-z
-x,-y,-z
x,y,-z
-x,y,1/2+z
x,-y,1/2+z
loop_
_atom_site_type_symbol
_atom_site_label
_atom_site_fract_x
_atom_site_fract_y
_atom_site_fract_z
Si Si1 0.634210 0.216565 0.101377
Si Si2 0.863223 0.866253 0.861069
Si Si3 0.336917 0.980557 0.597180
Si Si4 0.089561 0.714698 0.335875
Si Si5 0.182448 0.344514 0.399892
Si Si6 0.584206 0.437050 0.900742
Si Si7 0.175066 0.098369 0.665114
Si Si8 0.380498 0.693499 0.599660
O O1 0.743131 0.275334 0.130693
O O2 0.699591 0.146648 0.130004
O O3 0.476202 0.242113 0.126789
O O4 0.632494 0.216239 0.000000
O O5 0.725893 0.904964 0.899424
O O6 0.881106 0.787281 0.877752
O O7 0.845584 0.877969 0.760816
O O8 0.021873 0.895114 0.882363
O O9 0.323986 0.003379 0.500000
O O10 0.500000 0.000000 0.622907
O O11 0.229983 0.023397 0.654646
O O12 0.248171 0.684341 0.337261
O O13 0.000000 0.726159 0.250000
O O14 0.985166 0.664490 0.385162
O O15 0.208949 0.345455 0.500000
O O16 0.264786 0.409426 0.364396
O O17 0.500000 0.500000 0.862480
O O18 0.482924 0.371404 0.897995
O O19 0.610178 0.454570 0.000000
O O20 0.337123 0.700972 0.500000
#
# Coordination Sequence:
#
# PCOD9395026 Si02
#       8
#     8   8   8   8   8   8   8   8
#     4   9  17  33  58  87 116 148 195 247 301 360
#     4  11  24  41  61  85 117 157 200 245 299 370
#     4  11  27  45  61  87 117 149 198 253 311 372
#     4  12  22  39  56  86 124 160 200 251 300 365
#     4   9  17  32  57  86 116 153 196 245 299 353
#     4   8  15  33  61  91 121 156 204 254 298 355
#     4  11  21  42  62  86 116 153 198 247 299 371
#     4   9  20  35  58  92 124 157 197 254 311 358
#
# _framework density 21.847646999999998
#
# number of rings (size 3 to 8) (size 9 to 14) (size 15 to 20)
#    0.000    2.000    2.500    3.000    1.750    4.500 
#    0.000    5.625    0.000    5.250    0.000    0.000 
#    0.000    0.000    0.000    0.000    0.000    0.000 
#
# Total GULP energy -356951.899608 kJ/mol
# GULP energy per Si atom -5577.373431 kJ/mol
# Density = 2.179792 g / cm^3
# Si number density = 21.847647 Si / 1000 Ang^3
#
#
#
# Elastic Constant Matrix: (Units=GPa)
#
#
# Indices 1 2 3 4 5 6 
#
# 1 111.6074 23.2439 20.7187 0.0000 0.0000 0.0000
# 2 23.2439 78.2154 6.3320 0.0000 0.0000 0.0000
# 3 20.7187 6.3320 31.5451 0.0000 0.0000 0.0000
# 4 0.0000 0.0000 0.0000 11.7187 0.0000 0.0000
# 5 0.0000 0.0000 0.0000 0.0000 22.9352 0.0000
# 6 0.0000 0.0000 0.0000 0.0000 0.0000 42.4014
#
#
#
# Elastic Compliance Matrix: (Units=1/GPa)
#
#
# Indices 1 2 3 4 5 6 
#
# 1 0.010722 -0.002659 -0.006508 0.000000 0.000000 0.000000
# 2 -0.002659 0.013656 -0.000994 0.000000 0.000000 0.000000
# 3 -0.006508 -0.000994 0.036175 0.000000 0.000000 0.000000
# 4 0.000000 0.000000 0.000000 0.085333 0.000000 0.000000
# 5 0.000000 0.000000 0.000000 0.000000 0.043601 0.000000
# 6 0.000000 0.000000 0.000000 0.000000 0.000000 0.023584
#
#
# Mechanical properties :
#
#
# Convention : Reuss Voigt Hill
#
# Bulk Modulus (GPa) = 24.85801 35.77302 30.31552
# Shear Modulus (GPa) = 20.25884 26.81594 23.53739
#
# Velocity S-wave (km/s) = 3.04843 3.50724 3.28585
# Velocity P-wave (km/s) = 4.87782 5.72803 5.31994
#
# Compressibility (1/GPa) = 0.04022848
#
# Stress axis : x y z
#
# Youngs Moduli (GPa) = 93.26567 73.22760 27.64346
#
# Poissons Ratio (x) = 0.19475 0.17991
# Poissons Ratio (y) = 0.24804 0.02749
# Poissons Ratio (z) = 0.60701 0.07282
#
# Static dielectric constant tensor:
#      x y z
#    x 1.839590 0.000000 0.000000 
#    y 0.000000 1.801820 0.000000 
#    z 0.000000 0.000000 1.826810 
# 
# From -- ./inp_files/16554.got.cif
#   From: 2010.05.17/outbox.cif.g08.bks.cpg/sg49_9_cif.got.tgz:16554.got - 2010.06.03 21:02:19.
