data_PCOD9395036
_publ_section_title
;
Structure prediction by ZEFSAII (Michael W. Deem and Ramdas Pophale) SiO2 
 PCOD9395036
Probable space group: P C C M
;
_chemical_formula_sum "Si O2"
_cell_formula_units_Z 64
_cell_length_a 10.885500
_cell_length_b 16.508336
_cell_length_c 18.159330
_cell_angle_alpha 90.000000
_cell_angle_beta 90.000000
_cell_angle_gamma 90.000000
_cell_volume 3263.258686
_symmetry_space_group_name_H-M "P C C M"
_symmetry_group_IT_number 49
_symmetry_cell_setting 'orthorhombic'
loop_
_space_group_symop_operation_xyz
x,y,z
-x,-y,z
x,-y,1/2-z
-x,y,1/2-z
-x,-y,-z
x,y,-z
-x,y,1/2+z
x,-y,1/2+z
loop_
_atom_site_type_symbol
_atom_site_label
_atom_site_fract_x
_atom_site_fract_y
_atom_site_fract_z
Si Si1 0.873081 0.955931 0.590112
Si Si2 0.840172 0.770989 0.589155
Si Si3 0.085706 0.325003 0.913433
Si Si4 0.451319 0.618890 0.332463
Si Si5 0.658997 0.232700 0.586810
Si Si6 0.807055 0.524648 0.167092
Si Si7 0.696880 0.619730 0.587576
Si Si8 0.623861 0.954646 0.089424
O O1 0.876466 0.955387 0.500000
O O2 0.854791 0.863023 0.615260
O O3 0.750747 0.003619 0.613293
O O4 0.000000 0.000000 0.613354
O O5 0.831137 0.776138 0.500000
O O6 0.730091 0.711357 0.613363
O O7 0.963309 0.722171 0.607264
O O8 0.199893 0.262385 0.905990
O O9 0.108148 0.405761 0.866858
O O10 0.079566 0.347078 0.000000
O O11 0.500000 0.618930 0.250000
O O12 0.415440 0.706956 0.362028
O O13 0.329034 0.565109 0.334488
O O14 0.563954 0.593284 0.383928
O O15 0.626101 0.243885 0.500000
O O16 0.632815 0.140230 0.607013
O O17 0.838328 0.500000 0.250000
O O18 0.795343 0.443676 0.118998
O O19 0.700441 0.618083 0.500000
O O20 0.500000 0.000000 0.115384
O O21 0.622198 0.959566 0.000000
#
# Coordination Sequence:
#
# PCOD9395036 Si02
#       8
#     8   8   8   8   8   8   8   8
#     4   9  16  28  50  79 115 155 188 227 291 352
#     4   9  19  34  53  83 119 149 185 239 288 338
#     4   9  18  35  57  80 112 149 190 236 283 338
#     4  11  22  37  58  78 111 150 187 237 289 342
#     4   9  18  32  54  82 110 146 191 232 279 343
#     4  11  22  38  58  79 112 147 193 241 286 340
#     4  11  23  36  57  85 114 148 189 236 291 343
#     4   9  17  27  45  78 116 146 180 237 292 334
#
# _framework density 19.612299
#
# number of rings (size 3 to 8) (size 9 to 14) (size 15 to 20)
#    0.000    2.250    1.250    1.875    1.750    5.500 
#    0.000    3.125    0.000    0.375    0.000    0.000 
#    0.000    0.000    0.000    0.000    0.000    0.000 
#
# Total GULP energy -357156.068602 kJ/mol
# GULP energy per Si atom -5580.563572 kJ/mol
# Density = 1.956766 g / cm^3
# Si number density = 19.612299 Si / 1000 Ang^3
#
#
#
# Elastic Constant Matrix: (Units=GPa)
#
#
# Indices 1 2 3 4 5 6 
#
# 1 76.3446 37.3884 13.3067 0.0000 0.0000 0.0000
# 2 37.3884 144.4617 32.0710 0.0000 0.0000 0.0000
# 3 13.3067 32.0710 41.9397 0.0000 0.0000 0.0000
# 4 0.0000 0.0000 0.0000 -27.5248 0.0000 0.0000
# 5 0.0000 0.0000 0.0000 0.0000 12.0175 0.0000
# 6 0.0000 0.0000 0.0000 0.0000 0.0000 31.3277
#
#
#
# Elastic Compliance Matrix: (Units=1/GPa)
#
#
# Indices 1 2 3 4 5 6 
#
# 1 0.015163 -0.003440 -0.002180 0.000000 0.000000 0.000000
# 2 -0.003440 0.009118 -0.005881 0.000000 0.000000 0.000000
# 3 -0.002180 -0.005881 0.029033 0.000000 0.000000 0.000000
# 4 0.000000 0.000000 0.000000 -0.036331 0.000000 0.000000
# 5 0.000000 0.000000 0.000000 0.000000 0.083212 0.000000
# 6 0.000000 0.000000 0.000000 0.000000 0.000000 0.031921
#
#
# Mechanical properties :
#
#
# Convention : Reuss Voigt Hill
#
# Bulk Modulus (GPa) = 32.99139 47.58645 40.28892
# Shear Modulus (GPa) = 30.26203 15.16273 22.71238
#
# Velocity S-wave (km/s) = 3.93238 2.78353 3.40673
# Velocity P-wave (km/s) = 6.12180 5.88617 6.00514
#
# Compressibility (1/GPa) = 0.03031094
#
# Stress axis : x y z
#
# Youngs Moduli (GPa) = 65.94827 109.66955 34.44393
#
# Poissons Ratio (x) = 0.37731 0.07509
# Poissons Ratio (y) = 0.22689 0.20257
# Poissons Ratio (z) = 0.14378 0.64498
#
# Static dielectric constant tensor:
#      x y z
#    x 1.731950 0.000000 0.000000 
#    y 0.000000 1.697710 0.000000 
#    z 0.000000 0.000000 1.669630 
# 
# From -- ./inp_files/17275.got.cif
#   From: 2010.05.17/outbox.cif.g08.bks.cpg/sg49_9_cif.got.tgz:17275.got - 2010.06.03 21:02:19.
