data_PCOD9395792
_publ_section_title
;
Structure prediction by ZEFSAII (Michael W. Deem and Ramdas Pophale) SiO2 
 PCOD9395792
Probable space group: P B A N
;
_chemical_formula_sum "Si O2"
_cell_formula_units_Z 58
_cell_length_a 35.105167
_cell_length_b 16.374276
_cell_length_c 5.318632
_cell_angle_alpha 90.000000
_cell_angle_beta 90.000000
_cell_angle_gamma 90.000000
_cell_volume 3057.265053
_symmetry_space_group_name_H-M "P B A N"
_symmetry_group_IT_number 50
_space_group.IT_coordinate_system_code '2'
_symmetry_cell_setting 'orthorhombic'
loop_
_space_group_symop_operation_xyz
x,y,z
1/2-x,1/2-y,z
x,1/2-y,-z
1/2-x,y,-z
-x,-y,-z
1/2+x,1/2+y,-z
-x,1/2+y,z
1/2+x,-y,z
loop_
_atom_site_type_symbol
_atom_site_label
_atom_site_fract_x
_atom_site_fract_y
_atom_site_fract_z
Si Si1 0.590441 0.838141 0.457281
Si Si2 0.205720 0.650076 0.499516
Si Si3 0.454909 0.991880 0.525620
Si Si4 0.750000 0.750000 0.500000
Si Si5 0.338448 0.652116 0.000373
Si Si6 0.585666 0.058103 0.971620
Si Si7 0.210744 0.157466 0.107654
Si Si8 0.370079 0.387465 0.955739
O O1 0.571579 0.750000 0.500000
O O2 0.621158 0.850146 0.682176
O O3 0.563008 0.916586 0.475527
O O4 0.609695 0.839120 0.183488
O O5 0.205700 0.750000 0.500000
O O6 0.250000 0.624843 0.500000
O O7 0.183001 0.622611 0.747860
O O8 0.183456 0.622627 0.249720
O O9 0.441316 0.949953 0.785015
O O10 0.500000 0.000000 0.500000
O O11 0.437979 0.943143 0.286710
O O12 0.779799 0.816650 0.611135
O O13 0.382669 0.627854 0.995290
O O14 0.335527 0.750000 0.000000
O O15 0.611084 0.976112 0.962216
O O16 0.206877 0.250000 0.000000
O O17 0.250000 0.122022 0.000000
O O18 0.173933 0.109306 0.029432
#
# Coordination Sequence:
#
# PCOD9395792 Si02
#       8
#     8   8   8   2   8   8   8   8
#     4  10  20  34  55  83 104 131 177 217 254 302
#     4   9  17  30  51  78 106 142 184 227 272 311
#     4  10  21  39  60  80 109 143 168 210 273 335
#     4   8  18  28  44  66  96 132 178 218 250 304
#     4  10  19  33  55  79 110 143 183 233 266 319
#     4  10  21  38  56  80 107 139 180 214 271 333
#     4   9  18  29  44  68  96 134 176 211 257 297
#     4  10  21  33  53  73 105 142 172 222 261 302
#
# _framework density 18.971204
#
# number of rings (size 3 to 8) (size 9 to 14) (size 15 to 20)
#    0.000    2.483    0.000    2.897    4.828    1.655 
#    0.000    2.759    1.517    0.000    0.000    0.000 
#    0.000    0.000    0.000    0.000    0.000    0.000 
#
# Total GULP energy -323124.970538 kJ/mol
# GULP energy per Si atom -5571.120182 kJ/mol
# Density = 1.892802 g / cm^3
# Si number density = 18.971204 Si / 1000 Ang^3
#
#
#
# Elastic Constant Matrix: (Units=GPa)
#
#
# Indices 1 2 3 4 5 6 
#
# 1 130.2366 -2.6011 48.7910 0.0000 0.0000 0.0000
# 2 -2.6011 7.1980 9.6996 0.0000 0.0000 0.0000
# 3 48.7910 9.6996 127.4254 0.0000 0.0000 0.0000
# 4 0.0000 0.0000 0.0000 8.6939 0.0000 0.0000
# 5 0.0000 0.0000 0.0000 0.0000 31.1562 0.0000
# 6 0.0000 0.0000 0.0000 0.0000 0.0000 7.9810
#
#
#
# Elastic Compliance Matrix: (Units=1/GPa)
#
#
# Indices 1 2 3 4 5 6 
#
# 1 0.009489 0.009277 -0.004340 0.000000 0.000000 0.000000
# 2 0.009277 0.163876 -0.016026 0.000000 0.000000 0.000000
# 3 -0.004340 -0.016026 0.010729 0.000000 0.000000 0.000000
# 4 0.000000 0.000000 0.000000 0.115023 0.000000 0.000000
# 5 0.000000 0.000000 0.000000 0.000000 0.032096 0.000000
# 6 0.000000 0.000000 0.000000 0.000000 0.000000 0.125298
#
#
# Mechanical properties :
#
#
# Convention : Reuss Voigt Hill
#
# Bulk Modulus (GPa) = 6.17602 41.84878 24.01240
# Shear Modulus (GPa) = 9.38682 23.49759 16.44220
#
# Velocity S-wave (km/s) = 2.22681 3.52318 2.94716
# Velocity P-wave (km/s) = 3.14231 6.21751 4.92603
#
# Compressibility (1/GPa) = 0.16191661
#
# Stress axis : x y z
#
# Youngs Moduli (GPa) = 105.38089 6.10218 93.20284
#
# Poissons Ratio (x) = -0.05661 0.40447
# Poissons Ratio (y) = -0.97762 1.49370
# Poissons Ratio (z) = 0.45731 0.09780
#
# Static dielectric constant tensor:
#      x y z
#    x 1.616180 0.000000 0.000000 
#    y 0.000000 1.663590 0.000000 
#    z 0.000000 0.000000 1.495340 
# 
# From -- ./inp_files/7277.got.cif
#   From: 2010.05.17/outbox.cif.g08.bks.cpg/sg50_4_cif.got.tgz:7277.got - 2010.06.03 11:33:33.
