data_PCOD9395550
_publ_section_title
;
Structure prediction by ZEFSAII (Michael W. Deem and Ramdas Pophale) SiO2 
 PCOD9395550
Probable space group: P B A N
;
_chemical_formula_sum "Si O2"
_cell_formula_units_Z 40
_cell_length_a 13.247029
_cell_length_b 16.799336
_cell_length_c 9.208486
_cell_angle_alpha 90.000000
_cell_angle_beta 90.000000
_cell_angle_gamma 90.000000
_cell_volume 2049.268364
_symmetry_space_group_name_H-M "P B A N"
_symmetry_group_IT_number 50
_space_group.IT_coordinate_system_code '2'
_symmetry_cell_setting 'orthorhombic'
loop_
_space_group_symop_operation_xyz
x,y,z
1/2-x,1/2-y,z
x,1/2-y,-z
1/2-x,y,-z
-x,-y,-z
1/2+x,1/2+y,-z
-x,1/2+y,z
1/2+x,-y,z
loop_
_atom_site_type_symbol
_atom_site_label
_atom_site_fract_x
_atom_site_fract_y
_atom_site_fract_z
Si Si1 0.650286 0.198940 0.678400
Si Si2 0.852501 0.422045 0.932313
Si Si3 0.035409 0.456477 0.265783
Si Si4 0.009224 0.806699 0.126657
Si Si5 0.630803 0.057803 0.483112
O O1 0.750000 0.250000 0.647936
O O2 0.681581 0.133975 0.799235
O O3 0.567192 0.252768 0.756879
O O4 0.605744 0.146106 0.546807
O O5 0.931365 0.483886 0.861996
O O6 0.750000 0.457266 0.000000
O O7 0.910475 0.364059 0.043530
O O8 0.090836 0.489852 0.408207
O O9 0.061511 0.368436 0.210892
O O10 0.919794 0.454258 0.325945
O O11 0.965810 0.750000 0.000000
O O12 0.750000 0.054895 0.500000
#
# Coordination Sequence:
#
# PCOD9395550 Si02
#       5
#     8   8   8   8   8
#     4  10  18  31  56  90 121 146 183 244 320 368
#     4  10  19  33  57  88 120 152 188 246 305 364
#     4  10  22  37  54  87 117 160 200 233 301 357
#     4  10  20  33  56  88 119 145 185 247 306 363
#     4  10  22  38  57  86 122 159 198 243 291 365
#
# _framework density 19.519159999999999
#
# number of rings (size 3 to 8) (size 9 to 14) (size 15 to 20)
#    0.000    2.000    2.000    1.800    2.800    2.800 
#    0.000    0.000    0.000    0.600    5.200    2.800 
#    0.000    0.000    0.000    0.000    0.000    0.000 
#
# Total GULP energy -222998.786153 kJ/mol
# GULP energy per Si atom -5574.969654 kJ/mol
# Density = 1.947473 g / cm^3
# Si number density = 19.519160 Si / 1000 Ang^3
#
#
#
# Elastic Constant Matrix: (Units=GPa)
#
#
# Indices 1 2 3 4 5 6 
#
# 1 44.3403 44.5786 41.9476 0.0000 0.0000 0.0000
# 2 44.5786 122.8030 50.0348 0.0000 0.0000 0.0000
# 3 41.9476 50.0348 95.3268 0.0000 0.0000 0.0000
# 4 0.0000 0.0000 0.0000 44.1282 0.0000 0.0000
# 5 0.0000 0.0000 0.0000 0.0000 30.4760 0.0000
# 6 0.0000 0.0000 0.0000 0.0000 0.0000 31.6516
#
#
#
# Elastic Compliance Matrix: (Units=1/GPa)
#
#
# Indices 1 2 3 4 5 6 
#
# 1 0.048522 -0.011339 -0.015400 0.000000 0.000000 0.000000
# 2 -0.011339 0.013008 -0.001838 0.000000 0.000000 0.000000
# 3 -0.015400 -0.001838 0.018231 0.000000 0.000000 0.000000
# 4 0.000000 0.000000 0.000000 0.022661 0.000000 0.000000
# 5 0.000000 0.000000 0.000000 0.000000 0.032813 0.000000
# 6 0.000000 0.000000 0.000000 0.000000 0.000000 0.031594
#
#
# Mechanical properties :
#
#
# Convention : Reuss Voigt Hill
#
# Bulk Modulus (GPa) = 44.23335 59.51025 51.87180
# Shear Modulus (GPa) = 21.59639 29.64511 25.62075
#
# Velocity S-wave (km/s) = 3.32990 3.90137 3.62691
# Velocity P-wave (km/s) = 6.12332 7.13082 6.64618
#
# Compressibility (1/GPa) = 0.02260738
#
# Stress axis : x y z
#
# Youngs Moduli (GPa) = 20.60914 76.87407 54.85018
#
# Poissons Ratio (x) = 0.87171 0.84469
# Poissons Ratio (y) = 0.23370 0.10081
# Poissons Ratio (z) = 0.31738 0.14129
#
# Static dielectric constant tensor:
#      x y z
#    x 1.691510 0.000000 0.000000 
#    y 0.000000 1.713490 0.000000 
#    z 0.000000 0.000000 1.777570 
# 
# From -- ./inp_files/12555.got.cif
#   From: 2010.05.17/outbox.cif.g08.bks.cpg/sg50_7_cif.got.tgz:12555.got - 2010.06.03 11:33:33.
