data_PCOD9395160
_publ_section_title
;
Structure prediction by ZEFSAII (Michael W. Deem and Ramdas Pophale) SiO2 
 PCOD9395160
Probable space group: P C C M
;
_chemical_formula_sum "Si O2"
_cell_formula_units_Z 20
_cell_length_a 5.272035
_cell_length_b 5.210609
_cell_length_c 29.419133
_cell_angle_alpha 90.000000
_cell_angle_beta 90.000000
_cell_angle_gamma 90.000000
_cell_volume 808.158676
_symmetry_space_group_name_H-M "P C C M"
_symmetry_group_IT_number 49
_symmetry_cell_setting 'orthorhombic'
loop_
_space_group_symop_operation_xyz
x,y,z
-x,-y,z
x,-y,1/2-z
-x,y,1/2-z
-x,-y,-z
x,y,-z
-x,y,1/2+z
x,-y,1/2+z
loop_
_atom_site_type_symbol
_atom_site_label
_atom_site_fract_x
_atom_site_fract_y
_atom_site_fract_z
Si Si1 0.328666 0.752278 0.174491
Si Si2 0.759347 0.328235 0.926676
Si Si3 0.500000 0.000000 0.500000
Si Si4 0.000000 0.500000 0.250000
O O1 0.500000 0.500000 0.171580
O O2 0.199946 0.766095 0.124994
O O3 0.150386 0.688413 0.216449
O O4 0.500000 0.000000 0.181788
O O5 0.500000 0.500000 0.929534
O O6 0.000000 0.500000 0.940158
O O7 0.698184 0.099068 0.960368
#
# Coordination Sequence:
#
# PCOD9395160 Si02
#       4
#     8   8   2   2
#     4  11  26  49  75 115 158 205 271 345 415 505
#     4  11  25  47  73 115 159 208 271 338 413 500
#     4  12  24  46  80 112 162 214 272 338 422 492
#     4  12  26  50  84 106 156 218 274 346 438 508
#
# _framework density 24.747613000000001
#
# number of rings (size 3 to 8) (size 9 to 14) (size 15 to 20)
#    0.000    0.800    4.000    1.800    0.000    9.600 
#    0.000    0.000    0.000    0.000    0.000    0.000 
#    0.000    0.000    0.000    0.000    0.000    0.000 
#
# Total GULP energy -111633.322512 kJ/mol
# GULP energy per Si atom -5581.666126 kJ/mol
# Density = 2.469129 g / cm^3
# Si number density = 24.747613 Si / 1000 Ang^3
#
#
#
# Elastic Constant Matrix: (Units=GPa)
#
#
# Indices 1 2 3 4 5 6 
#
# 1 152.5803 75.7257 63.1078 0.0000 0.0000 0.0000
# 2 75.7257 154.4529 57.2969 0.0000 0.0000 0.0000
# 3 63.1078 57.2969 236.4896 0.0000 0.0000 0.0000
# 4 0.0000 0.0000 0.0000 -33.5914 0.0000 0.0000
# 5 0.0000 0.0000 0.0000 0.0000-1607.7586 0.0000
# 6 0.0000 0.0000 0.0000 0.0000 0.0000 74.1006
#
#
#
# Elastic Compliance Matrix: (Units=1/GPa)
#
#
# Indices 1 2 3 4 5 6 
#
# 1 0.009111 -0.003917 -0.001482 0.000000 0.000000 0.000000
# 2 -0.003917 0.008798 -0.001086 0.000000 0.000000 0.000000
# 3 -0.001482 -0.001086 0.004887 0.000000 0.000000 0.000000
# 4 0.000000 0.000000 0.000000 -0.029769 0.000000 0.000000
# 5 0.000000 0.000000 0.000000 0.000000 -0.000622 0.000000
# 6 0.000000 0.000000 0.000000 0.000000 0.000000 0.013495
#
#
# Mechanical properties :
#
#
# Convention : Reuss Voigt Hill
#
# Bulk Modulus (GPa) = 101.78212 103.97597 102.87905
# Shear Modulus (GPa) = 225.77152 -290.29039 -32.25943
#
# Velocity S-wave (km/s) = 9.56178 -10.84228 -3.61437
# Velocity P-wave (km/s) = 12.77188 10.70674 4.92375
#
# Compressibility (1/GPa) = 0.00982491
#
# Stress axis : x y z
#
# Youngs Moduli (GPa) = 109.75651 113.66286 204.61422
#
# Poissons Ratio (x) = 0.44523 0.30329
# Poissons Ratio (y) = 0.42993 0.22227
# Poissons Ratio (z) = 0.16269 0.12347
#
# Static dielectric constant tensor:
#      x y z
#    x 1.986930 0.000000 0.000000 
#    y 0.000000 1.951860 0.000000 
#    z 0.000000 0.000000 1.967080 
# 
# From -- ./inp_files/23534.got.cif
#   From: 2010.05.17/outbox.cif.g08.bks.cpg/sg49_12_cif.got.tgz:23534.got - 2010.06.03 21:02:19.
