data_PCOD9395281
_publ_section_title
;
Structure prediction by ZEFSAII (Michael W. Deem and Ramdas Pophale) SiO2 
 PCOD9395281
Probable space group: P C C M
;
_chemical_formula_sum "Si O2"
_cell_formula_units_Z 64
_cell_length_a 12.000000
_cell_length_b 15.000000
_cell_length_c 18.000000
_cell_angle_alpha 90.000000
_cell_angle_beta 90.000000
_cell_angle_gamma 90.000000
_cell_volume 3240.000000
_symmetry_space_group_name_H-M "P C C M"
_symmetry_group_IT_number 49
_symmetry_cell_setting 'orthorhombic'
loop_
_space_group_symop_operation_xyz
x,y,z
-x,-y,z
x,-y,1/2-z
-x,y,1/2-z
-x,-y,-z
x,y,-z
-x,y,1/2+z
x,-y,1/2+z
loop_
_atom_site_type_symbol
_atom_site_label
_atom_site_fract_x
_atom_site_fract_y
_atom_site_fract_z
Si Si1 0.530899 0.709880 0.836065
Si Si2 0.683343 0.218994 0.915092
Si Si3 0.883172 0.526869 0.416307
Si Si4 0.891053 0.728868 0.802184
Si Si5 0.286366 0.430672 0.815578
Si Si6 0.921199 0.735714 0.416844
Si Si7 0.304096 0.133497 0.806016
Si Si8 0.622347 0.043658 0.151645
O O1 0.500000 0.706093 0.750000
O O2 0.413926 0.721958 0.877995
O O3 0.608692 0.623653 0.848084
O O4 0.609893 0.797224 0.844239
O O5 0.808870 0.221778 0.881101
O O6 0.641165 0.117550 0.910081
O O7 0.694350 0.248226 0.000000
O O8 0.885223 0.489612 0.500000
O O9 0.776840 0.489513 0.375839
O O10 0.886038 0.632476 0.418776
O O11 0.000000 0.500000 0.378180
O O12 0.807343 0.644384 0.792969
O O13 0.810754 0.814198 0.794005
O O14 0.000000 0.722484 0.750000
O O15 0.957214 0.737256 0.879938
O O16 0.316133 0.500000 0.750000
O O17 0.931855 0.772098 0.500000
O O18 0.356047 0.099818 0.727597
O O19 0.295646 0.041034 0.850634
O O20 0.500000 0.000000 0.151672
#
# Coordination Sequence:
#
# PCOD9395281 Si02
#       8
#     8   8   8   8   8   8   8   8
#     4  11  22  41  60  84 123 161 200 245 311 366
#     4  11  24  41  64  92 122 162 209 254 307 375
#     4  10  20  38  61  84 114 158 208 245 295 363
#     4  11  22  36  59  89 124 155 204 254 300 364
#     4  11  25  36  58  93 123 155 200 263 311 350
#     4  10  22  41  62  85 122 168 202 245 307 370
#     4  10  20  36  61  92 112 158 199 246 306 364
#     4  11  19  37  65  88 123 153 204 254 306 363
#
# _framework density 19.753086
#
# number of rings (size 3 to 8) (size 9 to 14) (size 15 to 20)
#    0.000    1.375    3.750    2.250    3.500    1.000 
#    0.000    6.875    0.000    3.750    0.000    0.000 
#    0.000    0.000    0.000    0.000    0.000    0.000 
#
# Total GULP energy -356849.809586 kJ/mol
# GULP energy per Si atom -5575.778275 kJ/mol
# Density = 1.970813 g / cm^3
# Si number density = 19.753086 Si / 1000 Ang^3
#
#
#
# Elastic Constant Matrix: (Units=GPa)
#
#
# Indices 1 2 3 4 5 6 
#
# 1 70.9807 34.0074 7.2662 0.0000 0.0000 0.0000
# 2 34.0074 78.1089 9.2927 0.0000 0.0000 0.0000
# 3 7.2662 9.2927 41.0651 0.0000 0.0000 0.0000
# 4 0.0000 0.0000 0.0000 1.7167 0.0000 0.0000
# 5 0.0000 0.0000 0.0000 0.0000 15.2108 0.0000
# 6 0.0000 0.0000 0.0000 0.0000 0.0000 45.1443
#
#
#
# Elastic Compliance Matrix: (Units=1/GPa)
#
#
# Indices 1 2 3 4 5 6 
#
# 1 0.017884 -0.007615 -0.001441 0.000000 0.000000 0.000000
# 2 -0.007615 0.016399 -0.002364 0.000000 0.000000 0.000000
# 3 -0.001441 -0.002364 0.025141 0.000000 0.000000 0.000000
# 4 0.000000 0.000000 0.000000 0.582529 0.000000 0.000000
# 5 0.000000 0.000000 0.000000 0.000000 0.065743 0.000000
# 6 0.000000 0.000000 0.000000 0.000000 0.000000 0.022151
#
#
# Mechanical properties :
#
#
# Convention : Reuss Voigt Hill
#
# Bulk Modulus (GPa) = 27.33349 32.36527 29.84938
# Shear Modulus (GPa) = 6.53695 21.72025 14.12860
#
# Velocity S-wave (km/s) = 1.82113 3.31960 2.67734
# Velocity P-wave (km/s) = 4.27664 5.57795 4.97007
#
# Compressibility (1/GPa) = 0.03658516
#
# Stress axis : x y z
#
# Youngs Moduli (GPa) = 55.91488 60.97807 39.77493
#
# Poissons Ratio (x) = 0.46435 0.05733
# Poissons Ratio (y) = 0.42580 0.09401
# Poissons Ratio (z) = 0.08059 0.14413
#
# Static dielectric constant tensor:
#      x y z
#    x 1.724790 0.000000 0.000000 
#    y 0.000000 1.717590 0.000000 
#    z 0.000000 0.000000 1.792430 
# 
# From -- ./inp_files/17320.got.cif
#   From: 2010.05.17/outbox.ucp.g08.bks.cvg/sg49_9_cif.got.tgz:17320.got - 2010.06.11 16:40:14.
