data_PCOD9395373
_publ_section_title
;
Structure prediction by ZEFSAII (Michael W. Deem and Ramdas Pophale) SiO2 
 PCOD9395373
Probable space group: P B A N
;
_chemical_formula_sum "Si O2"
_cell_formula_units_Z 64
_cell_length_a 5.564797
_cell_length_b 23.259976
_cell_length_c 23.117916
_cell_angle_alpha 90.000000
_cell_angle_beta 90.000000
_cell_angle_gamma 90.000000
_cell_volume 2992.314726
_symmetry_space_group_name_H-M "P B A N"
_symmetry_group_IT_number 50
_space_group.IT_coordinate_system_code '2'
_symmetry_cell_setting 'orthorhombic'
loop_
_space_group_symop_operation_xyz
x,y,z
1/2-x,1/2-y,z
x,1/2-y,-z
1/2-x,y,-z
-x,-y,-z
1/2+x,1/2+y,-z
-x,1/2+y,z
1/2+x,-y,z
loop_
_atom_site_type_symbol
_atom_site_label
_atom_site_fract_x
_atom_site_fract_y
_atom_site_fract_z
Si Si1 0.188792 0.535081 0.940628
Si Si2 0.274548 0.535678 0.189473
Si Si3 0.192919 0.648901 0.736234
Si Si4 0.404908 0.464469 0.338202
Si Si5 0.505375 0.935053 0.474039
Si Si6 0.820618 0.661308 0.284157
Si Si7 0.272829 0.186008 0.582066
Si Si8 0.734936 0.320260 0.603358
O O1 0.412302 0.488407 0.942676
O O2 0.217088 0.559992 0.876408
O O3 0.250000 0.568888 0.000000
O O4 0.513870 0.495604 0.195724
O O5 0.301143 0.587335 0.233994
O O6 0.443414 0.679839 0.750713
O O7 0.216936 0.649759 0.666009
O O8 0.929394 0.673329 0.746940
O O9 0.661069 0.497549 0.328589
O O10 0.437849 0.445155 0.405119
O O11 0.352327 0.406988 0.299836
O O12 0.750000 0.908358 0.500000
O O13 0.250000 0.915605 0.500000
O O14 0.500000 0.000000 0.500000
O O15 0.806008 0.689133 0.347699
O O16 0.250000 0.250000 0.559456
O O17 0.532613 0.162672 0.566699
O O18 0.011409 0.162005 0.574854
O O19 0.750000 0.250000 0.609977
#
# Coordination Sequence:
#
# PCOD9395373 Si02
#       8
#     8   8   8   8   8   8   8   8
#     4   8  14  25  39  55  71  91 128 175 208 227
#     4  10  19  28  41  55  76 112 142 161 193 239
#     4  10  19  31  40  55  83 110 137 165 188 233
#     4  12  21  30  43  60  82 111 135 163 198 231
#     4  10  16  30  46  58  72  98 135 168 200 222
#     4  10  21  30  40  60  83 108 138 165 190 234
#     4   8  14  27  43  56  73  99 128 163 201 227
#     4   8  14  25  42  57  70  95 131 167 201 224
#
# _framework density 21.388126
#
# number of rings (size 3 to 8) (size 9 to 14) (size 15 to 20)
#    0.000    2.500    2.500    1.500    0.000    3.000 
#    0.000    0.000    0.000    0.000    0.000    0.000 
#    0.000    1.000    0.000    3.250    0.000   95.000 
#
# Total GULP energy -356529.653578 kJ/mol
# GULP energy per Si atom -5570.775837 kJ/mol
# Density = 2.133945 g / cm^3
# Si number density = 21.388126 Si / 1000 Ang^3
#
#
#
# Elastic Constant Matrix: (Units=GPa)
#
#
# Indices 1 2 3 4 5 6 
#
# 1 249.7091 28.8202 32.7762 0.0000 0.0000 0.0000
# 2 28.8202 55.4620 35.3393 0.0000 0.0000 0.0000
# 3 32.7762 35.3393 90.1529 0.0000 0.0000 0.0000
# 4 0.0000 0.0000 0.0000 15.2114 0.0000 0.0000
# 5 0.0000 0.0000 0.0000 0.0000 24.2635 0.0000
# 6 0.0000 0.0000 0.0000 0.0000 0.0000 30.5551
#
#
#
# Elastic Compliance Matrix: (Units=1/GPa)
#
#
# Indices 1 2 3 4 5 6 
#
# 1 0.004317 -0.001657 -0.000920 0.000000 0.000000 0.000000
# 2 -0.001657 0.024669 -0.009068 0.000000 0.000000 0.000000
# 3 -0.000920 -0.009068 0.014981 0.000000 0.000000 0.000000
# 4 0.000000 0.000000 0.000000 0.065740 0.000000 0.000000
# 5 0.000000 0.000000 0.000000 0.000000 0.041214 0.000000
# 6 0.000000 0.000000 0.000000 0.000000 0.000000 0.032728
#
#
# Mechanical properties :
#
#
# Convention : Reuss Voigt Hill
#
# Bulk Modulus (GPa) = 48.36088 65.46618 56.91353
# Shear Modulus (GPa) = 23.38297 33.89855 28.64076
#
# Velocity S-wave (km/s) = 3.31005 3.98543 3.66334
# Velocity P-wave (km/s) = 6.10481 7.20092 6.67540
#
# Compressibility (1/GPa) = 0.02067787
#
# Stress axis : x y z
#
# Youngs Moduli (GPa) = 231.66178 40.53642 66.75045
#
# Poissons Ratio (x) = 0.06717 0.06140
# Poissons Ratio (y) = 0.38386 0.60527
# Poissons Ratio (z) = 0.21309 0.36757
#
# Static dielectric constant tensor:
#      x y z
#    x 1.926110 0.000000 0.000000 
#    y 0.000000 -0.278840 0.000000 
#    z 0.000000 0.000000 1.794540 
# 
# From -- ./inp_files/31557.got.cif
#   From: 2010.05.17/outbox.cif.g08.bks.cpg/sg50_16_cif.got.tgz:31557.got - 2010.06.03 11:33:33.
