data_PCOD9395523
_publ_section_title
;
Structure prediction by ZEFSAII (Michael W. Deem and Ramdas Pophale) SiO2 
 PCOD9395523
Probable space group: P B A N
;
_chemical_formula_sum "Si O2"
_cell_formula_units_Z 34
_cell_length_a 14.219818
_cell_length_b 19.185497
_cell_length_c 5.274940
_cell_angle_alpha 90.000000
_cell_angle_beta 90.000000
_cell_angle_gamma 90.000000
_cell_volume 1439.078935
_symmetry_space_group_name_H-M "P B A N"
_symmetry_group_IT_number 50
_space_group.IT_coordinate_system_code '2'
_symmetry_cell_setting 'orthorhombic'
loop_
_space_group_symop_operation_xyz
x,y,z
1/2-x,1/2-y,z
x,1/2-y,-z
1/2-x,y,-z
-x,-y,-z
1/2+x,1/2+y,-z
-x,1/2+y,z
1/2+x,-y,z
loop_
_atom_site_type_symbol
_atom_site_label
_atom_site_fract_x
_atom_site_fract_y
_atom_site_fract_z
Si Si1 0.750000 0.250000 0.500000
Si Si2 0.108222 0.814512 0.173708
Si Si3 0.889687 0.467304 0.229213
Si Si4 0.115420 0.294140 0.249766
Si Si5 0.117462 0.454170 0.265650
O O1 0.828653 0.194044 0.582606
O O2 0.998375 0.802796 0.223006
O O3 0.130784 0.892802 0.096431
O O4 0.141079 0.750000 0.000000
O O5 0.854247 0.495243 0.501671
O O6 0.002837 0.459956 0.265393
O O7 0.859372 0.521978 0.017631
O O8 0.135947 0.250000 0.500000
O O9 0.148681 0.373665 0.287506
O O10 0.144191 0.250000 0.000000
#
# Coordination Sequence:
#
# PCOD9395523 Si02
#       5
#     2   8   8   8   8
#     4  12  22  36  48  66  92 136 180 220 238 278
#     4  10  22  33  48  65  94 130 179 211 243 275
#     4   9  18  30  47  65  90 122 163 206 236 288
#     4  10  18  30  49  72 100 129 160 201 240 298
#     4   9  17  29  46  69  91 121 159 195 247 289
#
# _framework density 23.626224000000001
#
# number of rings (size 3 to 8) (size 9 to 14) (size 15 to 20)
#    0.000    2.353    1.176    1.765    3.294    5.647 
#    0.000    0.000    0.000    0.000    0.000    0.000 
#    0.000    0.000    0.000   15.882    0.471   25.882 
#
# Total GULP energy -189289.568395 kJ/mol
# GULP energy per Si atom -5567.340247 kJ/mol
# Density = 2.357245 g / cm^3
# Si number density = 23.626224 Si / 1000 Ang^3
#
#
#
# Elastic Constant Matrix: (Units=GPa)
#
#
# Indices 1 2 3 4 5 6 
#
# 1 72.2730 -1.2492 -21.6862 0.0000 0.0000 0.0000
# 2 -1.2492 183.2641 64.7228 0.0000 0.0000 0.0000
# 3 -21.6862 64.7228 119.5936 0.0000 0.0000 0.0000
# 4 0.0000 0.0000 0.0000 52.9017 0.0000 0.0000
# 5 0.0000 0.0000 0.0000 0.0000 -85.8575 0.0000
# 6 0.0000 0.0000 0.0000 0.0000 0.0000 -17.4892
#
#
#
# Elastic Compliance Matrix: (Units=1/GPa)
#
#
# Indices 1 2 3 4 5 6 
#
# 1 0.014793 -0.001047 0.003249 0.000000 0.000000 0.000000
# 2 -0.001047 0.006820 -0.003881 0.000000 0.000000 0.000000
# 3 0.003249 -0.003881 0.011051 0.000000 0.000000 0.000000
# 4 0.000000 0.000000 0.000000 0.018903 0.000000 0.000000
# 5 0.000000 0.000000 0.000000 0.000000 -0.011647 0.000000
# 6 0.000000 0.000000 0.000000 0.000000 0.000000 -0.057178
#
#
# Mechanical properties :
#
#
# Convention : Reuss Voigt Hill
#
# Bulk Modulus (GPa) = 34.12107 50.96728 42.54417
# Shear Modulus (GPa) = -1209.95110 12.13389 -598.90861
#
# Velocity S-wave (km/s) = -22.65466 2.26868 -15.93874
# Velocity P-wave (km/s) = 25.88124 5.33683 17.90749
#
# Compressibility (1/GPa) = 0.02930741
#
# Stress axis : x y z
#
# Youngs Moduli (GPa) = 67.59865 146.62754 90.48988
#
# Poissons Ratio (x) = 0.15345 -0.29399
# Poissons Ratio (y) = 0.07075 0.35116
# Poissons Ratio (z) = -0.21962 0.56902
#
# Static dielectric constant tensor:
#      x y z
#    x 1.911530 0.000000 0.000000 
#    y 0.000000 2.275740 0.000000 
#    z 0.000000 0.000000 2.013710 
# 
# From -- ./inp_files/3237.got.cif
#   From: 2010.05.17/outbox.cif.g08.bks.cpg/sg50_2_cif.got.tgz:3237.got - 2010.06.03 11:33:33.
