data_PCOD9395906
_publ_section_title
;
Structure prediction by ZEFSAII (Michael W. Deem and Ramdas Pophale) SiO2 
 PCOD9395906
Probable space group: P B A N
;
_chemical_formula_sum "Si O2"
_cell_formula_units_Z 64
_cell_length_a 34.119201
_cell_length_b 10.902717
_cell_length_c 9.442371
_cell_angle_alpha 90.000000
_cell_angle_beta 90.000000
_cell_angle_gamma 90.000000
_cell_volume 3512.486405
_symmetry_space_group_name_H-M "P B A N"
_symmetry_group_IT_number 50
_space_group.IT_coordinate_system_code '2'
_symmetry_cell_setting 'orthorhombic'
loop_
_space_group_symop_operation_xyz
x,y,z
1/2-x,1/2-y,z
x,1/2-y,-z
1/2-x,y,-z
-x,-y,-z
1/2+x,1/2+y,-z
-x,1/2+y,z
1/2+x,-y,z
loop_
_atom_site_type_symbol
_atom_site_label
_atom_site_fract_x
_atom_site_fract_y
_atom_site_fract_z
Si Si1 0.796040 0.395712 0.982203
Si Si2 0.795529 0.882925 0.520098
Si Si3 0.610461 0.742046 0.167608
Si Si4 0.158617 0.486311 0.758755
Si Si5 0.155655 0.495088 0.276760
Si Si6 0.976985 0.022689 0.644086
Si Si7 0.529293 0.749576 0.327169
Si Si8 0.106193 0.893323 0.475489
O O1 0.819451 0.428717 0.838038
O O2 0.794910 0.250000 0.000000
O O3 0.750000 0.438225 0.000000
O O4 0.823921 0.451517 0.103457
O O5 0.814772 0.750000 0.500000
O O6 0.750000 0.874867 0.500000
O O7 0.813518 0.964999 0.399061
O O8 0.805044 0.930077 0.674197
O O9 0.639347 0.628654 0.203159
O O10 0.570950 0.720265 0.256867
O O11 0.629734 0.872360 0.210349
O O12 0.602505 0.750000 0.000000
O O13 0.138199 0.577721 0.646376
O O14 0.120437 0.553495 0.372045
O O15 0.933001 0.048962 0.591465
O O16 0.997213 0.144473 0.709949
O O17 0.980084 0.890152 0.720185
O O18 0.000000 0.000000 0.500000
O O19 0.532731 0.750000 0.500000
O O20 0.100027 0.750000 0.500000
#
# Coordination Sequence:
#
# PCOD9395906 Si02
#       8
#     8   8   8   8   8   8   8   8
#     4  11  24  43  62  84 123 170 210 251 303 369
#     4  10  20  33  55  87 120 149 190 251 310 363
#     4  12  23  39  59  89 121 164 200 257 306 369
#     4  11  22  39  60  87 125 157 207 251 311 364
#     4  11  22  37  60  89 118 157 206 247 311 362
#     4  10  19  35  59  92 119 152 201 251 313 367
#     4  10  21  37  64  88 123 160 203 258 315 375
#     4  11  22  37  63  91 121 154 205 259 304 363
#
# _framework density 18.220711000000001
#
# number of rings (size 3 to 8) (size 9 to 14) (size 15 to 20)
#    0.000    1.250    3.750    4.125    1.750    0.000 
#    0.000    1.250    0.000    6.000    0.000    0.000 
#    0.000    0.000    0.000    0.000    0.000    0.000 
#
# Total GULP energy -356544.596420 kJ/mol
# GULP energy per Si atom -5571.009319 kJ/mol
# Density = 1.817924 g / cm^3
# Si number density = 18.220711 Si / 1000 Ang^3
#
#
#
# Elastic Constant Matrix: (Units=GPa)
#
#
# Indices 1 2 3 4 5 6 
#
# 1 94.0155 34.0984 22.8609 0.0000 0.0000 0.0000
# 2 34.0984 110.8620 26.4537 0.0000 0.0000 0.0000
# 3 22.8609 26.4537 88.5810 0.0000 0.0000 0.0000
# 4 0.0000 0.0000 0.0000 22.7093 0.0000 0.0000
# 5 0.0000 0.0000 0.0000 0.0000 23.5628 0.0000
# 6 0.0000 0.0000 0.0000 0.0000 0.0000 -0.7967
#
#
#
# Elastic Compliance Matrix: (Units=1/GPa)
#
#
# Indices 1 2 3 4 5 6 
#
# 1 0.012362 -0.003274 -0.002213 0.000000 0.000000 0.000000
# 2 -0.003274 0.010580 -0.002314 0.000000 0.000000 0.000000
# 3 -0.002213 -0.002314 0.012551 0.000000 0.000000 0.000000
# 4 0.000000 0.000000 0.000000 0.044035 0.000000 0.000000
# 5 0.000000 0.000000 0.000000 0.000000 0.042440 0.000000
# 6 0.000000 0.000000 0.000000 0.000000 0.000000 -1.255230
#
#
# Mechanical properties :
#
#
# Convention : Reuss Voigt Hill
#
# Bulk Modulus (GPa) = 50.27561 51.14271 50.70916
# Shear Modulus (GPa) = -4.50033 23.09811 9.29889
#
# Velocity S-wave (km/s) = -1.57330 3.56432 2.26154
# Velocity P-wave (km/s) = 4.93479 6.71331 5.89155
#
# Compressibility (1/GPa) = 0.01989036
#
# Stress axis : x y z
#
# Youngs Moduli (GPa) = 80.89232 94.52161 79.67297
#
# Poissons Ratio (x) = 0.30949 0.17628
# Poissons Ratio (y) = 0.26487 0.18440
# Poissons Ratio (z) = 0.17898 0.21877
#
# Static dielectric constant tensor:
#      x y z
#    x 1.608870 0.000000 0.000000 
#    y 0.000000 1.677380 0.000000 
#    z 0.000000 0.000000 1.467610 
# 
# From -- ./inp_files/17095.got.cif
#   From: 2010.05.17/outbox.cif.g08.bks.cpg/sg50_9_cif.got.tgz:17095.got - 2010.06.03 11:33:33.
