data_PCOD9395151
_publ_section_title
;
Structure prediction by ZEFSAII (Michael W. Deem and Ramdas Pophale) SiO2 
 PCOD9395151
Probable space group: P C C M
;
_chemical_formula_sum "Si O2"
_cell_formula_units_Z 20
_cell_length_a 5.718406
_cell_length_b 10.364791
_cell_length_c 14.618951
_cell_angle_alpha 90.000000
_cell_angle_beta 90.000000
_cell_angle_gamma 90.000000
_cell_volume 866.466440
_symmetry_space_group_name_H-M "P C C M"
_symmetry_group_IT_number 49
_symmetry_cell_setting 'orthorhombic'
loop_
_space_group_symop_operation_xyz
x,y,z
-x,-y,z
x,-y,1/2-z
-x,y,1/2-z
-x,-y,-z
x,y,-z
-x,y,1/2+z
x,-y,1/2+z
loop_
_atom_site_type_symbol
_atom_site_label
_atom_site_fract_x
_atom_site_fract_y
_atom_site_fract_z
Si Si1 0.106026 0.370943 0.851195
Si Si2 0.500000 0.000000 0.250000
Si Si3 0.500000 0.500000 0.250000
Si Si4 0.171974 0.878850 0.901057
O O1 0.369498 0.404871 0.822287
O O2 0.000000 0.500000 0.895827
O O3 0.000000 0.364814 0.750000
O O4 0.002444 0.243188 0.894570
O O5 0.655085 0.091969 0.183573
O O6 0.297544 0.871189 0.000000
O O7 0.000000 0.000000 0.900929
#
# Coordination Sequence:
#
# PCOD9395151 Si02
#       4
#     8   2   2   8
#     4   9  19  36  62  94 131 173 220 268 320 389
#     4  12  24  46  72  90 132 190 220 270 340 394
#     4   8  18  38  66  96 128 182 226 260 334 400
#     4  11  25  42  64  98 132 169 224 278 328 394
#
# _framework density 23.082259000000001
#
# number of rings (size 3 to 8) (size 9 to 14) (size 15 to 20)
#    0.000    2.400    0.000    3.600    0.000   15.200 
#    0.000    1.000    0.000    0.000    0.000   16.800 
#    0.000    0.000    0.000    0.000    0.000    0.000 
#
# Total GULP energy -111346.721101 kJ/mol
# GULP energy per Si atom -5567.336055 kJ/mol
# Density = 2.302972 g / cm^3
# Si number density = 23.082259 Si / 1000 Ang^3
#
#
#
# Elastic Constant Matrix: (Units=GPa)
#
#
# Indices 1 2 3 4 5 6 
#
# 1 87.6380 56.9481 50.7165 0.0000 0.0000 0.0000
# 2 56.9481 224.5340 51.7597 0.0000 0.0000 0.0000
# 3 50.7165 51.7597 166.3796 0.0000 0.0000 0.0000
# 4 0.0000 0.0000 0.0000 28.9511 0.0000 0.0000
# 5 0.0000 0.0000 0.0000 0.0000 15.8811 0.0000
# 6 0.0000 0.0000 0.0000 0.0000 0.0000 55.2498
#
#
#
# Elastic Compliance Matrix: (Units=1/GPa)
#
#
# Indices 1 2 3 4 5 6 
#
# 1 0.015614 -0.003084 -0.003800 0.000000 0.000000 0.000000
# 2 -0.003084 0.005407 -0.000742 0.000000 0.000000 0.000000
# 3 -0.003800 -0.000742 0.007399 0.000000 0.000000 0.000000
# 4 0.000000 0.000000 0.000000 0.034541 0.000000 0.000000
# 5 0.000000 0.000000 0.000000 0.000000 0.062968 0.000000
# 6 0.000000 0.000000 0.000000 0.000000 0.000000 0.018100
#
#
# Mechanical properties :
#
#
# Convention : Reuss Voigt Hill
#
# Bulk Modulus (GPa) = 75.94138 88.60004 82.27071
# Shear Modulus (GPa) = 30.54926 41.29156 35.92041
#
# Velocity S-wave (km/s) = 3.64193 4.23411 3.94914
# Velocity P-wave (km/s) = 7.11735 7.89756 7.51758
#
# Compressibility (1/GPa) = 0.01316805
#
# Stress axis : x y z
#
# Youngs Moduli (GPa) = 64.04618 184.94829 135.14431
#
# Poissons Ratio (x) = 0.57040 0.51355
# Poissons Ratio (y) = 0.19752 0.10027
# Poissons Ratio (z) = 0.24338 0.13722
#
# Static dielectric constant tensor:
#      x y z
#    x 6.114620 0.000000 0.000000 
#    y 0.000000 1.710590 0.000000 
#    z 0.000000 0.000000 1.853350 
# 
# From -- ./inp_files/10351.got.cif
#   From: 2010.05.17/outbox.cif.g08.bks.cpg/sg49_6_cif.got.tgz:10351.got - 2010.06.03 21:02:19.
