data_PCOD9395858
_publ_section_title
;
Structure prediction by ZEFSAII (Michael W. Deem and Ramdas Pophale) SiO2 
 PCOD9395858
Probable space group: P B A N
;
_chemical_formula_sum "Si O2"
_cell_formula_units_Z 40
_cell_length_a 7.570085
_cell_length_b 22.487570
_cell_length_c 10.251682
_cell_angle_alpha 90.000000
_cell_angle_beta 90.000000
_cell_angle_gamma 90.000000
_cell_volume 1745.172699
_symmetry_space_group_name_H-M "P B A N"
_symmetry_group_IT_number 50
_space_group.IT_coordinate_system_code '2'
_symmetry_cell_setting 'orthorhombic'
loop_
_space_group_symop_operation_xyz
x,y,z
1/2-x,1/2-y,z
x,1/2-y,-z
1/2-x,y,-z
-x,-y,-z
1/2+x,1/2+y,-z
-x,1/2+y,z
1/2+x,-y,z
loop_
_atom_site_type_symbol
_atom_site_label
_atom_site_fract_x
_atom_site_fract_y
_atom_site_fract_z
Si Si1 0.838058 0.813956 0.289754
Si Si2 0.124886 0.408713 0.894571
Si Si3 0.511219 0.578930 0.405239
Si Si4 0.365200 0.959704 0.316341
Si Si5 0.554685 0.308580 0.945149
O O1 0.750000 0.750000 0.315737
O O2 0.718638 0.858757 0.199883
O O3 0.905301 0.856119 0.404502
O O4 0.017721 0.804081 0.206712
O O5 0.985932 0.444771 0.807286
O O6 0.250000 0.443290 0.000000
O O7 0.021672 0.367999 0.996776
O O8 0.328801 0.569710 0.323095
O O9 0.463167 0.562404 0.552601
O O10 0.643487 0.530686 0.340606
O O11 0.458661 0.250000 0.000000
O O12 0.750000 0.307137 0.000000
#
# Coordination Sequence:
#
# PCOD9395858 Si02
#       5
#     8   8   8   8   8
#     4  11  21  37  60  92 129 165 215 263 325 392
#     4  10  21  36  61  91 127 168 213 272 322 400
#     4  10  22  40  69  91 127 172 217 281 331 410
#     4  10  21  43  65  95 125 170 227 268 346 403
#     4  10  19  34  58  86 122 170 212 255 322 390
#
# _framework density 22.920369000000001
#
# number of rings (size 3 to 8) (size 9 to 14) (size 15 to 20)
#    0.000    1.800    2.000    2.400    0.000    2.400 
#    0.000   12.000    0.000    2.400    0.000    0.000 
#    0.000    0.000    0.000    0.000    0.000    0.000 
#
# Total GULP energy -223141.737951 kJ/mol
# GULP energy per Si atom -5578.543449 kJ/mol
# Density = 2.286820 g / cm^3
# Si number density = 22.920369 Si / 1000 Ang^3
#
#
#
# Elastic Constant Matrix: (Units=GPa)
#
#
# Indices 1 2 3 4 5 6 
#
# 1 111.2645 38.9983 28.4227 0.0000 0.0000 0.0000
# 2 38.9983 135.9146 43.6307 0.0000 0.0000 0.0000
# 3 28.4227 43.6307 61.7430 0.0000 0.0000 0.0000
# 4 0.0000 0.0000 0.0000 27.0773 0.0000 0.0000
# 5 0.0000 0.0000 0.0000 0.0000 30.8113 0.0000
# 6 0.0000 0.0000 0.0000 0.0000 0.0000 28.8301
#
#
#
# Elastic Compliance Matrix: (Units=1/GPa)
#
#
# Indices 1 2 3 4 5 6 
#
# 1 0.010551 -0.001899 -0.003515 0.000000 0.000000 0.000000
# 2 -0.001899 0.009858 -0.006092 0.000000 0.000000 0.000000
# 3 -0.003515 -0.006092 0.022119 0.000000 0.000000 0.000000
# 4 0.000000 0.000000 0.000000 0.036931 0.000000 0.000000
# 5 0.000000 0.000000 0.000000 0.000000 0.032456 0.000000
# 6 0.000000 0.000000 0.000000 0.000000 0.000000 0.034686
#
#
# Mechanical properties :
#
#
# Convention : Reuss Voigt Hill
#
# Bulk Modulus (GPa) = 51.23979 59.00283 55.12131
# Shear Modulus (GPa) = 28.38988 30.53511 29.46249
#
# Velocity S-wave (km/s) = 3.52324 3.65393 3.58918
# Velocity P-wave (km/s) = 6.24140 6.60303 6.42476
#
# Compressibility (1/GPa) = 0.01951608
#
# Stress axis : x y z
#
# Youngs Moduli (GPa) = 94.77626 101.43948 45.20948
#
# Poissons Ratio (x) = 0.19264 0.15892
# Poissons Ratio (y) = 0.17999 0.27542
# Poissons Ratio (z) = 0.33315 0.61797
#
# Static dielectric constant tensor:
#      x y z
#    x 1.772580 0.000000 0.000000 
#    y 0.000000 1.931860 0.000000 
#    z 0.000000 0.000000 1.895950 
# 
# From -- ./inp_files/9470.got.cif
#   From: 2010.05.17/outbox.cif.g08.bks.cpg/sg50_5_cif.got.tgz:9470.got - 2010.06.03 11:33:33.
