data_PCOD9395487
_publ_section_title
;
Structure prediction by ZEFSAII (Michael W. Deem and Ramdas Pophale) SiO2 
 PCOD9395487
Probable space group: P B A N
;
_chemical_formula_sum "Si O2"
_cell_formula_units_Z 56
_cell_length_a 14.626109
_cell_length_b 10.970135
_cell_length_c 16.510515
_cell_angle_alpha 90.000000
_cell_angle_beta 90.000000
_cell_angle_gamma 90.000000
_cell_volume 2649.118575
_symmetry_space_group_name_H-M "P B A N"
_symmetry_group_IT_number 50
_space_group.IT_coordinate_system_code '2'
_symmetry_cell_setting 'orthorhombic'
loop_
_space_group_symop_operation_xyz
x,y,z
1/2-x,1/2-y,z
x,1/2-y,-z
1/2-x,y,-z
-x,-y,-z
1/2+x,1/2+y,-z
-x,1/2+y,z
1/2+x,-y,z
loop_
_atom_site_type_symbol
_atom_site_label
_atom_site_fract_x
_atom_site_fract_y
_atom_site_fract_z
Si Si1 0.236965 0.876339 0.279311
Si Si2 0.360692 0.114693 0.482608
Si Si3 0.919242 0.508016 0.197414
Si Si4 0.404763 0.455299 0.700069
Si Si5 0.356748 0.228301 0.156782
Si Si6 0.652158 0.134959 0.454033
Si Si7 0.498318 0.627152 0.048099
O O1 0.250000 0.750000 0.233162
O O2 0.179193 0.846101 0.360886
O O3 0.178837 0.976409 0.233409
O O4 0.335530 0.931622 0.295772
O O5 0.394448 0.250000 0.500000
O O6 0.250000 0.119519 0.500000
O O7 0.391102 0.089583 0.390978
O O8 0.393223 0.997080 0.533946
O O9 0.912367 0.644722 0.163712
O O10 0.996326 0.494830 0.266757
O O11 0.941099 0.408216 0.128408
O O12 0.372555 0.349400 0.761625
O O13 0.250000 0.250000 0.145604
O O14 0.400742 0.155521 0.082393
O O15 0.607230 0.250000 0.500000
O O16 0.750000 0.124810 0.500000
O O17 0.468409 0.750000 0.000000
O O18 0.500000 0.500000 0.000000
#
# Coordination Sequence:
#
# PCOD9395487 Si02
#       7
#     8   8   8   8   8   8   8
#     4  12  23  40  69  94 137 185 237 291 345 418
#     4  10  20  33  61  91 130 183 238 289 353 387
#     4  11  27  44  69 108 136 185 229 285 357 424
#     4  11  24  41  65  97 144 184 233 298 343 419
#     4  11  24  44  74 105 139 184 237 278 356 424
#     4  10  17  36  58  88 123 183 234 276 342 396
#     4  11  24  49  77 101 145 180 218 283 350 414
#
# _framework density 21.139106000000002
#
# number of rings (size 3 to 8) (size 9 to 14) (size 15 to 20)
#    0.000    1.143    7.143    0.000    8.000    0.286 
#    0.000    1.429    0.000    0.000    0.000    0.000 
#    0.000    0.000    0.000    0.000    0.000    0.000 
#
# Total GULP energy -312525.085391 kJ/mol
# GULP energy per Si atom -5580.805096 kJ/mol
# Density = 2.109099 g / cm^3
# Si number density = 21.139106 Si / 1000 Ang^3
#
#
#
# Elastic Constant Matrix: (Units=GPa)
#
#
# Indices 1 2 3 4 5 6 
#
# 1 79.8314 28.4792 20.1835 0.0000 0.0000 0.0000
# 2 28.4792 172.6808 31.1425 0.0000 0.0000 0.0000
# 3 20.1835 31.1425 75.4775 0.0000 0.0000 0.0000
# 4 0.0000 0.0000 0.0000 64.7312 0.0000 0.0000
# 5 0.0000 0.0000 0.0000 0.0000 23.2967 0.0000
# 6 0.0000 0.0000 0.0000 0.0000 0.0000 12.2996
#
#
#
# Elastic Compliance Matrix: (Units=1/GPa)
#
#
# Indices 1 2 3 4 5 6 
#
# 1 0.013909 -0.001754 -0.002996 0.000000 0.000000 0.000000
# 2 -0.001754 0.006478 -0.002204 0.000000 0.000000 0.000000
# 3 -0.002996 -0.002204 0.014959 0.000000 0.000000 0.000000
# 4 0.000000 0.000000 0.000000 0.015448 0.000000 0.000000
# 5 0.000000 0.000000 0.000000 0.000000 0.042925 0.000000
# 6 0.000000 0.000000 0.000000 0.000000 0.000000 0.081303
#
#
# Mechanical properties :
#
#
# Convention : Reuss Voigt Hill
#
# Bulk Modulus (GPa) = 46.64238 54.17780 50.41009
# Shear Modulus (GPa) = 25.50025 36.61114 31.05569
#
# Velocity S-wave (km/s) = 3.47696 4.16614 3.83706
# Velocity P-wave (km/s) = 6.18316 6.98764 6.59767
#
# Compressibility (1/GPa) = 0.02143973
#
# Stress axis : x y z
#
# Youngs Moduli (GPa) = 71.89347 154.37569 66.84744
#
# Poissons Ratio (x) = 0.27073 0.20027
# Poissons Ratio (y) = 0.12608 0.14732
# Poissons Ratio (z) = 0.21539 0.34021
#
# Static dielectric constant tensor:
#      x y z
#    x 1.754440 0.000000 0.000000 
#    y 0.000000 1.712260 0.000000 
#    z 0.000000 0.000000 1.796610 
# 
# From -- ./inp_files/26512.got.cif
#   From: 2010.05.17/outbox.cif.g08.bks.cpg/sg50_14_cif.got.tgz:26512.got - 2010.06.03 11:33:33.
