data_PCOD9395503
_publ_section_title
;
Structure prediction by ZEFSAII (Michael W. Deem and Ramdas Pophale) SiO2 
 PCOD9395503
Probable space group: P B A N
;
_chemical_formula_sum "Si O2"
_cell_formula_units_Z 34
_cell_length_a 9.577254
_cell_length_b 20.682914
_cell_length_c 8.625575
_cell_angle_alpha 90.000000
_cell_angle_beta 90.000000
_cell_angle_gamma 90.000000
_cell_volume 1708.601516
_symmetry_space_group_name_H-M "P B A N"
_symmetry_group_IT_number 50
_space_group.IT_coordinate_system_code '2'
_symmetry_cell_setting 'orthorhombic'
loop_
_space_group_symop_operation_xyz
x,y,z
1/2-x,1/2-y,z
x,1/2-y,-z
1/2-x,y,-z
-x,-y,-z
1/2+x,1/2+y,-z
-x,1/2+y,z
1/2+x,-y,z
loop_
_atom_site_type_symbol
_atom_site_label
_atom_site_fract_x
_atom_site_fract_y
_atom_site_fract_z
Si Si1 0.294290 0.158639 0.752827
Si Si2 0.298943 0.016276 0.331259
Si Si3 0.750000 0.750000 0.500000
Si Si4 0.435818 0.959172 0.856101
Si Si5 0.523677 0.821212 0.957070
O O1 0.255676 0.089324 0.687396
O O2 0.337187 0.203865 0.611382
O O3 0.155743 0.186795 0.839370
O O4 0.410070 0.153276 0.883199
O O5 0.250000 0.992254 0.500000
O O6 0.461720 0.021264 0.287596
O O7 0.218511 0.978132 0.195803
O O8 0.440462 0.882270 0.889847
O O9 0.500000 0.000000 0.000000
O O10 0.464480 0.750000 0.000000
#
# Coordination Sequence:
#
# PCOD9395503 Si02
#       5
#     8   8   2   8   8
#     4  10  18  28  51  79 116 144 183 237 297 347
#     4  11  22  37  55  88 121 154 191 242 301 346
#     4  12  16  26  48  84 116 148 172 242 316 340
#     4  11  22  37  60  84 115 157 198 240 287 352
#     4  10  18  33  51  79 109 149 193 239 284 341
#
# _framework density 19.899315000000001
#
# number of rings (size 3 to 8) (size 9 to 14) (size 15 to 20)
#    0.000    1.412    5.882    2.118    0.000    0.000 
#    0.000    0.000    0.000    2.824    0.000    1.647 
#    0.000    0.000    0.000    0.000    0.000    0.000 
#
# Total GULP energy -189576.639901 kJ/mol
# GULP energy per Si atom -5575.783527 kJ/mol
# Density = 1.985402 g / cm^3
# Si number density = 19.899315 Si / 1000 Ang^3
#
#
#
# Elastic Constant Matrix: (Units=GPa)
#
#
# Indices 1 2 3 4 5 6 
#
# 1 43.2513 19.7656 3.5432 0.0000 0.0000 0.0000
# 2 19.7656 94.0230 8.0843 0.0000 0.0000 0.0000
# 3 3.5432 8.0843 88.4573 0.0000 0.0000 0.0000
# 4 0.0000 0.0000 0.0000 35.3263 0.0000 0.0000
# 5 0.0000 0.0000 0.0000 0.0000 16.6249 0.0000
# 6 0.0000 0.0000 0.0000 0.0000 0.0000 20.1818
#
#
#
# Elastic Compliance Matrix: (Units=1/GPa)
#
#
# Indices 1 2 3 4 5 6 
#
# 1 0.025603 -0.005336 -0.000538 0.000000 0.000000 0.000000
# 2 -0.005336 0.011832 -0.000868 0.000000 0.000000 0.000000
# 3 -0.000538 -0.000868 0.011406 0.000000 0.000000 0.000000
# 4 0.000000 0.000000 0.000000 0.028308 0.000000 0.000000
# 5 0.000000 0.000000 0.000000 0.000000 0.060151 0.000000
# 6 0.000000 0.000000 0.000000 0.000000 0.000000 0.049550
#
#
# Mechanical properties :
#
#
# Convention : Reuss Voigt Hill
#
# Bulk Modulus (GPa) = 28.28221 32.05754 30.16987
# Shear Modulus (GPa) = 23.57177 27.38250 25.47713
#
# Velocity S-wave (km/s) = 3.44547 3.71354 3.58201
# Velocity P-wave (km/s) = 5.48378 5.87640 5.68348
#
# Compressibility (1/GPa) = 0.03535792
#
# Stress axis : x y z
#
# Youngs Moduli (GPa) = 39.05740 84.51617 87.67524
#
# Poissons Ratio (x) = 0.45099 0.04716
# Poissons Ratio (y) = 0.20841 0.07607
# Poissons Ratio (z) = 0.02101 0.07333
#
# Static dielectric constant tensor:
#      x y z
#    x 1.691940 0.000000 0.000000 
#    y 0.000000 1.747380 0.000000 
#    z 0.000000 0.000000 1.742040 
# 
# From -- ./inp_files/9239.got.cif
#   From: 2010.05.17/outbox.cif.g08.bks.cpg/sg50_5_cif.got.tgz:9239.got - 2010.06.03 11:33:33.
