data_PCOD9395336
_publ_section_title
;
Structure prediction by ZEFSAII (Michael W. Deem and Ramdas Pophale) SiO2 
 PCOD9395336
Probable space group: P B A N
;
_chemical_formula_sum "Si O2"
_cell_formula_units_Z 60
_cell_length_a 5.215279
_cell_length_b 22.602955
_cell_length_c 27.244896
_cell_angle_alpha 90.000000
_cell_angle_beta 90.000000
_cell_angle_gamma 90.000000
_cell_volume 3211.647863
_symmetry_space_group_name_H-M "P B A N"
_symmetry_group_IT_number 50
_space_group.IT_coordinate_system_code '2'
_symmetry_cell_setting 'orthorhombic'
loop_
_space_group_symop_operation_xyz
x,y,z
1/2-x,1/2-y,z
x,1/2-y,-z
1/2-x,y,-z
-x,-y,-z
1/2+x,1/2+y,-z
-x,1/2+y,z
1/2+x,-y,z
loop_
_atom_site_type_symbol
_atom_site_label
_atom_site_fract_x
_atom_site_fract_y
_atom_site_fract_z
Si Si1 0.619877 0.041602 0.738193
Si Si2 0.497938 0.932026 0.477886
Si Si3 0.499022 0.916826 0.967501
Si Si4 0.156706 0.688795 0.898701
Si Si5 0.544446 0.632178 0.820242
Si Si6 0.250000 0.250000 0.825621
Si Si7 0.406260 0.034610 0.136210
Si Si8 0.517111 0.962295 0.366339
O O1 0.583583 0.091367 0.779213
O O2 0.564711 0.069083 0.684140
O O3 0.894493 0.008600 0.741781
O O4 0.750000 0.903915 0.500000
O O5 0.483270 0.933655 0.419445
O O6 0.250000 0.902530 0.500000
O O7 0.500000 0.000000 0.500000
O O8 0.442695 0.855237 0.939802
O O9 0.569381 0.959411 0.922295
O O10 0.250000 0.933149 0.000000
O O11 0.750000 0.911595 0.000000
O O12 0.250000 0.750000 0.922726
O O13 0.366150 0.651681 0.866623
O O14 0.951164 0.715659 0.860471
O O15 0.621266 0.695702 0.797695
O O16 0.786905 0.594148 0.840846
O O17 0.690466 0.013621 0.150004
O O18 0.312424 0.016680 0.365290
#
# Coordination Sequence:
#
# PCOD9395336 Si02
#       8
#     8   8   8   8   8   4   8   8
#     4  10  23  35  55  82 118 152 186 237 280 337
#     4  10  14  20  37  57  87 138 193 229 254 312
#     4  12  26  44  63  90 122 150 182 225 277 335
#     4  10  23  43  63  90 112 146 184 234 278 344
#     4  11  22  41  63  88 112 143 195 229 290 330
#     4  10  22  40  71  82 112 138 187 236 280 336
#     4  12  25  41  66  86 117 155 186 225 258 334
#     4  10  16  27  39  65 100 140 189 228 271 310
#
# _framework density 18.681999999999999
#
# number of rings (size 3 to 8) (size 9 to 14) (size 15 to 20)
#    0.000    1.333    4.000    3.200    3.733    1.867 
#    0.000    0.000    0.000    0.000    0.000    0.000 
#    0.000    0.000    0.000    0.600    2.133    0.933 
#
# Total GULP energy -334607.947108 kJ/mol
# GULP energy per Si atom -5576.799118 kJ/mol
# Density = 1.863948 g / cm^3
# Si number density = 18.682000 Si / 1000 Ang^3
#
#
#
# Elastic Constant Matrix: (Units=GPa)
#
#
# Indices 1 2 3 4 5 6 
#
# 1 105.8699 24.7462 17.4786 0.0000 0.0000 0.0000
# 2 24.7462 80.8417 30.9757 0.0000 0.0000 0.0000
# 3 17.4786 30.9757 112.8334 0.0000 0.0000 0.0000
# 4 0.0000 0.0000 0.0000 8.9248 0.0000 0.0000
# 5 0.0000 0.0000 0.0000 0.0000 20.4931 0.0000
# 6 0.0000 0.0000 0.0000 0.0000 0.0000 25.1456
#
#
#
# Elastic Compliance Matrix: (Units=1/GPa)
#
#
# Indices 1 2 3 4 5 6 
#
# 1 0.010239 -0.002824 -0.000811 0.000000 0.000000 0.000000
# 2 -0.002824 0.014603 -0.003571 0.000000 0.000000 0.000000
# 3 -0.000811 -0.003571 0.009969 0.000000 0.000000 0.000000
# 4 0.000000 0.000000 0.000000 0.112048 0.000000 0.000000
# 5 0.000000 0.000000 0.000000 0.000000 0.048797 0.000000
# 6 0.000000 0.000000 0.000000 0.000000 0.000000 0.039768
#
#
# Mechanical properties :
#
#
# Convention : Reuss Voigt Hill
#
# Bulk Modulus (GPa) = 49.02269 49.54957 49.28613
# Shear Modulus (GPa) = 19.48291 26.00233 22.74262
#
# Velocity S-wave (km/s) = 3.23285 3.73478 3.49285
# Velocity P-wave (km/s) = 6.34293 6.72148 6.53495
#
# Compressibility (1/GPa) = 0.02039872
#
# Stress axis : x y z
#
# Youngs Moduli (GPa) = 97.66162 68.48090 100.31402
#
# Poissons Ratio (x) = 0.19336 0.08135
# Poissons Ratio (y) = 0.27576 0.35826
# Poissons Ratio (z) = 0.07920 0.24457
#
# Static dielectric constant tensor:
#      x y z
#    x 1.738710 0.000000 0.000000 
#    y 0.000000 1.658330 0.000000 
#    z 0.000000 0.000000 1.690620 
# 
# From -- ./inp_files/31522.got.cif
#   From: 2010.05.17/outbox.cif.g08.bks.cpg/sg50_16_cif.got.tgz:31522.got - 2010.06.03 11:33:33.
