data_PCOD9395712
_publ_section_title
;
Structure prediction by ZEFSAII (Michael W. Deem and Ramdas Pophale) SiO2 
 PCOD9395712
Probable space group: P B A N
;
_chemical_formula_sum "Si O2"
_cell_formula_units_Z 54
_cell_length_a 5.183824
_cell_length_b 16.540123
_cell_length_c 32.197945
_cell_angle_alpha 90.000000
_cell_angle_beta 90.000000
_cell_angle_gamma 90.000000
_cell_volume 2760.686790
_symmetry_space_group_name_H-M "P B A N"
_symmetry_group_IT_number 50
_space_group.IT_coordinate_system_code '2'
_symmetry_cell_setting 'orthorhombic'
loop_
_space_group_symop_operation_xyz
x,y,z
1/2-x,1/2-y,z
x,1/2-y,-z
1/2-x,y,-z
-x,-y,-z
1/2+x,1/2+y,-z
-x,1/2+y,z
1/2+x,-y,z
loop_
_atom_site_type_symbol
_atom_site_label
_atom_site_fract_x
_atom_site_fract_y
_atom_site_fract_z
Si Si1 0.250000 0.054975 0.500000
Si Si2 0.026219 0.556879 0.357203
Si Si3 0.091084 0.445708 0.821696
Si Si4 0.869051 0.553435 0.270707
Si Si5 0.250000 0.750000 0.500000
Si Si6 0.254302 0.152502 0.098644
Si Si7 0.393075 0.168886 0.567725
Si Si8 0.258771 0.651385 0.952389
O O1 0.216430 0.108101 0.541571
O O2 0.500000 0.000000 0.500000
O O3 0.798502 0.489496 0.359816
O O4 0.959526 0.598098 0.312519
O O5 0.010076 0.620664 0.394125
O O6 0.303388 0.517820 0.825309
O O7 0.103184 0.409630 0.775012
O O8 0.178228 0.384456 0.857195
O O9 0.574889 0.521508 0.272222
O O10 0.413860 0.804054 0.468657
O O11 0.250000 0.250000 0.101536
O O12 0.524528 0.126621 0.077868
O O13 0.028388 0.126994 0.067401
O O14 0.250000 0.250000 0.581692
O O15 0.250000 0.750000 0.953496
O O16 0.250000 0.623435 0.000000
#
# Coordination Sequence:
#
# PCOD9395712 Si02
#       8
#     4   8   8   8   2   8   8   8
#     4  12  24  40  61  85 110 146 198 238 268 312
#     4  10  22  40  63  90 112 144 193 240 273 322
#     4  10  19  33  55  79 107 144 177 216 272 341
#     4   8  16  33  56  81 108 138 179 224 269 321
#     4  12  24  44  60  80 128 162 194 214 286 350
#     4  10  19  31  50  78 103 135 179 231 275 315
#     4  12  25  41  60  86 119 159 185 231 287 341
#     4   9  17  30  49  72 101 138 184 228 271 321
#
# _framework density 19.560351000000001
#
# number of rings (size 3 to 8) (size 9 to 14) (size 15 to 20)
#    0.000    1.926    1.481    2.667    2.074    1.778 
#    0.000    0.741    0.000    8.889    5.778    0.000 
#    0.000    0.000    0.000    0.000    0.000    0.000 
#
# Total GULP energy -301124.134885 kJ/mol
# GULP energy per Si atom -5576.372868 kJ/mol
# Density = 1.951583 g / cm^3
# Si number density = 19.560351 Si / 1000 Ang^3
#
#
#
# Elastic Constant Matrix: (Units=GPa)
#
#
# Indices 1 2 3 4 5 6 
#
# 1 90.7026 11.7689 7.5544 0.0000 0.0000 0.0000
# 2 11.7689 32.4362 27.2143 0.0000 0.0000 0.0000
# 3 7.5544 27.2143 153.4742 0.0000 0.0000 0.0000
# 4 0.0000 0.0000 0.0000 23.1877 0.0000 0.0000
# 5 0.0000 0.0000 0.0000 0.0000 9.8475 0.0000
# 6 0.0000 0.0000 0.0000 0.0000 0.0000 6.9699
#
#
#
# Elastic Compliance Matrix: (Units=1/GPa)
#
#
# Indices 1 2 3 4 5 6 
#
# 1 0.011575 -0.004372 0.000206 0.000000 0.000000 0.000000
# 2 -0.004372 0.037870 -0.006500 0.000000 0.000000 0.000000
# 3 0.000206 -0.006500 0.007658 0.000000 0.000000 0.000000
# 4 0.000000 0.000000 0.000000 0.043126 0.000000 0.000000
# 5 0.000000 0.000000 0.000000 0.000000 0.101548 0.000000
# 6 0.000000 0.000000 0.000000 0.000000 0.000000 0.143474
#
#
# Mechanical properties :
#
#
# Convention : Reuss Voigt Hill
#
# Bulk Modulus (GPa) = 27.95656 41.07646 34.51651
# Shear Modulus (GPa) = 13.20975 23.33940 18.27458
#
# Velocity S-wave (km/s) = 2.60154 3.45802 3.05989
# Velocity P-wave (km/s) = 4.83192 6.08188 5.49258
#
# Compressibility (1/GPa) = 0.03576978
#
# Stress axis : x y z
#
# Youngs Moduli (GPa) = 86.39129 26.40633 130.57888
#
# Poissons Ratio (x) = 0.11546 -0.02684
# Poissons Ratio (y) = 0.37773 0.84875
# Poissons Ratio (z) = -0.01776 0.17164
#
# Static dielectric constant tensor:
#      x y z
#    x 1.702080 0.000000 0.000000 
#    y 0.000000 1.875970 0.000000 
#    z 0.000000 0.000000 1.709190 
# 
# From -- ./inp_files/32404.got.cif
#   From: 2010.05.17/outbox.cif.g08.bks.cpg/sg50_17_cif.got.tgz:32404.got - 2010.06.03 11:33:33.
