data_PCOD9395356
_publ_section_title
;
Structure prediction by ZEFSAII (Michael W. Deem and Ramdas Pophale) SiO2 
 PCOD9395356
Probable space group: P B A N
;
_chemical_formula_sum "Si O2"
_cell_formula_units_Z 36
_cell_length_a 14.237357
_cell_length_b 5.379541
_cell_length_c 20.353320
_cell_angle_alpha 90.000000
_cell_angle_beta 90.000000
_cell_angle_gamma 90.000000
_cell_volume 1558.869851
_symmetry_space_group_name_H-M "P B A N"
_symmetry_group_IT_number 50
_space_group.IT_coordinate_system_code '2'
_symmetry_cell_setting 'orthorhombic'
loop_
_space_group_symop_operation_xyz
x,y,z
1/2-x,1/2-y,z
x,1/2-y,-z
1/2-x,y,-z
-x,-y,-z
1/2+x,1/2+y,-z
-x,1/2+y,z
1/2+x,-y,z
loop_
_atom_site_type_symbol
_atom_site_label
_atom_site_fract_x
_atom_site_fract_y
_atom_site_fract_z
Si Si1 0.887336 0.213289 0.144591
Si Si2 0.144777 0.494910 0.471588
Si Si3 0.058247 0.340477 0.345988
Si Si4 0.936797 0.250000 0.000000
Si Si5 0.897852 0.718897 0.196575
O O1 0.855177 0.444859 0.188910
O O2 0.998599 0.187048 0.163590
O O3 0.847412 0.941835 0.159099
O O4 0.879776 0.264399 0.067640
O O5 0.096455 0.250000 0.500000
O O6 0.250000 0.495379 0.500000
O O7 0.139545 0.441180 0.394164
O O8 0.104572 0.750000 0.500000
O O9 0.088859 0.319734 0.270359
O O10 0.980835 0.559891 0.357589
O O11 0.000000 0.500000 0.000000
#
# Coordination Sequence:
#
# PCOD9395356 Si02
#       5
#     8   8   8   4   8
#     4  10  16  25  36  54  90 126 164 208 239 289
#     4  10  23  42  57  73 102 135 165 205 269 331
#     4  12  21  32  55  80 100 128 171 219 269 307
#     4  12  16  20  34  52  74 128 178 192 224 292
#     4  10  16  27  38  59  91 120 152 214 251 284
#
# _framework density 23.093651999999999
#
# number of rings (size 3 to 8) (size 9 to 14) (size 15 to 20)
#    0.000    1.333    8.889    1.333    0.000    2.667 
#    0.000    0.000    0.000    0.000    0.000    0.000 
#    0.000    0.000    0.000    0.000    0.000  106.667 
#
# Total GULP energy -200680.987688 kJ/mol
# GULP energy per Si atom -5574.471880 kJ/mol
# Density = 2.304109 g / cm^3
# Si number density = 23.093652 Si / 1000 Ang^3
#
#
#
# Elastic Constant Matrix: (Units=GPa)
#
#
# Indices 1 2 3 4 5 6 
#
# 1 56.7257 -16.7355 -13.3171 0.0000 0.0000 0.0000
# 2 -16.7355 219.0292 -2.2504 0.0000 0.0000 0.0000
# 3 -13.3171 -2.2504 124.4867 0.0000 0.0000 0.0000
# 4 0.0000 0.0000 0.0000 36.0653 0.0000 0.0000
# 5 0.0000 0.0000 0.0000 0.0000 -25.8439 0.0000
# 6 0.0000 0.0000 0.0000 0.0000 0.0000 -3.5359
#
#
#
# Elastic Compliance Matrix: (Units=1/GPa)
#
#
# Indices 1 2 3 4 5 6 
#
# 1 0.018524 0.001436 0.002008 0.000000 0.000000 0.000000
# 2 0.001436 0.004678 0.000238 0.000000 0.000000 0.000000
# 3 0.002008 0.000238 0.008252 0.000000 0.000000 0.000000
# 4 0.000000 0.000000 0.000000 0.027727 0.000000 0.000000
# 5 0.000000 0.000000 0.000000 0.000000 -0.038694 0.000000
# 6 0.000000 0.000000 0.000000 0.000000 0.000000 -0.282815
#
#
# Mechanical properties :
#
#
# Convention : Reuss Voigt Hill
#
# Bulk Modulus (GPa) = 25.76202 37.29286 31.52744
# Shear Modulus (GPa) = -19.47401 30.17340 5.34969
#
# Velocity S-wave (km/s) = -2.90705 3.61857 1.52366
# Velocity P-wave (km/s) = 0.29705 5.80020 4.09598
#
# Compressibility (1/GPa) = 0.03881683
#
# Stress axis : x y z
#
# Youngs Moduli (GPa) = 53.98507 213.77715 121.18202
#
# Poissons Ratio (x) = -0.30698 -0.24328
# Poissons Ratio (y) = -0.07752 -0.02886
# Poissons Ratio (z) = -0.10838 -0.05092
#
# Static dielectric constant tensor:
#      x y z
#    x 1.935850 0.000000 0.000000 
#    y 0.000000 2.031600 0.000000 
#    z 0.000000 0.000000 1.899280 
# 
# From -- ./inp_files/29598.got.cif
#   From: 2010.05.17/outbox.cif.g08.bks.cpg/sg50_15_cif.got.tgz:29598.got - 2010.06.03 11:33:33.
