data_PCOD9395966
_publ_section_title
;
Structure prediction by ZEFSAII (Michael W. Deem and Ramdas Pophale) SiO2 
 PCOD9395966
Probable space group: P B A N
;
_chemical_formula_sum "Si O2"
_cell_formula_units_Z 54
_cell_length_a 13.715139
_cell_length_b 31.091626
_cell_length_c 5.706343
_cell_angle_alpha 90.000000
_cell_angle_beta 90.000000
_cell_angle_gamma 90.000000
_cell_volume 2433.332862
_symmetry_space_group_name_H-M "P B A N"
_symmetry_group_IT_number 50
_space_group.IT_coordinate_system_code '2'
_symmetry_cell_setting 'orthorhombic'
loop_
_space_group_symop_operation_xyz
x,y,z
1/2-x,1/2-y,z
x,1/2-y,-z
1/2-x,y,-z
-x,-y,-z
1/2+x,1/2+y,-z
-x,1/2+y,z
1/2+x,-y,z
loop_
_atom_site_type_symbol
_atom_site_label
_atom_site_fract_x
_atom_site_fract_y
_atom_site_fract_z
Si Si1 0.993809 0.638928 0.770977
Si Si2 0.402257 0.314219 0.149720
Si Si3 0.750000 0.750000 0.000000
Si Si4 0.362249 0.401904 0.420168
Si Si5 0.850254 0.417121 0.144891
Si Si6 0.750000 0.141693 0.500000
Si Si7 0.595981 0.202654 0.592009
Si Si8 0.689571 0.989435 0.246843
O O1 0.941315 0.601450 0.625291
O O2 0.062837 0.612716 0.952824
O O3 0.052069 0.674288 0.621018
O O4 0.910574 0.667309 0.889174
O O5 0.319894 0.278910 0.159123
O O6 0.378512 0.356746 0.293727
O O7 0.508035 0.296037 0.222705
O O8 0.250000 0.402460 0.500000
O O9 0.372312 0.446002 0.277251
O O10 0.824025 0.390944 0.378656
O O11 0.869730 0.466519 0.205551
O O12 0.750000 0.416252 0.000000
O O13 0.690111 0.174561 0.666426
O O14 0.620797 0.250000 0.500000
O O15 0.750000 0.994628 0.500000
O O16 0.750000 0.984348 0.000000
#
# Coordination Sequence:
#
# PCOD9395966 Si02
#       8
#     8   8   2   8   8   4   8   8
#     4  10  22  39  61  89 123 163 215 269 332 398
#     4  11  23  40  58  88 120 162 214 270 327 399
#     4  12  24  36  66  84 118 174 216 264 342 394
#     4  10  23  39  62  85 122 166 210 272 328 390
#     4  10  20  38  62  90 124 165 212 266 330 403
#     4  10  19  36  62  86 120 168 204 261 334 398
#     4  10  21  37  58  88 124 159 211 267 327 398
#     4  10  22  39  65  97 131 175 221 274 329 405
#
# _framework density 22.191783000000001
#
# number of rings (size 3 to 8) (size 9 to 14) (size 15 to 20)
#    0.000    1.778    0.741    2.889    5.185    1.778 
#    0.000    3.704    0.000    2.667    0.000    0.000 
#    0.000    0.000    0.000    0.000    0.000    0.000 
#
# Total GULP energy -300901.780283 kJ/mol
# GULP energy per Si atom -5572.255190 kJ/mol
# Density = 2.214127 g / cm^3
# Si number density = 22.191783 Si / 1000 Ang^3
#
#
#
# Elastic Constant Matrix: (Units=GPa)
#
#
# Indices 1 2 3 4 5 6 
#
# 1 61.8283 44.7588 -2.5746 0.0000 0.0000 0.0000
# 2 44.7588 155.6564 17.1351 0.0000 0.0000 0.0000
# 3 -2.5746 17.1351 40.8993 0.0000 0.0000 0.0000
# 4 0.0000 0.0000 0.0000 19.3329 0.0000 0.0000
# 5 0.0000 0.0000 0.0000 0.0000 25.2956 0.0000
# 6 0.0000 0.0000 0.0000 0.0000 0.0000 15.8918
#
#
#
# Elastic Compliance Matrix: (Units=1/GPa)
#
#
# Indices 1 2 3 4 5 6 
#
# 1 0.021046 -0.006497 0.004047 0.000000 0.000000 0.000000
# 2 -0.006497 0.008741 -0.004071 0.000000 0.000000 0.000000
# 3 0.004047 -0.004071 0.026411 0.000000 0.000000 0.000000
# 4 0.000000 0.000000 0.000000 0.051725 0.000000 0.000000
# 5 0.000000 0.000000 0.000000 0.000000 0.039533 0.000000
# 6 0.000000 0.000000 0.000000 0.000000 0.000000 0.062925
#
#
# Mechanical properties :
#
#
# Convention : Reuss Voigt Hill
#
# Bulk Modulus (GPa) = 23.17250 41.89139 32.53195
# Shear Modulus (GPa) = 21.02536 25.37505 23.20021
#
# Velocity S-wave (km/s) = 3.08139 3.38515 3.23684
# Velocity P-wave (km/s) = 4.80880 5.84782 5.35357
#
# Compressibility (1/GPa) = 0.04315460
#
# Stress axis : x y z
#
# Youngs Moduli (GPa) = 47.51544 114.40585 37.86353
#
# Poissons Ratio (x) = 0.74332 -0.15323
# Poissons Ratio (y) = 0.30872 0.15414
# Poissons Ratio (z) = -0.19229 0.46575
#
# Static dielectric constant tensor:
#      x y z
#    x -2.135330 0.000000 0.000000 
#    y 0.000000 1.775460 0.000000 
#    z 0.000000 0.000000 1.956590 
# 
# From -- ./inp_files/3777.got.cif
#   From: 2010.05.17/outbox.cif.g08.bks.cpg/sg50_2_cif.got.tgz:3777.got - 2010.06.03 11:33:33.
