data_PCOD9395809
_publ_section_title
;
Structure prediction by ZEFSAII (Michael W. Deem and Ramdas Pophale) SiO2 
 PCOD9395809
Probable space group: P B A N
;
_chemical_formula_sum "Si O2"
_cell_formula_units_Z 52
_cell_length_a 24.661389
_cell_length_b 18.523063
_cell_length_c 5.216412
_cell_angle_alpha 90.000000
_cell_angle_beta 90.000000
_cell_angle_gamma 90.000000
_cell_volume 2382.880278
_symmetry_space_group_name_H-M "P B A N"
_symmetry_group_IT_number 50
_space_group.IT_coordinate_system_code '2'
_symmetry_cell_setting 'orthorhombic'
loop_
_space_group_symop_operation_xyz
x,y,z
1/2-x,1/2-y,z
x,1/2-y,-z
1/2-x,y,-z
-x,-y,-z
1/2+x,1/2+y,-z
-x,1/2+y,z
1/2+x,-y,z
loop_
_atom_site_type_symbol
_atom_site_label
_atom_site_fract_x
_atom_site_fract_y
_atom_site_fract_z
Si Si1 0.300035 0.007190 0.327813
Si Si2 0.914948 0.665960 0.502190
Si Si3 0.383015 0.551838 0.296817
Si Si4 0.601730 0.250000 0.000000
Si Si5 0.958330 0.172160 0.604373
Si Si6 0.377793 0.419529 0.004533
Si Si7 0.191333 0.855342 0.934376
O O1 0.250000 0.031626 0.500000
O O2 0.351580 0.000891 0.513201
O O3 0.294018 0.924197 0.240366
O O4 0.317174 0.055179 0.083566
O O5 0.899015 0.750000 0.500000
O O6 0.889725 0.630093 0.249288
O O7 0.980516 0.664116 0.513902
O O8 0.898484 0.624844 0.760893
O O9 0.426393 0.599001 0.448386
O O10 0.404401 0.497810 0.075369
O O11 0.339684 0.607541 0.175050
O O12 0.559662 0.188842 0.101720
O O13 0.647001 0.297019 0.160557
O O14 0.939009 0.250000 0.500000
O O15 0.250000 0.824556 0.000000
#
# Coordination Sequence:
#
# PCOD9395809 Si02
#       7
#     8   8   8   4   8   8   8
#     4  11  21  39  67  93 134 172 223 275 350 413
#     4  11  25  45  71  97 134 177 221 279 354 423
#     4  10  21  40  61  99 133 178 226 288 330 411
#     4  10  21  36  54  88 134 186 246 289 326 404
#     4  10  23  39  63  91 137 188 235 278 342 397
#     4  11  24  44  67 107 128 170 226 283 342 418
#     4  10  19  33  58  88 133 182 235 284 342 391
#
# _framework density 21.822330999999998
#
# number of rings (size 3 to 8) (size 9 to 14) (size 15 to 20)
#    0.000    1.538    3.077    1.615    4.308    1.231 
#    0.000    0.000    0.000    0.462    4.000    0.000 
#    0.000    0.000    0.000    0.000    0.000    0.000 
#
# Total GULP energy -289483.841213 kJ/mol
# GULP energy per Si atom -5566.996946 kJ/mol
# Density = 2.177266 g / cm^3
# Si number density = 21.822331 Si / 1000 Ang^3
#
#
#
# Elastic Constant Matrix: (Units=GPa)
#
#
# Indices 1 2 3 4 5 6 
#
# 1 77.5819 76.6580 52.7413 0.0000 0.0000 0.0000
# 2 76.6580 142.8615 64.0396 0.0000 0.0000 0.0000
# 3 52.7413 64.0396 110.8988 0.0000 0.0000 0.0000
# 4 0.0000 0.0000 0.0000 33.8248 0.0000 0.0000
# 5 0.0000 0.0000 0.0000 0.0000 21.1508 0.0000
# 6 0.0000 0.0000 0.0000 0.0000 0.0000 89.9125
#
#
#
# Elastic Compliance Matrix: (Units=1/GPa)
#
#
# Indices 1 2 3 4 5 6 
#
# 1 0.030923 -0.013493 -0.006914 0.000000 0.000000 0.000000
# 2 -0.013493 0.015333 -0.002437 0.000000 0.000000 0.000000
# 3 -0.006914 -0.002437 0.013713 0.000000 0.000000 0.000000
# 4 0.000000 0.000000 0.000000 0.029564 0.000000 0.000000
# 5 0.000000 0.000000 0.000000 0.000000 0.047280 0.000000
# 6 0.000000 0.000000 0.000000 0.000000 0.000000 0.011122
#
#
# Mechanical properties :
#
#
# Convention : Reuss Voigt Hill
#
# Bulk Modulus (GPa) = 70.03290 79.80223 74.91757
# Shear Modulus (GPa) = 25.20386 38.17118 31.68752
#
# Velocity S-wave (km/s) = 3.40215 4.18686 3.81474
# Velocity P-wave (km/s) = 6.89890 7.74735 7.33540
#
# Compressibility (1/GPa) = 0.01427900
#
# Stress axis : x y z
#
# Youngs Moduli (GPa) = 32.33853 65.22090 72.92524
#
# Poissons Ratio (x) = 0.88005 0.50423
# Poissons Ratio (y) = 0.43636 0.17770
# Poissons Ratio (z) = 0.22360 0.15892
#
# Static dielectric constant tensor:
#      x y z
#    x 1.829370 0.000000 0.000000 
#    y 0.000000 1.841850 0.000000 
#    z 0.000000 0.000000 2.253790 
# 
# From -- ./inp_files/6708.got.cif
#   From: 2010.05.17/outbox.cif.g08.bks.cpg/sg50_4_cif.got.tgz:6708.got - 2010.06.03 11:33:33.
