data_PCOD9395343
_publ_section_title
;
Structure prediction by ZEFSAII (Michael W. Deem and Ramdas Pophale) SiO2 
 PCOD9395343
Probable space group: P B A N
;
_chemical_formula_sum "Si O2"
_cell_formula_units_Z 64
_cell_length_a 7.097976
_cell_length_b 23.823271
_cell_length_c 15.480952
_cell_angle_alpha 90.000000
_cell_angle_beta 90.000000
_cell_angle_gamma 90.000000
_cell_volume 2617.782630
_symmetry_space_group_name_H-M "P B A N"
_symmetry_group_IT_number 50
_space_group.IT_coordinate_system_code '2'
_symmetry_cell_setting 'orthorhombic'
loop_
_space_group_symop_operation_xyz
x,y,z
1/2-x,1/2-y,z
x,1/2-y,-z
1/2-x,y,-z
-x,-y,-z
1/2+x,1/2+y,-z
-x,1/2+y,z
1/2+x,-y,z
loop_
_atom_site_type_symbol
_atom_site_label
_atom_site_fract_x
_atom_site_fract_y
_atom_site_fract_z
Si Si1 0.627656 0.543272 0.159413
Si Si2 0.526868 0.933212 0.503769
Si Si3 0.478472 0.245982 0.282682
Si Si4 0.970953 0.881555 0.020896
Si Si5 0.993752 0.137207 0.339158
Si Si6 0.447907 0.381036 0.682652
Si Si7 0.558609 0.415721 0.159901
Si Si8 0.528339 0.767047 0.905806
O O1 0.523290 0.559863 0.070901
O O2 0.530742 0.574219 0.240160
O O3 0.648270 0.477068 0.165850
O O4 0.835112 0.570149 0.155918
O O5 0.750000 0.923748 0.500000
O O6 0.443427 0.899998 0.422095
O O7 0.471440 0.908041 0.595852
O O8 0.500000 0.000000 0.500000
O O9 0.250000 0.250000 0.282181
O O10 0.542530 0.296113 0.344794
O O11 0.525230 0.181750 0.303604
O O12 0.540958 0.258043 0.183913
O O13 0.008190 0.833414 0.091351
O O14 0.750000 0.869785 0.000000
O O15 0.086078 0.883761 0.931529
O O16 0.220642 0.128164 0.327359
O O17 0.905831 0.116221 0.248950
O O18 0.750000 0.750000 0.906577
O O19 0.455890 0.750000 0.000000
#
# Coordination Sequence:
#
# PCOD9395343 Si02
#       8
#     8   8   8   8   8   8   8   8
#     4  10  19  32  46  68  96 130 162 201 239 287
#     4  10  20  34  52  74  99 131 164 196 236 285
#     4   9  16  26  43  69 100 126 151 194 255 293
#     4  10  17  27  41  67  96 126 157 195 239 287
#     4   9  18  30  46  72  99 126 157 201 244 293
#     4   9  17  30  48  69 100 127 158 197 246 293
#     4  10  20  31  47  67  98 130 162 203 241 283
#     4  10  15  21  40  65  98 129 151 188 245 294
#
# _framework density 24.448172
#
# number of rings (size 3 to 8) (size 9 to 14) (size 15 to 20)
#    0.000    2.375    2.500    1.875    3.500    0.500 
#    0.000    2.500    0.000    0.000    0.000    4.375 
#    0.000    1.000    0.000    0.000    0.000    0.000 
#
# Total GULP energy -357718.938792 kJ/mol
# GULP energy per Si atom -5589.358419 kJ/mol
# Density = 2.439253 g / cm^3
# Si number density = 24.448172 Si / 1000 Ang^3
#
#
#
# Elastic Constant Matrix: (Units=GPa)
#
#
# Indices 1 2 3 4 5 6 
#
# 1 95.8964 -1.2557 4.8725 0.0000 0.0000 0.0000
# 2 -1.2557 143.6672 64.8066 0.0000 0.0000 0.0000
# 3 4.8725 64.8066 149.1351 0.0000 0.0000 0.0000
# 4 0.0000 0.0000 0.0000 59.2852 0.0000 0.0000
# 5 0.0000 0.0000 0.0000 0.0000 -1.3359 0.0000
# 6 0.0000 0.0000 0.0000 0.0000 0.0000 17.1068
#
#
#
# Elastic Compliance Matrix: (Units=1/GPa)
#
#
# Indices 1 2 3 4 5 6 
#
# 1 0.010456 0.000305 -0.000474 0.000000 0.000000 0.000000
# 2 0.000305 0.008667 -0.003776 0.000000 0.000000 0.000000
# 3 -0.000474 -0.003776 0.008362 0.000000 0.000000 0.000000
# 4 0.000000 0.000000 0.000000 0.016868 0.000000 0.000000
# 5 0.000000 0.000000 0.000000 0.000000 -0.748571 0.000000
# 6 0.000000 0.000000 0.000000 0.000000 0.000000 0.058456
#
#
# Mechanical properties :
#
#
# Convention : Reuss Voigt Hill
#
# Bulk Modulus (GPa) = 51.03529 58.39395 54.71462
# Shear Modulus (GPa) = -7.91964 36.36290 14.22163
#
# Velocity S-wave (km/s) = -1.80177 3.86080 2.41447
# Velocity P-wave (km/s) = 4.07329 6.61899 5.49557
#
# Compressibility (1/GPa) = 0.01959428
#
# Stress axis : x y z
#
# Youngs Moduli (GPa) = 95.63866 115.38669 119.59309
#
# Poissons Ratio (x) = -0.03523 0.05672
# Poissons Ratio (y) = -0.02920 0.45158
# Poissons Ratio (z) = 0.04536 0.43570
#
# Static dielectric constant tensor:
#      x y z
#    x 2.030270 0.000000 0.000000 
#    y 0.000000 1.957740 0.000000 
#    z 0.000000 0.000000 1.892910 
# 
# From -- ./inp_files/29273.got.cif
#   From: 2010.05.17/outbox.cif.g08.bks.cpg/sg50_15_cif.got.tgz:29273.got - 2010.06.03 11:33:33.
