data_PCOD9395157
_publ_section_title
;
Structure prediction by ZEFSAII (Michael W. Deem and Ramdas Pophale) SiO2 
 PCOD9395157
Probable space group: P C C M
;
_chemical_formula_sum "Si O2"
_cell_formula_units_Z 26
_cell_length_a 8.801428
_cell_length_b 5.441101
_cell_length_c 27.821623
_cell_angle_alpha 90.000000
_cell_angle_beta 90.000000
_cell_angle_gamma 90.000000
_cell_volume 1332.362465
_symmetry_space_group_name_H-M "P C C M"
_symmetry_group_IT_number 49
_symmetry_cell_setting 'orthorhombic'
loop_
_space_group_symop_operation_xyz
x,y,z
-x,-y,z
x,-y,1/2-z
-x,y,1/2-z
-x,-y,-z
x,y,-z
-x,y,1/2+z
x,-y,1/2+z
loop_
_atom_site_type_symbol
_atom_site_label
_atom_site_fract_x
_atom_site_fract_y
_atom_site_fract_z
Si Si1 0.667795 0.390801 0.198666
Si Si2 0.500000 0.000000 0.750000
Si Si3 0.677098 0.031512 0.557596
Si Si4 0.178870 0.532386 0.900790
O O1 0.500000 0.500000 0.187363
O O2 0.718612 0.500000 0.250000
O O3 0.619222 0.118823 0.212800
O O4 0.778744 0.434552 0.155217
O O5 0.688340 0.051798 0.500000
O O6 0.740583 0.284251 0.580032
O O7 0.500000 0.000000 0.570851
O O8 0.762668 0.783206 0.574139
O O9 0.000000 0.500000 0.907912
#
# Coordination Sequence:
#
# PCOD9395157 Si02
#       4
#     8   2   8   8
#     4   9  20  37  63  92 126 168 220 264 310 379
#     4   8  18  36  64  96 114 172 224 268 306 360
#     4  11  25  46  70  95 125 172 227 270 313 383
#     4  12  26  41  66 101 137 171 207 266 339 386
#
# _framework density 19.514206999999999
#
# number of rings (size 3 to 8) (size 9 to 14) (size 15 to 20)
#    0.000    1.846    0.000    4.615   10.769    6.769 
#    0.000    0.000    0.000    0.000    0.000    0.000 
#    0.000    0.000    0.000    0.000    0.000    0.000 
#
# Total GULP energy -144931.358157 kJ/mol
# GULP energy per Si atom -5574.283006 kJ/mol
# Density = 1.946979 g / cm^3
# Si number density = 19.514207 Si / 1000 Ang^3
#
#
#
# Elastic Constant Matrix: (Units=GPa)
#
#
# Indices 1 2 3 4 5 6 
#
# 1 126.5304 70.9100 63.1807 0.0000 0.0000 0.0000
# 2 70.9100 149.5536 62.4427 0.0000 0.0000 0.0000
# 3 63.1807 62.4427 92.6928 0.0000 0.0000 0.0000
# 4 0.0000 0.0000 0.0000 78.5688 0.0000 0.0000
# 5 0.0000 0.0000 0.0000 0.0000 -81.2670 0.0000
# 6 0.0000 0.0000 0.0000 0.0000 0.0000 34.9785
#
#
#
# Elastic Compliance Matrix: (Units=1/GPa)
#
#
# Indices 1 2 3 4 5 6 
#
# 1 0.013160 -0.003471 -0.006632 0.000000 0.000000 0.000000
# 2 -0.003471 0.010219 -0.004518 0.000000 0.000000 0.000000
# 3 -0.006632 -0.004518 0.018352 0.000000 0.000000 0.000000
# 4 0.000000 0.000000 0.000000 0.012728 0.000000 0.000000
# 5 0.000000 0.000000 0.000000 0.000000 -0.012305 0.000000
# 6 0.000000 0.000000 0.000000 0.000000 0.000000 0.028589
#
#
# Mechanical properties :
#
#
# Convention : Reuss Voigt Hill
#
# Bulk Modulus (GPa) = 80.06785 84.64928 82.35857
# Shear Modulus (GPa) = 48.00921 17.93895 32.97408
#
# Velocity S-wave (km/s) = 4.96544 3.03525 4.11511
# Velocity P-wave (km/s) = 8.60196 7.46700 8.05450
#
# Compressibility (1/GPa) = 0.01248941
#
# Stress axis : x y z
#
# Youngs Moduli (GPa) = 75.98924 97.86072 54.48895
#
# Poissons Ratio (x) = 0.33964 0.36136
# Poissons Ratio (y) = 0.26373 0.24619
# Poissons Ratio (z) = 0.50395 0.44215
#
# Static dielectric constant tensor:
#      x y z
#    x 1.644550 0.000000 0.000000 
#    y 0.000000 1.746270 0.000000 
#    z 0.000000 0.000000 1.667090 
# 
# From -- ./inp_files/21460.got.cif
#   From: 2010.05.17/outbox.cif.g08.bks.cpg/sg49_11_cif.got.tgz:21460.got - 2010.06.03 21:02:19.
