data_PCOD9395094
_publ_section_title
;
Structure prediction by ZEFSAII (Michael W. Deem and Ramdas Pophale) SiO2 
 PCOD9395094
Probable space group: P C C M
;
_chemical_formula_sum "Si O2"
_cell_formula_units_Z 56
_cell_length_a 7.537992
_cell_length_b 22.869054
_cell_length_c 15.413683
_cell_angle_alpha 90.000000
_cell_angle_beta 90.000000
_cell_angle_gamma 90.000000
_cell_volume 2657.114658
_symmetry_space_group_name_H-M "P C C M"
_symmetry_group_IT_number 49
_symmetry_cell_setting 'orthorhombic'
loop_
_space_group_symop_operation_xyz
x,y,z
-x,-y,z
x,-y,1/2-z
-x,y,1/2-z
-x,-y,-z
x,y,-z
-x,y,1/2+z
x,-y,1/2+z
loop_
_atom_site_type_symbol
_atom_site_label
_atom_site_fract_x
_atom_site_fract_y
_atom_site_fract_z
Si Si1 0.283786 0.934014 0.900801
Si Si2 0.204120 0.500000 0.605926
Si Si3 0.717814 0.152068 0.750000
Si Si4 0.787436 0.626500 0.901841
Si Si5 0.787436 0.626500 0.401841
Si Si6 0.290521 0.284389 0.750000
Si Si7 0.283787 0.065986 0.900801
O O1 0.225582 0.884735 0.834100
O O2 0.500000 0.933896 0.900232
O O3 0.229806 0.000000 0.875419
O O4 0.228138 0.923629 0.000000
O O5 0.201559 0.500000 0.500000
O O6 0.283041 0.563014 0.629662
O O7 0.283041 0.436986 0.629661
O O8 0.000000 0.500000 0.637340
O O9 0.500000 0.152438 0.750000
O O10 0.782657 0.218638 0.750000
O O11 0.774418 0.115265 0.665900
O O12 0.755632 0.677869 0.834568
O O13 1.000000 0.619325 0.907583
O O14 0.722681 0.638249 0.000000
O O15 0.722682 0.638249 0.500000
O O16 0.755632 0.677869 0.334568
O O17 0.500000 0.278080 0.750000
O O18 0.228139 0.076371 0.000000
#
# Coordination Sequence:
#
# PCOD9395094 Si02
#       7
#     8   8   8   8   8   8   8
#     4   8  13  22  38  58  78 107 152 199 235 268
#     4   7  12  27  53  78  91 109 154 212 259 289
#     4   9  17  27  37  54  88 130 159 180 220 282
#     4   9  18  35  57  75  93 122 164 212 252 287
#     4   9  18  35  57  75  93 122 164 212 252 287
#     4  11  23  33  44  70 107 142 167 188 230 297
#     4   8  13  22  38  58  78 107 152 199 235 268
#
# _framework density 21.075492000000001
#
# number of rings (size 3 to 8) (size 9 to 14) (size 15 to 20)
#    0.000    3.286    0.000    3.429    0.000    4.000 
#    0.000    6.429    0.000    2.571    0.000    0.000 
#    0.000    9.143    0.000   25.143    0.000   20.571 
#
# Total GULP energy -312308.546689 kJ/mol
# GULP energy per Si atom -5576.938334 kJ/mol
# Density = 2.102752 g / cm^3
# Si number density = 21.075492 Si / 1000 Ang^3
#
#
#
# Elastic Constant Matrix: (Units=GPa)
#
#
# Indices 1 2 3 4 5 6 
#
# 1 51.5466 8.2656 3.4275 0.0000 0.0000 0.0000
# 2 8.2656 252.2247 136.2759 0.0000 0.0000 0.0000
# 3 3.4275 136.2759 134.8898 0.0000 0.0000 0.0000
# 4 0.0000 0.0000 0.0000 23.2478 0.0000 0.0000
# 5 0.0000 0.0000 0.0000 0.0000 13.9524 0.0000
# 6 0.0000 0.0000 0.0000 0.0000 0.0000 17.1397
#
#
#
# Elastic Compliance Matrix: (Units=1/GPa)
#
#
# Indices 1 2 3 4 5 6 
#
# 1 0.019509 -0.000818 0.000331 0.000000 0.000000 0.000000
# 2 -0.000818 0.008764 -0.008834 0.000000 0.000000 0.000000
# 3 0.000331 -0.008834 0.016329 0.000000 0.000000 0.000000
# 4 0.000000 0.000000 0.000000 0.043015 0.000000 0.000000
# 5 0.000000 0.000000 0.000000 0.000000 0.071672 0.000000
# 6 0.000000 0.000000 0.000000 0.000000 0.000000 0.058344
#
#
# Mechanical properties :
#
#
# Convention : Reuss Voigt Hill
#
# Bulk Modulus (GPa) = 38.51927 81.62213 60.07070
# Shear Modulus (GPa) = 20.41404 30.24743 25.33074
#
# Velocity S-wave (km/s) = 3.11563 3.79251 3.47061
# Velocity P-wave (km/s) = 5.59101 7.61512 6.68017
#
# Compressibility (1/GPa) = 0.02596103
#
# Stress axis : x y z
#
# Youngs Moduli (GPa) = 51.25812 114.10006 61.23944
#
# Poissons Ratio (x) = 0.09333 -0.02025
# Poissons Ratio (y) = 0.04193 0.54096
# Poissons Ratio (z) = -0.01695 1.00790
#
# Static dielectric constant tensor:
#      x y z
#    x 1.831930 0.000000 0.000000 
#    y 0.000000 1.767660 0.000000 
#    z 0.000000 0.000000 1.699510 
# 
# From -- ./inp_files/12043.got.cif
#   From: 2010.05.17/outbox.cif.g08.bks.cpg/sg49_7_cif.got.tgz:12043.got - 2010.06.03 21:02:19.
