data_PCOD9395467
_publ_section_title
;
Structure prediction by ZEFSAII (Michael W. Deem and Ramdas Pophale) SiO2 
 PCOD9395467
Probable space group: P B A N
;
_chemical_formula_sum "Si O2"
_cell_formula_units_Z 60
_cell_length_a 18.728714
_cell_length_b 12.976887
_cell_length_c 15.201796
_cell_angle_alpha 90.000000
_cell_angle_beta 90.000000
_cell_angle_gamma 90.000000
_cell_volume 3694.650660
_symmetry_space_group_name_H-M "P B A N"
_symmetry_group_IT_number 50
_space_group.IT_coordinate_system_code '2'
_symmetry_cell_setting 'orthorhombic'
loop_
_space_group_symop_operation_xyz
x,y,z
1/2-x,1/2-y,z
x,1/2-y,-z
1/2-x,y,-z
-x,-y,-z
1/2+x,1/2+y,-z
-x,1/2+y,z
1/2+x,-y,z
loop_
_atom_site_type_symbol
_atom_site_label
_atom_site_fract_x
_atom_site_fract_y
_atom_site_fract_z
Si Si1 0.392007 0.216022 0.399583
Si Si2 0.408563 0.477772 0.704397
Si Si3 0.381310 0.001836 0.848525
Si Si4 0.227112 0.455897 0.182640
Si Si5 0.863823 0.863842 0.023621
Si Si6 0.480263 0.148463 0.732677
Si Si7 0.994552 0.841922 0.151999
Si Si8 0.750000 0.750000 0.711771
O O1 0.390323 0.250000 0.500000
O O2 0.402951 0.093850 0.381826
O O3 0.449707 0.282621 0.345994
O O4 0.318517 0.241429 0.349687
O O5 0.332361 0.498365 0.750095
O O6 0.454805 0.579889 0.698004
O O7 0.450884 0.404947 0.773493
O O8 0.298841 0.977810 0.826369
O O9 0.420336 0.072318 0.774301
O O10 0.432075 0.903148 0.862898
O O11 0.376084 0.070257 0.936439
O O12 0.187789 0.424555 0.091561
O O13 0.252657 0.348688 0.225784
O O14 0.940342 0.845571 0.070525
O O15 0.835420 0.750000 0.000000
O O16 0.503241 0.226990 0.810365
#
# Coordination Sequence:
#
# PCOD9395467 Si02
#       8
#     8   8   8   8   8   8   8   4
#     4  10  19  31  52  80 104 129 162 207 267 317
#     4   8  19  33  51  71 103 128 168 208 252 307
#     4  11  19  31  50  70 102 134 173 213 255 302
#     4  10  19  31  47  74 101 131 169 212 251 309
#     4  11  19  30  48  75 102 134 171 216 266 301
#     4  10  18  36  51  70  98 137 170 208 249 310
#     4   9  19  33  48  71  96 137 175 208 251 305
#     4  10  17  32  49  72 110 134 154 203 265 320
#
# _framework density 16.239695000000001
#
# number of rings (size 3 to 8) (size 9 to 14) (size 15 to 20)
#    0.000    2.133    2.667    2.600    0.000    1.067 
#    0.000    0.667    0.000    0.000    0.000    0.000 
#    0.000    0.000    0.000    0.000    0.000    0.000 
#
# Total GULP energy -334456.290271 kJ/mol
# GULP energy per Si atom -5574.271505 kJ/mol
# Density = 1.620273 g / cm^3
# Si number density = 16.239695 Si / 1000 Ang^3
#
#
#
# Elastic Constant Matrix: (Units=GPa)
#
#
# Indices 1 2 3 4 5 6 
#
# 1 102.6971 29.5666 8.1023 0.0000 0.0000 0.0000
# 2 29.5666 34.0790 -5.6019 0.0000 0.0000 0.0000
# 3 8.1023 -5.6019 52.7654 0.0000 0.0000 0.0000
# 4 0.0000 0.0000 0.0000 12.3966 0.0000 0.0000
# 5 0.0000 0.0000 0.0000 0.0000 1.3026 0.0000
# 6 0.0000 0.0000 0.0000 0.0000 0.0000 24.0910
#
#
#
# Elastic Compliance Matrix: (Units=1/GPa)
#
#
# Indices 1 2 3 4 5 6 
#
# 1 0.013549 -0.012312 -0.003388 0.000000 0.000000 0.000000
# 2 -0.012312 0.041053 0.006249 0.000000 0.000000 0.000000
# 3 -0.003388 0.006249 0.020135 0.000000 0.000000 0.000000
# 4 0.000000 0.000000 0.000000 0.080667 0.000000 0.000000
# 5 0.000000 0.000000 0.000000 0.000000 0.767725 0.000000
# 6 0.000000 0.000000 0.000000 0.000000 0.000000 0.041509
#
#
# Mechanical properties :
#
#
# Convention : Reuss Voigt Hill
#
# Bulk Modulus (GPa) = 17.90969 28.18618 23.04793
# Shear Modulus (GPa) = 4.98926 18.05633 11.52280
#
# Velocity S-wave (km/s) = 1.75469 3.33808 2.66662
# Velocity P-wave (km/s) = 3.89327 5.67900 4.86871
#
# Compressibility (1/GPa) = 0.05583571
#
# Stress axis : x y z
#
# Youngs Moduli (GPa) = 73.80445 24.35897 49.66374
#
# Poissons Ratio (x) = 0.29991 0.16824
# Poissons Ratio (y) = 0.90869 -0.31035
# Poissons Ratio (z) = 0.25002 -0.15222
#
# Static dielectric constant tensor:
#      x y z
#    x 1.570100 0.000000 0.000000 
#    y 0.000000 1.540260 0.000000 
#    z 0.000000 0.000000 1.534150 
# 
# From -- ./inp_files/26978.got.cif
#   From: 2010.05.17/outbox.cif.g08.bks.cpg/sg50_14_cif.got.tgz:26978.got - 2010.06.03 11:33:33.
