data_PCOD9395986
_publ_section_title
;
Structure prediction by ZEFSAII (Michael W. Deem and Ramdas Pophale) SiO2 
 PCOD9395986
Probable space group: P B A N
;
_chemical_formula_sum "Si O2"
_cell_formula_units_Z 56
_cell_length_a 21.290365
_cell_length_b 10.524072
_cell_length_c 12.525849
_cell_angle_alpha 90.000000
_cell_angle_beta 90.000000
_cell_angle_gamma 90.000000
_cell_volume 2806.558439
_symmetry_space_group_name_H-M "P B A N"
_symmetry_group_IT_number 50
_space_group.IT_coordinate_system_code '2'
_symmetry_cell_setting 'orthorhombic'
loop_
_space_group_symop_operation_xyz
x,y,z
1/2-x,1/2-y,z
x,1/2-y,-z
1/2-x,y,-z
-x,-y,-z
1/2+x,1/2+y,-z
-x,1/2+y,z
1/2+x,-y,z
loop_
_atom_site_type_symbol
_atom_site_label
_atom_site_fract_x
_atom_site_fract_y
_atom_site_fract_z
Si Si1 0.401119 0.152030 0.823201
Si Si2 0.681294 0.984296 0.616291
Si Si3 0.429678 0.555462 0.016847
Si Si4 0.324758 0.042505 0.627471
Si Si5 0.409312 0.430153 0.809093
Si Si6 0.869423 0.244081 0.618925
Si Si7 0.528274 0.275810 0.799224
O O1 0.390948 0.042709 0.909212
O O2 0.385731 0.295639 0.859713
O O3 0.476642 0.165689 0.810144
O O4 0.366826 0.117604 0.712636
O O5 0.663497 0.933535 0.498532
O O6 0.750685 0.936440 0.644282
O O7 0.679114 0.138591 0.616042
O O8 0.630987 0.949344 0.704513
O O9 0.438426 0.678996 0.091497
O O10 0.500000 0.500000 0.000000
O O11 0.403119 0.541099 0.896744
O O12 0.338567 0.892290 0.639661
O O13 0.480891 0.394475 0.775529
O O14 0.898502 0.250000 0.500000
O O15 0.922768 0.256207 0.708082
#
# Coordination Sequence:
#
# PCOD9395986 Si02
#       7
#     8   8   8   8   8   8   8
#     4  10  21  36  59  88 120 150 199 238 299 359
#     4  10  22  39  60  85 117 159 210 239 301 361
#     4  10  19  37  58  84 121 156 193 232 294 360
#     4  10  21  40  61  83 118 161 199 257 291 353
#     4   9  22  35  57  90 116 156 192 240 296 364
#     4  10  20  36  60  86 115 154 198 251 300 353
#     4   9  21  33  58  88 118 150 192 243 304 353
#
# _framework density 19.953264999999998
#
# number of rings (size 3 to 8) (size 9 to 14) (size 15 to 20)
#    0.857    1.429    1.429    0.857    4.000    4.000 
#    0.000    5.000    0.000    1.714    3.714    0.000 
#    0.000    0.000    0.000    0.000    0.000    0.000 
#
# Total GULP energy -311855.258988 kJ/mol
# GULP energy per Si atom -5568.843911 kJ/mol
# Density = 1.990785 g / cm^3
# Si number density = 19.953265 Si / 1000 Ang^3
#
#
#
# Elastic Constant Matrix: (Units=GPa)
#
#
# Indices 1 2 3 4 5 6 
#
# 1 57.3436 22.3704 66.0336 0.0000 0.0000 0.0000
# 2 22.3704 65.9949 30.8458 0.0000 0.0000 0.0000
# 3 66.0336 30.8458 137.6339 0.0000 0.0000 0.0000
# 4 0.0000 0.0000 0.0000 36.1137 0.0000 0.0000
# 5 0.0000 0.0000 0.0000 0.0000 7.6901 0.0000
# 6 0.0000 0.0000 0.0000 0.0000 0.0000 14.2272
#
#
#
# Elastic Compliance Matrix: (Units=1/GPa)
#
#
# Indices 1 2 3 4 5 6 
#
# 1 0.040499 -0.005190 -0.018267 0.000000 0.000000 0.000000
# 2 -0.005190 0.017591 -0.001452 0.000000 0.000000 0.000000
# 3 -0.018267 -0.001452 0.016355 0.000000 0.000000 0.000000
# 4 0.000000 0.000000 0.000000 0.027690 0.000000 0.000000
# 5 0.000000 0.000000 0.000000 0.000000 0.130037 0.000000
# 6 0.000000 0.000000 0.000000 0.000000 0.000000 0.070288
#
#
# Mechanical properties :
#
#
# Convention : Reuss Voigt Hill
#
# Bulk Modulus (GPa) = 40.60763 55.49690 48.05226
# Shear Modulus (GPa) = 13.87009 21.05439 17.46224
#
# Velocity S-wave (km/s) = 2.63939 3.25189 2.96151
# Velocity P-wave (km/s) = 5.44831 6.47870 5.98571
#
# Compressibility (1/GPa) = 0.02462591
#
# Stress axis : x y z
#
# Youngs Moduli (GPa) = 24.69193 56.84812 61.14183
#
# Poissons Ratio (x) = 0.29504 1.11690
# Poissons Ratio (y) = 0.12815 0.08880
# Poissons Ratio (z) = 0.45106 0.08256
#
# Static dielectric constant tensor:
#      x y z
#    x 1.675400 0.000000 0.000000 
#    y 0.000000 1.829700 0.000000 
#    z 0.000000 0.000000 1.710400 
# 
# From -- ./inp_files/22858.got.cif
#   From: 2010.05.17/outbox.cif.g08.bks.cpg/sg50_12_cif.got.tgz:22858.got - 2010.06.03 11:33:33.
