data_PCOD9395909
_publ_section_title
;
Structure prediction by ZEFSAII (Michael W. Deem and Ramdas Pophale) SiO2 
 PCOD9395909
Probable space group: P B A N
;
_chemical_formula_sum "Si O2"
_cell_formula_units_Z 58
_cell_length_a 13.739912
_cell_length_b 12.826885
_cell_length_c 18.460188
_cell_angle_alpha 90.000000
_cell_angle_beta 90.000000
_cell_angle_gamma 90.000000
_cell_volume 3253.428538
_symmetry_space_group_name_H-M "P B A N"
_symmetry_group_IT_number 50
_space_group.IT_coordinate_system_code '2'
_symmetry_cell_setting 'orthorhombic'
loop_
_space_group_symop_operation_xyz
x,y,z
1/2-x,1/2-y,z
x,1/2-y,-z
1/2-x,y,-z
-x,-y,-z
1/2+x,1/2+y,-z
-x,1/2+y,z
1/2+x,-y,z
loop_
_atom_site_type_symbol
_atom_site_label
_atom_site_fract_x
_atom_site_fract_y
_atom_site_fract_z
Si Si1 0.250000 0.750000 0.500000
Si Si2 0.464221 0.385000 0.847515
Si Si3 0.334916 0.865764 0.701076
Si Si4 0.185867 0.646980 0.873052
Si Si5 0.655136 0.806045 0.212818
Si Si6 0.763548 0.574238 0.918586
Si Si7 0.483529 0.028371 0.714718
Si Si8 0.350911 0.640886 0.630154
O O1 0.320961 0.679562 0.550222
O O2 0.568203 0.356648 0.883736
O O3 0.423812 0.281886 0.807416
O O4 0.377279 0.415176 0.900641
O O5 0.472758 0.480303 0.789627
O O6 0.310214 0.867908 0.785849
O O7 0.351967 0.747907 0.676505
O O8 0.245211 0.916276 0.659119
O O9 0.430476 0.928588 0.682490
O O10 0.250000 0.750000 0.890959
O O11 0.230838 0.545677 0.910607
O O12 0.750000 0.750000 0.246830
O O13 0.699884 0.861810 0.140725
O O14 0.599590 0.890218 0.261124
O O15 0.750000 0.612182 0.000000
O O16 0.556748 0.077389 0.656967
#
# Coordination Sequence:
#
# PCOD9395909 Si02
#       8
#     2   8   8   8   8   8   8   8
#     4   8  20  40  56  92 126 166 186 220 284 364
#     4  10  23  35  60  84 108 151 198 252 304 353
#     4   9  18  32  56  86 107 150 186 236 298 326
#     4  11  20  36  59  86 115 141 196 258 296 349
#     4  10  22  38  55  85 117 146 197 255 301 369
#     4  11  24  41  55  75 115 162 196 244 315 381
#     4  11  19  34  60  91 110 147 194 252 298 328
#     4  10  19  35  60  84 123 152 190 231 281 359
#
# _framework density 17.827347
#
# number of rings (size 3 to 8) (size 9 to 14) (size 15 to 20)
#    0.000    1.931    4.138    2.483    3.862    3.310 
#    0.000    4.138    0.000    0.000    0.000    0.000 
#    0.000    0.000    0.000    0.000    0.000    0.000 
#
# Total GULP energy -323022.993290 kJ/mol
# GULP energy per Si atom -5569.361953 kJ/mol
# Density = 1.778677 g / cm^3
# Si number density = 17.827347 Si / 1000 Ang^3
#
#
#
# Elastic Constant Matrix: (Units=GPa)
#
#
# Indices 1 2 3 4 5 6 
#
# 1 121.1989 30.7409 37.4265 0.0000 0.0000 0.0000
# 2 30.7409 61.8502 6.6401 0.0000 0.0000 0.0000
# 3 37.4265 6.6401 64.1828 0.0000 0.0000 0.0000
# 4 0.0000 0.0000 0.0000 -47.5320 0.0000 0.0000
# 5 0.0000 0.0000 0.0000 0.0000 -33.2811 0.0000
# 6 0.0000 0.0000 0.0000 0.0000 0.0000 38.5662
#
#
#
# Elastic Compliance Matrix: (Units=1/GPa)
#
#
# Indices 1 2 3 4 5 6 
#
# 1 0.011419 -0.005016 -0.006140 0.000000 0.000000 0.000000
# 2 -0.005016 0.018553 0.001006 0.000000 0.000000 0.000000
# 3 -0.006140 0.001006 0.019057 0.000000 0.000000 0.000000
# 4 0.000000 0.000000 0.000000 -0.021038 0.000000 0.000000
# 5 0.000000 0.000000 0.000000 0.000000 -0.030047 0.000000
# 6 0.000000 0.000000 0.000000 0.000000 0.000000 0.025929
#
#
# Mechanical properties :
#
#
# Convention : Reuss Voigt Hill
#
# Bulk Modulus (GPa) = 34.80891 44.09409 39.45150
# Shear Modulus (GPa) = 93.02222 3.04557 48.03390
#
# Velocity S-wave (km/s) = 7.23138 1.30847 5.19639
# Velocity P-wave (km/s) = 9.44943 5.20293 7.62765
#
# Compressibility (1/GPa) = 0.02872828
#
# Stress axis : x y z
#
# Youngs Moduli (GPa) = 87.57122 53.89844 52.47486
#
# Poissons Ratio (x) = 0.27038 0.32219
# Poissons Ratio (y) = 0.43930 -0.05278
# Poissons Ratio (z) = 0.53767 -0.05421
#
# Static dielectric constant tensor:
#      x y z
#    x 1.811420 0.000000 0.000000 
#    y 0.000000 1.634970 0.000000 
#    z 0.000000 0.000000 1.619030 
# 
# From -- ./inp_files/29529.got.cif
#   From: 2010.05.17/outbox.cif.g08.bks.cpg/sg50_15_cif.got.tgz:29529.got - 2010.06.03 11:33:33.
