data_PCOD9395554
_publ_section_title
;
Structure prediction by ZEFSAII (Michael W. Deem and Ramdas Pophale) SiO2 
 PCOD9395554
Probable space group: P B A N
;
_chemical_formula_sum "Si O2"
_cell_formula_units_Z 48
_cell_length_a 19.305043
_cell_length_b 11.903334
_cell_length_c 11.843092
_cell_angle_alpha 90.000000
_cell_angle_beta 90.000000
_cell_angle_gamma 90.000000
_cell_volume 2721.475921
_symmetry_space_group_name_H-M "P B A N"
_symmetry_group_IT_number 50
_space_group.IT_coordinate_system_code '2'
_symmetry_cell_setting 'orthorhombic'
loop_
_space_group_symop_operation_xyz
x,y,z
1/2-x,1/2-y,z
x,1/2-y,-z
1/2-x,y,-z
-x,-y,-z
1/2+x,1/2+y,-z
-x,1/2+y,z
1/2+x,-y,z
loop_
_atom_site_type_symbol
_atom_site_label
_atom_site_fract_x
_atom_site_fract_y
_atom_site_fract_z
Si Si1 0.596666 0.407236 0.528507
Si Si2 0.461412 0.221750 0.835032
Si Si3 0.328112 0.715252 0.658037
Si Si4 0.445715 0.151446 0.576036
Si Si5 0.878699 0.166089 0.098371
Si Si6 0.071514 0.435956 0.026290
O O1 0.647732 0.385109 0.423676
O O2 0.621596 0.319096 0.623342
O O3 0.520484 0.375392 0.481412
O O4 0.594637 0.533975 0.571310
O O5 0.454248 0.193692 0.703911
O O6 0.541350 0.200058 0.871171
O O7 0.441070 0.347792 0.872075
O O8 0.416088 0.138452 0.914373
O O9 0.250000 0.750000 0.634209
O O10 0.337189 0.683093 0.787187
O O11 0.413745 0.250000 0.500000
O O12 0.877581 0.036952 0.057673
O O13 0.855898 0.250000 0.000000
O O14 0.000000 0.500000 0.000000
#
# Coordination Sequence:
#
# PCOD9395554 Si02
#       6
#     8   8   8   8   8   8
#     4  10  21  37  55  82 115 150 180 231 293 345
#     4  10  18  32  49  82 119 150 173 219 305 349
#     4  11  23  41  59  77 113 159 198 233 276 336
#     4  11  21  31  56  90 117 137 180 239 293 346
#     4  11  20  32  54  82 111 144 192 235 274 332
#     4   9  18  30  50  78 113 157 173 219 291 360
#
# _framework density 17.637488999999999
#
# number of rings (size 3 to 8) (size 9 to 14) (size 15 to 20)
#    0.000    1.667    6.667    1.000    4.667    1.667 
#    0.000    0.000    0.000    2.000    0.000    0.000 
#    0.000    0.000    0.000    0.000    0.000    0.000 
#
# Total GULP energy -267662.934922 kJ/mol
# GULP energy per Si atom -5576.311144 kJ/mol
# Density = 1.759735 g / cm^3
# Si number density = 17.637489 Si / 1000 Ang^3
#
#
#
# Elastic Constant Matrix: (Units=GPa)
#
#
# Indices 1 2 3 4 5 6 
#
# 1 32.8059 16.1801 0.8674 0.0000 0.0000 0.0000
# 2 16.1801 140.7298 56.1105 0.0000 0.0000 0.0000
# 3 0.8674 56.1105 104.2310 0.0000 0.0000 0.0000
# 4 0.0000 0.0000 0.0000 22.4106 0.0000 0.0000
# 5 0.0000 0.0000 0.0000 0.0000 3.5583 0.0000
# 6 0.0000 0.0000 0.0000 0.0000 0.0000 10.7859
#
#
#
# Elastic Compliance Matrix: (Units=1/GPa)
#
#
# Indices 1 2 3 4 5 6 
#
# 1 0.032717 -0.004651 0.002232 0.000000 0.000000 0.000000
# 2 -0.004651 0.009709 -0.005188 0.000000 0.000000 0.000000
# 3 0.002232 -0.005188 0.012368 0.000000 0.000000 0.000000
# 4 0.000000 0.000000 0.000000 0.044622 0.000000 0.000000
# 5 0.000000 0.000000 0.000000 0.000000 0.281034 0.000000
# 6 0.000000 0.000000 0.000000 0.000000 0.000000 0.092713
#
#
# Mechanical properties :
#
#
# Convention : Reuss Voigt Hill
#
# Bulk Modulus (GPa) = 25.26557 47.12029 36.19293
# Shear Modulus (GPa) = 9.96865 20.99153 15.48009
#
# Velocity S-wave (km/s) = 2.37997 3.45362 2.96578
# Velocity P-wave (km/s) = 4.68063 6.53279 5.68268
#
# Compressibility (1/GPa) = 0.03957955
#
# Stress axis : x y z
#
# Youngs Moduli (GPa) = 30.56470 102.99613 80.85159
#
# Poissons Ratio (x) = 0.47908 -0.18044
# Poissons Ratio (y) = 0.14217 0.41946
# Poissons Ratio (z) = -0.06821 0.53434
#
# Static dielectric constant tensor:
#      x y z
#    x 1.584050 0.000000 0.000000 
#    y 0.000000 1.627750 0.000000 
#    z 0.000000 0.000000 1.590230 
# 
# From -- ./inp_files/20313.got.cif
#   From: 2010.05.17/outbox.cif.g08.bks.cpg/sg50_11_cif.got.tgz:20313.got - 2010.06.03 11:33:33.
