data_PCOD9395095
_publ_section_title
;
Structure prediction by ZEFSAII (Michael W. Deem and Ramdas Pophale) SiO2 
 PCOD9395095
Probable space group: P C C M
;
_chemical_formula_sum "Si O2"
_cell_formula_units_Z 48
_cell_length_a 15.483416
_cell_length_b 9.852790
_cell_length_c 15.624770
_cell_angle_alpha 90.000000
_cell_angle_beta 90.000000
_cell_angle_gamma 90.000000
_cell_volume 2383.634386
_symmetry_space_group_name_H-M "P C C M"
_symmetry_group_IT_number 49
_symmetry_cell_setting 'orthorhombic'
loop_
_space_group_symop_operation_xyz
x,y,z
-x,-y,z
x,-y,1/2-z
-x,y,1/2-z
-x,-y,-z
x,y,-z
-x,y,1/2+z
x,-y,1/2+z
loop_
_atom_site_type_symbol
_atom_site_label
_atom_site_fract_x
_atom_site_fract_y
_atom_site_fract_z
Si Si1 0.806623 0.209970 0.101000
Si Si2 0.590263 0.578842 0.000000
Si Si3 0.707698 0.952649 0.840422
Si Si4 0.715114 0.477916 0.152182
Si Si5 0.996994 0.842346 0.352683
Si Si6 0.178025 0.716841 0.399461
Si Si7 0.415550 0.906280 0.500000
O O1 0.743383 0.323524 0.138412
O O2 0.907621 0.226946 0.120171
O O3 0.779492 0.064767 0.137609
O O4 0.793729 0.209482 0.000000
O O5 0.500000 0.500000 0.000000
O O6 0.645270 0.531805 0.916606
O O7 0.574322 0.741816 0.000000
O O8 0.759073 0.811319 0.842857
O O9 0.638645 0.944824 0.915684
O O10 0.669919 0.000000 0.750000
O O11 0.687647 0.500000 0.250000
O O12 0.800794 0.565914 0.130783
O O13 0.080605 0.764411 0.386746
O O14 0.000000 0.843584 0.250000
O O15 0.000000 0.000000 0.382468
O O16 0.201216 0.732703 0.500000
O O17 0.500000 0.000000 0.500000
#
# Coordination Sequence:
#
# PCOD9395095 Si02
#       7
#     8   4   8   8   8   8   4
#     4  12  24  40  67 104 137 180 237 280 327 395
#     4  12  28  52  74 101 138 174 218 282 347 417
#     4  12  23  43  71 100 137 182 225 275 336 403
#     4  12  25  47  73  99 136 183 226 274 342 410
#     4  11  23  37  60 100 140 182 236 284 331 390
#     4  12  22  44  68  95 140 191 229 278 340 398
#     4  12  28  50  74 105 137 173 219 281 346 414
#
# _framework density 20.137316999999999
#
# number of rings (size 3 to 8) (size 9 to 14) (size 15 to 20)
#    0.000    0.167    6.667    3.500    2.333    2.000 
#    0.000    5.000    0.000    0.000    0.000    0.000 
#    0.000    0.000    0.000    0.000    0.000    0.000 
#
# Total GULP energy -268504.212398 kJ/mol
# GULP energy per Si atom -5593.837758 kJ/mol
# Density = 2.009148 g / cm^3
# Si number density = 20.137317 Si / 1000 Ang^3
#
#
#
# Elastic Constant Matrix: (Units=GPa)
#
#
# Indices 1 2 3 4 5 6 
#
# 1 95.7797 7.7898 17.7397 0.0000 0.0000 0.0000
# 2 7.7898 46.5091 7.8815 0.0000 0.0000 0.0000
# 3 17.7397 7.8815 139.1153 0.0000 0.0000 0.0000
# 4 0.0000 0.0000 0.0000 21.8479 0.0000 0.0000
# 5 0.0000 0.0000 0.0000 0.0000 -1.4502 0.0000
# 6 0.0000 0.0000 0.0000 0.0000 0.0000 21.5151
#
#
#
# Elastic Compliance Matrix: (Units=1/GPa)
#
#
# Indices 1 2 3 4 5 6 
#
# 1 0.010809 -0.001592 -0.001288 0.000000 0.000000 0.000000
# 2 -0.001592 0.021944 -0.001040 0.000000 0.000000 0.000000
# 3 -0.001288 -0.001040 0.007411 0.000000 0.000000 0.000000
# 4 0.000000 0.000000 0.000000 0.045771 0.000000 0.000000
# 5 0.000000 0.000000 0.000000 0.000000 -0.689549 0.000000
# 6 0.000000 0.000000 0.000000 0.000000 0.000000 0.046479
#
#
# Mechanical properties :
#
#
# Convention : Reuss Voigt Hill
#
# Bulk Modulus (GPa) = 30.93726 38.69180 34.81453
# Shear Modulus (GPa) = -9.28471 24.91544 7.81536
#
# Velocity S-wave (km/s) = -2.14958 3.52131 1.97217
# Velocity P-wave (km/s) = 3.03901 5.98235 4.74469
#
# Compressibility (1/GPa) = 0.03232348
#
# Stress axis : x y z
#
# Youngs Moduli (GPa) = 92.51817 45.57036 134.92596
#
# Poissons Ratio (x) = 0.07255 0.17380
# Poissons Ratio (y) = 0.14729 0.14035
# Poissons Ratio (z) = 0.11917 0.04740
#
# Static dielectric constant tensor:
#      x y z
#    x 1.682250 0.000000 0.000000 
#    y 0.000000 1.686910 0.000000 
#    z 0.000000 0.000000 1.723190 
# 
# From -- ./inp_files/17763.got.cif
#   From: 2010.05.17/outbox.cif.g08.bks.cpg/sg49_9_cif.got.tgz:17763.got - 2010.06.03 21:02:19.
