data_PCOD9395236
_publ_section_title
;
Structure prediction by ZEFSAII (Michael W. Deem and Ramdas Pophale) SiO2 
 PCOD9395236
Probable space group: P C C M
;
_chemical_formula_sum "Si O2"
_cell_formula_units_Z 56
_cell_length_a 15.000000
_cell_length_b 21.000000
_cell_length_c 9.000000
_cell_angle_alpha 90.000000
_cell_angle_beta 90.000000
_cell_angle_gamma 90.000000
_cell_volume 2835.000000
_symmetry_space_group_name_H-M "P C C M"
_symmetry_group_IT_number 49
_symmetry_cell_setting 'orthorhombic'
loop_
_space_group_symop_operation_xyz
x,y,z
-x,-y,z
x,-y,1/2-z
-x,y,1/2-z
-x,-y,-z
x,y,-z
-x,y,1/2+z
x,-y,1/2+z
loop_
_atom_site_type_symbol
_atom_site_label
_atom_site_fract_x
_atom_site_fract_y
_atom_site_fract_z
Si Si1 0.405621 0.158180 0.322276
Si Si2 0.250236 0.071806 0.818731
Si Si3 0.342497 0.697077 0.177379
Si Si4 0.859848 0.434832 0.327813
Si Si5 0.852201 0.293434 0.319728
Si Si6 0.906197 0.158689 0.180478
Si Si7 0.642070 0.433464 0.325870
O O1 0.500000 0.142604 0.250000
O O2 0.401949 0.146067 0.500000
O O3 0.333243 0.114546 0.238616
O O4 0.390027 0.234567 0.302791
O O5 0.167249 0.111540 0.750457
O O6 0.253237 0.000000 0.750000
O O7 0.247058 0.069416 0.000000
O O8 0.250480 0.705072 0.267607
O O9 0.385493 0.631883 0.242074
O O10 0.326753 0.688510 0.000000
O O11 0.890045 0.500000 0.250000
O O12 0.884419 0.439199 0.500000
O O13 0.888560 0.363975 0.274946
O O14 0.751081 0.434224 0.318663
O O15 0.858807 0.287576 0.500000
O O16 0.891411 0.231402 0.238704
O O17 0.000000 0.138195 0.250000
O O18 0.903963 0.157480 0.000000
O O19 0.612579 0.500000 0.250000
O O20 0.617214 0.431499 0.500000
#
# Coordination Sequence:
#
# PCOD9395236 Si02
#       7
#     8   8   8   8   8   8   8
#     4  11  24  42  66  98 133 172 217 263 316 377
#     4  12  26  47  74 102 135 170 208 257 311 375
#     4  10  19  32  54  83 119 161 209 261 316 377
#     4   8  15  25  41  70 108 150 200 253 308 369
#     4  10  19  33  55  84 119 163 210 260 318 375
#     4  12  25  43  67  98 132 170 215 261 315 377
#     4   9  16  26  43  71 109 152 203 258 317 377
#
# _framework density 19.753086
#
# number of rings (size 3 to 8) (size 9 to 14) (size 15 to 20)
#    0.000    1.714    1.429    5.143    0.000    6.286 
#    0.000    2.857    0.000    0.857    0.000    6.000 
#    0.000    0.000    0.000    0.000    0.000    0.000 
#
# Total GULP energy -312697.538267 kJ/mol
# GULP energy per Si atom -5583.884612 kJ/mol
# Density = 1.970813 g / cm^3
# Si number density = 19.753086 Si / 1000 Ang^3
#
#
#
# Elastic Constant Matrix: (Units=GPa)
#
#
# Indices 1 2 3 4 5 6 
#
# 1 107.7714 57.5369 48.9588 0.0000 0.0000 0.0000
# 2 57.5369 187.9138 88.4179 0.0000 0.0000 0.0000
# 3 48.9588 88.4179 170.5663 0.0000 0.0000 0.0000
# 4 0.0000 0.0000 0.0000 47.2470 0.0000 0.0000
# 5 0.0000 0.0000 0.0000 0.0000 19.6770 0.0000
# 6 0.0000 0.0000 0.0000 0.0000 0.0000 -5.4904
#
#
#
# Elastic Compliance Matrix: (Units=1/GPa)
#
#
# Indices 1 2 3 4 5 6 
#
# 1 0.011569 -0.002618 -0.001963 0.000000 0.000000 0.000000
# 2 -0.002618 0.007631 -0.003204 0.000000 0.000000 0.000000
# 3 -0.001963 -0.003204 0.008087 0.000000 0.000000 0.000000
# 4 0.000000 0.000000 0.000000 0.021165 0.000000 0.000000
# 5 0.000000 0.000000 0.000000 0.000000 0.050821 0.000000
# 6 0.000000 0.000000 0.000000 0.000000 0.000000 -0.182135
#
#
# Mechanical properties :
#
#
# Convention : Reuss Voigt Hill
#
# Bulk Modulus (GPa) = 85.35884 95.11987 90.23935
# Shear Modulus (GPa) = -78.88242 30.37590 -24.25326
#
# Velocity S-wave (km/s) = -6.32621 3.92571 -3.50783
# Velocity P-wave (km/s) = 3.17088 8.29501 5.42000
#
# Compressibility (1/GPa) = 0.01171525
#
# Stress axis : x y z
#
# Youngs Moduli (GPa) = 86.43995 131.04552 123.65036
#
# Poissons Ratio (x) = 0.34313 0.24277
# Poissons Ratio (y) = 0.22634 0.39619
# Poissons Ratio (z) = 0.16971 0.41989
#
# Static dielectric constant tensor:
#      x y z
#    x 1.735770 0.000000 0.000000 
#    y 0.000000 1.698380 0.000000 
#    z 0.000000 0.000000 1.662420 
# 
# From -- ./inp_files/4084.got.cif
#   From: 2010.05.17/outbox.ucp.g08.bks.cvg/sg49_3_cif.got.tgz:4084.got - 2010.06.11 16:40:14.
