data_PCOD9395582
_publ_section_title
;
Structure prediction by ZEFSAII (Michael W. Deem and Ramdas Pophale) SiO2 
 PCOD9395582
Probable space group: P B A N
;
_chemical_formula_sum "Si O2"
_cell_formula_units_Z 48
_cell_length_a 17.106870
_cell_length_b 12.709154
_cell_length_c 8.111136
_cell_angle_alpha 90.000000
_cell_angle_beta 90.000000
_cell_angle_gamma 90.000000
_cell_volume 1763.473267
_symmetry_space_group_name_H-M "P B A N"
_symmetry_group_IT_number 50
_space_group.IT_coordinate_system_code '2'
_symmetry_cell_setting 'orthorhombic'
loop_
_space_group_symop_operation_xyz
x,y,z
1/2-x,1/2-y,z
x,1/2-y,-z
1/2-x,y,-z
-x,-y,-z
1/2+x,1/2+y,-z
-x,1/2+y,z
1/2+x,-y,z
loop_
_atom_site_type_symbol
_atom_site_label
_atom_site_fract_x
_atom_site_fract_y
_atom_site_fract_z
Si Si1 0.009145 0.418576 0.148779
Si Si2 0.788601 0.081988 0.176266
Si Si3 0.946048 0.115919 0.332831
Si Si4 0.634625 0.106782 0.321105
Si Si5 0.163941 0.344674 0.251649
Si Si6 0.377235 0.361061 0.357499
O O1 0.029346 0.493394 0.306449
O O2 0.086839 0.351873 0.135156
O O3 0.929858 0.357416 0.187918
O O4 0.000000 0.500000 0.000000
O O5 0.724706 0.132004 0.298427
O O6 0.795195 0.955349 0.206593
O O7 0.875381 0.127803 0.202168
O O8 0.750000 0.099388 0.000000
O O9 0.031095 0.169518 0.334301
O O10 0.901909 0.132733 0.503639
O O11 0.632711 0.979964 0.300641
O O12 0.177389 0.217997 0.254345
O O13 0.146268 0.356977 0.449644
#
# Coordination Sequence:
#
# PCOD9395582 Si02
#       6
#     8   8   8   8   8   8
#     4  10  18  33  55  81 116 153 200 253 301 365
#     4  11  23  36  55  88 128 160 197 252 320 386
#     4  10  19  36  56  85 110 156 216 254 294 361
#     4  11  18  34  56  84 113 157 205 246 298 375
#     4  10  20  36  56  88 120 153 201 259 318 367
#     4  10  19  35  60  85 115 152 213 266 300 359
#
# _framework density 27.219010999999998
#
# number of rings (size 3 to 8) (size 9 to 14) (size 15 to 20)
#    0.000    1.667    5.000    3.500    0.000    0.667 
#    0.000   10.000    0.000    1.000    0.000    3.500 
#    0.000    0.000    0.000    0.000    0.000    0.000 
#
# Total GULP energy -268193.525458 kJ/mol
# GULP energy per Si atom -5587.365114 kJ/mol
# Density = 2.715706 g / cm^3
# Si number density = 27.219011 Si / 1000 Ang^3
#
#
#
# Elastic Constant Matrix: (Units=GPa)
#
#
# Indices 1 2 3 4 5 6 
#
# 1 146.2463 10.4363 27.7016 0.0000 0.0000 0.0000
# 2 10.4363 109.2881 7.5103 0.0000 0.0000 0.0000
# 3 27.7016 7.5103 98.1376 0.0000 0.0000 0.0000
# 4 0.0000 0.0000 0.0000 9.1935 0.0000 0.0000
# 5 0.0000 0.0000 0.0000 0.0000 25.7809 0.0000
# 6 0.0000 0.0000 0.0000 0.0000 0.0000 15.8116
#
#
#
# Elastic Compliance Matrix: (Units=1/GPa)
#
#
# Indices 1 2 3 4 5 6 
#
# 1 0.007257 -0.000555 -0.002006 0.000000 0.000000 0.000000
# 2 -0.000555 0.009241 -0.000550 0.000000 0.000000 0.000000
# 3 -0.002006 -0.000550 0.010798 0.000000 0.000000 0.000000
# 4 0.000000 0.000000 0.000000 0.108773 0.000000 0.000000
# 5 0.000000 0.000000 0.000000 0.000000 0.038788 0.000000
# 6 0.000000 0.000000 0.000000 0.000000 0.000000 0.063245
#
#
# Mechanical properties :
#
#
# Convention : Reuss Voigt Hill
#
# Bulk Modulus (GPa) = 47.45400 49.44095 48.44748
# Shear Modulus (GPa) = 19.89256 30.69211 25.29233
#
# Velocity S-wave (km/s) = 2.70633 3.36162 3.05161
# Velocity P-wave (km/s) = 5.21896 5.76809 5.50038
#
# Compressibility (1/GPa) = 0.02107304
#
# Stress axis : x y z
#
# Youngs Moduli (GPa) = 137.79066 108.21374 92.60835
#
# Poissons Ratio (x) = 0.06008 0.18578
# Poissons Ratio (y) = 0.07650 0.05098
# Poissons Ratio (z) = 0.27642 0.05957
#
# Static dielectric constant tensor:
#      x y z
#    x 2.355200 0.000000 0.000000 
#    y 0.000000 2.244780 0.000000 
#    z 0.000000 0.000000 2.235230 
# 
# From -- ./inp_files/14390.got.cif
#   From: 2010.05.17/outbox.cif.g08.bks.cpg/sg50_8_cif.got.tgz:14390.got - 2010.06.03 11:33:33.
