data_PCOD9395708
_publ_section_title
;
Structure prediction by ZEFSAII (Michael W. Deem and Ramdas Pophale) SiO2 
 PCOD9395708
Probable space group: P B A N
;
_chemical_formula_sum "Si O2"
_cell_formula_units_Z 44
_cell_length_a 5.249914
_cell_length_b 17.912573
_cell_length_c 24.769973
_cell_angle_alpha 90.000000
_cell_angle_beta 90.000000
_cell_angle_gamma 90.000000
_cell_volume 2329.355078
_symmetry_space_group_name_H-M "P B A N"
_symmetry_group_IT_number 50
_space_group.IT_coordinate_system_code '2'
_symmetry_cell_setting 'orthorhombic'
loop_
_space_group_symop_operation_xyz
x,y,z
1/2-x,1/2-y,z
x,1/2-y,-z
1/2-x,y,-z
-x,-y,-z
1/2+x,1/2+y,-z
-x,1/2+y,z
1/2+x,-y,z
loop_
_atom_site_type_symbol
_atom_site_label
_atom_site_fract_x
_atom_site_fract_y
_atom_site_fract_z
Si Si1 0.499346 0.467420 0.939358
Si Si2 0.906301 0.548290 0.608733
Si Si3 0.001501 0.704581 0.922150
Si Si4 0.750000 0.946692 0.500000
Si Si5 0.393787 0.449934 0.732246
Si Si6 0.499853 0.203271 0.207977
O O1 0.249668 0.500199 0.911510
O O2 0.498478 0.379093 0.943748
O O3 0.500000 0.500000 0.000000
O O4 0.699140 0.479985 0.605341
O O5 0.805907 0.595007 0.556756
O O6 0.885548 0.577275 0.669555
O O7 0.750000 0.750000 0.936995
O O8 0.008562 0.697583 0.857101
O O9 0.250000 0.750000 0.938870
O O10 0.500000 0.000000 0.500000
O O11 0.619201 0.510928 0.740588
O O12 0.465008 0.379010 0.768238
O O13 0.250000 0.250000 0.222801
O O14 0.750000 0.250000 0.225060
#
# Coordination Sequence:
#
# PCOD9395708 Si02
#       6
#     8   8   8   4   8   8
#     4  10  21  38  56  81 110 134 166 211 257 301
#     4   8  14  23  37  60  91 121 155 198 244 289
#     4  10  21  38  58  78 103 138 175 208 247 305
#     4   8  12  20  34  54  85 122 151 190 244 288
#     4  10  19  31  49  75 102 130 167 213 257 299
#     4  10  21  36  53  75 104 137 172 208 253 310
#
# _framework density 18.889347999999998
#
# number of rings (size 3 to 8) (size 9 to 14) (size 15 to 20)
#    0.000    2.545    0.000    2.182    0.000    1.455 
#    0.000   10.909    0.000    0.000    0.000    0.636 
#    0.000    1.455    0.000    0.000    0.000    0.000 
#
# Total GULP energy -245009.589189 kJ/mol
# GULP energy per Si atom -5568.399754 kJ/mol
# Density = 1.884635 g / cm^3
# Si number density = 18.889348 Si / 1000 Ang^3
#
#
#
# Elastic Constant Matrix: (Units=GPa)
#
#
# Indices 1 2 3 4 5 6 
#
# 1 171.7233 58.7889 24.1995 0.0000 0.0000 0.0000
# 2 58.7889 131.3798 34.0442 0.0000 0.0000 0.0000
# 3 24.1995 34.0442 66.9072 0.0000 0.0000 0.0000
# 4 0.0000 0.0000 0.0000 68.3090 0.0000 0.0000
# 5 0.0000 0.0000 0.0000 0.0000 -21.4906 0.0000
# 6 0.0000 0.0000 0.0000 0.0000 0.0000 24.1233
#
#
#
# Elastic Compliance Matrix: (Units=1/GPa)
#
#
# Indices 1 2 3 4 5 6 
#
# 1 0.006943 -0.002829 -0.001072 0.000000 0.000000 0.000000
# 2 -0.002829 0.009920 -0.004024 0.000000 0.000000 0.000000
# 3 -0.001072 -0.004024 0.017381 0.000000 0.000000 0.000000
# 4 0.000000 0.000000 0.000000 0.014639 0.000000 0.000000
# 5 0.000000 0.000000 0.000000 0.000000 -0.046532 0.000000
# 6 0.000000 0.000000 0.000000 0.000000 0.000000 0.041454
#
#
# Mechanical properties :
#
#
# Convention : Reuss Voigt Hill
#
# Bulk Modulus (GPa) = 54.36489 67.11953 60.74221
# Shear Modulus (GPa) = 76.00229 31.05351 53.52790
#
# Velocity S-wave (km/s) = 6.35003 4.05899 5.32908
# Velocity P-wave (km/s) = 9.08884 7.58797 8.37211
#
# Compressibility (1/GPa) = 0.01839423
#
# Stress axis : x y z
#
# Youngs Moduli (GPa) = 144.03295 100.80337 57.53264
#
# Poissons Ratio (x) = 0.28518 0.06165
# Poissons Ratio (y) = 0.40748 0.23154
# Poissons Ratio (z) = 0.15435 0.40568
#
# Static dielectric constant tensor:
#      x y z
#    x 1.676310 0.000000 0.000000 
#    y 0.000000 1.628000 0.000000 
#    z 0.000000 0.000000 1.756120 
# 
# From -- ./inp_files/32005.got.cif
#   From: 2010.05.17/outbox.cif.g08.bks.cpg/sg50_17_cif.got.tgz:32005.got - 2010.06.03 11:33:33.
