data_PCOD9395214
_publ_section_title
;
Structure prediction by ZEFSAII (Michael W. Deem and Ramdas Pophale) SiO2 
 PCOD9395214
Probable space group: P C C M
;
_chemical_formula_sum "Si O2"
_cell_formula_units_Z 48
_cell_length_a 9.000000
_cell_length_b 18.000000
_cell_length_c 15.000000
_cell_angle_alpha 90.000000
_cell_angle_beta 90.000000
_cell_angle_gamma 90.000000
_cell_volume 2430.000000
_symmetry_space_group_name_H-M "P C C M"
_symmetry_group_IT_number 49
_symmetry_cell_setting 'orthorhombic'
loop_
_space_group_symop_operation_xyz
x,y,z
-x,-y,z
x,-y,1/2-z
-x,y,1/2-z
-x,-y,-z
x,y,-z
-x,y,1/2+z
x,-y,1/2+z
loop_
_atom_site_type_symbol
_atom_site_label
_atom_site_fract_x
_atom_site_fract_y
_atom_site_fract_z
Si Si1 0.862610 0.785127 0.604983
Si Si2 0.381835 0.562696 0.103224
Si Si3 0.786365 0.179424 0.596899
Si Si4 0.646126 0.664992 0.099072
Si Si5 0.178931 0.085027 0.736614
Si Si6 0.830500 0.637229 0.724428
O O1 0.821194 0.776285 0.500000
O O2 0.802426 0.862266 0.649242
O O3 0.821321 0.715233 0.668321
O O4 0.044069 0.789952 0.607103
O O5 0.500000 0.500000 0.131291
O O6 0.477908 0.638385 0.109792
O O7 0.239029 0.573347 0.162990
O O8 0.344267 0.549507 0.000000
O O9 0.781435 0.141587 0.500000
O O10 0.673571 0.247613 0.597080
O O11 0.754682 0.128529 0.679991
O O12 0.738568 0.638484 0.183821
O O13 0.694507 0.636734 0.000000
O O14 0.000000 0.083606 0.750000
O O15 0.228949 0.000000 0.750000
O O16 0.000000 0.625770 0.750000
#
# Coordination Sequence:
#
# PCOD9395214 Si02
#       6
#     8   8   8   8   8   8
#     4  10  18  30  50  80 116 154 202 259 309 356
#     4  10  24  45  65  89 125 161 196 243 301 366
#     4   9  16  29  49  74 108 151 200 248 297 353
#     4  10  20  36  58  82 115 159 200 242 297 360
#     4   9  16  27  43  71 113 156 199 252 309 365
#     4  12  21  36  63  91 120 155 204 254 303 354
#
# _framework density 19.753086
#
# number of rings (size 3 to 8) (size 9 to 14) (size 15 to 20)
#    0.000    2.000    3.333    1.500    0.000    2.667 
#    0.000    5.000    0.000    3.000    0.000    2.333 
#    0.000    5.333    0.000    0.167    0.000    0.000 
#
# Total GULP energy -267631.769078 kJ/mol
# GULP energy per Si atom -5575.661856 kJ/mol
# Density = 1.970813 g / cm^3
# Si number density = 19.753086 Si / 1000 Ang^3
#
#
#
# Elastic Constant Matrix: (Units=GPa)
#
#
# Indices 1 2 3 4 5 6 
#
# 1 42.0306 39.1928 46.2654 0.0000 0.0000 0.0000
# 2 39.1928 81.2907 44.0949 0.0000 0.0000 0.0000
# 3 46.2654 44.0949 137.4711 0.0000 0.0000 0.0000
# 4 0.0000 0.0000 0.0000 19.9177 0.0000 0.0000
# 5 0.0000 0.0000 0.0000 0.0000 19.8820 0.0000
# 6 0.0000 0.0000 0.0000 0.0000 0.0000 20.4022
#
#
#
# Elastic Compliance Matrix: (Units=1/GPa)
#
#
# Indices 1 2 3 4 5 6 
#
# 1 0.056728 -0.020574 -0.012492 0.000000 0.000000 0.000000
# 2 -0.020574 0.022355 -0.000246 0.000000 0.000000 0.000000
# 3 -0.012492 -0.000246 0.011558 0.000000 0.000000 0.000000
# 4 0.000000 0.000000 0.000000 0.050207 0.000000 0.000000
# 5 0.000000 0.000000 0.000000 0.000000 0.050297 0.000000
# 6 0.000000 0.000000 0.000000 0.000000 0.000000 0.049014
#
#
# Mechanical properties :
#
#
# Convention : Reuss Voigt Hill
#
# Bulk Modulus (GPa) = 41.64107 57.76654 49.70380
# Shear Modulus (GPa) = 15.88367 20.78967 18.33667
#
# Velocity S-wave (km/s) = 2.83876 3.24771 3.05010
# Velocity P-wave (km/s) = 5.64547 6.58569 6.13362
#
# Compressibility (1/GPa) = 0.02401475
#
# Stress axis : x y z
#
# Youngs Moduli (GPa) = 17.62786 44.73350 86.52388
#
# Poissons Ratio (x) = 0.92036 1.08089
# Poissons Ratio (y) = 0.36268 0.02130
# Poissons Ratio (z) = 0.22021 0.01101
#
# Static dielectric constant tensor:
#      x y z
#    x 1.671470 0.000000 0.000000 
#    y 0.000000 1.741750 0.000000 
#    z 0.000000 0.000000 1.724800 
# 
# From -- ./inp_files/11821.got.cif
#   From: 2010.05.17/outbox.ucp.g08.bks.cvg/sg49_6_cif.got.tgz:11821.got - 2010.06.11 16:40:14.
