data_PCOD9395300
_publ_section_title
;
Structure prediction by ZEFSAII (Michael W. Deem and Ramdas Pophale) SiO2 
 PCOD9395300
Probable space group: P C C M
;
_chemical_formula_sum "Si O2"
_cell_formula_units_Z 64
_cell_length_a 21.000000
_cell_length_b 18.000000
_cell_length_c 9.000000
_cell_angle_alpha 90.000000
_cell_angle_beta 90.000000
_cell_angle_gamma 90.000000
_cell_volume 3402.000000
_symmetry_space_group_name_H-M "P C C M"
_symmetry_group_IT_number 49
_symmetry_cell_setting 'orthorhombic'
loop_
_space_group_symop_operation_xyz
x,y,z
-x,-y,z
x,-y,1/2-z
-x,y,1/2-z
-x,-y,-z
x,y,-z
-x,y,1/2+z
x,-y,1/2+z
loop_
_atom_site_type_symbol
_atom_site_label
_atom_site_fract_x
_atom_site_fract_y
_atom_site_fract_z
Si Si1 0.205741 0.787910 0.180624
Si Si2 0.297816 0.076260 0.679357
Si Si3 0.430945 0.882277 0.325696
Si Si4 0.092161 0.575750 0.821717
Si Si5 0.432678 0.294282 0.172699
Si Si6 0.230521 0.621856 0.819738
Si Si7 0.064180 0.253406 0.678670
Si Si8 0.635067 0.427551 0.823252
O O1 0.251633 0.855364 0.225898
O O2 0.232543 0.707734 0.229851
O O3 0.130878 0.785463 0.224883
O O4 0.205847 0.788519 0.000000
O O5 0.299314 0.072963 0.500000
O O6 0.369888 0.085572 0.740511
O O7 0.272750 0.000000 0.750000
O O8 0.500000 0.897874 0.250000
O O9 0.432451 0.904546 0.500000
O O10 0.419383 0.793323 0.319444
O O11 0.067133 0.500000 0.750000
O O12 0.165510 0.584082 0.772642
O O13 0.067106 0.658278 0.782557
O O14 0.087405 0.568982 0.000000
O O15 0.500000 0.304066 0.250000
O O16 0.389302 0.348918 0.265721
O O17 0.433046 0.316047 0.000000
O O18 0.291704 0.577009 0.774289
O O19 0.229196 0.624315 0.000000
O O20 0.060894 0.249301 0.500000
O O21 0.000000 0.222063 0.750000
O O22 0.603934 0.500000 0.750000
O O23 0.629670 0.432367 0.000000
#
# Coordination Sequence:
#
# PCOD9395300 Si02
#       8
#     8   8   8   8   8   8   8   8
#     4   8  16  33  56  78 103 139 178 216 264 322
#     4  11  22  37  59  86 116 147 178 214 261 316
#     4  10  21  38  60  86 115 146 181 219 260 312
#     4   9  17  29  45  67  99 135 171 212 258 309
#     4  10  21  37  55  74  97 127 167 213 259 309
#     4   8  15  29  49  71  94 126 169 212 255 309
#     4   9  18  33  52  75 102 136 180 225 268 316
#     4  11  21  32  48  70  97 129 169 217 270 321
#
# _framework density 18.812463000000001
#
# number of rings (size 3 to 8) (size 9 to 14) (size 15 to 20)
#    0.000    2.500    0.000    4.125    0.000    3.750 
#    0.000    5.625    0.000    3.375    0.000    2.625 
#    0.000    0.000    0.000    0.000    0.000    0.000 
#
# Total GULP energy -356607.319576 kJ/mol
# GULP energy per Si atom -5571.989368 kJ/mol
# Density = 1.876965 g / cm^3
# Si number density = 18.812463 Si / 1000 Ang^3
#
#
#
# Elastic Constant Matrix: (Units=GPa)
#
#
# Indices 1 2 3 4 5 6 
#
# 1 82.7453 70.2992 27.7401 0.0000 0.0000 0.0000
# 2 70.2992 88.1508 26.1188 0.0000 0.0000 0.0000
# 3 27.7401 26.1188 28.6812 0.0000 0.0000 0.0000
# 4 0.0000 0.0000 0.0000 26.2581 0.0000 0.0000
# 5 0.0000 0.0000 0.0000 0.0000 24.8830 0.0000
# 6 0.0000 0.0000 0.0000 0.0000 0.0000 -86.7640
#
#
#
# Elastic Compliance Matrix: (Units=1/GPa)
#
#
# Indices 1 2 3 4 5 6 
#
# 1 0.040980 -0.028674 -0.013523 0.000000 0.000000 0.000000
# 2 -0.028674 0.035600 -0.004686 0.000000 0.000000 0.000000
# 3 -0.013523 -0.004686 0.052213 0.000000 0.000000 0.000000
# 4 0.000000 0.000000 0.000000 0.038083 0.000000 0.000000
# 5 0.000000 0.000000 0.000000 0.000000 0.040188 0.000000
# 6 0.000000 0.000000 0.000000 0.000000 0.000000 -0.011526
#
#
# Mechanical properties :
#
#
# Convention : Reuss Voigt Hill
#
# Bulk Modulus (GPa) = 28.55001 49.76594 39.15797
# Shear Modulus (GPa) = 16.61235 -2.09662 7.25786
#
# Velocity S-wave (km/s) = 2.97484 -1.05684 1.96631
# Velocity P-wave (km/s) = 5.19698 5.00219 5.10052
#
# Compressibility (1/GPa) = 0.03502626
#
# Stress axis : x y z
#
# Youngs Moduli (GPa) = 24.40211 28.08980 19.15241
#
# Poissons Ratio (x) = 0.80546 0.25900
# Poissons Ratio (y) = 0.69971 0.08975
# Poissons Ratio (z) = 0.32999 0.13163
#
# Static dielectric constant tensor:
#      x y z
#    x 1.674680 0.000000 0.000000 
#    y 0.000000 -84.064280 0.000000 
#    z 0.000000 0.000000 1.626070 
# 
# From -- ./inp_files/5988.got.cif
#   From: 2010.05.17/outbox.ucp.g08.bks.cvg/sg49_3_cif.got.tgz:5988.got - 2010.06.11 16:40:14.
