data_PCOD9395638
_publ_section_title
;
Structure prediction by ZEFSAII (Michael W. Deem and Ramdas Pophale) SiO2 
 PCOD9395638
Probable space group: P B A N
;
_chemical_formula_sum "Si O2"
_cell_formula_units_Z 42
_cell_length_a 22.057127
_cell_length_b 11.301290
_cell_length_c 8.525390
_cell_angle_alpha 90.000000
_cell_angle_beta 90.000000
_cell_angle_gamma 90.000000
_cell_volume 2125.157971
_symmetry_space_group_name_H-M "P B A N"
_symmetry_group_IT_number 50
_space_group.IT_coordinate_system_code '2'
_symmetry_cell_setting 'orthorhombic'
loop_
_space_group_symop_operation_xyz
x,y,z
1/2-x,1/2-y,z
x,1/2-y,-z
1/2-x,y,-z
-x,-y,-z
1/2+x,1/2+y,-z
-x,1/2+y,z
1/2+x,-y,z
loop_
_atom_site_type_symbol
_atom_site_label
_atom_site_fract_x
_atom_site_fract_y
_atom_site_fract_z
Si Si1 0.018290 0.750000 0.500000
Si Si2 0.348527 0.201477 0.756072
Si Si3 0.569942 0.250000 0.000000
Si Si4 0.401447 0.591272 0.732448
Si Si5 0.037723 0.152819 0.798633
Si Si6 0.819894 0.570796 0.539548
Si Si7 0.750000 0.750000 0.000000
O O1 0.056638 0.836163 0.611668
O O2 0.978413 0.828548 0.383991
O O3 0.412498 0.243446 0.827615
O O4 0.353361 0.099567 0.625319
O O5 0.327356 0.316168 0.654701
O O6 0.296757 0.179704 0.886538
O O7 0.609760 0.322161 0.122780
O O8 0.522531 0.169758 0.099502
O O9 0.434210 0.476779 0.808055
O O10 0.346530 0.539577 0.632327
O O11 0.750000 0.557714 0.500000
#
# Coordination Sequence:
#
# PCOD9395638 Si02
#       7
#     4   8   4   8   8   8   2
#     4  10  20  36  55  85 112 146 202 248 276 338
#     4  10  19  31  56  87 121 149 182 234 300 361
#     4  10  21  36  52  87 125 151 188 246 290 342
#     4  10  21  35  59  81 111 156 200 240 293 342
#     4  10  19  34  56  85 118 153 184 232 301 359
#     4  10  18  37  56  82 111 157 196 238 286 357
#     4  12  18  30  48  84 128 146 172 232 298 350
#
# _framework density 19.763235999999999
#
# number of rings (size 3 to 8) (size 9 to 14) (size 15 to 20)
#    0.000    1.905    1.905    4.571    0.000    1.524 
#    0.000    8.095    0.000    0.000    0.000    0.000 
#    0.000    0.000    0.000    0.000    0.000    0.000 
#
# Total GULP energy -234340.342402 kJ/mol
# GULP energy per Si atom -5579.531962 kJ/mol
# Density = 1.971825 g / cm^3
# Si number density = 19.763236 Si / 1000 Ang^3
#
#
#
# Elastic Constant Matrix: (Units=GPa)
#
#
# Indices 1 2 3 4 5 6 
#
# 1 51.7314 18.5218 24.5133 0.0000 0.0000 0.0000
# 2 18.5218 54.8211 26.0486 0.0000 0.0000 0.0000
# 3 24.5133 26.0486 121.1827 0.0000 0.0000 0.0000
# 4 0.0000 0.0000 0.0000 19.3603 0.0000 0.0000
# 5 0.0000 0.0000 0.0000 0.0000 30.8225 0.0000
# 6 0.0000 0.0000 0.0000 0.0000 0.0000 8.6495
#
#
#
# Elastic Compliance Matrix: (Units=1/GPa)
#
#
# Indices 1 2 3 4 5 6 
#
# 1 0.023146 -0.006232 -0.003342 0.000000 0.000000 0.000000
# 2 -0.006232 0.021994 -0.003467 0.000000 0.000000 0.000000
# 3 -0.003342 -0.003467 0.009673 0.000000 0.000000 0.000000
# 4 0.000000 0.000000 0.000000 0.051652 0.000000 0.000000
# 5 0.000000 0.000000 0.000000 0.000000 0.032444 0.000000
# 6 0.000000 0.000000 0.000000 0.000000 0.000000 0.115613
#
#
# Mechanical properties :
#
#
# Convention : Reuss Voigt Hill
#
# Bulk Modulus (GPa) = 34.80630 40.65585 37.73107
# Shear Modulus (GPa) = 17.23058 22.34324 19.78691
#
# Velocity S-wave (km/s) = 2.95591 3.36601 3.16760
# Velocity P-wave (km/s) = 5.41293 5.97685 5.70187
#
# Compressibility (1/GPa) = 0.02873043
#
# Stress axis : x y z
#
# Youngs Moduli (GPa) = 43.20464 45.46690 103.37638
#
# Poissons Ratio (x) = 0.28334 0.34553
# Poissons Ratio (y) = 0.26924 0.35842
# Poissons Ratio (z) = 0.14441 0.15764
#
# Static dielectric constant tensor:
#      x y z
#    x 1.711900 0.000000 0.000000 
#    y 0.000000 1.708250 0.000000 
#    z 0.000000 0.000000 1.743060 
# 
# From -- ./inp_files/16461.got.cif
#   From: 2010.05.17/outbox.cif.g08.bks.cpg/sg50_9_cif.got.tgz:16461.got - 2010.06.03 11:33:33.
