data_PCOD9395969
_publ_section_title
;
Structure prediction by ZEFSAII (Michael W. Deem and Ramdas Pophale) SiO2 
 PCOD9395969
Probable space group: P B A N
;
_chemical_formula_sum "Si O2"
_cell_formula_units_Z 30
_cell_length_a 4.873357
_cell_length_b 13.103314
_cell_length_c 18.582790
_cell_angle_alpha 90.000000
_cell_angle_beta 90.000000
_cell_angle_gamma 90.000000
_cell_volume 1186.643581
_symmetry_space_group_name_H-M "P B A N"
_symmetry_group_IT_number 50
_space_group.IT_coordinate_system_code '2'
_symmetry_cell_setting 'orthorhombic'
loop_
_space_group_symop_operation_xyz
x,y,z
1/2-x,1/2-y,z
x,1/2-y,-z
1/2-x,y,-z
-x,-y,-z
1/2+x,1/2+y,-z
-x,1/2+y,z
1/2+x,-y,z
loop_
_atom_site_type_symbol
_atom_site_label
_atom_site_fract_x
_atom_site_fract_y
_atom_site_fract_z
Si Si1 0.484919 0.817583 0.770793
Si Si2 0.983895 0.068189 0.909977
Si Si3 0.278886 0.559169 0.651123
Si Si4 0.500000 0.500000 0.500000
Si Si5 0.750000 0.750000 0.000000
O O1 0.750000 0.750000 0.761909
O O2 0.529577 0.909887 0.825273
O O3 0.357099 0.852889 0.695506
O O4 0.250000 0.750000 0.808069
O O5 0.179372 0.971240 0.925464
O O6 0.075194 0.171268 0.950709
O O7 0.591046 0.539052 0.670725
O O8 0.255357 0.554971 0.564017
O O9 0.750000 0.587221 0.500000
#
# Coordination Sequence:
#
# PCOD9395969 Si02
#       5
#     8   8   8   4   2
#     4  12  24  42  66 100 147 193 250 330 386 458
#     4  12  27  48  74 105 144 202 263 328 412 478
#     4  10  19  36  62  95 132 181 240 296 363 457
#     4   8  16  30  56  90 126 166 224 280 338 430
#     4  12  28  50  76 108 152 194 268 352 392 484
#
# _framework density 25.281389999999998
#
# number of rings (size 3 to 8) (size 9 to 14) (size 15 to 20)
#    0.000    1.067    1.333    5.600    0.000    1.067 
#    0.000    0.000    0.000    7.200    0.000   35.467 
#    0.000    0.000    0.000    0.000    0.000  177.600 
#
# Total GULP energy -167208.734542 kJ/mol
# GULP energy per Si atom -5573.624485 kJ/mol
# Density = 2.522385 g / cm^3
# Si number density = 25.281390 Si / 1000 Ang^3
#
#
#
# Elastic Constant Matrix: (Units=GPa)
#
#
# Indices 1 2 3 4 5 6 
#
# 1 185.5564 25.2467 4.7899 0.0000 0.0000 0.0000
# 2 25.2467 85.5288 35.0429 0.0000 0.0000 0.0000
# 3 4.7899 35.0429 137.1848 0.0000 0.0000 0.0000
# 4 0.0000 0.0000 0.0000 -27.4500 0.0000 0.0000
# 5 0.0000 0.0000 0.0000 0.0000 -65.1438 0.0000
# 6 0.0000 0.0000 0.0000 0.0000 0.0000 37.1747
#
#
#
# Elastic Compliance Matrix: (Units=1/GPa)
#
#
# Indices 1 2 3 4 5 6 
#
# 1 0.005623 -0.001764 0.000254 0.000000 0.000000 0.000000
# 2 -0.001764 0.013612 -0.003416 0.000000 0.000000 0.000000
# 3 0.000254 -0.003416 0.008153 0.000000 0.000000 0.000000
# 4 0.000000 0.000000 0.000000 -0.036430 0.000000 0.000000
# 5 0.000000 0.000000 0.000000 0.000000 -0.015351 0.000000
# 6 0.000000 0.000000 0.000000 0.000000 0.000000 0.026900
#
#
# Mechanical properties :
#
#
# Convention : Reuss Voigt Hill
#
# Bulk Modulus (GPa) = 57.02095 59.82545 58.42320
# Shear Modulus (GPa) = 274.67467 11.79553 143.23510
#
# Velocity S-wave (km/s) = 10.43469 2.16237 7.53521
# Velocity P-wave (km/s) = 12.95302 5.47263 9.94309
#
# Compressibility (1/GPa) = 0.01753741
#
# Stress axis : x y z
#
# Youngs Moduli (GPa) = 177.85279 73.46435 122.65377
#
# Poissons Ratio (x) = 0.12958 -0.03119
# Poissons Ratio (y) = 0.31371 0.41893
# Poissons Ratio (z) = -0.04522 0.25092
#
# Static dielectric constant tensor:
#      x y z
#    x 2.392490 0.000000 0.000000 
#    y 0.000000 1.705650 0.000000 
#    z 0.000000 0.000000 2.130000 
# 
# From -- ./inp_files/30160.got.cif
#   From: 2010.05.17/outbox.cif.g08.bks.cpg/sg50_16_cif.got.tgz:30160.got - 2010.06.03 11:33:33.
