data_PCOD9395912
_publ_section_title
;
Structure prediction by ZEFSAII (Michael W. Deem and Ramdas Pophale) SiO2 
 PCOD9395912
Probable space group: P B A N
;
_chemical_formula_sum "Si O2"
_cell_formula_units_Z 56
_cell_length_a 16.288587
_cell_length_b 18.236180
_cell_length_c 9.317434
_cell_angle_alpha 90.000000
_cell_angle_beta 90.000000
_cell_angle_gamma 90.000000
_cell_volume 2767.665545
_symmetry_space_group_name_H-M "P B A N"
_symmetry_group_IT_number 50
_space_group.IT_coordinate_system_code '2'
_symmetry_cell_setting 'orthorhombic'
loop_
_space_group_symop_operation_xyz
x,y,z
1/2-x,1/2-y,z
x,1/2-y,-z
1/2-x,y,-z
-x,-y,-z
1/2+x,1/2+y,-z
-x,1/2+y,z
1/2+x,-y,z
loop_
_atom_site_type_symbol
_atom_site_label
_atom_site_fract_x
_atom_site_fract_y
_atom_site_fract_z
Si Si1 0.771260 0.443376 0.842121
Si Si2 0.674024 0.140080 0.399832
Si Si3 0.386303 0.124990 0.370062
Si Si4 0.583095 0.048396 0.645992
Si Si5 0.072140 0.134371 0.308673
Si Si6 0.741668 0.882242 0.159400
Si Si7 0.971290 0.229237 0.668280
O O1 0.710817 0.413113 0.720164
O O2 0.862017 0.426652 0.781912
O O3 0.762020 0.531096 0.847126
O O4 0.750000 0.414433 0.000000
O O5 0.750000 0.164821 0.500000
O O6 0.613997 0.095283 0.508359
O O7 0.622061 0.202783 0.319330
O O8 0.386766 0.150007 0.535675
O O9 0.306486 0.146638 0.277751
O O10 0.466811 0.162529 0.302471
O O11 0.397228 0.037143 0.374045
O O12 0.487843 0.064970 0.671383
O O13 0.147815 0.124857 0.204968
O O14 0.010540 0.199226 0.260914
O O15 0.750000 0.850509 0.000000
O O16 0.975125 0.250000 0.500000
#
# Coordination Sequence:
#
# PCOD9395912 Si02
#       7
#     8   8   8   8   8   8   8
#     4   9  20  38  58  90 122 154 194 240 298 366
#     4  10  19  35  62  87 119 154 190 247 300 353
#     4  10  20  36  61  87 113 149 197 249 296 347
#     4  10  19  35  60  92 115 144 198 250 300 346
#     4  11  21  37  59  85 123 149 196 253 292 355
#     4  10  22  40  59  85 119 161 201 239 300 358
#     4  10  21  36  55  90 117 149 198 239 296 349
#
# _framework density 20.23366
#
# number of rings (size 3 to 8) (size 9 to 14) (size 15 to 20)
#    0.000    2.000    2.857    1.714    2.000    3.143 
#    2.571    5.714    0.000    0.857    0.000    0.000 
#    0.000    0.000    0.000    0.000    0.000    0.000 
#
# Total GULP energy -312315.772248 kJ/mol
# GULP energy per Si atom -5577.067362 kJ/mol
# Density = 2.018761 g / cm^3
# Si number density = 20.233660 Si / 1000 Ang^3
#
#
#
# Elastic Constant Matrix: (Units=GPa)
#
#
# Indices 1 2 3 4 5 6 
#
# 1 99.2632 -1.9719 23.0263 0.0000 0.0000 0.0000
# 2 -1.9719 32.8739 -7.1932 0.0000 0.0000 0.0000
# 3 23.0263 -7.1932 78.5469 0.0000 0.0000 0.0000
# 4 0.0000 0.0000 0.0000 -16.9236 0.0000 0.0000
# 5 0.0000 0.0000 0.0000 0.0000 14.5045 0.0000
# 6 0.0000 0.0000 0.0000 0.0000 0.0000 35.7844
#
#
#
# Elastic Compliance Matrix: (Units=1/GPa)
#
#
# Indices 1 2 3 4 5 6 
#
# 1 0.010809 -0.000046 -0.003173 0.000000 0.000000 0.000000
# 2 -0.000046 0.031042 0.002856 0.000000 0.000000 0.000000
# 3 -0.003173 0.002856 0.013923 0.000000 0.000000 0.000000
# 4 0.000000 0.000000 0.000000 -0.059089 0.000000 0.000000
# 5 0.000000 0.000000 0.000000 0.000000 0.068944 0.000000
# 6 0.000000 0.000000 0.000000 0.000000 0.000000 0.027945
#
#
# Mechanical properties :
#
#
# Convention : Reuss Voigt Hill
#
# Bulk Modulus (GPa) = 18.16581 26.48958 22.32769
# Shear Modulus (GPa) = 44.38580 19.79460 32.09020
#
# Velocity S-wave (km/s) = 4.68873 3.13117 3.98676
# Velocity P-wave (km/s) = 6.18949 5.11787 5.67901
#
# Compressibility (1/GPa) = 0.05504847
#
# Stress axis : x y z
#
# Youngs Moduli (GPa) = 92.51240 32.21490 71.82364
#
# Poissons Ratio (x) = 0.00148 0.22790
# Poissons Ratio (y) = 0.00425 -0.20514
# Poissons Ratio (z) = 0.29354 -0.09201
#
# Static dielectric constant tensor:
#      x y z
#    x 1.659190 0.000000 0.000000 
#    y 0.000000 1.767100 0.000000 
#    z 0.000000 0.000000 1.720100 
# 
# From -- ./inp_files/13280.got.cif
#   From: 2010.05.17/outbox.cif.g08.bks.cpg/sg50_7_cif.got.tgz:13280.got - 2010.06.03 11:33:33.
