data_PCOD9395970
_publ_section_title
;
Structure prediction by ZEFSAII (Michael W. Deem and Ramdas Pophale) SiO2 
 PCOD9395970
Probable space group: P B A N
;
_chemical_formula_sum "Si O2"
_cell_formula_units_Z 32
_cell_length_a 14.536313
_cell_length_b 17.682959
_cell_length_c 5.588084
_cell_angle_alpha 90.000000
_cell_angle_beta 90.000000
_cell_angle_gamma 90.000000
_cell_volume 1436.389201
_symmetry_space_group_name_H-M "P B A N"
_symmetry_group_IT_number 50
_space_group.IT_coordinate_system_code '2'
_symmetry_cell_setting 'orthorhombic'
loop_
_space_group_symop_operation_xyz
x,y,z
1/2-x,1/2-y,z
x,1/2-y,-z
1/2-x,y,-z
-x,-y,-z
1/2+x,1/2+y,-z
-x,1/2+y,z
1/2+x,-y,z
loop_
_atom_site_type_symbol
_atom_site_label
_atom_site_fract_x
_atom_site_fract_y
_atom_site_fract_z
Si Si1 0.644165 0.444055 0.956310
Si Si2 0.612355 0.212548 0.251462
Si Si3 0.484216 0.438274 0.290950
Si Si4 0.594518 0.729260 0.743211
O O1 0.636635 0.375424 0.768592
O O2 0.586407 0.516620 0.878445
O O3 0.750000 0.460547 0.000000
O O4 0.584971 0.418707 0.186252
O O5 0.644240 0.250000 0.500000
O O6 0.501450 0.222524 0.249728
O O7 0.644784 0.250000 0.000000
O O8 0.500000 0.500000 0.500000
O O9 0.436035 0.356986 0.304037
O O10 0.646063 0.750000 0.500000
O O11 0.637629 0.750000 0.000000
#
# Coordination Sequence:
#
# PCOD9395970 Si02
#       4
#     8   8   8   8
#     4  11  25  42  64 101 138 180 227 281 343 415
#     4  10  19  38  60  93 131 174 211 268 333 410
#     4  11  23  42  67  95 135 183 226 280 344 413
#     4  10  19  36  63  96 123 173 223 274 332 404
#
# _framework density 22.278082999999999
#
# number of rings (size 3 to 8) (size 9 to 14) (size 15 to 20)
#    0.000    1.500    5.000    3.000    3.500    1.500 
#    0.000    2.500    0.000    0.750    0.000    0.000 
#    0.000    0.000    0.000    0.000    0.000    0.000 
#
# Total GULP energy -178420.929873 kJ/mol
# GULP energy per Si atom -5575.654059 kJ/mol
# Density = 2.222738 g / cm^3
# Si number density = 22.278083 Si / 1000 Ang^3
#
#
#
# Elastic Constant Matrix: (Units=GPa)
#
#
# Indices 1 2 3 4 5 6 
#
# 1 128.3966 38.9563 28.0267 0.0000 0.0000 0.0000
# 2 38.9563 111.7147 47.6871 0.0000 0.0000 0.0000
# 3 28.0267 47.6871 184.3242 0.0000 0.0000 0.0000
# 4 0.0000 0.0000 0.0000 44.9024 0.0000 0.0000
# 5 0.0000 0.0000 0.0000 0.0000 -13.0982 0.0000
# 6 0.0000 0.0000 0.0000 0.0000 0.0000 -0.2095
#
#
#
# Elastic Compliance Matrix: (Units=1/GPa)
#
#
# Indices 1 2 3 4 5 6 
#
# 1 0.008770 -0.002798 -0.000610 0.000000 0.000000 0.000000
# 2 -0.002798 0.010955 -0.002409 0.000000 0.000000 0.000000
# 3 -0.000610 -0.002409 0.006141 0.000000 0.000000 0.000000
# 4 0.000000 0.000000 0.000000 0.022271 0.000000 0.000000
# 5 0.000000 0.000000 0.000000 0.000000 -0.076347 0.000000
# 6 0.000000 0.000000 0.000000 0.000000 0.000000 -4.773616
#
#
# Mechanical properties :
#
#
# Convention : Reuss Voigt Hill
#
# Bulk Modulus (GPa) = 70.25582 72.64173 71.44878
# Shear Modulus (GPa) = -1.04483 26.96998 12.96257
#
# Velocity S-wave (km/s) = -0.68558 3.48315 2.41478
# Velocity P-wave (km/s) = 5.56575 6.98957 6.31790
#
# Compressibility (1/GPa) = 0.01423370
#
# Stress axis : x y z
#
# Youngs Moduli (GPa) = 114.01979 91.27956 162.83682
#
# Poissons Ratio (x) = 0.25541 0.09927
# Poissons Ratio (y) = 0.31904 0.39225
# Poissons Ratio (z) = 0.06951 0.21988
#
# Static dielectric constant tensor:
#      x y z
#    x 1.759640 0.000000 0.000000 
#    y 0.000000 1.884590 0.000000 
#    z 0.000000 0.000000 2.006350 
# 
# From -- ./inp_files/2905.got.cif
#   From: 2010.05.17/outbox.cif.g08.bks.cpg/sg50_2_cif.got.tgz:2905.got - 2010.06.03 11:33:33.
