data_PCOD9395886
_publ_section_title
;
Structure prediction by ZEFSAII (Michael W. Deem and Ramdas Pophale) SiO2 
 PCOD9395886
Probable space group: P B A N
;
_chemical_formula_sum "Si O2"
_cell_formula_units_Z 48
_cell_length_a 21.970455
_cell_length_b 15.468804
_cell_length_c 5.535425
_cell_angle_alpha 90.000000
_cell_angle_beta 90.000000
_cell_angle_gamma 90.000000
_cell_volume 1881.251064
_symmetry_space_group_name_H-M "P B A N"
_symmetry_group_IT_number 50
_space_group.IT_coordinate_system_code '2'
_symmetry_cell_setting 'orthorhombic'
loop_
_space_group_symop_operation_xyz
x,y,z
1/2-x,1/2-y,z
x,1/2-y,-z
1/2-x,y,-z
-x,-y,-z
1/2+x,1/2+y,-z
-x,1/2+y,z
1/2+x,-y,z
loop_
_atom_site_type_symbol
_atom_site_label
_atom_site_fract_x
_atom_site_fract_y
_atom_site_fract_z
Si Si1 0.319859 0.285509 0.252063
Si Si2 0.910233 0.122920 0.677111
Si Si3 0.165420 0.750000 0.000000
Si Si4 0.250000 0.890396 0.000000
Si Si5 0.476173 0.351828 0.960098
Si Si6 0.688006 0.988245 0.344253
Si Si7 0.024342 0.403580 0.532922
O O1 0.250000 0.250000 0.249977
O O2 0.347962 0.250000 0.500000
O O3 0.317938 0.388486 0.278402
O O4 0.346921 0.250000 0.000000
O O5 0.869942 0.198307 0.792565
O O6 0.958024 0.103783 0.899520
O O7 0.960456 0.150249 0.478798
O O8 0.871366 0.042113 0.571701
O O9 0.207061 0.821841 0.863301
O O10 0.202406 0.955315 0.111474
O O11 0.441497 0.374377 0.710393
O O12 0.484958 0.250000 0.000000
O O13 0.448523 0.388225 0.205710
O O14 0.750000 0.997600 0.500000
O O15 0.000000 0.500000 0.500000
#
# Coordination Sequence:
#
# PCOD9395886 Si02
#       7
#     8   8   4   4   8   8   8
#     4  10  19  35  56  76 100 141 197 250 293 345
#     4   9  21  34  60  87 124 163 202 248 296 366
#     4   9  16  38  50  84 124 164 200 242 288 353
#     4   9  20  32  53  74 128 162 201 246 296 341
#     4  10  20  38  63  96 119 160 200 248 299 376
#     4  11  21  36  52  89 112 166 206 253 301 355
#     4  10  21  39  63  91 121 154 198 252 307 360
#
# _framework density 25.514935000000001
#
# number of rings (size 3 to 8) (size 9 to 14) (size 15 to 20)
#    1.000    1.167    2.500    2.000    0.000    2.667 
#    3.000    5.833    0.000    3.000    0.000    0.000 
#    0.000    0.000    0.000    0.000    0.000    0.000 
#
# Total GULP energy -267560.805297 kJ/mol
# GULP energy per Si atom -5574.183444 kJ/mol
# Density = 2.545686 g / cm^3
# Si number density = 25.514935 Si / 1000 Ang^3
#
#
#
# Elastic Constant Matrix: (Units=GPa)
#
#
# Indices 1 2 3 4 5 6 
#
# 1 99.3629 29.6197 5.6968 0.0000 0.0000 0.0000
# 2 29.6197 189.2068 58.1630 0.0000 0.0000 0.0000
# 3 5.6968 58.1630 164.3157 0.0000 0.0000 0.0000
# 4 0.0000 0.0000 0.0000 49.2414 0.0000 0.0000
# 5 0.0000 0.0000 0.0000 0.0000 20.0245 0.0000
# 6 0.0000 0.0000 0.0000 0.0000 0.0000 31.5775
#
#
#
# Elastic Compliance Matrix: (Units=1/GPa)
#
#
# Indices 1 2 3 4 5 6 
#
# 1 0.010566 -0.001730 0.000246 0.000000 0.000000 0.000000
# 2 -0.001730 0.006214 -0.002139 0.000000 0.000000 0.000000
# 3 0.000246 -0.002139 0.006835 0.000000 0.000000 0.000000
# 4 0.000000 0.000000 0.000000 0.020308 0.000000 0.000000
# 5 0.000000 0.000000 0.000000 0.000000 0.049939 0.000000
# 6 0.000000 0.000000 0.000000 0.000000 0.000000 0.031668
#
#
# Mechanical properties :
#
#
# Convention : Reuss Voigt Hill
#
# Bulk Modulus (GPa) = 61.09645 71.09384 66.09514
# Shear Modulus (GPa) = 36.17127 44.12907 40.15017
#
# Velocity S-wave (km/s) = 3.76926 4.16328 3.97116
# Velocity P-wave (km/s) = 6.55289 7.14386 6.85475
#
# Compressibility (1/GPa) = 0.01636756
#
# Stress axis : x y z
#
# Youngs Moduli (GPa) = 94.64664 160.93529 146.31348
#
# Poissons Ratio (x) = 0.27836 -0.03598
# Poissons Ratio (y) = 0.16370 0.31304
# Poissons Ratio (z) = -0.02328 0.34432
#
# Static dielectric constant tensor:
#      x y z
#    x 2.238190 0.000000 0.000000 
#    y 0.000000 2.009370 0.000000 
#    z 0.000000 0.000000 2.092770 
# 
# From -- ./inp_files/6631.got.cif
#   From: 2010.05.17/outbox.cif.g08.bks.cpg/sg50_4_cif.got.tgz:6631.got - 2010.06.03 11:33:33.
