data_PCOD9395882
_publ_section_title
;
Structure prediction by ZEFSAII (Michael W. Deem and Ramdas Pophale) SiO2 
 PCOD9395882
Probable space group: P B A N
;
_chemical_formula_sum "Si O2"
_cell_formula_units_Z 64
_cell_length_a 20.569705
_cell_length_b 18.134828
_cell_length_c 8.982310
_cell_angle_alpha 90.000000
_cell_angle_beta 90.000000
_cell_angle_gamma 90.000000
_cell_volume 3350.653693
_symmetry_space_group_name_H-M "P B A N"
_symmetry_group_IT_number 50
_space_group.IT_coordinate_system_code '2'
_symmetry_cell_setting 'orthorhombic'
loop_
_space_group_symop_operation_xyz
x,y,z
1/2-x,1/2-y,z
x,1/2-y,-z
1/2-x,y,-z
-x,-y,-z
1/2+x,1/2+y,-z
-x,1/2+y,z
1/2+x,-y,z
loop_
_atom_site_type_symbol
_atom_site_label
_atom_site_fract_x
_atom_site_fract_y
_atom_site_fract_z
Si Si1 0.934679 0.331483 0.018018
Si Si2 0.627654 0.484754 0.322053
Si Si3 0.457544 0.325970 0.459677
Si Si4 0.187283 0.704259 0.776321
Si Si5 0.110521 0.039800 0.357014
Si Si6 0.995233 0.929756 0.259439
Si Si7 0.093745 0.826947 0.680724
Si Si8 0.765971 0.455240 0.323890
O O1 0.866339 0.318758 0.102776
O O2 0.977976 0.385768 0.116702
O O3 0.965799 0.250000 0.000000
O O4 0.916229 0.353003 0.851380
O O5 0.628988 0.535134 0.468550
O O6 0.568274 0.519709 0.230337
O O7 0.613950 0.403678 0.392224
O O8 0.697780 0.476661 0.246883
O O9 0.422413 0.250000 0.500000
O O10 0.417785 0.378163 0.346817
O O11 0.478170 0.372490 0.607036
O O12 0.524593 0.303240 0.379907
O O13 0.250000 0.750000 0.828938
O O14 0.146179 0.761838 0.674906
O O15 0.212826 0.628731 0.705516
O O16 0.051513 0.984607 0.318268
O O17 0.175251 0.009415 0.279238
O O18 0.750000 0.461162 0.500000
#
# Coordination Sequence:
#
# PCOD9395882 Si02
#       8
#     8   8   8   8   8   8   8   8
#     4  10  23  36  50  79 116 155 183 230 284 329
#     4  10  19  35  55  81 106 150 189 234 275 334
#     4  11  21  34  59  84 108 141 190 241 280 337
#     4  11  21  35  50  77 120 160 179 217 276 350
#     4  10  19  36  55  80 115 146 182 235 296 330
#     4  11  19  38  59  77 114 152 186 235 290 328
#     4  11  21  34  51  83 114 144 196 222 269 343
#     4  10  21  35  54  82 116 151 189 236 281 340
#
# _framework density 19.100750000000001
#
# number of rings (size 3 to 8) (size 9 to 14) (size 15 to 20)
#    0.000    1.500    5.000    2.250    0.000    3.000 
#    2.250    0.000    0.000    9.375    0.000    0.000 
#    0.000    3.000    0.000    0.000    0.000    0.000 
#
# Total GULP energy -356789.325582 kJ/mol
# GULP energy per Si atom -5574.833212 kJ/mol
# Density = 1.905728 g / cm^3
# Si number density = 19.100750 Si / 1000 Ang^3
#
#
#
# Elastic Constant Matrix: (Units=GPa)
#
#
# Indices 1 2 3 4 5 6 
#
# 1 145.3024 77.2177 24.2706 0.0000 0.0000 0.0000
# 2 77.2177 116.3976 14.0021 0.0000 0.0000 0.0000
# 3 24.2706 14.0021 38.7561 0.0000 0.0000 0.0000
# 4 0.0000 0.0000 0.0000 18.1331 0.0000 0.0000
# 5 0.0000 0.0000 0.0000 0.0000 8.2641 0.0000
# 6 0.0000 0.0000 0.0000 0.0000 0.0000 33.0687
#
#
#
# Elastic Compliance Matrix: (Units=1/GPa)
#
#
# Indices 1 2 3 4 5 6 
#
# 1 0.011361 -0.006984 -0.004591 0.000000 0.000000 0.000000
# 2 -0.006984 0.013275 -0.000422 0.000000 0.000000 0.000000
# 3 -0.004591 -0.000422 0.028830 0.000000 0.000000 0.000000
# 4 0.000000 0.000000 0.000000 0.055148 0.000000 0.000000
# 5 0.000000 0.000000 0.000000 0.000000 0.121006 0.000000
# 6 0.000000 0.000000 0.000000 0.000000 0.000000 0.030240
#
#
# Mechanical properties :
#
#
# Convention : Reuss Voigt Hill
#
# Bulk Modulus (GPa) = 33.93224 59.04854 46.49039
# Shear Modulus (GPa) = 17.02535 24.22421 20.62478
#
# Velocity S-wave (km/s) = 2.98878 3.56509 3.28958
# Velocity P-wave (km/s) = 5.45104 6.92299 6.23064
#
# Compressibility (1/GPa) = 0.02947050
#
# Stress axis : x y z
#
# Youngs Moduli (GPa) = 88.02209 75.32694 34.68592
#
# Poissons Ratio (x) = 0.52611 0.15925
# Poissons Ratio (y) = 0.61478 0.01465
# Poissons Ratio (z) = 0.40412 0.03182
#
# Static dielectric constant tensor:
#      x y z
#    x 1.716750 0.000000 0.000000 
#    y 0.000000 1.727640 0.000000 
#    z 0.000000 0.000000 1.720570 
# 
# From -- ./inp_files/15496.got.cif
#   From: 2010.05.17/outbox.cif.g08.bks.cpg/sg50_8_cif.got.tgz:15496.got - 2010.06.03 11:33:33.
