data_PCOD9395606
_publ_section_title
;
Structure prediction by ZEFSAII (Michael W. Deem and Ramdas Pophale) SiO2 
 PCOD9395606
Probable space group: P B A N
;
_chemical_formula_sum "Si O2"
_cell_formula_units_Z 32
_cell_length_a 19.453297
_cell_length_b 9.219125
_cell_length_c 7.739693
_cell_angle_alpha 90.000000
_cell_angle_beta 90.000000
_cell_angle_gamma 90.000000
_cell_volume 1388.054938
_symmetry_space_group_name_H-M "P B A N"
_symmetry_group_IT_number 50
_space_group.IT_coordinate_system_code '2'
_symmetry_cell_setting 'orthorhombic'
loop_
_space_group_symop_operation_xyz
x,y,z
1/2-x,1/2-y,z
x,1/2-y,-z
1/2-x,y,-z
-x,-y,-z
1/2+x,1/2+y,-z
-x,1/2+y,z
1/2+x,-y,z
loop_
_atom_site_type_symbol
_atom_site_label
_atom_site_fract_x
_atom_site_fract_y
_atom_site_fract_z
Si Si1 0.886172 0.382149 0.272867
Si Si2 0.153499 0.921927 0.675943
Si Si3 0.725047 0.591652 0.803827
Si Si4 0.033833 0.382646 0.371443
O O1 0.853828 0.227860 0.220862
O O2 0.867336 0.396177 0.476946
O O3 0.852560 0.529523 0.199716
O O4 0.967698 0.355169 0.251504
O O5 0.229624 0.978870 0.696797
O O6 0.098714 0.047896 0.725294
O O7 0.750000 0.750000 0.739956
O O8 0.750000 0.584529 0.000000
O O9 0.052446 0.250000 0.500000
O O10 0.000000 0.500000 0.500000
#
# Coordination Sequence:
#
# PCOD9395606 Si02
#       4
#     8   8   8   8
#     4  10  20  38  60  91 119 148 195 242 295 357
#     4  10  21  36  62  91 117 151 193 242 297 355
#     4  11  26  41  55  81 120 161 203 247 292 349
#     4  10  18  34  59  94 124 147 183 245 300 351
#
# _framework density 23.053844000000002
#
# number of rings (size 3 to 8) (size 9 to 14) (size 15 to 20)
#    0.000    1.750    5.000    1.500    7.000    5.000 
#    0.000    1.250    0.000    0.000    0.000    0.000 
#    0.000    0.000    0.000    0.000    0.000    0.000 
#
# Total GULP energy -178308.749244 kJ/mol
# GULP energy per Si atom -5572.148414 kJ/mol
# Density = 2.300137 g / cm^3
# Si number density = 23.053844 Si / 1000 Ang^3
#
#
#
# Elastic Constant Matrix: (Units=GPa)
#
#
# Indices 1 2 3 4 5 6 
#
# 1 104.8049 27.2758 -1.6949 0.0000 0.0000 0.0000
# 2 27.2758 126.4284 -0.6272 0.0000 0.0000 0.0000
# 3 -1.6949 -0.6272 26.5176 0.0000 0.0000 0.0000
# 4 0.0000 0.0000 0.0000 2.9446 0.0000 0.0000
# 5 0.0000 0.0000 0.0000 0.0000 12.5110 0.0000
# 6 0.0000 0.0000 0.0000 0.0000 0.0000 39.6648
#
#
#
# Elastic Compliance Matrix: (Units=1/GPa)
#
#
# Indices 1 2 3 4 5 6 
#
# 1 0.010119 -0.002180 0.000595 0.000000 0.000000 0.000000
# 2 -0.002180 0.008380 0.000059 0.000000 0.000000 0.000000
# 3 0.000595 0.000059 0.037750 0.000000 0.000000 0.000000
# 4 0.000000 0.000000 0.000000 0.339601 0.000000 0.000000
# 5 0.000000 0.000000 0.000000 0.000000 0.079930 0.000000
# 6 0.000000 0.000000 0.000000 0.000000 0.000000 0.025211
#
#
# Mechanical properties :
#
#
# Convention : Reuss Voigt Hill
#
# Bulk Modulus (GPa) = 18.79804 34.18425 26.49114
# Shear Modulus (GPa) = 9.58267 26.54390 18.06328
#
# Velocity S-wave (km/s) = 2.04100 3.39689 2.80219
# Velocity P-wave (km/s) = 3.70485 5.49958 4.68888
#
# Compressibility (1/GPa) = 0.05319705
#
# Stress axis : x y z
#
# Youngs Moduli (GPa) = 98.82862 119.32843 26.48987
#
# Poissons Ratio (x) = 0.26014 -0.01577
# Poissons Ratio (y) = 0.21545 -0.00156
# Poissons Ratio (z) = -0.05882 -0.00702
#
# Static dielectric constant tensor:
#      x y z
#    x 2.007380 0.000000 0.000000 
#    y 0.000000 1.956360 0.000000 
#    z 0.000000 0.000000 1.867890 
# 
# From -- ./inp_files/9091.got.cif
#   From: 2010.05.17/outbox.cif.g08.bks.cpg/sg50_5_cif.got.tgz:9091.got - 2010.06.03 11:33:33.
