data_PCOD9395372
_publ_section_title
;
Structure prediction by ZEFSAII (Michael W. Deem and Ramdas Pophale) SiO2 
 PCOD9395372
Probable space group: P B A N
;
_chemical_formula_sum "Si O2"
_cell_formula_units_Z 58
_cell_length_a 30.114406
_cell_length_b 9.089432
_cell_length_c 8.985826
_cell_angle_alpha 90.000000
_cell_angle_beta 90.000000
_cell_angle_gamma 90.000000
_cell_volume 2459.625862
_symmetry_space_group_name_H-M "P B A N"
_symmetry_group_IT_number 50
_space_group.IT_coordinate_system_code '2'
_symmetry_cell_setting 'orthorhombic'
loop_
_space_group_symop_operation_xyz
x,y,z
1/2-x,1/2-y,z
x,1/2-y,-z
1/2-x,y,-z
-x,-y,-z
1/2+x,1/2+y,-z
-x,1/2+y,z
1/2+x,-y,z
loop_
_atom_site_type_symbol
_atom_site_label
_atom_site_fract_x
_atom_site_fract_y
_atom_site_fract_z
Si Si1 0.250000 0.250000 0.500000
Si Si2 0.520385 0.481272 0.167277
Si Si3 0.057482 0.663398 0.753181
Si Si4 0.326822 0.524264 0.751181
Si Si5 0.895595 0.493404 0.975796
Si Si6 0.724628 0.002425 0.273633
Si Si7 0.858793 0.067721 0.580815
Si Si8 0.655131 0.679369 0.800060
O O1 0.273571 0.131961 0.605746
O O2 0.483441 0.551737 0.272113
O O3 0.533739 0.318691 0.219115
O O4 0.500000 0.500000 0.000000
O O5 0.568940 0.552040 0.145362
O O6 0.081345 0.614719 0.906642
O O7 0.096832 0.649638 0.633142
O O8 0.274141 0.554541 0.753074
O O9 0.347912 0.565299 0.592355
O O10 0.333397 0.347334 0.773045
O O11 0.356291 0.585324 0.885385
O O12 0.879319 0.625454 0.078105
O O13 0.699226 0.912734 0.145915
O O14 0.687667 0.115706 0.336248
O O15 0.862505 0.903250 0.651023
#
# Coordination Sequence:
#
# PCOD9395372 Si02
#       8
#     2   8   8   8   8   8   8   8
#     4  12  12  28  52  82 116 194 224 254 308 406
#     4  10  21  42  73  93 119 167 214 262 338 410
#     4  10  22  44  68  95 122 163 216 275 323 405
#     4  12  18  30  55  89 132 178 211 258 320 393
#     4  10  22  33  53  92 119 155 215 265 329 383
#     4  10  16  29  53  80 130 174 224 247 320 376
#     4   9  19  34  56  88 124 171 214 265 316 386
#     4   9  18  31  48  83 129 170 215 268 310 372
#
# _framework density 23.580822000000001
#
# number of rings (size 3 to 8) (size 9 to 14) (size 15 to 20)
#    0.828    1.103    2.759    2.483    0.000    6.069 
#    0.000    2.759    0.000    9.103    3.586    1.931 
#    0.000    0.000    0.000    0.000    0.000    0.000 
#
# Total GULP energy -323177.097742 kJ/mol
# GULP energy per Si atom -5572.018927 kJ/mol
# Density = 2.352715 g / cm^3
# Si number density = 23.580822 Si / 1000 Ang^3
#
#
#
# Elastic Constant Matrix: (Units=GPa)
#
#
# Indices 1 2 3 4 5 6 
#
# 1 195.9436 75.2119 60.7864 0.0000 0.0000 0.0000
# 2 75.2119 93.7539 32.7385 0.0000 0.0000 0.0000
# 3 60.7864 32.7385 50.5236 0.0000 0.0000 0.0000
# 4 0.0000 0.0000 0.0000 21.3249 0.0000 0.0000
# 5 0.0000 0.0000 0.0000 0.0000 -23.9803 0.0000
# 6 0.0000 0.0000 0.0000 0.0000 0.0000 16.9996
#
#
#
# Elastic Compliance Matrix: (Units=1/GPa)
#
#
# Indices 1 2 3 4 5 6 
#
# 1 0.009513 -0.004698 -0.008401 0.000000 0.000000 0.000000
# 2 -0.004698 0.016106 -0.004784 0.000000 0.000000 0.000000
# 3 -0.008401 -0.004784 0.033000 0.000000 0.000000 0.000000
# 4 0.000000 0.000000 0.000000 0.046893 0.000000 0.000000
# 5 0.000000 0.000000 0.000000 0.000000 -0.041701 0.000000
# 6 0.000000 0.000000 0.000000 0.000000 0.000000 0.058825
#
#
# Mechanical properties :
#
#
# Convention : Reuss Voigt Hill
#
# Bulk Modulus (GPa) = 43.75830 75.29942 59.52886
# Shear Modulus (GPa) = 30.11678 14.30113 22.20895
#
# Velocity S-wave (km/s) = 3.57763 2.46534 3.07224
# Velocity P-wave (km/s) = 5.97185 6.33290 6.15502
#
# Compressibility (1/GPa) = 0.02285281
#
# Stress axis : x y z
#
# Youngs Moduli (GPa) = 105.11880 62.09026 30.30269
#
# Poissons Ratio (x) = 0.29170 0.25458
# Poissons Ratio (y) = 0.49384 0.14497
# Poissons Ratio (z) = 0.88312 0.29704
#
# Static dielectric constant tensor:
#      x y z
#    x 2.105300 0.000000 0.000000 
#    y 0.000000 1.994680 0.000000 
#    z 0.000000 0.000000 2.001560 
# 
# From -- ./inp_files/23162.got.cif
#   From: 2010.05.17/outbox.cif.g08.bks.cpg/sg50_12_cif.got.tgz:23162.got - 2010.06.03 11:33:33.
