data_PCOD9395395
_publ_section_title
;
Structure prediction by ZEFSAII (Michael W. Deem and Ramdas Pophale) SiO2 
 PCOD9395395
Probable space group: P B A N
;
_chemical_formula_sum "Si O2"
_cell_formula_units_Z 46
_cell_length_a 18.452057
_cell_length_b 9.402502
_cell_length_c 15.759859
_cell_angle_alpha 90.000000
_cell_angle_beta 90.000000
_cell_angle_gamma 90.000000
_cell_volume 2734.264662
_symmetry_space_group_name_H-M "P B A N"
_symmetry_group_IT_number 50
_space_group.IT_coordinate_system_code '2'
_symmetry_cell_setting 'orthorhombic'
loop_
_space_group_symop_operation_xyz
x,y,z
1/2-x,1/2-y,z
x,1/2-y,-z
1/2-x,y,-z
-x,-y,-z
1/2+x,1/2+y,-z
-x,1/2+y,z
1/2+x,-y,z
loop_
_atom_site_type_symbol
_atom_site_label
_atom_site_fract_x
_atom_site_fract_y
_atom_site_fract_z
Si Si1 0.057926 0.225831 0.678236
Si Si2 0.210008 0.980483 0.421761
Si Si3 0.374314 0.250000 0.500000
Si Si4 0.750000 0.250000 0.000000
Si Si5 0.205191 0.104488 0.735225
Si Si6 0.211219 0.889891 0.163858
Si Si7 0.911733 0.060624 0.704184
O O1 0.076880 0.200690 0.578991
O O2 0.121441 0.144103 0.729037
O O3 0.065065 0.395011 0.694937
O O4 0.980474 0.162248 0.701029
O O5 0.250000 0.908326 0.500000
O O6 0.143486 0.906744 0.373485
O O7 0.175300 0.124744 0.461799
O O8 0.267454 0.020431 0.348420
O O9 0.794913 0.348574 0.065074
O O10 0.250000 0.250000 0.732648
O O11 0.232979 0.016252 0.815730
O O12 0.250000 0.750000 0.202788
O O13 0.136763 0.921645 0.211555
#
# Coordination Sequence:
#
# PCOD9395395 Si02
#       7
#     8   8   4   2   8   8   8
#     4  11  22  34  53  82 122 160 198 239 279 326
#     4  10  16  30  52  74 108 154 205 241 273 315
#     4  10  17  30  52  72 111 158 208 234 277 308
#     4   8  20  40  70  88 110 140 164 248 288 368
#     4  11  17  33  59  86 108 154 201 236 271 335
#     4   9  20  39  63  86 110 143 185 224 299 352
#     4  10  23  35  53  85 114 157 191 237 288 342
#
# _framework density 16.823536000000001
#
# number of rings (size 3 to 8) (size 9 to 14) (size 15 to 20)
#    0.522    1.391    6.957    0.261    2.435    2.783 
#    0.000    0.435    0.000    8.870    0.000    0.000 
#    0.000    0.000    0.000    0.000    0.000    0.000 
#
# Total GULP energy -256236.879977 kJ/mol
# GULP energy per Si atom -5570.366956 kJ/mol
# Density = 1.678524 g / cm^3
# Si number density = 16.823536 Si / 1000 Ang^3
#
#
#
# Elastic Constant Matrix: (Units=GPa)
#
#
# Indices 1 2 3 4 5 6 
#
# 1 121.7116 40.3223 45.3948 0.0000 0.0000 0.0000
# 2 40.3223 53.0320 32.6761 0.0000 0.0000 0.0000
# 3 45.3948 32.6761 106.2989 0.0000 0.0000 0.0000
# 4 0.0000 0.0000 0.0000 36.0610 0.0000 0.0000
# 5 0.0000 0.0000 0.0000 0.0000 9.5761 0.0000
# 6 0.0000 0.0000 0.0000 0.0000 0.0000 24.2412
#
#
#
# Elastic Compliance Matrix: (Units=1/GPa)
#
#
# Indices 1 2 3 4 5 6 
#
# 1 0.011607 -0.007120 -0.002768 0.000000 0.000000 0.000000
# 2 -0.007120 0.027630 -0.005453 0.000000 0.000000 0.000000
# 3 -0.002768 -0.005453 0.012266 0.000000 0.000000 0.000000
# 4 0.000000 0.000000 0.000000 0.027731 0.000000 0.000000
# 5 0.000000 0.000000 0.000000 0.000000 0.104427 0.000000
# 6 0.000000 0.000000 0.000000 0.000000 0.000000 0.041252
#
#
# Mechanical properties :
#
#
# Convention : Reuss Voigt Hill
#
# Bulk Modulus (GPa) = 48.02818 57.53654 52.78236
# Shear Modulus (GPa) = 19.04506 24.81894 21.93200
#
# Velocity S-wave (km/s) = 3.36824 3.84507 3.61453
# Velocity P-wave (km/s) = 6.61339 7.34758 6.99013
#
# Compressibility (1/GPa) = 0.02082111
#
# Stress axis : x y z
#
# Youngs Moduli (GPa) = 86.15202 36.19272 81.52728
#
# Poissons Ratio (x) = 0.25769 0.22569
# Poissons Ratio (y) = 0.61339 0.44456
# Poissons Ratio (z) = 0.23849 0.19735
#
# Static dielectric constant tensor:
#      x y z
#    x 2.110320 0.000000 0.000000 
#    y 0.000000 1.613150 0.000000 
#    z 0.000000 0.000000 1.574720 
# 
# From -- ./inp_files/29663.got.cif
#   From: 2010.05.17/outbox.cif.g08.bks.cpg/sg50_15_cif.got.tgz:29663.got - 2010.06.03 11:33:33.
