data_PCOD9395022
_publ_section_title
;
Structure prediction by ZEFSAII (Michael W. Deem and Ramdas Pophale) SiO2 
 PCOD9395022
Probable space group: P C C M
;
_chemical_formula_sum "Si O2"
_cell_formula_units_Z 48
_cell_length_a 8.648055
_cell_length_b 9.786658
_cell_length_c 28.590290
_cell_angle_alpha 90.000000
_cell_angle_beta 90.000000
_cell_angle_gamma 90.000000
_cell_volume 2419.755109
_symmetry_space_group_name_H-M "P C C M"
_symmetry_group_IT_number 49
_symmetry_cell_setting 'orthorhombic'
loop_
_space_group_symop_operation_xyz
x,y,z
-x,-y,z
x,-y,1/2-z
-x,y,1/2-z
-x,-y,-z
x,y,-z
-x,y,1/2+z
x,-y,1/2+z
loop_
_atom_site_type_symbol
_atom_site_label
_atom_site_fract_x
_atom_site_fract_y
_atom_site_fract_z
Si Si1 0.338922 0.300821 0.399418
Si Si2 0.740932 0.500000 0.250000
Si Si3 0.524052 0.338517 0.000000
Si Si4 0.167786 0.453075 0.147164
Si Si5 0.361842 0.814304 0.653074
Si Si6 0.819911 0.970790 0.597066
Si Si7 0.332179 0.073507 0.000000
Si Si8 0.500000 0.264363 0.750000
O O1 0.379873 0.310793 0.453569
O O2 0.290794 0.443606 0.376312
O O3 0.489723 0.236300 0.375523
O O4 0.204279 0.189958 0.395867
O O5 0.831665 0.532387 0.203285
O O6 0.634271 0.629000 0.264613
O O7 0.500000 0.500000 0.000000
O O8 0.375994 0.235485 0.000000
O O9 0.230342 0.299567 0.141709
O O10 0.000000 0.500000 0.129287
O O11 0.288983 0.953848 0.634939
O O12 0.423246 0.814914 0.706616
O O13 0.757944 0.025157 0.546589
O O14 0.000000 0.000000 0.602309
O O15 0.500000 0.000000 0.000000
#
# Coordination Sequence:
#
# PCOD9395022 Si02
#       8
#     8   4   4   8   8   8   4   4
#     4  12  23  42  65  92 127 169 221 261 316 387
#     4   9  17  34  60  90 122 162 208 264 320 384
#     4  12  24  40  67  99 124 161 217 270 305 371
#     4  11  22  37  61  95 130 163 206 270 333 384
#     4  11  21  40  66  91 123 170 220 266 318 390
#     4  12  25  42  65  96 134 172 214 274 333 389
#     4  12  21  44  69  95 125 176 225 255 312 395
#     4   9  18  34  63  92 116 157 227 264 306 381
#
# _framework density 19.836715999999999
#
# number of rings (size 3 to 8) (size 9 to 14) (size 15 to 20)
#    0.000    0.833    5.000    3.500    0.000    0.000 
#    0.000    2.083    0.000    1.000    0.000    0.000 
#    0.000    0.000    0.000    0.000    0.000    0.000 
#
# Total GULP energy -267987.222844 kJ/mol
# GULP energy per Si atom -5583.067143 kJ/mol
# Density = 1.979157 g / cm^3
# Si number density = 19.836716 Si / 1000 Ang^3
#
#
#
# Elastic Constant Matrix: (Units=GPa)
#
#
# Indices 1 2 3 4 5 6 
#
# 1 73.9008 -15.5180 4.0535 0.0000 0.0000 0.0000
# 2 -15.5180 66.9036 9.2698 0.0000 0.0000 0.0000
# 3 4.0535 9.2698 91.2685 0.0000 0.0000 0.0000
# 4 0.0000 0.0000 0.0000 4.2150 0.0000 0.0000
# 5 0.0000 0.0000 0.0000 0.0000 -18.2691 0.0000
# 6 0.0000 0.0000 0.0000 0.0000 0.0000 17.2252
#
#
#
# Elastic Compliance Matrix: (Units=1/GPa)
#
#
# Indices 1 2 3 4 5 6 
#
# 1 0.014312 0.003456 -0.000987 0.000000 0.000000 0.000000
# 2 0.003456 0.015995 -0.001778 0.000000 0.000000 0.000000
# 3 -0.000987 -0.001778 0.011181 0.000000 0.000000 0.000000
# 4 0.000000 0.000000 0.000000 0.237250 0.000000 0.000000
# 5 0.000000 0.000000 0.000000 0.000000 -0.054737 0.000000
# 6 0.000000 0.000000 0.000000 0.000000 0.000000 0.058054
#
#
# Mechanical properties :
#
#
# Convention : Reuss Voigt Hill
#
# Bulk Modulus (GPa) = 23.32607 25.29819 24.31213
# Shear Modulus (GPa) = 16.95132 16.25205 16.60168
#
# Velocity S-wave (km/s) = 2.92643 2.86543 2.89609
# Velocity P-wave (km/s) = 4.81697 4.87119 4.84416
#
# Compressibility (1/GPa) = 0.04287049
#
# Stress axis : x y z
#
# Youngs Moduli (GPa) = 69.87380 62.51994 89.43670
#
# Poissons Ratio (x) = -0.21608 0.08824
# Poissons Ratio (y) = -0.24150 0.15902
# Poissons Ratio (z) = 0.06894 0.11116
#
# Static dielectric constant tensor:
#      x y z
#    x 1.701220 0.000000 0.000000 
#    y 0.000000 1.725860 0.000000 
#    z 0.000000 0.000000 1.694030 
# 
# From -- ./inp_files/26356.got.cif
#   From: 2010.05.17/outbox.cif.g08.bks.cpg/sg49_14_cif.got.tgz:26356.got - 2010.06.03 21:02:19.
