data_PCOD9395203
_publ_section_title
;
Structure prediction by ZEFSAII (Michael W. Deem and Ramdas Pophale) SiO2 
 PCOD9395203
Probable space group: P C C M
;
_chemical_formula_sum "Si O2"
_cell_formula_units_Z 64
_cell_length_a 15.000000
_cell_length_b 30.000000
_cell_length_c 9.000000
_cell_angle_alpha 90.000000
_cell_angle_beta 90.000000
_cell_angle_gamma 90.000000
_cell_volume 4050.000000
_symmetry_space_group_name_H-M "P C C M"
_symmetry_group_IT_number 49
_symmetry_cell_setting 'orthorhombic'
loop_
_space_group_symop_operation_xyz
x,y,z
-x,-y,z
x,-y,1/2-z
-x,y,1/2-z
-x,-y,-z
x,y,-z
-x,y,1/2+z
x,-y,1/2+z
loop_
_atom_site_type_symbol
_atom_site_label
_atom_site_fract_x
_atom_site_fract_y
_atom_site_fract_z
Si Si1 0.095316 0.409019 0.678544
Si Si2 0.596655 0.370250 0.821137
Si Si3 0.904162 0.693660 0.679086
Si Si4 0.277502 0.452979 0.679595
Si Si5 0.100097 0.045792 0.181319
Si Si6 0.402815 0.267591 0.679442
Si Si7 0.900170 0.860564 0.318406
Si Si8 0.221248 0.774855 0.819827
O O1 0.087058 0.410958 0.500000
O O2 0.119567 0.357523 0.717148
O O3 0.176012 0.440940 0.723788
O O4 0.000000 0.419433 0.750000
O O5 0.500000 0.377457 0.750000
O O6 0.662486 0.410247 0.776360
O O7 0.624027 0.319147 0.783769
O O8 0.590167 0.371756 0.000000
O O9 0.910603 0.695825 0.500000
O O10 0.834997 0.731353 0.727680
O O11 0.000000 0.703009 0.750000
O O12 0.305257 0.500000 0.750000
O O13 0.281018 0.456275 0.500000
O O14 0.135039 0.093013 0.245727
O O15 0.000000 0.046045 0.250000
O O16 0.140937 0.000000 0.250000
O O17 0.098912 0.044800 0.000000
O O18 0.500000 0.259214 0.750000
O O19 0.410726 0.265202 0.500000
O O20 0.323531 0.234134 0.727781
O O21 0.906850 0.864418 0.500000
O O22 0.833412 0.819663 0.280197
O O23 0.000000 0.852589 0.250000
O O24 0.223094 0.774628 0.000000
#
# Coordination Sequence:
#
# PCOD9395203 Si02
#       8
#     8   8   8   8   8   8   8   8
#     4   9  18  32  49  66  86 112 146 181 215 252
#     4   9  18  33  53  72  91 113 141 175 216 263
#     4   9  16  28  45  65  87 115 147 179 212 255
#     4  10  21  35  49  67  89 115 142 174 215 263
#     4  10  17  27  42  60  84 119 161 202 236 268
#     4   9  17  32  51  70  89 114 147 183 219 262
#     4  10  18  28  41  62  92 126 159 191 225 266
#     4   9  17  28  45  65  90 122 151 178 219 269
#
# _framework density 15.802469
#
# number of rings (size 3 to 8) (size 9 to 14) (size 15 to 20)
#    0.000    2.625    0.000    3.750    0.000    4.500 
#    0.000    5.000    0.000    6.000    0.000    0.000 
#    0.000    0.500    0.000    5.750    0.000    1.750 
#
# Total GULP energy -356516.132913 kJ/mol
# GULP energy per Si atom -5570.564577 kJ/mol
# Density = 1.576650 g / cm^3
# Si number density = 15.802469 Si / 1000 Ang^3
#
#
#
# Elastic Constant Matrix: (Units=GPa)
#
#
# Indices 1 2 3 4 5 6 
#
# 1 78.8498 61.8611 20.2595 0.0000 0.0000 0.0000
# 2 61.8611 99.5499 26.7383 0.0000 0.0000 0.0000
# 3 20.2595 26.7383 42.5792 0.0000 0.0000 0.0000
# 4 0.0000 0.0000 0.0000 95.5833 0.0000 0.0000
# 5 0.0000 0.0000 0.0000 0.0000 22.4781 0.0000
# 6 0.0000 0.0000 0.0000 0.0000 0.0000 21.5053
#
#
#
# Elastic Compliance Matrix: (Units=1/GPa)
#
#
# Indices 1 2 3 4 5 6 
#
# 1 0.024979 -0.014831 -0.002572 0.000000 0.000000 0.000000
# 2 -0.014831 0.020890 -0.006061 0.000000 0.000000 0.000000
# 3 -0.002572 -0.006061 0.028515 0.000000 0.000000 0.000000
# 4 0.000000 0.000000 0.000000 0.010462 0.000000 0.000000
# 5 0.000000 0.000000 0.000000 0.000000 0.044488 0.000000
# 6 0.000000 0.000000 0.000000 0.000000 0.000000 0.046500
#
#
# Mechanical properties :
#
#
# Convention : Reuss Voigt Hill
#
# Bulk Modulus (GPa) = 36.42211 48.74409 42.58310
# Shear Modulus (GPa) = 21.55973 35.38801 28.47387
#
# Velocity S-wave (km/s) = 3.69769 4.73736 4.24944
# Velocity P-wave (km/s) = 6.42876 7.79976 7.14721
#
# Compressibility (1/GPa) = 0.02745585
#
# Stress axis : x y z
#
# Youngs Moduli (GPa) = 40.03361 47.87078 35.06883
#
# Poissons Ratio (x) = 0.70999 0.09018
# Poissons Ratio (y) = 0.59376 0.21255
# Poissons Ratio (z) = 0.10295 0.29015
#
# Static dielectric constant tensor:
#      x y z
#    x 1.520930 0.000000 0.000000 
#    y 0.000000 1.560730 0.000000 
#    z 0.000000 0.000000 1.529360 
# 
# From -- ./inp_files/4508.got.cif
#   From: 2010.05.17/outbox.ucp.g08.bks.cvg/sg49_3_cif.got.tgz:4508.got - 2010.06.11 16:40:14.
