data_PCOD9395762
_publ_section_title
;
Structure prediction by ZEFSAII (Michael W. Deem and Ramdas Pophale) SiO2 
 PCOD9395762
Probable space group: P B A N
;
_chemical_formula_sum "Si O2"
_cell_formula_units_Z 64
_cell_length_a 10.342978
_cell_length_b 28.296100
_cell_length_c 12.345860
_cell_angle_alpha 90.000000
_cell_angle_beta 90.000000
_cell_angle_gamma 90.000000
_cell_volume 3613.212719
_symmetry_space_group_name_H-M "P B A N"
_symmetry_group_IT_number 50
_space_group.IT_coordinate_system_code '2'
_symmetry_cell_setting 'orthorhombic'
loop_
_space_group_symop_operation_xyz
x,y,z
1/2-x,1/2-y,z
x,1/2-y,-z
1/2-x,y,-z
-x,-y,-z
1/2+x,1/2+y,-z
-x,1/2+y,z
1/2+x,-y,z
loop_
_atom_site_type_symbol
_atom_site_label
_atom_site_fract_x
_atom_site_fract_y
_atom_site_fract_z
Si Si1 0.402827 0.306564 0.227600
Si Si2 0.400073 0.863559 0.370861
Si Si3 0.393598 0.959097 0.760249
Si Si4 0.597172 0.693436 0.227600
Si Si5 0.961158 0.054827 0.000000
Si Si6 0.598330 0.849780 0.000000
Si Si7 0.599928 0.363559 0.629139
Si Si8 0.893599 0.040903 0.239752
O O1 0.495561 0.328950 0.317483
O O2 0.410199 0.250000 0.227149
O O3 0.250000 0.319438 0.242521
O O4 0.449813 0.326726 0.111305
O O5 0.250000 0.850123 0.346550
O O6 0.414268 0.865170 0.500000
O O7 0.420190 0.915368 0.318785
O O8 0.420190 0.915368 0.681216
O O9 0.250000 0.978144 0.737414
O O10 0.500000 1.000000 0.751134
O O11 0.393689 0.939673 0.883905
O O12 0.504438 0.671050 0.317482
O O13 0.550187 0.673274 0.111305
O O14 0.893690 0.060327 0.116096
O O15 0.072195 0.094317 1.000000
O O16 0.000000 0.000000 0.000000
O O17 0.750000 0.840165 0.000000
#
# Coordination Sequence:
#
# PCOD9395762 Si02
#       8
#     8   8   8   8   8   8   8   8
#     4  10  21  38  61  88 115 145 187 238 288 339
#     4  10  22  40  59  81 113 153 195 237 282 333
#     4  10  21  36  56  83 114 149 187 231 281 337
#     4  10  21  38  61  88 115 145 187 238 288 339
#     4  10  19  32  54  85 113 147 180 224 270 341
#     4  10  19  35  60  87 117 151 183 225 286 346
#     4  10  22  40  59  81 113 153 195 237 282 333
#     4  10  21  36  56  83 114 149 187 231 281 337
#
# _framework density 17.712768000000001
#
# number of rings (size 3 to 8) (size 9 to 14) (size 15 to 20)
#    0.000    2.000    2.500    0.750    0.000    8.500 
#    0.000    3.125    0.000    1.500    0.000    0.000 
#    0.000    0.000    0.000    0.000    0.000    0.000 
#
# Total GULP energy -356657.624408 kJ/mol
# GULP energy per Si atom -5572.775381 kJ/mol
# Density = 1.767245 g / cm^3
# Si number density = 17.712768 Si / 1000 Ang^3
#
#
#
# Elastic Constant Matrix: (Units=GPa)
#
#
# Indices 1 2 3 4 5 6 
#
# 1 71.3873 46.3980 53.3365 0.0000 0.0000 0.0000
# 2 46.3980 73.0244 53.7194 0.0000 0.0000 0.0000
# 3 53.3365 53.7194 122.3455 0.0000 0.0000 0.0000
# 4 0.0000 0.0000 0.0000 3.2764 0.0000 0.0000
# 5 0.0000 0.0000 0.0000 0.0000 24.8653 0.0000
# 6 0.0000 0.0000 0.0000 0.0000 0.0000 35.6637
#
#
#
# Elastic Compliance Matrix: (Units=1/GPa)
#
#
# Indices 1 2 3 4 5 6 
#
# 1 0.026699 -0.012410 -0.006190 0.000000 0.000000 0.000000
# 2 -0.012410 0.025996 -0.006004 0.000000 0.000000 0.000000
# 3 -0.006190 -0.006004 0.013509 0.000000 0.000000 0.000000
# 4 0.000000 0.000000 0.000000 0.305212 0.000000 0.000000
# 5 0.000000 0.000000 0.000000 0.000000 0.040217 0.000000
# 6 0.000000 0.000000 0.000000 0.000000 0.000000 0.028040
#
#
# Mechanical properties :
#
#
# Convention : Reuss Voigt Hill
#
# Bulk Modulus (GPa) = 58.84303 63.74055 61.29179
# Shear Modulus (GPa) = 10.11028 20.31465 15.21247
#
# Velocity S-wave (km/s) = 2.39171 3.39025 2.93378
# Velocity P-wave (km/s) = 6.39686 7.16860 6.79370
#
# Compressibility (1/GPa) = 0.01699437
#
# Stress axis : x y z
#
# Youngs Moduli (GPa) = 37.45438 38.46748 74.02682
#
# Poissons Ratio (x) = 0.47738 0.45826
# Poissons Ratio (y) = 0.46481 0.44447
# Poissons Ratio (z) = 0.23186 0.23096
#
# Static dielectric constant tensor:
#      x y z
#    x 1.610860 0.000000 0.000000 
#    y 0.000000 1.578360 0.000000 
#    z 0.000000 0.000000 1.613670 
# 
# From -- ./inp_files/19542.got.cif
#   From: 2010.05.17/outbox.cif.g08.bks.cpg/sg50_10_cif.got.tgz:19542.got - 2010.06.03 11:33:33.
