data_PCOD9395198
_publ_section_title
;
Structure prediction by ZEFSAII (Michael W. Deem and Ramdas Pophale) SiO2 
 PCOD9395198
Probable space group: P C C M
;
_chemical_formula_sum "Si O2"
_cell_formula_units_Z 64
_cell_length_a 20.978148
_cell_length_b 7.115009
_cell_length_c 18.712809
_cell_angle_alpha 90.000000
_cell_angle_beta 90.000000
_cell_angle_gamma 90.000000
_cell_volume 2793.068479
_symmetry_space_group_name_H-M "P C C M"
_symmetry_group_IT_number 49
_symmetry_cell_setting 'orthorhombic'
loop_
_space_group_symop_operation_xyz
x,y,z
-x,-y,z
x,-y,1/2-z
-x,y,1/2-z
-x,-y,-z
x,y,-z
-x,y,1/2+z
x,-y,1/2+z
loop_
_atom_site_type_symbol
_atom_site_label
_atom_site_fract_x
_atom_site_fract_y
_atom_site_fract_z
Si Si1 0.604649 0.194947 0.580581
Si Si2 0.776499 0.312373 0.081209
Si Si3 0.005989 0.227311 0.919722
Si Si4 0.632897 0.636200 0.581962
Si Si5 0.109905 0.749131 0.178880
Si Si6 0.254513 0.127399 0.081768
Si Si7 0.513257 0.273987 0.168377
Si Si8 0.130806 0.797661 0.659338
O O1 0.597361 0.124139 0.500000
O O2 0.611374 0.420901 0.577576
O O3 0.673012 0.127000 0.609527
O O4 0.540916 0.167404 0.624265
O O5 0.706257 0.372763 0.105977
O O6 0.833661 0.349606 0.135018
O O7 0.769177 0.086215 0.077195
O O8 0.788757 0.378572 0.000000
O O9 0.078313 0.268280 0.897558
O O10 0.956817 0.295455 0.859461
O O11 0.989814 0.290271 0.000000
O O12 0.000000 0.000000 0.920390
O O13 0.632611 0.710724 0.500000
O O14 0.583542 0.743533 0.633417
O O15 0.115536 0.714437 0.263007
O O16 0.120076 0.975783 0.168915
O O17 0.202355 0.229538 0.130375
O O18 0.256846 0.202325 0.000000
O O19 0.500000 0.500000 0.164735
O O20 0.500000 0.222305 0.250000
#
# Coordination Sequence:
#
# PCOD9395198 Si02
#       8
#     8   8   8   8   8   8   8   8
#     4   9  17  30  48  67  86 111 144 179 213 252
#     4   9  17  29  44  63  88 116 144 175 213 256
#     4   9  15  23  37  57  82 113 148 183 216 252
#     4   9  17  30  48  67  86 111 144 179 213 252
#     4   9  16  25  38  58  85 115 145 178 216 256
#     4   9  17  29  44  63  88 116 144 175 213 256
#     4   9  17  29  46  67  88 110 140 179 218 254
#     4   9  16  25  38  58  85 115 145 178 216 256
#
# _framework density 22.913867
#
# number of rings (size 3 to 8) (size 9 to 14) (size 15 to 20)
#    0.000    3.000    0.000    1.500    0.000    7.000 
#    0.000    0.625    0.000    3.750    0.000    0.875 
#    0.000    7.000    0.000    0.000    0.000    0.000 
#
# Total GULP energy -357563.478776 kJ/mol
# GULP energy per Si atom -5586.929356 kJ/mol
# Density = 2.286171 g / cm^3
# Si number density = 22.913867 Si / 1000 Ang^3
#
#
#
# Elastic Constant Matrix: (Units=GPa)
#
#
# Indices 1 2 3 4 5 6 
#
# 1 163.0031 -11.3607 78.5692 0.0000 0.0000 0.0000
# 2 -11.3607 72.1431 -11.7731 0.0000 0.0000 0.0000
# 3 78.5692 -11.7731 102.7470 0.0000 0.0000 0.0000
# 4 0.0000 0.0000 0.0000 1.2352 0.0000 0.0000
# 5 0.0000 0.0000 0.0000 0.0000 72.1390 0.0000
# 6 0.0000 0.0000 0.0000 0.0000 0.0000 22.0210
#
#
#
# Elastic Compliance Matrix: (Units=1/GPa)
#
#
# Indices 1 2 3 4 5 6 
#
# 1 0.009723 0.000324 -0.007398 0.000000 0.000000 0.000000
# 2 0.000324 0.014136 0.001372 0.000000 0.000000 0.000000
# 3 -0.007398 0.001372 0.015547 0.000000 0.000000 0.000000
# 4 0.000000 0.000000 0.000000 0.809616 0.000000 0.000000
# 5 0.000000 0.000000 0.000000 0.000000 0.013862 0.000000
# 6 0.000000 0.000000 0.000000 0.000000 0.000000 0.045411
#
#
# Mechanical properties :
#
#
# Convention : Reuss Voigt Hill
#
# Bulk Modulus (GPa) = 35.71126 49.86266 42.78696
# Shear Modulus (GPa) = 5.38193 37.90955 21.64574
#
# Velocity S-wave (km/s) = 1.53423 4.07189 3.07686
# Velocity P-wave (km/s) = 4.33097 6.62685 5.59788
#
# Compressibility (1/GPa) = 0.02800238
#
# Stress axis : x y z
#
# Youngs Moduli (GPa) = 102.84379 70.74006 64.32009
#
# Poissons Ratio (x) = -0.02291 0.47586
# Poissons Ratio (y) = -0.03331 -0.08826
# Poissons Ratio (z) = 0.76087 -0.09706
#
# Static dielectric constant tensor:
#      x y z
#    x 1.819070 0.000000 0.000000 
#    y 0.000000 1.961600 0.000000 
#    z 0.000000 0.000000 1.808770 
# 
# From -- ./inp_files/18218.got.cif
#   From: 2010.05.17/outbox.cif.g08.bks.cpg/sg49_10_cif.got.tgz:18218.got - 2010.06.03 21:02:19.
