data_PCOD9395937
_publ_section_title
;
Structure prediction by ZEFSAII (Michael W. Deem and Ramdas Pophale) SiO2 
 PCOD9395937
Probable space group: P B A N
;
_chemical_formula_sum "Si O2"
_cell_formula_units_Z 64
_cell_length_a 12.135689
_cell_length_b 30.698774
_cell_length_c 7.311044
_cell_angle_alpha 90.000000
_cell_angle_beta 90.000000
_cell_angle_gamma 90.000000
_cell_volume 2723.735101
_symmetry_space_group_name_H-M "P B A N"
_symmetry_group_IT_number 50
_space_group.IT_coordinate_system_code '2'
_symmetry_cell_setting 'orthorhombic'
loop_
_space_group_symop_operation_xyz
x,y,z
1/2-x,1/2-y,z
x,1/2-y,-z
1/2-x,y,-z
-x,-y,-z
1/2+x,1/2+y,-z
-x,1/2+y,z
1/2+x,-y,z
loop_
_atom_site_type_symbol
_atom_site_label
_atom_site_fract_x
_atom_site_fract_y
_atom_site_fract_z
Si Si1 0.156326 0.661012 0.224133
Si Si2 0.213615 0.358319 0.782768
Si Si3 0.384437 0.859167 0.647508
Si Si4 0.312564 0.545870 0.270324
Si Si5 0.458596 0.291754 0.184938
Si Si6 0.913854 0.432017 0.881260
Si Si7 0.828764 0.953189 0.817480
Si Si8 0.911728 0.801590 0.238646
O O1 0.133587 0.655945 0.440619
O O2 0.287283 0.658013 0.218713
O O3 0.103128 0.619917 0.120380
O O4 0.089648 0.703433 0.167978
O O5 0.096997 0.335691 0.738107
O O6 0.213435 0.408499 0.726486
O O7 0.300571 0.324623 0.701958
O O8 0.250000 0.361318 0.000000
O O9 0.369945 0.911663 0.641888
O O10 0.494688 0.836552 0.715524
O O11 0.180113 0.553092 0.263887
O O12 0.328033 0.495269 0.313377
O O13 0.366699 0.548862 0.068647
O O14 0.430132 0.248362 0.294931
O O15 0.410740 0.294050 0.980538
O O16 0.041752 0.444316 0.863701
O O17 0.750000 0.960463 0.000000
#
# Coordination Sequence:
#
# PCOD9395937 Si02
#       8
#     8   8   8   8   8   8   8   8
#     4  10  21  40  58  77 113 163 188 237 289 358
#     4   9  19  33  56  87 121 147 184 231 296 347
#     4  10  23  38  56  81 117 153 199 235 293 339
#     4  10  21  33  56  88 114 149 195 248 283 346
#     4  10  19  37  62  85 117 147 192 233 299 345
#     4  10  19  36  56  81 117 150 190 238 297 339
#     4  11  20  31  57  93 117 149 190 245 295 351
#     4  10  21  36  60  92 113 148 187 248 285 348
#
# _framework density 23.497146000000001
#
# number of rings (size 3 to 8) (size 9 to 14) (size 15 to 20)
#    0.000    2.000    2.500    1.500    3.500    4.000 
#    0.000    3.750    0.000    4.500    0.000    0.000 
#    0.000    0.000    0.000    0.000    0.000    0.000 
#
# Total GULP energy -356889.077570 kJ/mol
# GULP energy per Si atom -5576.391837 kJ/mol
# Density = 2.344367 g / cm^3
# Si number density = 23.497146 Si / 1000 Ang^3
#
#
#
# Elastic Constant Matrix: (Units=GPa)
#
#
# Indices 1 2 3 4 5 6 
#
# 1 123.4460 36.1762 10.2537 0.0000 0.0000 0.0000
# 2 36.1762 136.1397 13.0724 0.0000 0.0000 0.0000
# 3 10.2537 13.0724 42.4099 0.0000 0.0000 0.0000
# 4 0.0000 0.0000 0.0000 -8.3299 0.0000 0.0000
# 5 0.0000 0.0000 0.0000 0.0000 -39.7144 0.0000
# 6 0.0000 0.0000 0.0000 0.0000 0.0000 40.3405
#
#
#
# Elastic Compliance Matrix: (Units=1/GPa)
#
#
# Indices 1 2 3 4 5 6 
#
# 1 0.008872 -0.002217 -0.001462 0.000000 0.000000 0.000000
# 2 -0.002217 0.008124 -0.001968 0.000000 0.000000 0.000000
# 3 -0.001462 -0.001968 0.024539 0.000000 0.000000 0.000000
# 4 0.000000 0.000000 0.000000 -0.120050 0.000000 0.000000
# 5 0.000000 0.000000 0.000000 0.000000 -0.025180 0.000000
# 6 0.000000 0.000000 0.000000 0.000000 0.000000 0.024789
#
#
# Mechanical properties :
#
#
# Convention : Reuss Voigt Hill
#
# Bulk Modulus (GPa) = 33.06728 46.77779 39.92254
# Shear Modulus (GPa) = -86.90805 14.62548 -36.14129
#
# Velocity S-wave (km/s) = -6.08826 2.49757 -3.92613
# Velocity P-wave (km/s) = 5.94299 5.31679 1.87762
#
# Compressibility (1/GPa) = 0.03024137
#
# Stress axis : x y z
#
# Youngs Moduli (GPa) = 112.71600 123.09932 40.75089
#
# Poissons Ratio (x) = 0.27293 0.05956
# Poissons Ratio (y) = 0.24991 0.08019
# Poissons Ratio (z) = 0.16474 0.24225
#
# Static dielectric constant tensor:
#      x y z
#    x 2.019130 0.000000 0.000000 
#    y 0.000000 1.949260 0.000000 
#    z 0.000000 0.000000 1.892960 
# 
# From -- ./inp_files/11856.got.cif
#   From: 2010.05.17/outbox.cif.g08.bks.cpg/sg50_6_cif.got.tgz:11856.got - 2010.06.03 11:33:33.
