data_PCOD9395866
_publ_section_title
;
Structure prediction by ZEFSAII (Michael W. Deem and Ramdas Pophale) SiO2 
 PCOD9395866
Probable space group: P B A N
;
_chemical_formula_sum "Si O2"
_cell_formula_units_Z 52
_cell_length_a 19.207925
_cell_length_b 8.781276
_cell_length_c 15.675353
_cell_angle_alpha 90.000000
_cell_angle_beta 90.000000
_cell_angle_gamma 90.000000
_cell_volume 2643.963214
_symmetry_space_group_name_H-M "P B A N"
_symmetry_group_IT_number 50
_space_group.IT_coordinate_system_code '2'
_symmetry_cell_setting 'orthorhombic'
loop_
_space_group_symop_operation_xyz
x,y,z
1/2-x,1/2-y,z
x,1/2-y,-z
1/2-x,y,-z
-x,-y,-z
1/2+x,1/2+y,-z
-x,1/2+y,z
1/2+x,-y,z
loop_
_atom_site_type_symbol
_atom_site_label
_atom_site_fract_x
_atom_site_fract_y
_atom_site_fract_z
Si Si1 0.867432 0.554974 0.321176
Si Si2 0.523512 0.701197 0.262788
Si Si3 0.357625 0.026827 0.161831
Si Si4 0.750000 0.750000 0.753810
Si Si5 0.832428 0.430848 0.013711
Si Si6 0.951908 0.105236 0.556776
Si Si7 0.375603 0.682056 0.185842
O O1 0.933929 0.642487 0.278814
O O2 0.804277 0.665997 0.306732
O O3 0.888365 0.500790 0.414104
O O4 0.851292 0.401438 0.270388
O O5 0.578321 0.584096 0.220006
O O6 0.492475 0.653601 0.355675
O O7 0.457909 0.713019 0.199177
O O8 0.292997 0.132326 0.187852
O O9 0.341568 0.848062 0.176658
O O10 0.370209 0.028678 0.059444
O O11 0.858220 0.438689 0.110711
O O12 0.844965 0.250000 0.000000
O O13 0.750000 0.457948 0.000000
O O14 0.932397 0.250000 0.500000
O O15 0.000000 0.000000 0.500000
#
# Coordination Sequence:
#
# PCOD9395866 Si02
#       7
#     8   8   8   4   8   8   8
#     4  10  21  37  58  90 121 157 200 244 305 368
#     4  10  21  37  57  94 124 151 194 248 315 358
#     4  10  21  37  60  83 122 163 202 251 297 360
#     4  10  22  40  57  85 120 164 206 246 306 361
#     4   9  18  33  53  81 115 160 209 244 283 342
#     4  11  21  37  65  95 117 150 195 251 304 371
#     4  10  19  34  60  87 119 156 206 253 293 357
#
# _framework density 19.667445000000001
#
# number of rings (size 3 to 8) (size 9 to 14) (size 15 to 20)
#    0.000    2.000    1.538    2.769    2.154    2.462 
#    0.000    8.846    0.000    7.385    8.000    0.000 
#    0.000    0.000    0.000    0.000    0.000    0.000 
#
# Total GULP energy -289858.932328 kJ/mol
# GULP energy per Si atom -5574.210237 kJ/mol
# Density = 1.962268 g / cm^3
# Si number density = 19.667445 Si / 1000 Ang^3
#
#
#
# Elastic Constant Matrix: (Units=GPa)
#
#
# Indices 1 2 3 4 5 6 
#
# 1 86.4381 38.9729 41.2835 0.0000 0.0000 0.0000
# 2 38.9729 99.4107 40.2586 0.0000 0.0000 0.0000
# 3 41.2835 40.2586 110.8098 0.0000 0.0000 0.0000
# 4 0.0000 0.0000 0.0000 36.7919 0.0000 0.0000
# 5 0.0000 0.0000 0.0000 0.0000 27.0705 0.0000
# 6 0.0000 0.0000 0.0000 0.0000 0.0000 23.7089
#
#
#
# Elastic Compliance Matrix: (Units=1/GPa)
#
#
# Indices 1 2 3 4 5 6 
#
# 1 0.015557 -0.004399 -0.004198 0.000000 0.000000 0.000000
# 2 -0.004399 0.013039 -0.003098 0.000000 0.000000 0.000000
# 3 -0.004198 -0.003098 0.011714 0.000000 0.000000 0.000000
# 4 0.000000 0.000000 0.000000 0.027180 0.000000 0.000000
# 5 0.000000 0.000000 0.000000 0.000000 0.036941 0.000000
# 6 0.000000 0.000000 0.000000 0.000000 0.000000 0.042178
#
#
# Mechanical properties :
#
#
# Convention : Reuss Voigt Hill
#
# Bulk Modulus (GPa) = 59.10233 59.74317 59.42275
# Shear Modulus (GPa) = 28.46753 29.25716 28.86234
#
# Velocity S-wave (km/s) = 3.80866 3.86112 3.83498
# Velocity P-wave (km/s) = 7.03258 7.09368 7.06320
#
# Compressibility (1/GPa) = 0.01691981
#
# Stress axis : x y z
#
# Youngs Moduli (GPa) = 64.27836 76.69556 85.36781
#
# Poissons Ratio (x) = 0.33739 0.35836
# Poissons Ratio (y) = 0.28277 0.26448
# Poissons Ratio (z) = 0.26983 0.23761
#
# Static dielectric constant tensor:
#      x y z
#    x 1.712040 0.000000 0.000000 
#    y 0.000000 1.724360 0.000000 
#    z 0.000000 0.000000 1.745380 
# 
# From -- ./inp_files/27193.got.cif
#   From: 2010.05.17/outbox.cif.g08.bks.cpg/sg50_14_cif.got.tgz:27193.got - 2010.06.03 11:33:33.
