data_PCOD9395032
_publ_section_title
;
Structure prediction by ZEFSAII (Michael W. Deem and Ramdas Pophale) SiO2 
 PCOD9395032
Probable space group: P C C M
;
_chemical_formula_sum "Si O2"
_cell_formula_units_Z 64
_cell_length_a 16.871198
_cell_length_b 10.220032
_cell_length_c 22.418440
_cell_angle_alpha 90.000000
_cell_angle_beta 90.000000
_cell_angle_gamma 90.000000
_cell_volume 3865.481211
_symmetry_space_group_name_H-M "P C C M"
_symmetry_group_IT_number 49
_symmetry_cell_setting 'orthorhombic'
loop_
_space_group_symop_operation_xyz
x,y,z
-x,-y,z
x,-y,1/2-z
-x,y,1/2-z
-x,-y,-z
x,y,-z
-x,y,1/2+z
x,-y,1/2+z
loop_
_atom_site_type_symbol
_atom_site_label
_atom_site_fract_x
_atom_site_fract_y
_atom_site_fract_z
Si Si1 0.593693 0.502219 0.929229
Si Si2 0.910239 0.220117 0.750172
Si Si3 0.335624 0.243427 0.625885
Si Si4 0.336777 0.753163 0.365562
Si Si5 0.498321 0.845184 0.816268
Si Si6 0.909787 0.999442 0.148735
Si Si7 0.745946 0.347214 0.245973
Si Si8 0.753847 0.007047 0.428694
O O1 0.500000 0.500000 0.908479
O O2 0.639004 0.367682 0.913779
O O3 0.645107 0.618196 0.899818
O O4 0.591061 0.522250 0.000000
O O5 0.901417 0.124592 0.807451
O O6 0.840015 0.323391 0.750703
O O7 0.000000 0.272607 0.750000
O O8 0.901576 0.125565 0.692631
O O9 0.418599 0.192210 0.651108
O O10 0.285640 0.289395 0.683635
O O11 0.291540 0.124869 0.592517
O O12 0.424008 0.805253 0.351243
O O13 0.293292 0.725128 0.302677
O O14 0.289666 0.864211 0.401953
O O15 0.500000 0.784746 0.750000
O O16 0.500000 0.000000 0.810628
O O17 0.841589 0.998017 0.099797
O O18 0.000000 0.000000 0.125145
O O19 0.725972 0.500000 0.250000
O O20 0.755393 0.013377 0.500000
#
# Coordination Sequence:
#
# PCOD9395032 Si02
#       8
#     8   8   8   8   8   8   8   8
#     4  11  24  41  59  77 113 165 202 242 291 337
#     4   9  18  35  60  89 117 145 180 234 298 353
#     4  12  23  39  58  87 116 145 204 244 289 349
#     4  12  23  39  58  87 116 145 204 244 289 349
#     4  11  22  35  56  85 115 147 183 244 308 347
#     4   9  18  35  62  89 113 145 187 236 292 351
#     4  12  23  35  61  89 114 151 188 243 297 348
#     4  12  25  39  59  85 118 158 198 242 282 342
#
# _framework density 16.556799999999999
#
# number of rings (size 3 to 8) (size 9 to 14) (size 15 to 20)
#    0.000    1.000    7.500    1.500    0.000    1.000 
#    0.000    2.500    0.000    0.000    0.000    0.000 
#    0.000    8.000    0.000    0.000    0.000    0.000 
#
# Total GULP energy -357127.682879 kJ/mol
# GULP energy per Si atom -5580.120045 kJ/mol
# Density = 1.651912 g / cm^3
# Si number density = 16.556800 Si / 1000 Ang^3
#
#
#
# Elastic Constant Matrix: (Units=GPa)
#
#
# Indices 1 2 3 4 5 6 
#
# 1 114.2903 17.7286 30.7697 0.0000 0.0000 0.0000
# 2 17.7286 61.5856 6.0296 0.0000 0.0000 0.0000
# 3 30.7697 6.0296 68.3688 0.0000 0.0000 0.0000
# 4 0.0000 0.0000 0.0000 -33.4471 0.0000 0.0000
# 5 0.0000 0.0000 0.0000 0.0000 21.4218 0.0000
# 6 0.0000 0.0000 0.0000 0.0000 0.0000 29.2263
#
#
#
# Elastic Compliance Matrix: (Units=1/GPa)
#
#
# Indices 1 2 3 4 5 6 
#
# 1 0.010336 -0.002542 -0.004428 0.000000 0.000000 0.000000
# 2 -0.002542 0.017004 -0.000356 0.000000 0.000000 0.000000
# 3 -0.004428 -0.000356 0.016651 0.000000 0.000000 0.000000
# 4 0.000000 0.000000 0.000000 -0.029898 0.000000 0.000000
# 5 0.000000 0.000000 0.000000 0.000000 0.046681 0.000000
# 6 0.000000 0.000000 0.000000 0.000000 0.000000 0.034216
#
#
# Mechanical properties :
#
#
# Convention : Reuss Voigt Hill
#
# Bulk Modulus (GPa) = 34.08269 39.25561 36.66915
# Shear Modulus (GPa) = 41.86902 16.08801 28.97851
#
# Velocity S-wave (km/s) = 5.03418 3.12057 4.18814
# Velocity P-wave (km/s) = 7.37704 6.06177 6.75151
#
# Compressibility (1/GPa) = 0.02934041
#
# Stress axis : x y z
#
# Youngs Moduli (GPa) = 96.74961 58.80933 60.05799
#
# Poissons Ratio (x) = 0.14949 0.26591
# Poissons Ratio (y) = 0.24593 0.02136
# Poissons Ratio (z) = 0.42837 0.02091
#
# Static dielectric constant tensor:
#      x y z
#    x 1.543290 0.000000 0.000000 
#    y 0.000000 1.559310 0.000000 
#    z 0.000000 0.000000 1.522350 
# 
# From -- ./inp_files/21065.got.cif
#   From: 2010.05.17/outbox.cif.g08.bks.cpg/sg49_11_cif.got.tgz:21065.got - 2010.06.03 21:02:19.
