data_PCOD9395055
_publ_section_title
;
Structure prediction by ZEFSAII (Michael W. Deem and Ramdas Pophale) SiO2 
 PCOD9395055
Probable space group: P C C M
;
_chemical_formula_sum "Si O2"
_cell_formula_units_Z 48
_cell_length_a 9.456773
_cell_length_b 31.264918
_cell_length_c 8.558548
_cell_angle_alpha 90.000000
_cell_angle_beta 90.000000
_cell_angle_gamma 90.000000
_cell_volume 2530.465083
_symmetry_space_group_name_H-M "P C C M"
_symmetry_group_IT_number 49
_symmetry_cell_setting 'orthorhombic'
loop_
_space_group_symop_operation_xyz
x,y,z
-x,-y,z
x,-y,1/2-z
-x,y,1/2-z
-x,-y,-z
x,y,-z
-x,y,1/2+z
x,-y,1/2+z
loop_
_atom_site_type_symbol
_atom_site_label
_atom_site_fract_x
_atom_site_fract_y
_atom_site_fract_z
Si Si1 0.155992 0.452245 0.312665
Si Si2 0.341007 0.624570 0.687085
Si Si3 0.159576 0.704158 0.187149
Si Si4 0.340056 0.783148 0.687302
Si Si5 0.840123 0.045460 0.687096
Si Si6 0.658866 0.124111 0.812821
O O1 0.184298 0.500000 0.250000
O O2 0.153987 0.452410 0.500000
O O3 0.269718 0.418839 0.249457
O O4 0.000000 0.439922 0.250000
O O5 0.500000 0.628733 0.750000
O O6 0.341703 0.624762 0.500000
O O7 0.246830 0.663717 0.749235
O O8 0.238648 0.746558 0.247321
O O9 0.000000 0.702780 0.250000
O O10 0.158841 0.703341 0.000000
O O11 0.500000 0.776345 0.750000
O O12 0.293117 0.829922 0.746606
O O13 0.657532 0.782290 0.000000
O O14 0.840391 0.045093 0.500000
O O15 0.752743 0.085310 0.751368
O O16 0.000000 0.048947 0.750000
O O17 0.783113 0.000000 0.750000
O O18 0.500000 0.118036 0.750000
O O19 0.658542 0.125472 0.000000
#
# Coordination Sequence:
#
# PCOD9395055 Si02
#       6
#     8   8   8   8   8   8
#     4  11  22  40  64  93 125 163 204 250 301 357
#     4  12  25  43  64  91 123 161 203 250 301 357
#     4  12  25  43  64  91 122 158 200 248 298 354
#     4  11  22  40  63  90 121 158 197 242 295 354
#     4  11  22  39  60  86 117 155 197 244 296 353
#     4  11  22  39  61  89 120 156 197 244 295 352
#
# _framework density 18.968845999999999
#
# number of rings (size 3 to 8) (size 9 to 14) (size 15 to 20)
#    0.000    0.667    0.000   12.000    0.000    1.333 
#    0.000    6.667    0.000    0.000    0.000    0.000 
#    0.000    0.000    0.000    0.000    0.000    0.000 
#
# Total GULP energy -268707.034018 kJ/mol
# GULP energy per Si atom -5598.063209 kJ/mol
# Density = 1.892567 g / cm^3
# Si number density = 18.968846 Si / 1000 Ang^3
#
#
#
# Elastic Constant Matrix: (Units=GPa)
#
#
# Indices 1 2 3 4 5 6 
#
# 1 129.7254 109.9103 74.8581 0.0000 0.0000 0.0000
# 2 109.9103 149.0546 80.9691 0.0000 0.0000 0.0000
# 3 74.8581 80.9691 256.0079 0.0000 0.0000 0.0000
# 4 0.0000 0.0000 0.0000 40.2120 0.0000 0.0000
# 5 0.0000 0.0000 0.0000 0.0000 38.4574 0.0000
# 6 0.0000 0.0000 0.0000 0.0000 0.0000 46.5771
#
#
#
# Elastic Compliance Matrix: (Units=1/GPa)
#
#
# Indices 1 2 3 4 5 6 
#
# 1 0.021010 -0.014677 -0.001502 0.000000 0.000000 0.000000
# 2 -0.014677 0.018353 -0.001513 0.000000 0.000000 0.000000
# 3 -0.001502 -0.001513 0.004824 0.000000 0.000000 0.000000
# 4 0.000000 0.000000 0.000000 0.024868 0.000000 0.000000
# 5 0.000000 0.000000 0.000000 0.000000 0.026003 0.000000
# 6 0.000000 0.000000 0.000000 0.000000 0.000000 0.021470
#
#
# Mechanical properties :
#
#
# Convention : Reuss Voigt Hill
#
# Bulk Modulus (GPa) = 113.58221 118.47363 116.02792
# Shear Modulus (GPa) = 32.29031 42.98601 37.63816
#
# Velocity S-wave (km/s) = 4.13035 4.76556 4.45928
# Velocity P-wave (km/s) = 9.09696 9.63708 9.37091
#
# Compressibility (1/GPa) = 0.00880420
#
# Stress axis : x y z
#
# Youngs Moduli (GPa) = 47.59651 54.48622 207.30729
#
# Poissons Ratio (x) = 0.79968 0.31128
# Poissons Ratio (y) = 0.69856 0.31369
# Poissons Ratio (z) = 0.07147 0.08245
#
# Static dielectric constant tensor:
#      x y z
#    x 1.614370 0.000000 0.000000 
#    y 0.000000 1.645690 0.000000 
#    z 0.000000 0.000000 1.628300 
# 
# From -- ./inp_files/2063.got.cif
#   From: 2010.05.17/outbox.cif.g08.bks.cpg/sg49_2_cif.got.tgz:2063.got - 2010.06.03 21:02:19.
