data_PCOD9395920
_publ_section_title
;
Structure prediction by ZEFSAII (Michael W. Deem and Ramdas Pophale) SiO2 
 PCOD9395920
Probable space group: P B A N
;
_chemical_formula_sum "Si O2"
_cell_formula_units_Z 48
_cell_length_a 25.784321
_cell_length_b 5.411154
_cell_length_c 17.209075
_cell_angle_alpha 90.000000
_cell_angle_beta 90.000000
_cell_angle_gamma 90.000000
_cell_volume 2401.060596
_symmetry_space_group_name_H-M "P B A N"
_symmetry_group_IT_number 50
_space_group.IT_coordinate_system_code '2'
_symmetry_cell_setting 'orthorhombic'
loop_
_space_group_symop_operation_xyz
x,y,z
1/2-x,1/2-y,z
x,1/2-y,-z
1/2-x,y,-z
-x,-y,-z
1/2+x,1/2+y,-z
-x,1/2+y,z
1/2+x,-y,z
loop_
_atom_site_type_symbol
_atom_site_label
_atom_site_fract_x
_atom_site_fract_y
_atom_site_fract_z
Si Si1 0.066034 0.692243 0.639982
Si Si2 0.190643 0.002645 0.032917
Si Si3 0.304359 0.390736 0.215136
Si Si4 0.690797 0.000281 0.534858
Si Si5 0.547336 0.690725 0.413929
Si Si6 0.839159 0.401691 0.712073
O O1 0.081746 0.417257 0.615587
O O2 0.102258 0.791306 0.707964
O O3 0.003438 0.667857 0.641079
O O4 0.073421 0.925298 0.582846
O O5 0.191614 0.029226 0.125250
O O6 0.167193 0.750000 0.000000
O O7 0.250000 0.002059 0.000000
O O8 0.165167 0.250000 0.000000
O O9 0.250000 0.250000 0.227455
O O10 0.309173 0.652597 0.259791
O O11 0.340724 0.157988 0.239309
O O12 0.668001 0.250000 0.500000
O O13 0.750000 0.997413 0.500000
O O14 0.685104 0.021539 0.627901
O O15 0.667057 0.750000 0.500000
O O16 0.528518 0.750000 0.500000
#
# Coordination Sequence:
#
# PCOD9395920 Si02
#       6
#     8   8   8   8   8   8
#     4  10  20  35  52  82 107 138 175 234 297 350
#     4  10  19  36  58  86 107 137 192 229 273 342
#     4  12  25  39  60  81 114 159 192 234 284 338
#     4  10  23  39  50  65  91 142 202 254 276 306
#     4  10  19  35  62  81 108 134 181 247 318 381
#     4  12  26  38  56  81 113 152 198 245 287 353
#
# _framework density 19.991167999999998
#
# number of rings (size 3 to 8) (size 9 to 14) (size 15 to 20)
#    0.000    1.333    1.667    6.000    9.333    2.667 
#    0.000    0.000    0.000    0.000    0.000    0.000 
#    0.000    0.000    0.000  210.000    0.000    0.000 
#
# Total GULP energy -267239.051433 kJ/mol
# GULP energy per Si atom -5567.480238 kJ/mol
# Density = 1.994567 g / cm^3
# Si number density = 19.991168 Si / 1000 Ang^3
#
#
#
# Elastic Constant Matrix: (Units=GPa)
#
#
# Indices 1 2 3 4 5 6 
#
# 1 61.7540 16.9611 22.7314 0.0000 0.0000 0.0000
# 2 16.9611 210.2746 61.8357 0.0000 0.0000 0.0000
# 3 22.7314 61.8357 110.1616 0.0000 0.0000 0.0000
# 4 0.0000 0.0000 0.0000 45.7758 0.0000 0.0000
# 5 0.0000 0.0000 0.0000 0.0000 17.1513 0.0000
# 6 0.0000 0.0000 0.0000 0.0000 0.0000 19.1292
#
#
#
# Elastic Compliance Matrix: (Units=1/GPa)
#
#
# Indices 1 2 3 4 5 6 
#
# 1 0.017555 -0.000420 -0.003387 0.000000 0.000000 0.000000
# 2 -0.000420 0.005706 -0.003116 0.000000 0.000000 0.000000
# 3 -0.003387 -0.003116 0.011526 0.000000 0.000000 0.000000
# 4 0.000000 0.000000 0.000000 0.021846 0.000000 0.000000
# 5 0.000000 0.000000 0.000000 0.000000 0.058304 0.000000
# 6 0.000000 0.000000 0.000000 0.000000 0.000000 0.052276
#
#
# Mechanical properties :
#
#
# Convention : Reuss Voigt Hill
#
# Bulk Modulus (GPa) = 47.75337 65.02739 56.39038
# Shear Modulus (GPa) = 26.59023 35.12208 30.85616
#
# Velocity S-wave (km/s) = 3.65101 4.19606 3.93299
# Velocity P-wave (km/s) = 6.45850 7.48830 6.99238
#
# Compressibility (1/GPa) = 0.02094093
#
# Stress axis : x y z
#
# Youngs Moduli (GPa) = 56.96293 175.25578 86.76375
#
# Poissons Ratio (x) = 0.07363 0.29384
# Poissons Ratio (y) = 0.02393 0.27037
# Poissons Ratio (z) = 0.19291 0.54612
#
# Static dielectric constant tensor:
#      x y z
#    x 1.871700 0.000000 0.000000 
#    y 0.000000 1.498770 0.000000 
#    z 0.000000 0.000000 1.712750 
# 
# From -- ./inp_files/27620.got.cif
#   From: 2010.05.17/outbox.cif.g08.bks.cpg/sg50_14_cif.got.tgz:27620.got - 2010.06.03 11:33:33.
