data_PCOD9395171
_publ_section_title
;
Structure prediction by ZEFSAII (Michael W. Deem and Ramdas Pophale) SiO2 
 PCOD9395171
Probable space group: P C C M
;
_chemical_formula_sum "Si O2"
_cell_formula_units_Z 18
_cell_length_a 5.234385
_cell_length_b 5.162288
_cell_length_c 26.732921
_cell_angle_alpha 90.000000
_cell_angle_beta 90.000000
_cell_angle_gamma 90.000000
_cell_volume 722.361028
_symmetry_space_group_name_H-M "P C C M"
_symmetry_group_IT_number 49
_symmetry_cell_setting 'orthorhombic'
loop_
_space_group_symop_operation_xyz
x,y,z
-x,-y,z
x,-y,1/2-z
-x,y,1/2-z
-x,-y,-z
x,y,-z
-x,y,1/2+z
x,-y,1/2+z
loop_
_atom_site_type_symbol
_atom_site_label
_atom_site_fract_x
_atom_site_fract_y
_atom_site_fract_z
Si Si1 0.000000 0.500000 0.750000
Si Si2 0.672713 0.745951 0.664353
Si Si3 0.000000 0.000000 0.417261
Si Si4 0.748984 0.679653 0.000000
O O1 0.827157 0.676555 0.714291
O O2 0.500000 0.500000 0.652567
O O3 0.865774 0.797199 0.619198
O O4 0.500000 0.000000 0.670920
O O5 0.788448 0.135631 0.452105
O O6 0.500000 0.500000 0.000000
O O7 0.000000 0.500000 0.000000
#
# Coordination Sequence:
#
# PCOD9395171 Si02
#       4
#     2   8   4   4
#     4  12  30  54  76 130 160 226 282 350 426 512
#     4  12  30  51  85 118 170 220 282 350 426 509
#     4  11  30  51  80 126 164 217 290 345 432 508
#     4  11  30  53  87 122 172 224 286 356 432 510
#
# _framework density 24.918285999999998
#
# number of rings (size 3 to 8) (size 9 to 14) (size 15 to 20)
#    0.000    0.444    0.000    3.333   15.556   15.111 
#    0.000    3.333    0.000    0.000    0.000    0.000 
#    0.000    0.000    0.000    0.000    0.000    0.000 
#
# Total GULP energy -101241.001919 kJ/mol
# GULP energy per Si atom -5624.500107 kJ/mol
# Density = 2.486157 g / cm^3
# Si number density = 24.918286 Si / 1000 Ang^3
#
#
#
# Elastic Constant Matrix: (Units=GPa)
#
#
# Indices 1 2 3 4 5 6 
#
# 1 181.3608 104.1284 98.6741 0.0000 0.0000 0.0000
# 2 104.1284 194.7254 93.7822 0.0000 0.0000 0.0000
# 3 98.6741 93.7822 215.3702 0.0000 0.0000 0.0000
# 4 0.0000 0.0000 0.0000 72.7578 0.0000 0.0000
# 5 0.0000 0.0000 0.0000 0.0000 15.6703 0.0000
# 6 0.0000 0.0000 0.0000 0.0000 0.0000 55.8833
#
#
#
# Elastic Compliance Matrix: (Units=1/GPa)
#
#
# Indices 1 2 3 4 5 6 
#
# 1 0.008941 -0.003553 -0.002549 0.000000 0.000000 0.000000
# 2 -0.003553 0.007911 -0.001817 0.000000 0.000000 0.000000
# 3 -0.002549 -0.001817 0.006602 0.000000 0.000000 0.000000
# 4 0.000000 0.000000 0.000000 0.013744 0.000000 0.000000
# 5 0.000000 0.000000 0.000000 0.000000 0.063815 0.000000
# 6 0.000000 0.000000 0.000000 0.000000 0.000000 0.017894
#
#
# Mechanical properties :
#
#
# Convention : Reuss Voigt Hill
#
# Bulk Modulus (GPa) = 131.31301 131.62507 131.46904
# Shear Modulus (GPa) = 36.42090 48.52040 42.47065
#
# Velocity S-wave (km/s) = 3.82725 4.41747 4.13291
# Velocity P-wave (km/s) = 8.50543 8.88573 8.69766
#
# Compressibility (1/GPa) = 0.00761539
#
# Stress axis : x y z
#
# Youngs Moduli (GPa) = 111.84439 126.41400 151.46813
#
# Poissons Ratio (x) = 0.44921 0.38610
# Poissons Ratio (y) = 0.39744 0.27515
# Poissons Ratio (z) = 0.28510 0.22964
#
# Static dielectric constant tensor:
#      x y z
#    x 1.935000 0.000000 0.000000 
#    y 0.000000 1.944450 0.000000 
#    z 0.000000 0.000000 1.931820 
# 
# From -- ./inp_files/21366.got.cif
#   From: 2010.05.17/outbox.cif.g08.bks.cpg/sg49_11_cif.got.tgz:21366.got - 2010.06.03 21:02:19.
