data_PCOD9395894
_publ_section_title
;
Structure prediction by ZEFSAII (Michael W. Deem and Ramdas Pophale) SiO2 
 PCOD9395894
Probable space group: P B A N
;
_chemical_formula_sum "Si O2"
_cell_formula_units_Z 64
_cell_length_a 14.815753
_cell_length_b 15.650562
_cell_length_c 12.893232
_cell_angle_alpha 90.000000
_cell_angle_beta 90.000000
_cell_angle_gamma 90.000000
_cell_volume 2989.616377
_symmetry_space_group_name_H-M "P B A N"
_symmetry_group_IT_number 50
_space_group.IT_coordinate_system_code '2'
_symmetry_cell_setting 'orthorhombic'
loop_
_space_group_symop_operation_xyz
x,y,z
1/2-x,1/2-y,z
x,1/2-y,-z
1/2-x,y,-z
-x,-y,-z
1/2+x,1/2+y,-z
-x,1/2+y,z
1/2+x,-y,z
loop_
_atom_site_type_symbol
_atom_site_label
_atom_site_fract_x
_atom_site_fract_y
_atom_site_fract_z
Si Si1 0.557775 0.357770 0.386910
Si Si2 0.095579 0.337891 0.206200
Si Si3 0.754672 0.153491 0.662523
Si Si4 0.478407 0.901521 0.977655
Si Si5 0.955231 0.149139 0.618189
Si Si6 0.218983 0.884586 0.106771
Si Si7 0.049188 0.358062 0.812376
Si Si8 0.261361 0.080043 0.882113
O O1 0.661993 0.387389 0.377581
O O2 0.520149 0.376004 0.501011
O O3 0.554969 0.253363 0.376171
O O4 0.500773 0.391361 0.289863
O O5 0.087801 0.235980 0.210613
O O6 0.196923 0.372649 0.199485
O O7 0.055787 0.364887 0.095196
O O8 0.030742 0.373742 0.297052
O O9 0.750000 0.250000 0.620367
O O10 0.853253 0.115732 0.638082
O O11 0.752675 0.157470 0.786856
O O12 0.387866 0.891439 0.911322
O O13 0.480629 0.855884 0.089811
O O14 0.500000 0.000000 0.000000
O O15 0.261635 0.979779 0.112444
O O16 0.250000 0.843539 0.000000
O O17 0.135265 0.412043 0.847831
O O18 0.250000 0.114521 0.000000
#
# Coordination Sequence:
#
# PCOD9395894 Si02
#       8
#     8   8   8   8   8   8   8   8
#     4   9  19  34  58  87 117 148 190 244 303 350
#     4  11  22  37  61  88 115 151 205 248 286 342
#     4  10  19  35  57  86 115 151 196 244 289 356
#     4  12  21  37  58  82 120 157 185 238 301 353
#     4   9  18  36  58  85 116 152 192 239 298 356
#     4  11  22  37  54  81 120 158 194 230 301 364
#     4  11  22  37  60  91 116 149 203 252 289 345
#     4  11  22  39  58  81 116 163 198 239 290 357
#
# _framework density 21.407430000000002
#
# number of rings (size 3 to 8) (size 9 to 14) (size 15 to 20)
#    0.000    1.500    3.750    2.625    0.000    2.250 
#    2.250    0.625    0.000   11.250    0.000    0.000 
#    0.000    0.000    0.000    0.000    0.000    0.000 
#
# Total GULP energy -357377.757642 kJ/mol
# GULP energy per Si atom -5584.027463 kJ/mol
# Density = 2.135871 g / cm^3
# Si number density = 21.407430 Si / 1000 Ang^3
#
#
#
# Elastic Constant Matrix: (Units=GPa)
#
#
# Indices 1 2 3 4 5 6 
#
# 1 84.2948 6.7258 41.9894 0.0000 0.0000 0.0000
# 2 6.7258 38.9428 2.1145 0.0000 0.0000 0.0000
# 3 41.9894 2.1145 157.7977 0.0000 0.0000 0.0000
# 4 0.0000 0.0000 0.0000 -30.5755 0.0000 0.0000
# 5 0.0000 0.0000 0.0000 0.0000 19.7426 0.0000
# 6 0.0000 0.0000 0.0000 0.0000 0.0000 16.3239
#
#
#
# Elastic Compliance Matrix: (Units=1/GPa)
#
#
# Indices 1 2 3 4 5 6 
#
# 1 0.013861 -0.002195 -0.003659 0.000000 0.000000 0.000000
# 2 -0.002195 0.026045 0.000235 0.000000 0.000000 0.000000
# 3 -0.003659 0.000235 0.007308 0.000000 0.000000 0.000000
# 4 0.000000 0.000000 0.000000 -0.032706 0.000000 0.000000
# 5 0.000000 0.000000 0.000000 0.000000 0.050652 0.000000
# 6 0.000000 0.000000 0.000000 0.000000 0.000000 0.061260
#
#
# Mechanical properties :
#
#
# Convention : Reuss Voigt Hill
#
# Bulk Modulus (GPa) = 27.79658 42.52160 35.15909
# Shear Modulus (GPa) = 33.41140 16.44523 24.92832
#
# Velocity S-wave (km/s) = 3.95490 2.77465 3.41614
# Velocity P-wave (km/s) = 5.81960 5.49282 5.65857
#
# Compressibility (1/GPa) = 0.03597565
#
# Stress axis : x y z
#
# Youngs Moduli (GPa) = 72.14546 38.39500 136.84192
#
# Poissons Ratio (x) = 0.08429 0.50069
# Poissons Ratio (y) = 0.15838 -0.03218
# Poissons Ratio (z) = 0.26397 -0.00903
#
# Static dielectric constant tensor:
#      x y z
#    x 1.820320 0.000000 0.000000 
#    y 0.000000 2.315370 0.000000 
#    z 0.000000 0.000000 1.772120 
# 
# From -- ./inp_files/21363.got.cif
#   From: 2010.05.17/outbox.cif.g08.bks.cpg/sg50_11_cif.got.tgz:21363.got - 2010.06.03 11:33:33.
