data_PCOD9395609
_publ_section_title
;
Structure prediction by ZEFSAII (Michael W. Deem and Ramdas Pophale) SiO2 
 PCOD9395609
Probable space group: P B A N
;
_chemical_formula_sum "Si O2"
_cell_formula_units_Z 44
_cell_length_a 17.603995
_cell_length_b 13.946588
_cell_length_c 10.213743
_cell_angle_alpha 90.000000
_cell_angle_beta 90.000000
_cell_angle_gamma 90.000000
_cell_volume 2507.633909
_symmetry_space_group_name_H-M "P B A N"
_symmetry_group_IT_number 50
_space_group.IT_coordinate_system_code '2'
_symmetry_cell_setting 'orthorhombic'
loop_
_space_group_symop_operation_xyz
x,y,z
1/2-x,1/2-y,z
x,1/2-y,-z
1/2-x,y,-z
-x,-y,-z
1/2+x,1/2+y,-z
-x,1/2+y,z
1/2+x,-y,z
loop_
_atom_site_type_symbol
_atom_site_label
_atom_site_fract_x
_atom_site_fract_y
_atom_site_fract_z
Si Si1 0.924553 0.953268 0.740598
Si Si2 0.976058 0.752246 0.644326
Si Si3 0.922166 0.562446 0.766019
Si Si4 0.162849 0.967305 0.515645
Si Si5 0.123272 0.750000 0.500000
Si Si6 0.840463 0.636227 0.013507
O O1 0.967455 0.857920 0.694692
O O2 0.867945 0.914186 0.852218
O O3 0.883034 0.999686 0.614457
O O4 0.993587 0.020055 0.787998
O O5 0.940238 0.750000 0.500000
O O6 0.935463 0.672226 0.725991
O O7 0.064651 0.730628 0.619640
O O8 0.879542 0.509353 0.644814
O O9 0.874498 0.570441 0.897946
O O10 0.250000 0.000788 0.500000
O O11 0.163488 0.850929 0.524198
O O12 0.864139 0.750000 0.000000
O O13 0.750000 0.635913 0.000000
#
# Coordination Sequence:
#
# PCOD9395609 Si02
#       6
#     8   8   8   8   4   8
#     4  12  21  40  62  86 113 157 199 237 282 348
#     4  10  18  34  62  90 112 140 202 248 276 330
#     4  12  21  40  62  86 113 157 199 237 282 348
#     4  12  23  36  61  91 121 152 189 238 293 344
#     4  10  19  38  56  90 123 146 186 246 285 336
#     4  11  25  40  56  85 123 153 189 243 297 340
#
# _framework density 17.546420000000001
#
# number of rings (size 3 to 8) (size 9 to 14) (size 15 to 20)
#    0.545    0.182    7.273    2.455    0.000    0.000 
#    0.000    0.909    0.000    0.000    0.000    5.091 
#    0.000    0.000    0.000    0.000    0.000    0.000 
#
# Total GULP energy -245075.963648 kJ/mol
# GULP energy per Si atom -5569.908265 kJ/mol
# Density = 1.750648 g / cm^3
# Si number density = 17.546420 Si / 1000 Ang^3
#
#
#
# Elastic Constant Matrix: (Units=GPa)
#
#
# Indices 1 2 3 4 5 6 
#
# 1 82.1062 5.7984 24.3161 0.0000 0.0000 0.0000
# 2 5.7984 73.9376 16.5001 0.0000 0.0000 0.0000
# 3 24.3161 16.5001 91.2532 0.0000 0.0000 0.0000
# 4 0.0000 0.0000 0.0000 16.1164 0.0000 0.0000
# 5 0.0000 0.0000 0.0000 0.0000 28.1669 0.0000
# 6 0.0000 0.0000 0.0000 0.0000 0.0000 34.5792
#
#
#
# Elastic Compliance Matrix: (Units=1/GPa)
#
#
# Indices 1 2 3 4 5 6 
#
# 1 0.013228 -0.000261 -0.003478 0.000000 0.000000 0.000000
# 2 -0.000261 0.014099 -0.002480 0.000000 0.000000 0.000000
# 3 -0.003478 -0.002480 0.012334 0.000000 0.000000 0.000000
# 4 0.000000 0.000000 0.000000 0.062049 0.000000 0.000000
# 5 0.000000 0.000000 0.000000 0.000000 0.035503 0.000000
# 6 0.000000 0.000000 0.000000 0.000000 0.000000 0.028919
#
#
# Mechanical properties :
#
#
# Convention : Reuss Voigt Hill
#
# Bulk Modulus (GPa) = 36.73359 37.83623 37.28491
# Shear Modulus (GPa) = 26.64655 29.15134 27.89895
#
# Velocity S-wave (km/s) = 3.90119 4.08043 3.99182
# Velocity P-wave (km/s) = 6.42440 6.61893 6.52239
#
# Compressibility (1/GPa) = 0.02722304
#
# Stress axis : x y z
#
# Youngs Moduli (GPa) = 75.59905 70.92819 81.07984
#
# Poissons Ratio (x) = 0.01853 0.28196
# Poissons Ratio (y) = 0.01975 0.20105
# Poissons Ratio (z) = 0.26290 0.17588
#
# Static dielectric constant tensor:
#      x y z
#    x 1.608400 0.000000 0.000000 
#    y 0.000000 1.549410 0.000000 
#    z 0.000000 0.000000 1.612290 
# 
# From -- ./inp_files/14134.got.cif
#   From: 2010.05.17/outbox.cif.g08.bks.cpg/sg50_8_cif.got.tgz:14134.got - 2010.06.03 11:33:33.
