data_PCOD9395202
_publ_section_title
;
Structure prediction by ZEFSAII (Michael W. Deem and Ramdas Pophale) SiO2 
 PCOD9395202
Probable space group: P C C M
;
_chemical_formula_sum "Si O2"
_cell_formula_units_Z 64
_cell_length_a 18.000000
_cell_length_b 21.000000
_cell_length_c 9.000000
_cell_angle_alpha 90.000000
_cell_angle_beta 90.000000
_cell_angle_gamma 90.000000
_cell_volume 3402.000000
_symmetry_space_group_name_H-M "P C C M"
_symmetry_group_IT_number 49
_symmetry_cell_setting 'orthorhombic'
loop_
_space_group_symop_operation_xyz
x,y,z
-x,-y,z
x,-y,1/2-z
-x,y,1/2-z
-x,-y,-z
x,y,-z
-x,y,1/2+z
x,-y,1/2+z
loop_
_atom_site_type_symbol
_atom_site_label
_atom_site_fract_x
_atom_site_fract_y
_atom_site_fract_z
Si Si1 0.369215 0.797570 0.179374
Si Si2 0.423562 0.338344 0.679059
Si Si3 0.205247 0.063805 0.820987
Si Si4 0.130722 0.567412 0.675131
Si Si5 0.195732 0.806269 0.178685
Si Si6 0.308948 0.567396 0.324581
Si Si7 0.371395 0.936694 0.820443
Si Si8 0.076554 0.696832 0.822397
O O1 0.411378 0.734814 0.229924
O O2 0.281841 0.793056 0.221385
O O3 0.401362 0.866752 0.222342
O O4 0.370239 0.796639 0.000000
O O5 0.500000 0.362576 0.750000
O O6 0.426208 0.341164 0.500000
O O7 0.354594 0.378608 0.739990
O O8 0.170719 0.130218 0.765435
O O9 0.287849 0.065515 0.747274
O O10 0.170091 0.000000 0.750000
O O11 0.209319 0.059877 0.000000
O O12 0.110432 0.500000 0.750000
O O13 0.112869 0.566306 0.500000
O O14 0.220097 0.575340 0.690889
O O15 0.094046 0.627699 0.754288
O O16 0.143255 0.746237 0.209954
O O17 0.194559 0.818271 0.000000
O O18 0.328350 0.500000 0.250000
O O19 0.326461 0.567412 0.500000
O O20 0.406778 0.000000 0.750000
O O21 0.368496 0.942263 0.000000
O O22 0.000000 0.720208 0.750000
O O23 0.069307 0.691996 0.000000
#
# Coordination Sequence:
#
# PCOD9395202 Si02
#       8
#     8   8   8   8   8   8   8   8
#     4   8  16  31  52  74 100 135 174 214 261 314
#     4  11  22  37  55  77 107 143 180 220 265 315
#     4  10  17  26  44  72 104 135 168 213 264 314
#     4  10  21  38  61  87 114 141 177 220 265 317
#     4   9  18  34  54  76 102 137 177 218 265 318
#     4  10  21  38  60  86 111 138 172 215 262 314
#     4   9  15  26  44  70 101 132 168 212 263 315
#     4  11  23  38  57  80 111 147 183 222 268 317
#
# _framework density 18.812463000000001
#
# number of rings (size 3 to 8) (size 9 to 14) (size 15 to 20)
#    0.000    2.250    0.000    5.250    0.000    4.000 
#    0.000   10.000    0.000    0.750    0.000    5.250 
#    0.000    0.000    0.000    0.000    0.000    0.000 
#
# Total GULP energy -357084.108291 kJ/mol
# GULP energy per Si atom -5579.439192 kJ/mol
# Density = 1.876965 g / cm^3
# Si number density = 18.812463 Si / 1000 Ang^3
#
#
#
# Elastic Constant Matrix: (Units=GPa)
#
#
# Indices 1 2 3 4 5 6 
#
# 1 35.3420 17.6101 16.7545 0.0000 0.0000 0.0000
# 2 17.6101 99.8919 31.6141 0.0000 0.0000 0.0000
# 3 16.7545 31.6141 90.9750 0.0000 0.0000 0.0000
# 4 0.0000 0.0000 0.0000 34.7272 0.0000 0.0000
# 5 0.0000 0.0000 0.0000 0.0000 -4.0535 0.0000
# 6 0.0000 0.0000 0.0000 0.0000 0.0000 -11.2270
#
#
#
# Elastic Compliance Matrix: (Units=1/GPa)
#
#
# Indices 1 2 3 4 5 6 
#
# 1 0.032580 -0.004320 -0.004499 0.000000 0.000000 0.000000
# 2 -0.004320 0.011821 -0.003312 0.000000 0.000000 0.000000
# 3 -0.004499 -0.003312 0.012972 0.000000 0.000000 0.000000
# 4 0.000000 0.000000 0.000000 0.028796 0.000000 0.000000
# 5 0.000000 0.000000 0.000000 0.000000 -0.246698 0.000000
# 6 0.000000 0.000000 0.000000 0.000000 0.000000 -0.089071
#
#
# Mechanical properties :
#
#
# Convention : Reuss Voigt Hill
#
# Bulk Modulus (GPa) = 30.20186 39.79624 34.99905
# Shear Modulus (GPa) = -23.33156 14.57135 -4.38010
#
# Velocity S-wave (km/s) = -3.52549 2.78611 -1.52753
# Velocity P-wave (km/s) = 0.69506 5.61694 3.94125
#
# Compressibility (1/GPa) = 0.03311055
#
# Stress axis : x y z
#
# Youngs Moduli (GPa) = 30.69346 84.59812 77.09163
#
# Poissons Ratio (x) = 0.36544 0.34684
# Poissons Ratio (y) = 0.13259 0.25534
# Poissons Ratio (z) = 0.13809 0.28020
#
# Static dielectric constant tensor:
#      x y z
#    x 1.638170 0.000000 0.000000 
#    y 0.000000 1.693230 0.000000 
#    z 0.000000 0.000000 1.621960 
# 
# From -- ./inp_files/5292.got.cif
#   From: 2010.05.17/outbox.ucp.g08.bks.cvg/sg49_3_cif.got.tgz:5292.got - 2010.06.11 16:40:14.
