data_PCOD9395118
_publ_section_title
;
Structure prediction by ZEFSAII (Michael W. Deem and Ramdas Pophale) SiO2 
 PCOD9395118
Probable space group: P C C M
;
_chemical_formula_sum "Si O2"
_cell_formula_units_Z 48
_cell_length_a 13.808613
_cell_length_b 8.589633
_cell_length_c 18.096359
_cell_angle_alpha 90.000000
_cell_angle_beta 90.000000
_cell_angle_gamma 90.000000
_cell_volume 2146.425752
_symmetry_space_group_name_H-M "P C C M"
_symmetry_group_IT_number 49
_symmetry_cell_setting 'orthorhombic'
loop_
_space_group_symop_operation_xyz
x,y,z
-x,-y,z
x,-y,1/2-z
-x,y,1/2-z
-x,-y,-z
x,y,-z
-x,y,1/2+z
x,-y,1/2+z
loop_
_atom_site_type_symbol
_atom_site_label
_atom_site_fract_x
_atom_site_fract_y
_atom_site_fract_z
Si Si1 0.602622 0.918054 0.355076
Si Si2 0.147855 0.388884 0.588942
Si Si3 0.700273 0.659209 0.719792
Si Si4 0.352117 0.360899 0.000000
Si Si5 0.421618 0.717773 0.000000
Si Si6 0.242082 0.189752 0.864823
Si Si7 0.050834 0.267021 0.086605
O O1 0.620978 0.790727 0.292724
O O2 0.605574 0.818846 0.429728
O O3 0.500000 0.000000 0.348695
O O4 0.689316 0.041323 0.356252
O O5 0.167365 0.365595 0.500000
O O6 0.236132 0.366237 0.645743
O O7 0.102710 0.563027 0.595396
O O8 0.058541 0.279017 0.614665
O O9 0.655813 0.500000 0.750000
O O10 0.764118 0.719906 0.787613
O O11 0.372696 0.546619 0.000000
O O12 0.461377 0.296008 0.000000
O O13 0.293607 0.296086 0.928772
O O14 0.132048 0.149497 0.885427
O O15 0.040486 0.241614 0.000000
#
# Coordination Sequence:
#
# PCOD9395118 Si02
#       7
#     8   8   8   4   4   8   8
#     4  12  27  48  70 101 147 192 238 295 372 428
#     4   9  20  41  67 106 141 183 236 302 351 419
#     4  12  26  44  70 105 138 188 245 295 358 425
#     4  11  23  44  75 108 143 179 253 305 339 438
#     4  11  24  45  74 106 133 192 249 298 358 421
#     4  12  23  42  68 104 146 192 231 291 362 433
#     4   9  18  36  70 103 143 182 234 292 360 420
#
# _framework density 22.362760000000002
#
# number of rings (size 3 to 8) (size 9 to 14) (size 15 to 20)
#    0.000    1.167    4.167    3.250    1.167    2.000 
#    0.000    1.667    0.000    4.000    0.000    0.000 
#    0.000    0.000    0.000    0.000    0.000    0.000 
#
# Total GULP energy -268271.184798 kJ/mol
# GULP energy per Si atom -5588.983017 kJ/mol
# Density = 2.231186 g / cm^3
# Si number density = 22.362760 Si / 1000 Ang^3
#
#
#
# Elastic Constant Matrix: (Units=GPa)
#
#
# Indices 1 2 3 4 5 6 
#
# 1 96.5577 52.8216 26.9513 0.0000 0.0000 0.0000
# 2 52.8216 101.6382 35.0716 0.0000 0.0000 0.0000
# 3 26.9513 35.0716 114.2246 0.0000 0.0000 0.0000
# 4 0.0000 0.0000 0.0000 14.5520 0.0000 0.0000
# 5 0.0000 0.0000 0.0000 0.0000 10.1670 0.0000
# 6 0.0000 0.0000 0.0000 0.0000 0.0000 32.9358
#
#
#
# Elastic Compliance Matrix: (Units=1/GPa)
#
#
# Indices 1 2 3 4 5 6 
#
# 1 0.014628 -0.007171 -0.001250 0.000000 0.000000 0.000000
# 2 -0.007171 0.014520 -0.002766 0.000000 0.000000 0.000000
# 3 -0.001250 -0.002766 0.009899 0.000000 0.000000 0.000000
# 4 0.000000 0.000000 0.000000 0.068719 0.000000 0.000000
# 5 0.000000 0.000000 0.000000 0.000000 0.098357 0.000000
# 6 0.000000 0.000000 0.000000 0.000000 0.000000 0.030362
#
#
# Mechanical properties :
#
#
# Convention : Reuss Voigt Hill
#
# Bulk Modulus (GPa) = 59.97655 60.23438 60.10546
# Shear Modulus (GPa) = 18.90949 24.70270 21.80609
#
# Velocity S-wave (km/s) = 2.91104 3.32721 3.12606
# Velocity P-wave (km/s) = 6.17875 6.46174 6.32183
#
# Compressibility (1/GPa) = 0.01667318
#
# Stress axis : x y z
#
# Youngs Moduli (GPa) = 68.36082 68.86965 101.02121
#
# Poissons Ratio (x) = 0.49387 0.12625
# Poissons Ratio (y) = 0.49022 0.27945
# Poissons Ratio (z) = 0.08543 0.19051
#
# Static dielectric constant tensor:
#      x y z
#    x 1.840410 0.000000 0.000000 
#    y 0.000000 1.867840 0.000000 
#    z 0.000000 0.000000 1.465590 
# 
# From -- ./inp_files/17792.got.cif
#   From: 2010.05.17/outbox.cif.g08.bks.cpg/sg49_9_cif.got.tgz:17792.got - 2010.06.03 21:02:19.
