data_PCOD9395067
_publ_section_title
;
Structure prediction by ZEFSAII (Michael W. Deem and Ramdas Pophale) SiO2 
 PCOD9395067
Probable space group: P C C M
;
_chemical_formula_sum "Si O2"
_cell_formula_units_Z 56
_cell_length_a 31.511330
_cell_length_b 5.054159
_cell_length_c 16.399472
_cell_angle_alpha 90.000000
_cell_angle_beta 90.000000
_cell_angle_gamma 90.000000
_cell_volume 2611.833572
_symmetry_space_group_name_H-M "P C C M"
_symmetry_group_IT_number 49
_symmetry_cell_setting 'orthorhombic'
loop_
_space_group_symop_operation_xyz
x,y,z
-x,-y,z
x,-y,1/2-z
-x,y,1/2-z
-x,-y,-z
x,y,-z
-x,y,1/2+z
x,-y,1/2+z
loop_
_atom_site_type_symbol
_atom_site_label
_atom_site_fract_x
_atom_site_fract_y
_atom_site_fract_z
Si Si1 0.451794 0.546046 0.152983
Si Si2 0.028071 0.737459 0.095409
Si Si3 0.832007 0.411682 0.343009
Si Si4 0.880212 0.901329 0.594847
Si Si5 0.690151 0.082634 0.157372
Si Si6 0.596956 0.958679 0.096378
Si Si7 0.263104 0.591822 0.594223
O O1 0.500000 0.500000 0.124822
O O2 0.450287 0.500000 0.250000
O O3 0.418928 0.337607 0.114192
O O4 0.438209 0.840679 0.130200
O O5 0.074137 0.810440 0.129849
O O6 0.000000 0.500000 0.131755
O O7 0.036262 0.662709 0.000000
O O8 0.000000 0.000000 0.096887
O O9 0.836934 0.500000 0.250000
O O10 0.850502 0.646432 0.398251
O O11 0.782602 0.382438 0.363920
O O12 0.858079 0.144957 0.360101
O O13 0.886060 0.980106 0.500000
O O14 0.707419 0.374156 0.138197
O O15 0.699490 0.000000 0.250000
O O16 0.640553 0.040097 0.140124
O O17 0.714566 0.874748 0.100702
O O18 0.602444 0.993949 0.000000
O O19 0.257829 0.514939 0.500000
#
# Coordination Sequence:
#
# PCOD9395067 Si02
#       7
#     8   8   8   8   8   8   8
#     4  11  24  43  66  93 127 168 212 260 318 382
#     4   9  17  31  55  88 121 153 197 253 304 353
#     4  12  25  42  62  90 128 169 209 255 317 381
#     4  11  22  39  64  93 124 163 213 264 313 369
#     4  12  25  44  67  94 128 167 209 257 318 381
#     4  12  25  42  65  95 129 166 211 262 316 375
#     4  12  25  44  67  94 126 163 212 265 316 372
#
# _framework density 21.440877
#
# number of rings (size 3 to 8) (size 9 to 14) (size 15 to 20)
#    0.000    0.714    0.000    9.000    0.000    5.143 
#    0.000    0.000    0.000    6.429    0.000    0.000 
#    0.000    0.000    0.000    0.000    0.000    0.571 
#
# Total GULP energy -313490.814365 kJ/mol
# GULP energy per Si atom -5598.050257 kJ/mol
# Density = 2.139208 g / cm^3
# Si number density = 21.440877 Si / 1000 Ang^3
#
#
#
# Elastic Constant Matrix: (Units=GPa)
#
#
# Indices 1 2 3 4 5 6 
#
# 1 126.2243 16.4762 1.4023 0.0000 0.0000 0.0000
# 2 16.4762 77.4850 -3.9684 0.0000 0.0000 0.0000
# 3 1.4023 -3.9684 62.3992 0.0000 0.0000 0.0000
# 4 0.0000 0.0000 0.0000 32.3001 0.0000 0.0000
# 5 0.0000 0.0000 0.0000 0.0000 4.7995 0.0000
# 6 0.0000 0.0000 0.0000 0.0000 0.0000 -8.3415
#
#
#
# Elastic Compliance Matrix: (Units=1/GPa)
#
#
# Indices 1 2 3 4 5 6 
#
# 1 0.008154 -0.001749 -0.000294 0.000000 0.000000 0.000000
# 2 -0.001749 0.013323 0.000887 0.000000 0.000000 0.000000
# 3 -0.000294 0.000887 0.016089 0.000000 0.000000 0.000000
# 4 0.000000 0.000000 0.000000 0.030960 0.000000 0.000000
# 5 0.000000 0.000000 0.000000 0.000000 0.208355 0.000000
# 6 0.000000 0.000000 0.000000 0.000000 0.000000 -0.119883
#
#
# Mechanical properties :
#
#
# Convention : Reuss Voigt Hill
#
# Bulk Modulus (GPa) = 28.36699 32.65876 30.51288
# Shear Modulus (GPa) = 29.22916 22.56484 25.89700
#
# Velocity S-wave (km/s) = 3.69622 3.24762 3.47916
# Velocity P-wave (km/s) = 5.61027 5.41552 5.51375
#
# Compressibility (1/GPa) = 0.03525224
#
# Stress axis : x y z
#
# Youngs Moduli (GPa) = 122.63972 75.05806 62.15487
#
# Poissons Ratio (x) = 0.13127 0.01830
# Poissons Ratio (y) = 0.21449 -0.05511
# Poissons Ratio (z) = 0.03611 -0.06655
#
# Static dielectric constant tensor:
#      x y z
#    x 1.757250 0.000000 0.000000 
#    y 0.000000 1.714870 0.000000 
#    z 0.000000 0.000000 1.784250 
# 
# From -- ./inp_files/14609.got.cif
#   From: 2010.05.17/outbox.cif.g08.bks.cpg/sg49_8_cif.got.tgz:14609.got - 2010.06.03 21:02:19.
