data_PCOD9395040
_publ_section_title
;
Structure prediction by ZEFSAII (Michael W. Deem and Ramdas Pophale) SiO2 
 PCOD9395040
Probable space group: P C C M
;
_chemical_formula_sum "Si O2"
_cell_formula_units_Z 64
_cell_length_a 8.761081
_cell_length_b 26.631002
_cell_length_c 14.889533
_cell_angle_alpha 90.000000
_cell_angle_beta 90.000000
_cell_angle_gamma 90.000000
_cell_volume 3473.971726
_symmetry_space_group_name_H-M "P C C M"
_symmetry_group_IT_number 49
_symmetry_cell_setting 'orthorhombic'
loop_
_space_group_symop_operation_xyz
x,y,z
-x,-y,z
x,-y,1/2-z
-x,y,1/2-z
-x,-y,-z
x,y,-z
-x,y,1/2+z
x,-y,1/2+z
loop_
_atom_site_type_symbol
_atom_site_label
_atom_site_fract_x
_atom_site_fract_y
_atom_site_fract_z
Si Si1 0.684806 0.138680 0.395515
Si Si2 0.676534 0.500000 0.358068
Si Si3 0.822924 0.393142 0.896719
Si Si4 0.181519 0.787214 0.250000
Si Si5 0.684806 0.138680 0.895515
Si Si6 0.822924 0.606858 0.103281
Si Si7 0.314557 0.942912 0.750000
Si Si8 0.679235 0.322645 0.750000
O O1 0.731613 0.137729 0.500000
O O2 0.751383 0.184597 0.337675
O O3 0.500000 0.141868 0.393147
O O4 0.729549 0.089091 0.338250
O O5 0.500000 0.500000 0.387433
O O6 0.678455 0.500000 0.250000
O O7 0.759936 0.550355 0.389140
O O8 0.759936 0.449645 0.389140
O O9 0.726082 0.356431 0.834852
O O10 1.000000 0.392397 0.868015
O O11 0.814585 0.377279 0.000000
O O12 0.248617 0.815403 0.162325
O O13 0.231294 0.729539 0.250000
O O14 0.000000 0.791803 0.250000
O O15 0.729550 0.089091 0.838250
O O16 0.731613 0.137729 0.000000
O O17 0.726082 0.643569 0.165148
O O18 0.814585 0.622721 0.000000
O O19 0.500000 0.944556 0.750000
O O20 0.258378 0.000000 0.750000
O O21 0.500000 0.312495 0.750000
#
# Coordination Sequence:
#
# PCOD9395040 Si02
#       8
#     8   8   8   8   8   8   8   8
#     4   9  18  34  56  82 113 150 192 236 282 333
#     4  11  22  37  60  89 118 153 190 229 277 329
#     4  11  24  41  62  88 117 150 187 229 279 335
#     4  11  23  39  59  81 109 145 186 236 286 336
#     4   9  18  34  56  82 113 150 192 236 282 333
#     4  11  24  41  62  88 117 150 187 229 279 335
#     4   8  14  26  48  83 122 153 186 232 283 332
#     4  12  25  42  63  86 113 146 184 231 287 340
#
# _framework density 18.422719000000001
#
# number of rings (size 3 to 8) (size 9 to 14) (size 15 to 20)
#    0.000    1.750    1.250    4.500    0.000    6.000 
#    0.000    2.500    0.000    6.000    0.000    7.000 
#    0.000    0.000    0.000    0.000    0.000    0.000 
#
# Total GULP energy -357463.841579 kJ/mol
# GULP energy per Si atom -5585.372525 kJ/mol
# Density = 1.838079 g / cm^3
# Si number density = 18.422719 Si / 1000 Ang^3
#
#
#
# Elastic Constant Matrix: (Units=GPa)
#
#
# Indices 1 2 3 4 5 6 
#
# 1 50.1134 5.4286 26.5796 0.0000 0.0000 0.0000
# 2 5.4286 128.4783 53.8307 0.0000 0.0000 0.0000
# 3 26.5796 53.8307 145.9387 0.0000 0.0000 0.0000
# 4 0.0000 0.0000 0.0000 11.2324 0.0000 0.0000
# 5 0.0000 0.0000 0.0000 0.0000 23.5888 0.0000
# 6 0.0000 0.0000 0.0000 0.0000 0.0000 -136.4593
#
#
#
# Elastic Compliance Matrix: (Units=1/GPa)
#
#
# Indices 1 2 3 4 5 6 
#
# 1 0.022175 0.000893 -0.004368 0.000000 0.000000 0.000000
# 2 0.000893 0.009242 -0.003572 0.000000 0.000000 0.000000
# 3 -0.004368 -0.003572 0.008965 0.000000 0.000000 0.000000
# 4 0.000000 0.000000 0.000000 0.089028 0.000000 0.000000
# 5 0.000000 0.000000 0.000000 0.000000 0.042393 0.000000
# 6 0.000000 0.000000 0.000000 0.000000 0.000000 -0.007328
#
#
# Mechanical properties :
#
#
# Convention : Reuss Voigt Hill
#
# Bulk Modulus (GPa) = 38.03884 55.13423 46.58654
# Shear Modulus (GPa) = 26.69071 -4.41484 11.13794
#
# Velocity S-wave (km/s) = 3.81043 -1.54971 2.46148
# Velocity P-wave (km/s) = 6.32865 5.17592 5.78109
#
# Compressibility (1/GPa) = 0.02628892
#
# Stress axis : x y z
#
# Youngs Moduli (GPa) = 45.09630 108.19943 111.54208
#
# Poissons Ratio (x) = -0.09665 0.48723
# Poissons Ratio (y) = -0.04028 0.39840
# Poissons Ratio (z) = 0.19699 0.38646
#
# Static dielectric constant tensor:
#      x y z
#    x 1.624740 0.000000 0.000000 
#    y 0.000000 1.603600 0.000000 
#    z 0.000000 0.000000 1.634340 
# 
# From -- ./inp_files/12146.got.cif
#   From: 2010.05.17/outbox.cif.g08.bks.cpg/sg49_7_cif.got.tgz:12146.got - 2010.06.03 21:02:19.
