data_PCOD9395973
_publ_section_title
;
Structure prediction by ZEFSAII (Michael W. Deem and Ramdas Pophale) SiO2 
 PCOD9395973
Probable space group: P B A N
;
_chemical_formula_sum "Si O2"
_cell_formula_units_Z 64
_cell_length_a 14.727744
_cell_length_b 8.421176
_cell_length_c 21.924570
_cell_angle_alpha 90.000000
_cell_angle_beta 90.000000
_cell_angle_gamma 90.000000
_cell_volume 2719.193135
_symmetry_space_group_name_H-M "P B A N"
_symmetry_group_IT_number 50
_space_group.IT_coordinate_system_code '2'
_symmetry_cell_setting 'orthorhombic'
loop_
_space_group_symop_operation_xyz
x,y,z
1/2-x,1/2-y,z
x,1/2-y,-z
1/2-x,y,-z
-x,-y,-z
1/2+x,1/2+y,-z
-x,1/2+y,z
1/2+x,-y,z
loop_
_atom_site_type_symbol
_atom_site_label
_atom_site_fract_x
_atom_site_fract_y
_atom_site_fract_z
Si Si1 0.368674 0.103942 0.734172
Si Si2 0.787745 0.412346 0.931380
Si Si3 0.953477 0.241809 0.120285
Si Si4 0.535331 0.433970 0.564162
Si Si5 0.283432 0.082639 0.608718
Si Si6 0.052134 0.746636 0.737764
Si Si7 0.115434 0.614987 0.383607
Si Si8 0.362232 0.092944 0.873799
O O1 0.419761 0.935139 0.734810
O O2 0.339437 0.125329 0.803390
O O3 0.294379 0.095673 0.681898
O O4 0.447299 0.229721 0.720105
O O5 0.750000 0.250000 0.899786
O O6 0.893980 0.378344 0.921588
O O7 0.735477 0.562431 0.904110
O O8 0.750000 0.409475 0.000000
O O9 0.939561 0.195429 0.192068
O O10 0.916620 0.423195 0.116400
O O11 0.060764 0.219785 0.106626
O O12 0.500000 0.500000 0.500000
O O13 0.618604 0.543916 0.583367
O O14 0.451155 0.466040 0.608500
O O15 0.573605 0.257810 0.575918
O O16 0.250000 0.250000 0.584123
O O17 0.213530 0.941958 0.595300
O O18 0.112649 0.832322 0.686738
#
# Coordination Sequence:
#
# PCOD9395973 Si02
#       8
#     8   8   8   8   8   8   8   8
#     4  10  21  38  62  96 132 169 213 269 337 399
#     4   9  18  34  56  84 122 170 223 267 322 396
#     4   9  19  34  56  88 122 165 212 267 324 388
#     4  12  27  50  73  99 135 181 218 271 331 398
#     4  12  27  44  70 106 136 172 225 276 338 405
#     4  10  19  36  65  91 133 165 214 266 335 397
#     4  12  24  44  73 101 135 175 225 273 335 399
#     4   9  19  36  57  87 121 165 213 265 326 387
#
# _framework density 23.536393
#
# number of rings (size 3 to 8) (size 9 to 14) (size 15 to 20)
#    0.000    1.625    2.500    1.500    3.500    1.000 
#    0.000    2.500    0.000    0.750    0.000    0.000 
#    0.000    0.000    0.000    0.000    0.000    0.000 
#
# Total GULP energy -357538.048514 kJ/mol
# GULP energy per Si atom -5586.532008 kJ/mol
# Density = 2.348282 g / cm^3
# Si number density = 23.536393 Si / 1000 Ang^3
#
#
#
# Elastic Constant Matrix: (Units=GPa)
#
#
# Indices 1 2 3 4 5 6 
#
# 1 70.3986 7.8318 10.5904 0.0000 0.0000 0.0000
# 2 7.8318 65.3827 13.9581 0.0000 0.0000 0.0000
# 3 10.5904 13.9581 59.3307 0.0000 0.0000 0.0000
# 4 0.0000 0.0000 0.0000 17.9728 0.0000 0.0000
# 5 0.0000 0.0000 0.0000 0.0000 65.1875 0.0000
# 6 0.0000 0.0000 0.0000 0.0000 0.0000 34.5222
#
#
#
# Elastic Compliance Matrix: (Units=1/GPa)
#
#
# Indices 1 2 3 4 5 6 
#
# 1 0.014695 -0.001264 -0.002326 0.000000 0.000000 0.000000
# 2 -0.001264 0.016212 -0.003588 0.000000 0.000000 0.000000
# 3 -0.002326 -0.003588 0.018114 0.000000 0.000000 0.000000
# 4 0.000000 0.000000 0.000000 0.055639 0.000000 0.000000
# 5 0.000000 0.000000 0.000000 0.000000 0.015340 0.000000
# 6 0.000000 0.000000 0.000000 0.000000 0.000000 0.028967
#
#
# Mechanical properties :
#
#
# Convention : Reuss Voigt Hill
#
# Bulk Modulus (GPa) = 28.84719 28.87473 28.86096
# Shear Modulus (GPa) = 28.59117 34.38529 31.48823
#
# Velocity S-wave (km/s) = 3.48913 3.82637 3.66164
# Velocity P-wave (km/s) = 5.33995 5.64059 5.49233
#
# Compressibility (1/GPa) = 0.03466542
#
# Stress axis : x y z
#
# Youngs Moduli (GPa) = 68.04895 61.68263 55.20580
#
# Poissons Ratio (x) = 0.07795 0.12840
# Poissons Ratio (y) = 0.08600 0.19810
# Poissons Ratio (z) = 0.15827 0.22135
#
# Static dielectric constant tensor:
#      x y z
#    x 1.894450 0.000000 0.000000 
#    y 0.000000 1.925480 0.000000 
#    z 0.000000 0.000000 1.916420 
# 
# From -- ./inp_files/31790.got.cif
#   From: 2010.05.17/outbox.cif.g08.bks.cpg/sg50_16_cif.got.tgz:31790.got - 2010.06.03 11:33:33.
