data_PCOD9395144
_publ_section_title
;
Structure prediction by ZEFSAII (Michael W. Deem and Ramdas Pophale) SiO2 
 PCOD9395144
Probable space group: P C C M
;
_chemical_formula_sum "Si O2"
_cell_formula_units_Z 40
_cell_length_a 9.214503
_cell_length_b 10.852804
_cell_length_c 16.907582
_cell_angle_alpha 90.000000
_cell_angle_beta 90.000000
_cell_angle_gamma 90.000000
_cell_volume 1690.812220
_symmetry_space_group_name_H-M "P C C M"
_symmetry_group_IT_number 49
_symmetry_cell_setting 'orthorhombic'
loop_
_space_group_symop_operation_xyz
x,y,z
-x,-y,z
x,-y,1/2-z
-x,y,1/2-z
-x,-y,-z
x,y,-z
-x,y,1/2+z
x,-y,1/2+z
loop_
_atom_site_type_symbol
_atom_site_label
_atom_site_fract_x
_atom_site_fract_y
_atom_site_fract_z
Si Si1 0.311031 0.241345 0.640828
Si Si2 0.830254 0.986788 0.845616
Si Si3 0.643760 0.247520 0.406160
Si Si4 0.181421 0.632685 0.708814
Si Si5 0.038975 0.356534 0.415849
O O1 0.480587 0.242115 0.625977
O O2 0.266276 0.281146 0.729659
O O3 0.209025 0.331703 0.590272
O O4 0.252720 0.105857 0.622327
O O5 0.744267 0.867074 0.876910
O O6 0.823652 0.000000 0.750000
O O7 0.000000 0.000000 0.868235
O O8 0.640353 0.249722 0.500000
O O9 0.715864 0.369158 0.368152
O O10 0.162798 0.500000 0.750000
O O11 0.034710 0.685377 0.667083
O O12 0.986058 0.302484 0.500000
O O13 0.000000 0.500000 0.416744
#
# Coordination Sequence:
#
# PCOD9395144 Si02
#       5
#     8   8   8   8   8
#     4  12  25  44  77 107 150 198 253 309 385 463
#     4  11  25  46  77 112 146 193 253 312 378 461
#     4  12  28  49  75 111 154 196 249 320 393 457
#     4  12  25  46  72 105 146 204 257 310 372 464
#     4  11  24  44  70 107 149 193 253 318 379 445
#
# _framework density 23.657267999999998
#
# number of rings (size 3 to 8) (size 9 to 14) (size 15 to 20)
#    0.000    0.400    4.000    4.200    2.800    5.200 
#    0.000    1.000    0.000    0.000    0.000    0.000 
#    0.000    0.000    0.000    0.000    0.000    0.000 
#
# Total GULP energy -223641.685051 kJ/mol
# GULP energy per Si atom -5591.042126 kJ/mol
# Density = 2.360342 g / cm^3
# Si number density = 23.657268 Si / 1000 Ang^3
#
#
#
# Elastic Constant Matrix: (Units=GPa)
#
#
# Indices 1 2 3 4 5 6 
#
# 1 224.3557 65.1220 62.7737 0.0000 0.0000 0.0000
# 2 65.1220 110.1888 31.4847 0.0000 0.0000 0.0000
# 3 62.7737 31.4847 182.7137 0.0000 0.0000 0.0000
# 4 0.0000 0.0000 0.0000 15.1836 0.0000 0.0000
# 5 0.0000 0.0000 0.0000 0.0000 18.8846 0.0000
# 6 0.0000 0.0000 0.0000 0.0000 0.0000 33.5678
#
#
#
# Elastic Compliance Matrix: (Units=1/GPa)
#
#
# Indices 1 2 3 4 5 6 
#
# 1 0.005726 -0.002968 -0.001456 0.000000 0.000000 0.000000
# 2 -0.002968 0.011084 -0.000890 0.000000 0.000000 0.000000
# 3 -0.001456 -0.000890 0.006127 0.000000 0.000000 0.000000
# 4 0.000000 0.000000 0.000000 0.065861 0.000000 0.000000
# 5 0.000000 0.000000 0.000000 0.000000 0.052953 0.000000
# 6 0.000000 0.000000 0.000000 0.000000 0.000000 0.029790
#
#
# Mechanical properties :
#
#
# Convention : Reuss Voigt Hill
#
# Bulk Modulus (GPa) = 81.24634 92.89100 87.06867
# Shear Modulus (GPa) = 26.84249 37.38573 32.11411
#
# Velocity S-wave (km/s) = 3.37210 3.97962 3.68839
# Velocity P-wave (km/s) = 7.04124 7.77606 7.41775
#
# Compressibility (1/GPa) = 0.01230825
#
# Stress axis : x y z
#
# Youngs Moduli (GPa) = 174.63945 90.22108 163.22273
#
# Poissons Ratio (x) = 0.26779 0.23762
# Poissons Ratio (y) = 0.51836 0.14530
# Poissons Ratio (z) = 0.25424 0.08031
#
# Static dielectric constant tensor:
#      x y z
#    x 1.942530 0.000000 0.000000 
#    y 0.000000 1.924530 0.000000 
#    z 0.000000 0.000000 1.994310 
# 
# From -- ./inp_files/16018.got.cif
#   From: 2010.05.17/outbox.cif.g08.bks.cpg/sg49_9_cif.got.tgz:16018.got - 2010.06.03 21:02:19.
