data_PCOD9395748
_publ_section_title
;
Structure prediction by ZEFSAII (Michael W. Deem and Ramdas Pophale) SiO2 
 PCOD9395748
Probable space group: P B A N
;
_chemical_formula_sum "Si O2"
_cell_formula_units_Z 56
_cell_length_a 17.655066
_cell_length_b 5.187528
_cell_length_c 32.534068
_cell_angle_alpha 90.000000
_cell_angle_beta 90.000000
_cell_angle_gamma 90.000000
_cell_volume 2979.670006
_symmetry_space_group_name_H-M "P B A N"
_symmetry_group_IT_number 50
_space_group.IT_coordinate_system_code '2'
_symmetry_cell_setting 'orthorhombic'
loop_
_space_group_symop_operation_xyz
x,y,z
1/2-x,1/2-y,z
x,1/2-y,-z
1/2-x,y,-z
-x,-y,-z
1/2+x,1/2+y,-z
-x,1/2+y,z
1/2+x,-y,z
loop_
_atom_site_type_symbol
_atom_site_label
_atom_site_fract_x
_atom_site_fract_y
_atom_site_fract_z
Si Si1 0.551843 0.377092 0.250773
Si Si2 0.659893 0.261429 0.823991
Si Si3 0.548114 0.309746 0.341080
Si Si4 0.215808 0.998005 0.545835
Si Si5 0.659902 0.763541 0.877095
Si Si6 0.051639 0.588703 0.432089
Si Si7 0.948077 0.796265 0.954244
O O1 0.513866 0.658752 0.247089
O O2 0.612392 0.308203 0.216229
O O3 0.585572 0.358989 0.297057
O O4 0.750000 0.250000 0.815542
O O5 0.641676 0.538038 0.844148
O O6 0.642690 0.039968 0.857287
O O7 0.476547 0.510072 0.341106
O O8 0.582323 0.388138 0.384909
O O9 0.250000 0.750000 0.567535
O O10 0.250000 0.999866 0.500000
O O11 0.126094 0.973189 0.542216
O O12 0.250000 0.250000 0.566586
O O13 0.750000 0.750000 0.885005
O O14 0.612809 0.728208 0.918413
O O15 0.992184 0.356886 0.438611
O O16 0.011682 0.573346 0.950702
O O17 0.915155 0.750000 0.000000
#
# Coordination Sequence:
#
# PCOD9395748 Si02
#       7
#     8   8   8   8   8   8   8
#     4  10  19  32  52  77 102 133 171 210 255 304
#     4  10  21  35  50  73 106 135 166 209 252 298
#     4   8  16  30  50  76 103 128 168 221 257 293
#     4  10  21  38  54  77 114 144 169 221 280 317
#     4  10  21  36  53  73 100 137 172 205 249 303
#     4  10  19  35  59  81 102 141 189 223 260 321
#     4  10  21  36  54  77 103 128 162 213 261 300
#
# _framework density 18.794025999999999
#
# number of rings (size 3 to 8) (size 9 to 14) (size 15 to 20)
#    0.000    2.286    0.000    2.571    0.000    3.714 
#    0.000    9.286    0.000    7.714    0.000    0.000 
#    0.000    0.000    0.000    0.000    0.000    0.000 
#
# Total GULP energy -312105.101746 kJ/mol
# GULP energy per Si atom -5573.305388 kJ/mol
# Density = 1.875125 g / cm^3
# Si number density = 18.794026 Si / 1000 Ang^3
#
#
#
# Elastic Constant Matrix: (Units=GPa)
#
#
# Indices 1 2 3 4 5 6 
#
# 1 51.4671 4.4716 38.4931 0.0000 0.0000 0.0000
# 2 4.4716 101.7346 -16.0409 0.0000 0.0000 0.0000
# 3 38.4931 -16.0409 81.5654 0.0000 0.0000 0.0000
# 4 0.0000 0.0000 0.0000 -44.0104 0.0000 0.0000
# 5 0.0000 0.0000 0.0000 0.0000 -12.0564 0.0000
# 6 0.0000 0.0000 0.0000 0.0000 0.0000 19.1064
#
#
#
# Elastic Compliance Matrix: (Units=1/GPa)
#
#
# Indices 1 2 3 4 5 6 
#
# 1 0.031417 -0.003838 -0.015581 0.000000 0.000000 0.000000
# 2 -0.003838 0.010613 0.003898 0.000000 0.000000 0.000000
# 3 -0.015581 0.003898 0.020380 0.000000 0.000000 0.000000
# 4 0.000000 0.000000 0.000000 -0.022722 0.000000 0.000000
# 5 0.000000 0.000000 0.000000 0.000000 -0.082943 0.000000
# 6 0.000000 0.000000 0.000000 0.000000 0.000000 0.052338
#
#
# Mechanical properties :
#
#
# Convention : Reuss Voigt Hill
#
# Bulk Modulus (GPa) = 31.87929 32.06833 31.97381
# Shear Modulus (GPa) = 98.85260 6.46412 52.65836
#
# Velocity S-wave (km/s) = 7.26031 1.85659 5.29901
# Velocity P-wave (km/s) = 9.34249 4.65789 7.38167
#
# Compressibility (1/GPa) = 0.03136833
#
# Stress axis : x y z
#
# Youngs Moduli (GPa) = 31.83011 94.22560 49.06770
#
# Poissons Ratio (x) = 0.36160 0.76454
# Poissons Ratio (y) = 0.12215 -0.19128
# Poissons Ratio (z) = 0.49595 -0.36731
#
# Static dielectric constant tensor:
#      x y z
#    x 1.622260 0.000000 0.000000 
#    y 0.000000 1.668490 0.000000 
#    z 0.000000 0.000000 1.677120 
# 
# From -- ./inp_files/32507.got.cif
#   From: 2010.05.17/outbox.cif.g08.bks.cpg/sg50_17_cif.got.tgz:32507.got - 2010.06.03 11:33:33.
