data_PCOD9395914
_publ_section_title
;
Structure prediction by ZEFSAII (Michael W. Deem and Ramdas Pophale) SiO2 
 PCOD9395914
Probable space group: P B A N
;
_chemical_formula_sum "Si O2"
_cell_formula_units_Z 34
_cell_length_a 14.062011
_cell_length_b 10.629694
_cell_length_c 9.510969
_cell_angle_alpha 90.000000
_cell_angle_beta 90.000000
_cell_angle_gamma 90.000000
_cell_volume 1421.650892
_symmetry_space_group_name_H-M "P B A N"
_symmetry_group_IT_number 50
_space_group.IT_coordinate_system_code '2'
_symmetry_cell_setting 'orthorhombic'
loop_
_space_group_symop_operation_xyz
x,y,z
1/2-x,1/2-y,z
x,1/2-y,-z
1/2-x,y,-z
-x,-y,-z
1/2+x,1/2+y,-z
-x,1/2+y,z
1/2+x,-y,z
loop_
_atom_site_type_symbol
_atom_site_label
_atom_site_fract_x
_atom_site_fract_y
_atom_site_fract_z
Si Si1 0.382182 0.109561 0.955938
Si Si2 0.580882 0.132176 0.587203
Si Si3 0.750000 0.750000 0.500000
Si Si4 0.626569 0.956062 0.353659
Si Si5 0.109261 0.638616 0.102194
O O1 0.349955 0.042347 0.810692
O O2 0.495688 0.128800 0.931409
O O3 0.349593 0.250000 0.000000
O O4 0.359022 0.004367 0.071662
O O5 0.542974 0.250000 0.500000
O O6 0.488378 0.054021 0.635726
O O7 0.627573 0.170127 0.734790
O O8 0.644788 0.059811 0.473621
O O9 0.681249 0.833864 0.406093
O O10 0.144039 0.750000 0.000000
#
# Coordination Sequence:
#
# PCOD9395914 Si02
#       5
#     8   8   2   8   8
#     4   9  18  31  51  80 115 155 196 245 295 353
#     4  10  19  35  61  91 115 156 209 254 288 361
#     4  12  24  40  56  88 128 166 186 258 312 384
#     4  10  22  35  58  84 125 159 202 245 308 360
#     4   9  17  29  52  83 117 146 194 254 302 335
#
# _framework density 23.915858
#
# number of rings (size 3 to 8) (size 9 to 14) (size 15 to 20)
#    0.000    2.353    1.176    1.412    3.294    5.647 
#    0.000    1.176    0.000    0.000    0.000    0.000 
#    0.000    0.000    0.000    0.000    0.000    0.000 
#
# Total GULP energy -189569.097413 kJ/mol
# GULP energy per Si atom -5575.561689 kJ/mol
# Density = 2.386142 g / cm^3
# Si number density = 23.915858 Si / 1000 Ang^3
#
#
#
# Elastic Constant Matrix: (Units=GPa)
#
#
# Indices 1 2 3 4 5 6 
#
# 1 84.8752 3.4507 7.3397 0.0000 0.0000 0.0000
# 2 3.4507 94.4497 49.9672 0.0000 0.0000 0.0000
# 3 7.3397 49.9672 166.7652 0.0000 0.0000 0.0000
# 4 0.0000 0.0000 0.0000 437.1604 0.0000 0.0000
# 5 0.0000 0.0000 0.0000 0.0000 -18.6384 0.0000
# 6 0.0000 0.0000 0.0000 0.0000 0.0000 -31.5542
#
#
#
# Elastic Compliance Matrix: (Units=1/GPa)
#
#
# Indices 1 2 3 4 5 6 
#
# 1 0.011830 -0.000186 -0.000465 0.000000 0.000000 0.000000
# 2 -0.000186 0.012585 -0.003763 0.000000 0.000000 0.000000
# 3 -0.000465 -0.003763 0.007144 0.000000 0.000000 0.000000
# 4 0.000000 0.000000 0.000000 0.002287 0.000000 0.000000
# 5 0.000000 0.000000 0.000000 0.000000 -0.053653 0.000000
# 6 0.000000 0.000000 0.000000 0.000000 0.000000 -0.031691
#
#
# Mechanical properties :
#
#
# Convention : Reuss Voigt Hill
#
# Bulk Modulus (GPa) = 43.99157 51.95615 47.97386
# Shear Modulus (GPa) = -142.47846 96.41572 -23.03137
#
# Velocity S-wave (km/s) = -7.72685 6.35626 -3.10662
# Velocity P-wave (km/s) = 7.82121 8.69719 2.68977
#
# Compressibility (1/GPa) = 0.02273163
#
# Stress axis : x y z
#
# Youngs Moduli (GPa) = 84.53241 79.45966 139.97198
#
# Poissons Ratio (x) = 0.01480 0.06506
# Poissons Ratio (y) = 0.01575 0.52666
# Poissons Ratio (z) = 0.03929 0.29897
#
# Static dielectric constant tensor:
#      x y z
#    x 1.950050 0.000000 0.000000 
#    y 0.000000 1.908690 0.000000 
#    z 0.000000 0.000000 2.169950 
# 
# From -- ./inp_files/13868.got.cif
#   From: 2010.05.17/outbox.cif.g08.bks.cpg/sg50_7_cif.got.tgz:13868.got - 2010.06.03 11:33:33.
