data_PCOD9395574
_publ_section_title
;
Structure prediction by ZEFSAII (Michael W. Deem and Ramdas Pophale) SiO2 
 PCOD9395574
Probable space group: P B A N
;
_chemical_formula_sum "Si O2"
_cell_formula_units_Z 64
_cell_length_a 8.527629
_cell_length_b 22.842742
_cell_length_c 17.035743
_cell_angle_alpha 90.000000
_cell_angle_beta 90.000000
_cell_angle_gamma 90.000000
_cell_volume 3318.467832
_symmetry_space_group_name_H-M "P B A N"
_symmetry_group_IT_number 50
_space_group.IT_coordinate_system_code '2'
_symmetry_cell_setting 'orthorhombic'
loop_
_space_group_symop_operation_xyz
x,y,z
1/2-x,1/2-y,z
x,1/2-y,-z
1/2-x,y,-z
-x,-y,-z
1/2+x,1/2+y,-z
-x,1/2+y,z
1/2+x,-y,z
loop_
_atom_site_type_symbol
_atom_site_label
_atom_site_fract_x
_atom_site_fract_y
_atom_site_fract_z
Si Si1 0.058707 0.010790 0.853741
Si Si2 0.720606 0.412626 0.911671
Si Si3 0.086735 0.486396 0.681901
Si Si4 0.090257 0.826175 0.216778
Si Si5 0.231980 0.104809 0.774142
Si Si6 0.179302 0.808576 0.635352
Si Si7 0.804679 0.063088 0.414772
Si Si8 0.087524 0.283658 0.751984
O O1 0.198238 0.058454 0.843042
O O2 0.925423 0.041789 0.905013
O O3 0.130530 0.950446 0.883303
O O4 0.993850 0.000560 0.765302
O O5 0.676363 0.360048 0.853159
O O6 0.750000 0.393067 0.000000
O O7 0.206908 0.433688 0.701377
O O8 0.177496 0.542225 0.649197
O O9 0.963782 0.465130 0.617472
O O10 0.207385 0.820672 0.289698
O O11 0.935101 0.863664 0.238939
O O12 0.022497 0.761110 0.199458
O O13 0.360523 0.154951 0.790046
O O14 0.250000 0.750000 0.597543
O O15 0.177893 0.867164 0.585542
O O16 0.009129 0.796645 0.672962
O O17 0.750000 0.042325 0.500000
O O18 0.250000 0.250000 0.735619
#
# Coordination Sequence:
#
# PCOD9395574 Si02
#       8
#     8   8   8   8   8   8   8   8
#     4  11  20  35  57  86 118 161 204 247 292 371
#     4  11  22  35  54  89 130 156 190 248 315 367
#     4  12  21  38  60  85 121 159 206 250 306 371
#     4   9  20  35  57  86 115 150 205 256 298 362
#     4  10  18  32  58  85 113 148 202 259 297 348
#     4  10  20  37  62  86 111 159 212 262 297 365
#     4  12  25  38  56  88 127 162 200 255 328 378
#     4   9  18  34  58  91 109 140 202 269 303 347
#
# _framework density 19.286007999999999
#
# number of rings (size 3 to 8) (size 9 to 14) (size 15 to 20)
#    0.000    1.500    3.750    3.000    0.000    0.250 
#    0.000    0.000    0.000    3.375    0.000    1.750 
#    0.000    0.000    0.000    0.000    0.000    0.000 
#
# Total GULP energy -357140.887726 kJ/mol
# GULP energy per Si atom -5580.326371 kJ/mol
# Density = 1.924211 g / cm^3
# Si number density = 19.286008 Si / 1000 Ang^3
#
#
#
# Elastic Constant Matrix: (Units=GPa)
#
#
# Indices 1 2 3 4 5 6 
#
# 1 51.3084 11.6004 17.9299 0.0000 0.0000 0.0000
# 2 11.6004 89.3665 9.5344 0.0000 0.0000 0.0000
# 3 17.9299 9.5344 56.6434 0.0000 0.0000 0.0000
# 4 0.0000 0.0000 0.0000 16.2966 0.0000 0.0000
# 5 0.0000 0.0000 0.0000 0.0000 24.9434 0.0000
# 6 0.0000 0.0000 0.0000 0.0000 0.0000 28.7073
#
#
#
# Elastic Compliance Matrix: (Units=1/GPa)
#
#
# Indices 1 2 3 4 5 6 
#
# 1 0.022325 -0.002183 -0.006699 0.000000 0.000000 0.000000
# 2 -0.002183 0.011608 -0.001263 0.000000 0.000000 0.000000
# 3 -0.006699 -0.001263 0.019987 0.000000 0.000000 0.000000
# 4 0.000000 0.000000 0.000000 0.061363 0.000000 0.000000
# 5 0.000000 0.000000 0.000000 0.000000 0.040091 0.000000
# 6 0.000000 0.000000 0.000000 0.000000 0.000000 0.034834
#
#
# Mechanical properties :
#
#
# Convention : Reuss Voigt Hill
#
# Bulk Modulus (GPa) = 29.73560 30.60529 30.17045
# Shear Modulus (GPa) = 22.55219 24.53969 23.54594
#
# Velocity S-wave (km/s) = 3.42329 3.57095 3.49790
# Velocity P-wave (km/s) = 5.57467 5.73637 5.65610
#
# Compressibility (1/GPa) = 0.03362972
#
# Stress axis : x y z
#
# Youngs Moduli (GPa) = 44.79353 86.14751 50.03144
#
# Poissons Ratio (x) = 0.18807 0.33517
# Poissons Ratio (y) = 0.09779 0.06318
# Poissons Ratio (z) = 0.30008 0.10879
#
# Static dielectric constant tensor:
#      x y z
#    x 1.716280 0.000000 0.000000 
#    y 0.000000 1.721790 0.000000 
#    z 0.000000 0.000000 1.629930 
# 
# From -- ./inp_files/25399.got.cif
#   From: 2010.05.17/outbox.cif.g08.bks.cpg/sg50_13_cif.got.tgz:25399.got - 2010.06.03 11:33:33.
