data_PCOD9395630
_publ_section_title
;
Structure prediction by ZEFSAII (Michael W. Deem and Ramdas Pophale) SiO2 
 PCOD9395630
Probable space group: P B A N
;
_chemical_formula_sum "Si O2"
_cell_formula_units_Z 40
_cell_length_a 8.906414
_cell_length_b 23.102918
_cell_length_c 8.656287
_cell_angle_alpha 90.000000
_cell_angle_beta 90.000000
_cell_angle_gamma 90.000000
_cell_volume 1781.153557
_symmetry_space_group_name_H-M "P B A N"
_symmetry_group_IT_number 50
_space_group.IT_coordinate_system_code '2'
_symmetry_cell_setting 'orthorhombic'
loop_
_space_group_symop_operation_xyz
x,y,z
1/2-x,1/2-y,z
x,1/2-y,-z
1/2-x,y,-z
-x,-y,-z
1/2+x,1/2+y,-z
-x,1/2+y,z
1/2+x,-y,z
loop_
_atom_site_type_symbol
_atom_site_label
_atom_site_fract_x
_atom_site_fract_y
_atom_site_fract_z
Si Si1 0.074253 0.324508 0.311560
Si Si2 0.757358 0.920973 0.812675
Si Si3 0.521739 0.293573 0.376135
Si Si4 0.561842 0.477278 0.166822
Si Si5 0.756415 0.136064 0.825376
O O1 0.213633 0.357682 0.240632
O O2 0.068223 0.255369 0.281334
O O3 0.070457 0.330258 0.498039
O O4 0.922273 0.353430 0.241826
O O5 0.918898 0.944661 0.763474
O O6 0.631242 0.966155 0.755170
O O7 0.750000 0.921481 0.000000
O O8 0.599513 0.250000 0.500000
O O9 0.637209 0.329509 0.277869
O O10 0.696058 0.430071 0.163274
O O11 0.500000 0.500000 0.000000
O O12 0.750000 0.158946 0.000000
#
# Coordination Sequence:
#
# PCOD9395630 Si02
#       5
#     8   8   8   8   8
#     4   9  20  38  63  87 130 166 208 267 335 386
#     4  10  18  36  59  89 124 163 206 266 320 392
#     4   8  22  41  62  90 136 167 209 276 338 390
#     4  10  21  35  58  91 131 158 206 278 335 375
#     4  12  20  34  64  98 120 169 219 263 327 400
#
# _framework density 22.457357999999999
#
# number of rings (size 3 to 8) (size 9 to 14) (size 15 to 20)
#    1.200    0.800    0.000    6.600    2.800    1.600 
#    0.000    3.000    4.400    6.000    0.000    0.000 
#    0.000    0.000    0.000    0.000    0.000    0.000 
#
# Total GULP energy -222985.298078 kJ/mol
# GULP energy per Si atom -5574.632452 kJ/mol
# Density = 2.240624 g / cm^3
# Si number density = 22.457358 Si / 1000 Ang^3
#
#
#
# Elastic Constant Matrix: (Units=GPa)
#
#
# Indices 1 2 3 4 5 6 
#
# 1 106.4291 41.9843 20.4153 0.0000 0.0000 0.0000
# 2 41.9843 108.7591 34.7014 0.0000 0.0000 0.0000
# 3 20.4153 34.7014 53.0012 0.0000 0.0000 0.0000
# 4 0.0000 0.0000 0.0000 52.9083 0.0000 0.0000
# 5 0.0000 0.0000 0.0000 0.0000 29.1649 0.0000
# 6 0.0000 0.0000 0.0000 0.0000 0.0000 -1.0586
#
#
#
# Elastic Compliance Matrix: (Units=1/GPa)
#
#
# Indices 1 2 3 4 5 6 
#
# 1 0.011230 -0.003735 -0.001880 0.000000 0.000000 0.000000
# 2 -0.003735 0.012865 -0.006984 0.000000 0.000000 0.000000
# 3 -0.001880 -0.006984 0.024165 0.000000 0.000000 0.000000
# 4 0.000000 0.000000 0.000000 0.018901 0.000000 0.000000
# 5 0.000000 0.000000 0.000000 0.000000 0.034288 0.000000
# 6 0.000000 0.000000 0.000000 0.000000 0.000000 -0.944607
#
#
# Mechanical properties :
#
#
# Convention : Reuss Voigt Hill
#
# Bulk Modulus (GPa) = 43.36465 51.37682 47.37074
# Shear Modulus (GPa) = -6.17076 27.60880 10.71902
#
# Velocity S-wave (km/s) = -1.65944 3.51007 2.18710
# Velocity P-wave (km/s) = 3.95980 6.27332 5.24570
#
# Compressibility (1/GPa) = 0.02306026
#
# Stress axis : x y z
#
# Youngs Moduli (GPa) = 89.04672 77.73005 41.38297
#
# Poissons Ratio (x) = 0.29034 0.07780
# Poissons Ratio (y) = 0.33261 0.28903
# Poissons Ratio (z) = 0.16741 0.54289
#
# Static dielectric constant tensor:
#      x y z
#    x 1.894850 0.000000 0.000000 
#    y 0.000000 1.903520 0.000000 
#    z 0.000000 0.000000 1.866380 
# 
# From -- ./inp_files/9533.got.cif
#   From: 2010.05.17/outbox.cif.g08.bks.cpg/sg50_5_cif.got.tgz:9533.got - 2010.06.03 11:33:33.
