data_PCOD9395672
_publ_section_title
;
Structure prediction by ZEFSAII (Michael W. Deem and Ramdas Pophale) SiO2 
 PCOD9395672
Probable space group: P B A N
;
_chemical_formula_sum "Si O2"
_cell_formula_units_Z 64
_cell_length_a 20.820067
_cell_length_b 15.881094
_cell_length_c 9.692871
_cell_angle_alpha 90.000000
_cell_angle_beta 90.000000
_cell_angle_gamma 90.000000
_cell_volume 3204.903607
_symmetry_space_group_name_H-M "P B A N"
_symmetry_group_IT_number 50
_space_group.IT_coordinate_system_code '2'
_symmetry_cell_setting 'orthorhombic'
loop_
_space_group_symop_operation_xyz
x,y,z
1/2-x,1/2-y,z
x,1/2-y,-z
1/2-x,y,-z
-x,-y,-z
1/2+x,1/2+y,-z
-x,1/2+y,z
1/2+x,-y,z
loop_
_atom_site_type_symbol
_atom_site_label
_atom_site_fract_x
_atom_site_fract_y
_atom_site_fract_z
Si Si1 0.586615 0.996915 0.173127
Si Si2 0.903600 0.673280 0.071625
Si Si3 0.465007 0.266094 0.352521
Si Si4 0.025658 0.555611 0.371020
Si Si5 0.845092 0.250439 0.844634
Si Si6 0.809848 0.410093 0.336344
Si Si7 0.474860 0.666141 0.131951
Si Si8 0.668272 0.090080 0.650312
O O1 0.617329 0.923318 0.081984
O O2 0.520179 0.967403 0.242892
O O3 0.636694 0.023528 0.290259
O O4 0.566161 0.083133 0.100576
O O5 0.920545 0.700435 0.228029
O O6 0.865491 0.750000 0.000000
O O7 0.968149 0.668212 0.977588
O O8 0.432910 0.250000 0.500000
O O9 0.514706 0.342884 0.386293
O O10 0.494508 0.180659 0.284741
O O11 0.101009 0.540640 0.342248
O O12 0.000000 0.500000 0.500000
O O13 0.817247 0.170989 0.761539
O O14 0.834145 0.333725 0.757585
O O15 0.921968 0.239216 0.860156
O O16 0.820026 0.250000 0.000000
O O17 0.825839 0.380589 0.491110
O O18 0.738754 0.449557 0.326224
#
# Coordination Sequence:
#
# PCOD9395672 Si02
#       8
#     8   8   8   8   8   8   8   8
#     4  10  20  34  56  81 114 150 194 244 296 349
#     4   9  19  34  51  77 114 152 188 235 301 354
#     4  10  19  29  49  75 110 145 188 236 288 344
#     4  11  20  33  53  82 113 150 193 244 295 344
#     4  11  22  35  56  81 118 166 206 235 278 349
#     4  10  23  39  56  79 115 160 200 244 292 351
#     4  10  19  33  50  80 113 156 190 238 294 342
#     4  11  22  38  56  80 114 158 205 236 291 360
#
# _framework density 19.969398999999999
#
# number of rings (size 3 to 8) (size 9 to 14) (size 15 to 20)
#    0.000    1.750    2.500    3.000    3.500    2.000 
#    0.000    0.000    0.000    0.000    0.000    0.000 
#    0.000   46.000    0.000    0.000    0.000    0.000 
#
# Total GULP energy -356372.499784 kJ/mol
# GULP energy per Si atom -5568.320309 kJ/mol
# Density = 1.992395 g / cm^3
# Si number density = 19.969399 Si / 1000 Ang^3
#
#
#
# Elastic Constant Matrix: (Units=GPa)
#
#
# Indices 1 2 3 4 5 6 
#
# 1 90.4424 -2.5479 20.9361 0.0000 0.0000 0.0000
# 2 -2.5479 73.6595 25.3154 0.0000 0.0000 0.0000
# 3 20.9361 25.3154 109.6709 0.0000 0.0000 0.0000
# 4 0.0000 0.0000 0.0000 26.2993 0.0000 0.0000
# 5 0.0000 0.0000 0.0000 0.0000 4.6584 0.0000
# 6 0.0000 0.0000 0.0000 0.0000 0.0000 11.8414
#
#
#
# Elastic Compliance Matrix: (Units=1/GPa)
#
#
# Indices 1 2 3 4 5 6 
#
# 1 0.011676 0.001271 -0.002522 0.000000 0.000000 0.000000
# 2 0.001271 0.014884 -0.003678 0.000000 0.000000 0.000000
# 3 -0.002522 -0.003678 0.010449 0.000000 0.000000 0.000000
# 4 0.000000 0.000000 0.000000 0.038024 0.000000 0.000000
# 5 0.000000 0.000000 0.000000 0.000000 0.214665 0.000000
# 6 0.000000 0.000000 0.000000 0.000000 0.000000 0.084450
#
#
# Mechanical properties :
#
#
# Convention : Reuss Voigt Hill
#
# Bulk Modulus (GPa) = 36.83301 40.13112 38.48206
# Shear Modulus (GPa) = 12.72080 23.89777 18.30928
#
# Velocity S-wave (km/s) = 2.52665 3.46312 3.03127
# Velocity P-wave (km/s) = 5.19584 6.01089 5.61817
#
# Compressibility (1/GPa) = 0.02714956
#
# Stress axis : x y z
#
# Youngs Moduli (GPa) = 85.64247 67.18572 95.70500
#
# Poissons Ratio (x) = -0.08538 0.24140
# Poissons Ratio (y) = -0.10883 0.35203
# Poissons Ratio (z) = 0.21602 0.24713
#
# Static dielectric constant tensor:
#      x y z
#    x 1.725620 0.000000 0.000000 
#    y 0.000000 1.796530 0.000000 
#    z 0.000000 0.000000 1.747770 
# 
# From -- ./inp_files/15497.got.cif
#   From: 2010.05.17/outbox.cif.g08.bks.cpg/sg50_8_cif.got.tgz:15497.got - 2010.06.03 11:33:33.
