data_PCOD9395821
_publ_section_title
;
Structure prediction by ZEFSAII (Michael W. Deem and Ramdas Pophale) SiO2 
 PCOD9395821
Probable space group: P B A N
;
_chemical_formula_sum "Si O2"
_cell_formula_units_Z 60
_cell_length_a 18.004051
_cell_length_b 18.342723
_cell_length_c 9.077118
_cell_angle_alpha 90.000000
_cell_angle_beta 90.000000
_cell_angle_gamma 90.000000
_cell_volume 2997.657588
_symmetry_space_group_name_H-M "P B A N"
_symmetry_group_IT_number 50
_space_group.IT_coordinate_system_code '2'
_symmetry_cell_setting 'orthorhombic'
loop_
_space_group_symop_operation_xyz
x,y,z
1/2-x,1/2-y,z
x,1/2-y,-z
1/2-x,y,-z
-x,-y,-z
1/2+x,1/2+y,-z
-x,1/2+y,z
1/2+x,-y,z
loop_
_atom_site_type_symbol
_atom_site_label
_atom_site_fract_x
_atom_site_fract_y
_atom_site_fract_z
Si Si1 0.382709 0.935005 0.294372
Si Si2 0.382200 0.015653 0.701415
Si Si3 0.250000 0.961381 0.500000
Si Si4 0.490190 0.720068 0.168487
Si Si5 0.469507 0.152018 0.631743
Si Si6 0.178539 0.786890 0.161189
Si Si7 0.475183 0.418137 0.676033
Si Si8 0.828005 0.056739 0.970413
O O1 0.310512 0.921925 0.395789
O O2 0.449995 0.882376 0.333178
O O3 0.412484 0.019006 0.310646
O O4 0.363358 0.921908 0.124176
O O5 0.407757 0.097797 0.693232
O O6 0.305641 0.002925 0.613214
O O7 0.448709 0.963199 0.642168
O O8 0.377556 0.993576 0.870865
O O9 0.533367 0.772710 0.280880
O O10 0.403863 0.721791 0.223028
O O11 0.514529 0.635472 0.184439
O O12 0.494524 0.750000 0.000000
O O13 0.461419 0.138167 0.457371
O O14 0.250000 0.750000 0.236897
O O15 0.189639 0.872027 0.128124
O O16 0.174717 0.750000 0.000000
O O17 0.750000 0.018619 0.000000
#
# Coordination Sequence:
#
# PCOD9395821 Si02
#       8
#     8   8   4   8   8   8   8   8
#     4  11  23  37  65  90 122 158 209 253 303 363
#     4  11  23  39  63  89 123 157 212 253 299 366
#     4  12  20  40  62  92 122 154 196 254 310 362
#     4  11  24  38  60  88 123 161 204 252 303 357
#     4  11  23  41  61  88 121 167 204 250 310 364
#     4  10  19  34  53  80 129 163 194 234 290 363
#     4  11  22  43  60  88 123 163 204 252 308 369
#     4  12  22  34  60  94 121 166 204 251 302 354
#
# _framework density 20.015629000000001
#
# number of rings (size 3 to 8) (size 9 to 14) (size 15 to 20)
#    0.000    0.933    6.667    2.800    1.867    1.067 
#    0.000    0.000    0.000    3.200    0.000    1.867 
#    0.000    0.000    0.000    0.000    0.000    0.000 
#
# Total GULP energy -334698.942265 kJ/mol
# GULP energy per Si atom -5578.315704 kJ/mol
# Density = 1.997007 g / cm^3
# Si number density = 20.015629 Si / 1000 Ang^3
#
#
#
# Elastic Constant Matrix: (Units=GPa)
#
#
# Indices 1 2 3 4 5 6 
#
# 1 46.8778 9.6729 9.1569 0.0000 0.0000 0.0000
# 2 9.6729 83.1259 23.1530 0.0000 0.0000 0.0000
# 3 9.1569 23.1530 55.5106 0.0000 0.0000 0.0000
# 4 0.0000 0.0000 0.0000 30.3767 0.0000 0.0000
# 5 0.0000 0.0000 0.0000 0.0000 25.2596 0.0000
# 6 0.0000 0.0000 0.0000 0.0000 0.0000 14.0272
#
#
#
# Elastic Compliance Matrix: (Units=1/GPa)
#
#
# Indices 1 2 3 4 5 6 
#
# 1 0.022271 -0.001774 -0.002934 0.000000 0.000000 0.000000
# 2 -0.001774 0.013753 -0.005443 0.000000 0.000000 0.000000
# 3 -0.002934 -0.005443 0.020769 0.000000 0.000000 0.000000
# 4 0.000000 0.000000 0.000000 0.032920 0.000000 0.000000
# 5 0.000000 0.000000 0.000000 0.000000 0.039589 0.000000
# 6 0.000000 0.000000 0.000000 0.000000 0.000000 0.071290
#
#
# Mechanical properties :
#
#
# Convention : Reuss Voigt Hill
#
# Bulk Modulus (GPa) = 27.40501 29.94220 28.67361
# Shear Modulus (GPa) = 21.45390 23.50147 22.47769
#
# Velocity S-wave (km/s) = 3.27747 3.43031 3.35476
# Velocity P-wave (km/s) = 5.29566 5.53907 5.41873
#
# Compressibility (1/GPa) = 0.03648968
#
# Stress axis : x y z
#
# Youngs Moduli (GPa) = 44.90087 72.71370 48.14888
#
# Poissons Ratio (x) = 0.12903 0.14126
# Poissons Ratio (y) = 0.07967 0.26209
# Poissons Ratio (z) = 0.13173 0.39581
#
# Static dielectric constant tensor:
#      x y z
#    x 1.729140 0.000000 0.000000 
#    y 0.000000 1.732950 0.000000 
#    z 0.000000 0.000000 1.794070 
# 
# From -- ./inp_files/14504.got.cif
#   From: 2010.05.17/outbox.cif.g08.bks.cpg/sg50_8_cif.got.tgz:14504.got - 2010.06.03 11:33:33.
