data_PCOD9395154
_publ_section_title
;
Structure prediction by ZEFSAII (Michael W. Deem and Ramdas Pophale) SiO2 
 PCOD9395154
Probable space group: P C C M
;
_chemical_formula_sum "Si O2"
_cell_formula_units_Z 40
_cell_length_a 13.279987
_cell_length_b 15.461138
_cell_length_c 9.519517
_cell_angle_alpha 90.000000
_cell_angle_beta 90.000000
_cell_angle_gamma 90.000000
_cell_volume 1954.582564
_symmetry_space_group_name_H-M "P C C M"
_symmetry_group_IT_number 49
_symmetry_cell_setting 'orthorhombic'
loop_
_space_group_symop_operation_xyz
x,y,z
-x,-y,z
x,-y,1/2-z
-x,y,1/2-z
-x,-y,-z
x,y,-z
-x,y,1/2+z
x,-y,1/2+z
loop_
_atom_site_type_symbol
_atom_site_label
_atom_site_fract_x
_atom_site_fract_y
_atom_site_fract_z
Si Si1 0.080587 0.837789 0.657839
Si Si2 0.822500 0.000000 0.750000
Si Si3 0.670684 0.972116 0.000000
Si Si4 0.892150 0.411017 0.171008
Si Si5 0.265624 0.736140 0.742241
Si Si6 0.591710 0.225953 0.500000
Si Si7 0.366982 0.830780 0.000000
O O1 0.049047 0.860895 0.500000
O O2 0.182061 0.784438 0.650519
O O3 0.000000 0.787208 0.750000
O O4 0.106504 0.917953 0.758793
O O5 0.747146 0.021648 0.627252
O O6 0.619352 0.877991 0.000000
O O7 0.612775 0.065067 0.000000
O O8 0.861572 0.500000 0.250000
O O9 0.799129 0.344118 0.196992
O O10 0.000000 0.392026 0.250000
O O11 0.907283 0.418353 0.000000
O O12 0.360233 0.727876 0.636781
O O13 0.303225 0.800149 0.865433
O O14 0.471276 0.221843 0.500000
#
# Coordination Sequence:
#
# PCOD9395154 Si02
#       7
#     8   4   4   8   8   4   4
#     4  12  26  39  59  89 125 175 219 266 336 401
#     4  12  21  38  57  82 126 168 217 276 333 402
#     4  12  21  42  65  90 128 180 235 294 351 384
#     4  11  25  44  75 113 144 178 216 264 334 412
#     4  12  24  44  67  98 140 174 224 282 341 402
#     4  12  25  44  67  99 130 184 236 294 347 390
#     4  12  25  42  71  97 130 178 240 298 339 404
#
# _framework density 20.464728000000001
#
# number of rings (size 3 to 8) (size 9 to 14) (size 15 to 20)
#    0.000    0.200    7.000    3.000    5.600    2.400 
#    0.000    3.000    0.000    3.600    0.000    0.000 
#    0.000    0.000    0.000    0.000    0.000    0.000 
#
# Total GULP energy -222894.645095 kJ/mol
# GULP energy per Si atom -5572.366127 kJ/mol
# Density = 2.041815 g / cm^3
# Si number density = 20.464728 Si / 1000 Ang^3
#
#
#
# Elastic Constant Matrix: (Units=GPa)
#
#
# Indices 1 2 3 4 5 6 
#
# 1 107.6654 21.7185 36.4576 0.0000 0.0000 0.0000
# 2 21.7185 102.2796 25.6060 0.0000 0.0000 0.0000
# 3 36.4576 25.6060 148.5388 0.0000 0.0000 0.0000
# 4 0.0000 0.0000 0.0000 23.2989 0.0000 0.0000
# 5 0.0000 0.0000 0.0000 0.0000 17.9692 0.0000
# 6 0.0000 0.0000 0.0000 0.0000 0.0000 -0.5801
#
#
#
# Elastic Compliance Matrix: (Units=1/GPa)
#
#
# Indices 1 2 3 4 5 6 
#
# 1 0.010386 -0.001638 -0.002267 0.000000 0.000000 0.000000
# 2 -0.001638 0.010476 -0.001404 0.000000 0.000000 0.000000
# 3 -0.002267 -0.001404 0.007531 0.000000 0.000000 0.000000
# 4 0.000000 0.000000 0.000000 0.042920 0.000000 0.000000
# 5 0.000000 0.000000 0.000000 0.000000 0.055651 0.000000
# 6 0.000000 0.000000 0.000000 0.000000 0.000000 -1.723739
#
#
# Mechanical properties :
#
#
# Convention : Reuss Voigt Hill
#
# Bulk Modulus (GPa) = 56.25660 58.44976 57.35318
# Shear Modulus (GPa) = -3.16409 26.45105 11.64348
#
# Velocity S-wave (km/s) = -1.24478 3.59906 2.38786
# Velocity P-wave (km/s) = 5.04809 6.77453 5.97401
#
# Compressibility (1/GPa) = 0.01777569
#
# Stress axis : x y z
#
# Youngs Moduli (GPa) = 96.28326 95.45255 132.79085
#
# Poissons Ratio (x) = 0.15634 0.30101
# Poissons Ratio (y) = 0.15770 0.18643
# Poissons Ratio (z) = 0.21826 0.13401
#
# Static dielectric constant tensor:
#      x y z
#    x 1.755530 0.000000 0.000000 
#    y 0.000000 1.816200 0.000000 
#    z 0.000000 0.000000 1.706640 
# 
# From -- ./inp_files/3488.got.cif
#   From: 2010.05.17/outbox.cif.g08.bks.cpg/sg49_2_cif.got.tgz:3488.got - 2010.06.03 21:02:19.
