data_PCOD9395297
_publ_section_title
;
Structure prediction by ZEFSAII (Michael W. Deem and Ramdas Pophale) SiO2 
 PCOD9395297
Probable space group: P C C M
;
_chemical_formula_sum "Si O2"
_cell_formula_units_Z 48
_cell_length_a 9.000000
_cell_length_b 30.000000
_cell_length_c 9.000000
_cell_angle_alpha 90.000000
_cell_angle_beta 90.000000
_cell_angle_gamma 90.000000
_cell_volume 2430.000000
_symmetry_space_group_name_H-M "P C C M"
_symmetry_group_IT_number 49
_symmetry_cell_setting 'orthorhombic'
loop_
_space_group_symop_operation_xyz
x,y,z
-x,-y,z
x,-y,1/2-z
-x,y,1/2-z
-x,-y,-z
x,y,-z
-x,y,1/2+z
x,-y,1/2+z
loop_
_atom_site_type_symbol
_atom_site_label
_atom_site_fract_x
_atom_site_fract_y
_atom_site_fract_z
Si Si1 0.836665 0.123613 0.821620
Si Si2 0.344812 0.372355 0.828209
Si Si3 0.161690 0.789385 0.677180
Si Si4 0.662888 0.956287 0.821770
Si Si5 0.155953 0.540002 0.668345
Si Si6 0.662856 0.288509 0.823287
O O1 0.765466 0.169025 0.762162
O O2 0.750651 0.084606 0.742594
O O3 0.000000 0.122951 0.750000
O O4 0.840519 0.120966 0.000000
O O5 0.500000 0.383118 0.750000
O O6 0.246626 0.415430 0.830167
O O7 0.269860 0.335838 0.722196
O O8 0.366541 0.356615 0.000000
O O9 0.152767 0.796005 0.500000
O O10 0.251553 0.747248 0.727382
O O11 0.000000 0.784597 0.750000
O O12 0.500000 0.953676 0.750000
O O13 0.735086 0.000000 0.750000
O O14 0.656380 0.958280 0.000000
O O15 0.238636 0.500000 0.750000
O O16 0.131551 0.526879 0.500000
O O17 0.000000 0.546577 0.750000
O O18 0.500000 0.289851 0.750000
O O19 0.662541 0.280440 0.000000
#
# Coordination Sequence:
#
# PCOD9395297 Si02
#       6
#     8   8   8   8   8   8
#     4  11  22  39  60  86 116 150 189 233 281 334
#     4  10  21  37  56  81 110 144 183 227 274 328
#     4  11  22  39  60  85 115 149 187 231 279 333
#     4  11  22  39  60  86 116 151 190 234 283 335
#     4  10  21  36  56  80 109 142 181 224 272 325
#     4  11  22  38  59  84 113 148 186 231 279 331
#
# _framework density 19.753086
#
# number of rings (size 3 to 8) (size 9 to 14) (size 15 to 20)
#    0.000    1.333    0.000   10.000    0.000    4.667 
#    0.000    8.333    0.000    0.000    0.000    0.000 
#    0.000    0.000    0.000    0.000    0.000    0.000 
#
# Total GULP energy -267472.152305 kJ/mol
# GULP energy per Si atom -5572.336506 kJ/mol
# Density = 1.970813 g / cm^3
# Si number density = 19.753086 Si / 1000 Ang^3
#
#
#
# Elastic Constant Matrix: (Units=GPa)
#
#
# Indices 1 2 3 4 5 6 
#
# 1 20.5834 45.6875 26.8575 0.0000 0.0000 0.0000
# 2 45.6875 112.8636 39.6379 0.0000 0.0000 0.0000
# 3 26.8575 39.6379 201.0602 0.0000 0.0000 0.0000
# 4 0.0000 0.0000 0.0000 21.1615 0.0000 0.0000
# 5 0.0000 0.0000 0.0000 0.0000 28.9267 0.0000
# 6 0.0000 0.0000 0.0000 0.0000 0.0000 46.4635
#
#
#
# Elastic Compliance Matrix: (Units=1/GPa)
#
#
# Indices 1 2 3 4 5 6 
#
# 1 0.682924 -0.262592 -0.039456 0.000000 0.000000 0.000000
# 2 -0.262592 0.110489 0.013295 0.000000 0.000000 0.000000
# 3 -0.039456 0.013295 0.007623 0.000000 0.000000 0.000000
# 4 0.000000 0.000000 0.000000 0.047256 0.000000 0.000000
# 5 0.000000 0.000000 0.000000 0.000000 0.034570 0.000000
# 6 0.000000 0.000000 0.000000 0.000000 0.000000 0.021522
#
#
# Mechanical properties :
#
#
# Convention : Reuss Voigt Hill
#
# Bulk Modulus (GPa) = 4.47370 62.09699 33.28534
# Shear Modulus (GPa) = 3.21254 34.13198 18.67226
#
# Velocity S-wave (km/s) = 1.27667 4.16135 3.07788
# Velocity P-wave (km/s) = 2.10782 7.38877 5.43309
#
# Compressibility (1/GPa) = 0.22352881
#
# Stress axis : x y z
#
# Youngs Moduli (GPa) = 1.46429 9.05065 131.17884
#
# Poissons Ratio (x) = 2.37663 5.17579
# Poissons Ratio (y) = 0.38451 -1.74397
# Poissons Ratio (z) = 0.05778 -0.12032
#
# Static dielectric constant tensor:
#      x y z
#    x 7.737800 0.000000 0.000000 
#    y 0.000000 2.278050 0.000000 
#    z 0.000000 0.000000 1.666970 
# 
# From -- ./inp_files/2105.got.cif
#   From: 2010.05.17/outbox.ucp.g08.bks.cvg/sg49_2_cif.got.tgz:2105.got - 2010.06.11 16:40:14.
