data_PCOD9395784
_publ_section_title
;
Structure prediction by ZEFSAII (Michael W. Deem and Ramdas Pophale) SiO2 
 PCOD9395784
Probable space group: P B A N
;
_chemical_formula_sum "Si O2"
_cell_formula_units_Z 64
_cell_length_a 24.260828
_cell_length_b 26.527294
_cell_length_c 5.094191
_cell_angle_alpha 90.000000
_cell_angle_beta 90.000000
_cell_angle_gamma 90.000000
_cell_volume 3278.489475
_symmetry_space_group_name_H-M "P B A N"
_symmetry_group_IT_number 50
_space_group.IT_coordinate_system_code '2'
_symmetry_cell_setting 'orthorhombic'
loop_
_space_group_symop_operation_xyz
x,y,z
1/2-x,1/2-y,z
x,1/2-y,-z
1/2-x,y,-z
-x,-y,-z
1/2+x,1/2+y,-z
-x,1/2+y,z
1/2+x,-y,z
loop_
_atom_site_type_symbol
_atom_site_label
_atom_site_fract_x
_atom_site_fract_y
_atom_site_fract_z
Si Si1 0.619735 0.151223 0.501994
Si Si2 0.495015 0.340843 0.558276
Si Si3 0.188111 0.498561 0.934219
Si Si4 0.313962 0.810606 0.997698
Si Si5 0.927818 0.807443 0.941633
Si Si6 0.377620 0.532715 0.565623
Si Si7 0.372608 0.404924 0.954865
Si Si8 0.936045 0.562206 0.454438
O O1 0.558152 0.173238 0.485085
O O2 0.655280 0.168108 0.254580
O O3 0.613968 0.091064 0.514170
O O4 0.652824 0.169653 0.753741
O O5 0.455383 0.315158 0.342389
O O6 0.486736 0.401223 0.517597
O O7 0.473111 0.325554 0.843971
O O8 0.167681 0.512954 0.644880
O O9 0.180116 0.438451 0.977641
O O10 0.250000 0.514029 0.000000
O O11 0.146450 0.523712 0.144041
O O12 0.315126 0.750000 0.000000
O O13 0.250000 0.826625 0.000000
O O14 0.877066 0.846107 0.980050
O O15 0.913789 0.750000 0.000000
O O16 0.430883 0.496803 0.519586
O O17 0.418808 0.428882 0.152532
O O18 0.389716 0.414566 0.653826
#
# Coordination Sequence:
#
# PCOD9395784 Si02
#       8
#     8   8   8   8   8   8   8   8
#     4  12  24  38  60  86 106 128 172 224 256 296
#     4  10  21  34  52  80 108 138 171 208 258 306
#     4  10  19  33  53  76 105 139 175 214 256 304
#     4  11  26  46  62  75 100 140 174 209 268 324
#     4  10  19  33  53  76 105 139 175 214 256 304
#     4  10  21  34  52  80 108 138 171 208 258 306
#     4   8  16  30  48  72 102 138 174 206 250 308
#     4   8  16  33  50  70 108 143 166 194 246 321
#
# _framework density 19.521184000000002
#
# number of rings (size 3 to 8) (size 9 to 14) (size 15 to 20)
#    0.000    2.125    0.000    3.000    0.000    7.500 
#    0.000    0.000    0.000   10.875    0.000    0.000 
#    0.000   12.000    0.000    0.000    0.000    2.000 
#
# Total GULP energy -357157.713426 kJ/mol
# GULP energy per Si atom -5580.589272 kJ/mol
# Density = 1.947675 g / cm^3
# Si number density = 19.521184 Si / 1000 Ang^3
#
#
#
# Elastic Constant Matrix: (Units=GPa)
#
#
# Indices 1 2 3 4 5 6 
#
# 1 29.0670 -3.4983 2.9908 0.0000 0.0000 0.0000
# 2 -3.4983 99.5555 -0.6670 0.0000 0.0000 0.0000
# 3 2.9908 -0.6670 99.6281 0.0000 0.0000 0.0000
# 4 0.0000 0.0000 0.0000 26.1293 0.0000 0.0000
# 5 0.0000 0.0000 0.0000 0.0000 19.4487 0.0000
# 6 0.0000 0.0000 0.0000 0.0000 0.0000 16.9734
#
#
#
# Elastic Compliance Matrix: (Units=1/GPa)
#
#
# Indices 1 2 3 4 5 6 
#
# 1 0.034655 0.001211 -0.001032 0.000000 0.000000 0.000000
# 2 0.001211 0.010087 0.000031 0.000000 0.000000 0.000000
# 3 -0.001032 0.000031 0.010069 0.000000 0.000000 0.000000
# 4 0.000000 0.000000 0.000000 0.038271 0.000000 0.000000
# 5 0.000000 0.000000 0.000000 0.000000 0.051417 0.000000
# 6 0.000000 0.000000 0.000000 0.000000 0.000000 0.058916
#
#
# Mechanical properties :
#
#
# Convention : Reuss Voigt Hill
#
# Bulk Modulus (GPa) = 18.10588 25.10017 21.60302
# Shear Modulus (GPa) = 22.58295 27.80529 25.19412
#
# Velocity S-wave (km/s) = 3.40493 3.77817 3.59640
# Velocity P-wave (km/s) = 4.97526 5.64965 5.32315
#
# Compressibility (1/GPa) = 0.05523069
#
# Stress axis : x y z
#
# Youngs Moduli (GPa) = 28.85574 99.13352 99.31940
#
# Poissons Ratio (x) = -0.12003 0.10252
# Poissons Ratio (y) = -0.03494 -0.00310
# Poissons Ratio (z) = 0.02979 -0.00309
#
# Static dielectric constant tensor:
#      x y z
#    x 1.654240 0.000000 0.000000 
#    y 0.000000 1.724440 0.000000 
#    z 0.000000 0.000000 1.647890 
# 
# From -- ./inp_files/6187.got.cif
#   From: 2010.05.17/outbox.cif.g08.bks.cpg/sg50_4_cif.got.tgz:6187.got - 2010.06.03 11:33:33.
