data_PCOD9395675
_publ_section_title
;
Structure prediction by ZEFSAII (Michael W. Deem and Ramdas Pophale) SiO2 
 PCOD9395675
Probable space group: P B A N
;
_chemical_formula_sum "Si O2"
_cell_formula_units_Z 64
_cell_length_a 14.372018
_cell_length_b 24.085401
_cell_length_c 7.155447
_cell_angle_alpha 90.000000
_cell_angle_beta 90.000000
_cell_angle_gamma 90.000000
_cell_volume 2476.899600
_symmetry_space_group_name_H-M "P B A N"
_symmetry_group_IT_number 50
_space_group.IT_coordinate_system_code '2'
_symmetry_cell_setting 'orthorhombic'
loop_
_space_group_symop_operation_xyz
x,y,z
1/2-x,1/2-y,z
x,1/2-y,-z
1/2-x,y,-z
-x,-y,-z
1/2+x,1/2+y,-z
-x,1/2+y,z
1/2+x,-y,z
loop_
_atom_site_type_symbol
_atom_site_label
_atom_site_fract_x
_atom_site_fract_y
_atom_site_fract_z
Si Si1 0.662195 0.630667 0.652542
Si Si2 0.514229 0.808147 0.908939
Si Si3 0.948699 0.121174 0.411743
Si Si4 0.381538 0.996843 0.322440
Si Si5 0.859288 0.750090 0.707948
Si Si6 0.353909 0.764433 0.285021
Si Si7 0.673864 0.512319 0.760497
Si Si8 0.961111 0.079100 0.814339
O O1 0.750000 0.632802 0.500000
O O2 0.559439 0.625003 0.564748
O O3 0.637207 0.685598 0.773268
O O4 0.674413 0.578192 0.788256
O O5 0.604671 0.809245 0.778461
O O6 0.424798 0.777741 0.813846
O O7 0.485323 0.870244 0.952284
O O8 0.549918 0.750000 0.000000
O O9 0.899287 0.173107 0.302489
O O10 0.917810 0.110360 0.628935
O O11 0.927884 0.063265 0.310743
O O12 0.447514 0.044545 0.242876
O O13 0.280255 0.994794 0.233806
O O14 0.363133 0.007570 0.544531
O O15 0.750000 0.750000 0.692691
O O16 0.903816 0.750000 0.500000
O O17 0.250000 0.750000 0.212008
O O18 0.350396 0.750000 0.500000
O O19 0.610221 0.469271 0.872431
#
# Coordination Sequence:
#
# PCOD9395675 Si02
#       8
#     8   8   8   8   8   8   8   8
#     4  12  18  31  54  94 129 161 208 266 341 404
#     4  12  27  44  62  88 133 181 221 271 334 405
#     4  11  19  34  58  90 132 161 212 278 344 390
#     4  10  19  30  52  91 130 165 201 269 343 394
#     4  11  23  37  65  96 125 169 220 282 340 394
#     4  11  24  40  66  95 122 166 225 289 343 391
#     4  10  19  29  53  91 131 164 200 264 343 402
#     4  11  20  36  57  88 133 166 212 266 328 402
#
# _framework density 25.838753000000001
#
# number of rings (size 3 to 8) (size 9 to 14) (size 15 to 20)
#    0.000    1.000    7.500    1.875    3.500    1.500 
#    0.000    0.000    0.000    3.000    0.000    1.750 
#    0.000    0.000    0.000    0.000    0.000    0.000 
#
# Total GULP energy -356417.105040 kJ/mol
# GULP energy per Si atom -5569.017266 kJ/mol
# Density = 2.577994 g / cm^3
# Si number density = 25.838753 Si / 1000 Ang^3
#
#
#
# Elastic Constant Matrix: (Units=GPa)
#
#
# Indices 1 2 3 4 5 6 
#
# 1 137.2596 80.6688 7.5969 0.0000 0.0000 0.0000
# 2 80.6688 249.3100 45.0543 0.0000 0.0000 0.0000
# 3 7.5969 45.0543 29.6188 0.0000 0.0000 0.0000
# 4 0.0000 0.0000 0.0000 29.4552 0.0000 0.0000
# 5 0.0000 0.0000 0.0000 0.0000 2.4420 0.0000
# 6 0.0000 0.0000 0.0000 0.0000 0.0000 14.8090
#
#
#
# Elastic Compliance Matrix: (Units=1/GPa)
#
#
# Indices 1 2 3 4 5 6 
#
# 1 0.009184 -0.003511 0.002985 0.000000 0.000000 0.000000
# 2 -0.003511 0.006874 -0.009556 0.000000 0.000000 0.000000
# 3 0.002985 -0.009556 0.047532 0.000000 0.000000 0.000000
# 4 0.000000 0.000000 0.000000 0.033950 0.000000 0.000000
# 5 0.000000 0.000000 0.000000 0.000000 0.409504 0.000000
# 6 0.000000 0.000000 0.000000 0.000000 0.000000 0.067526
#
#
# Mechanical properties :
#
#
# Convention : Reuss Voigt Hill
#
# Bulk Modulus (GPa) = 23.02722 75.86985 49.44853
# Shear Modulus (GPa) = 8.20737 28.19913 18.20325
#
# Velocity S-wave (km/s) = 1.78417 3.30714 2.65711
# Velocity P-wave (km/s) = 3.62982 6.63396 5.34720
#
# Compressibility (1/GPa) = 0.04342687
#
# Stress axis : x y z
#
# Youngs Moduli (GPa) = 108.88845 145.47531 21.03832
#
# Poissons Ratio (x) = 0.51077 -0.06280
# Poissons Ratio (y) = 0.38231 0.20104
# Poissons Ratio (z) = -0.32506 1.39013
#
# Static dielectric constant tensor:
#      x y z
#    x 2.102310 0.000000 0.000000 
#    y 0.000000 2.339850 0.000000 
#    z 0.000000 0.000000 2.435370 
# 
# From -- ./inp_files/13482.got.cif
#   From: 2010.05.17/outbox.cif.g08.bks.cpg/sg50_7_cif.got.tgz:13482.got - 2010.06.03 11:33:33.
