data_PCOD9395645
_publ_section_title
;
Structure prediction by ZEFSAII (Michael W. Deem and Ramdas Pophale) SiO2 
 PCOD9395645
Probable space group: P B A N
;
_chemical_formula_sum "Si O2"
_cell_formula_units_Z 38
_cell_length_a 29.246147
_cell_length_b 11.827263
_cell_length_c 5.087220
_cell_angle_alpha 90.000000
_cell_angle_beta 90.000000
_cell_angle_gamma 90.000000
_cell_volume 1759.678923
_symmetry_space_group_name_H-M "P B A N"
_symmetry_group_IT_number 50
_space_group.IT_coordinate_system_code '2'
_symmetry_cell_setting 'orthorhombic'
loop_
_space_group_symop_operation_xyz
x,y,z
1/2-x,1/2-y,z
x,1/2-y,-z
1/2-x,y,-z
-x,-y,-z
1/2+x,1/2+y,-z
-x,1/2+y,z
1/2+x,-y,z
loop_
_atom_site_type_symbol
_atom_site_label
_atom_site_fract_x
_atom_site_fract_y
_atom_site_fract_z
Si Si1 0.703819 0.065533 0.869211
Si Si2 0.423318 0.611978 0.293163
Si Si3 0.005174 0.250000 0.500000
Si Si4 0.750000 0.250000 0.500000
Si Si5 0.890695 0.971657 0.211492
Si Si6 0.139329 0.750000 0.000000
Si Si7 0.936647 0.750000 0.000000
O O1 0.719590 0.160888 0.662298
O O2 0.673374 0.145748 0.054072
O O3 0.664885 0.978830 0.783854
O O4 0.750000 0.020238 0.000000
O O5 0.473611 0.651877 0.374605
O O6 0.405483 0.526228 0.513653
O O7 0.395341 0.729355 0.239459
O O8 0.414647 0.548969 0.014886
O O9 0.033472 0.205562 0.247773
O O10 0.907049 0.847420 0.137852
#
# Coordination Sequence:
#
# PCOD9395645 Si02
#       7
#     8   8   4   2   8   4   4
#     4  11  21  35  59  96 130 168 205 258 329 405
#     4  11  23  41  68  99 133 168 211 276 340 406
#     4  12  24  43  70 100 126 168 222 276 347 394
#     4  12  18  34  64 102 138 156 202 268 328 418
#     4  11  26  43  64  95 134 180 220 269 335 381
#     4  10  18  38  58  99 146 163 198 262 350 416
#     4  12  27  46  65  89 130 181 237 280 305 388
#
# _framework density 21.594847999999999
#
# number of rings (size 3 to 8) (size 9 to 14) (size 15 to 20)
#    0.000    0.842    2.105    6.947    2.947    5.053 
#    0.000    0.526    0.000    0.000    0.000    0.000 
#    0.000    0.000    0.000    0.000    0.000    0.000 
#
# Total GULP energy -211676.671901 kJ/mol
# GULP energy per Si atom -5570.438734 kJ/mol
# Density = 2.154570 g / cm^3
# Si number density = 21.594848 Si / 1000 Ang^3
#
#
#
# Elastic Constant Matrix: (Units=GPa)
#
#
# Indices 1 2 3 4 5 6 
#
# 1 126.0906 43.3558 40.7128 0.0000 0.0000 0.0000
# 2 43.3558 76.3920 28.0242 0.0000 0.0000 0.0000
# 3 40.7128 28.0242 145.4080 0.0000 0.0000 0.0000
# 4 0.0000 0.0000 0.0000 30.1704 0.0000 0.0000
# 5 0.0000 0.0000 0.0000 0.0000 -93.5465 0.0000
# 6 0.0000 0.0000 0.0000 0.0000 0.0000 -42.9508
#
#
#
# Elastic Compliance Matrix: (Units=1/GPa)
#
#
# Indices 1 2 3 4 5 6 
#
# 1 0.010317 -0.005160 -0.001894 0.000000 0.000000 0.000000
# 2 -0.005160 0.016667 -0.001767 0.000000 0.000000 0.000000
# 3 -0.001894 -0.001767 0.007748 0.000000 0.000000 0.000000
# 4 0.000000 0.000000 0.000000 0.033145 0.000000 0.000000
# 5 0.000000 0.000000 0.000000 0.000000 -0.010690 0.000000
# 6 0.000000 0.000000 0.000000 0.000000 0.000000 -0.023282
#
#
# Mechanical properties :
#
#
# Convention : Reuss Voigt Hill
#
# Bulk Modulus (GPa) = 58.51827 63.56401 61.04114
# Shear Modulus (GPa) = 87.34372 -5.54554 40.89909
#
# Velocity S-wave (km/s) = 6.36666 -1.60423 4.35665
# Velocity P-wave (km/s) = 9.01127 5.10561 7.32360
#
# Compressibility (1/GPa) = 0.01708868
#
# Stress axis : x y z
#
# Youngs Moduli (GPa) = 96.92981 59.99701 129.06309
#
# Poissons Ratio (x) = 0.30961 0.24445
# Poissons Ratio (y) = 0.50019 0.22811
# Poissons Ratio (z) = 0.18359 0.10604
#
# Static dielectric constant tensor:
#      x y z
#    x 1.894830 0.000000 0.000000 
#    y 0.000000 2.081450 0.000000 
#    z 0.000000 0.000000 2.101730 
# 
# From -- ./inp_files/6486.got.cif
#   From: 2010.05.17/outbox.cif.g08.bks.cpg/sg50_4_cif.got.tgz:6486.got - 2010.06.03 11:33:33.
