data_PCOD9395881
_publ_section_title
;
Structure prediction by ZEFSAII (Michael W. Deem and Ramdas Pophale) SiO2 
 PCOD9395881
Probable space group: P B A N
;
_chemical_formula_sum "Si O2"
_cell_formula_units_Z 64
_cell_length_a 17.953303
_cell_length_b 22.474733
_cell_length_c 9.005446
_cell_angle_alpha 90.000000
_cell_angle_beta 90.000000
_cell_angle_gamma 90.000000
_cell_volume 3633.658660
_symmetry_space_group_name_H-M "P B A N"
_symmetry_group_IT_number 50
_space_group.IT_coordinate_system_code '2'
_symmetry_cell_setting 'orthorhombic'
loop_
_space_group_symop_operation_xyz
x,y,z
1/2-x,1/2-y,z
x,1/2-y,-z
1/2-x,y,-z
-x,-y,-z
1/2+x,1/2+y,-z
-x,1/2+y,z
1/2+x,-y,z
loop_
_atom_site_type_symbol
_atom_site_label
_atom_site_fract_x
_atom_site_fract_y
_atom_site_fract_z
Si Si1 0.032489 0.887424 0.679366
Si Si2 0.483976 0.258624 0.322696
Si Si3 0.563231 0.533991 0.899221
Si Si4 0.168602 0.229109 0.828190
Si Si5 0.166625 0.974814 0.658680
Si Si6 0.116264 0.406160 0.179900
Si Si7 0.163151 0.954904 0.312939
Si Si8 0.465439 0.630420 0.329663
O O1 0.026948 0.818243 0.722831
O O2 0.108729 0.923323 0.703420
O O3 0.016505 0.883691 0.502644
O O4 0.974860 0.925743 0.773854
O O5 0.476810 0.250000 0.500000
O O6 0.401338 0.258497 0.255253
O O7 0.527107 0.198595 0.280869
O O8 0.620153 0.491702 0.812397
O O9 0.500000 0.500000 0.000000
O O10 0.609739 0.575282 0.009664
O O11 0.250000 0.250000 0.773814
O O12 0.156185 0.157905 0.807914
O O13 0.163893 0.250000 0.000000
O O14 0.155432 0.981084 0.480530
O O15 0.248610 0.953185 0.703851
O O16 0.152339 0.038693 0.732874
O O17 0.031281 0.401337 0.239355
O O18 0.117795 0.893351 0.310282
#
# Coordination Sequence:
#
# PCOD9395881 Si02
#       8
#     8   8   8   8   8   8   8   8
#     4  10  19  35  55  79 111 138 184 224 275 329
#     4   9  19  35  58  80 100 139 186 229 268 317
#     4  12  21  33  55  84 108 143 183 227 276 335
#     4  10  22  38  53  74 109 147 177 220 276 327
#     4  10  21  36  54  81 108 149 173 227 283 331
#     4  11  21  36  55  80 109 140 189 221 274 330
#     4  10  21  36  54  77 114 141 182 220 282 333
#     4   9  18  36  57  76 105 146 181 229 265 331
#
# _framework density 17.613102000000001
#
# number of rings (size 3 to 8) (size 9 to 14) (size 15 to 20)
#    0.000    1.875    2.500    1.500    0.000    5.750 
#    0.000    3.125    0.000    3.750    0.000    0.000 
#    0.000    0.000    0.000    0.000    0.000    0.000 
#
# Total GULP energy -356557.207024 kJ/mol
# GULP energy per Si atom -5571.206360 kJ/mol
# Density = 1.757301 g / cm^3
# Si number density = 17.613102 Si / 1000 Ang^3
#
#
#
# Elastic Constant Matrix: (Units=GPa)
#
#
# Indices 1 2 3 4 5 6 
#
# 1 92.9160 56.2407 33.6183 0.0000 0.0000 0.0000
# 2 56.2407 101.3013 28.1899 0.0000 0.0000 0.0000
# 3 33.6183 28.1899 28.5790 0.0000 0.0000 0.0000
# 4 0.0000 0.0000 0.0000 20.9701 0.0000 0.0000
# 5 0.0000 0.0000 0.0000 0.0000 18.4554 0.0000
# 6 0.0000 0.0000 0.0000 0.0000 0.0000 19.9646
#
#
#
# Elastic Compliance Matrix: (Units=1/GPa)
#
#
# Indices 1 2 3 4 5 6 
#
# 1 0.021682 -0.006809 -0.018789 0.000000 0.000000 0.000000
# 2 -0.006809 0.015745 -0.007521 0.000000 0.000000 0.000000
# 3 -0.018789 -0.007521 0.064511 0.000000 0.000000 0.000000
# 4 0.000000 0.000000 0.000000 0.047687 0.000000 0.000000
# 5 0.000000 0.000000 0.000000 0.000000 0.054185 0.000000
# 6 0.000000 0.000000 0.000000 0.000000 0.000000 0.050089
#
#
# Mechanical properties :
#
#
# Convention : Reuss Voigt Hill
#
# Bulk Modulus (GPa) = 28.01081 50.98826 39.49953
# Shear Modulus (GPa) = 15.05869 18.86119 16.95994
#
# Velocity S-wave (km/s) = 2.92716 3.27595 3.10646
# Velocity P-wave (km/s) = 5.23090 6.58187 5.94488
#
# Compressibility (1/GPa) = 0.03570051
#
# Stress axis : x y z
#
# Youngs Moduli (GPa) = 46.12182 63.51403 15.50125
#
# Poissons Ratio (x) = 0.43246 0.29125
# Poissons Ratio (y) = 0.31404 0.11658
# Poissons Ratio (z) = 0.86657 0.47768
#
# Static dielectric constant tensor:
#      x y z
#    x 1.553480 0.000000 0.000000 
#    y 0.000000 1.622920 0.000000 
#    z 0.000000 0.000000 1.618180 
# 
# From -- ./inp_files/13480.got.cif
#   From: 2010.05.17/outbox.cif.g08.bks.cpg/sg50_7_cif.got.tgz:13480.got - 2010.06.03 11:33:33.
