data_PCOD9395400
_publ_section_title
;
Structure prediction by ZEFSAII (Michael W. Deem and Ramdas Pophale) SiO2 
 PCOD9395400
Probable space group: P B A N
;
_chemical_formula_sum "Si O2"
_cell_formula_units_Z 48
_cell_length_a 8.443438
_cell_length_b 17.796459
_cell_length_c 18.211710
_cell_angle_alpha 90.000000
_cell_angle_beta 90.000000
_cell_angle_gamma 90.000000
_cell_volume 2736.551610
_symmetry_space_group_name_H-M "P B A N"
_symmetry_group_IT_number 50
_space_group.IT_coordinate_system_code '2'
_symmetry_cell_setting 'orthorhombic'
loop_
_space_group_symop_operation_xyz
x,y,z
1/2-x,1/2-y,z
x,1/2-y,-z
1/2-x,y,-z
-x,-y,-z
1/2+x,1/2+y,-z
-x,1/2+y,z
1/2+x,-y,z
loop_
_atom_site_type_symbol
_atom_site_label
_atom_site_fract_x
_atom_site_fract_y
_atom_site_fract_z
Si Si1 0.790776 0.165398 0.729405
Si Si2 0.128222 0.461010 0.626763
Si Si3 0.319040 0.897411 0.425633
Si Si4 0.087884 0.072443 0.724923
Si Si5 0.373080 0.036183 0.945749
Si Si6 0.642966 0.451077 0.155953
O O1 0.750000 0.250000 0.749063
O O2 0.728638 0.147753 0.647330
O O3 0.705888 0.107529 0.784668
O O4 0.976739 0.144627 0.731875
O O5 0.230480 0.521809 0.582177
O O6 0.251302 0.417013 0.678814
O O7 0.007342 0.412702 0.577960
O O8 0.017180 0.511385 0.679804
O O9 0.250000 0.862731 0.500000
O O10 0.118127 0.030280 0.801487
O O11 0.480501 0.074493 0.883169
O O12 0.274531 0.970861 0.904650
O O13 0.250000 0.078237 0.000000
O O14 0.500000 0.000000 0.000000
#
# Coordination Sequence:
#
# PCOD9395400 Si02
#       6
#     8   8   8   8   8   8
#     4  11  23  35  52  84 116 148 194 232 291 347
#     4   9  16  29  51  80 106 130 196 245 273 326
#     4  10  19  32  52  78 113 148 188 240 292 335
#     4  10  16  31  56  81 107 142 187 237 274 320
#     4   9  19  30  53  92 109 131 180 236 279 331
#     4  11  16  33  59  79 111 143 185 233 271 334
#
# _framework density 17.540323000000001
#
# number of rings (size 3 to 8) (size 9 to 14) (size 15 to 20)
#    0.000    2.000    6.667    0.500    0.000    0.333 
#    0.000    0.833    0.000    4.500    4.333    7.000 
#    0.000    0.000    0.000    0.000    0.000    0.000 
#
# Total GULP energy -267311.331567 kJ/mol
# GULP energy per Si atom -5568.986074 kJ/mol
# Density = 1.750040 g / cm^3
# Si number density = 17.540323 Si / 1000 Ang^3
#
#
#
# Elastic Constant Matrix: (Units=GPa)
#
#
# Indices 1 2 3 4 5 6 
#
# 1 123.6179 21.7920 41.8007 0.0000 0.0000 0.0000
# 2 21.7920 48.6967 13.8379 0.0000 0.0000 0.0000
# 3 41.8007 13.8379 98.7639 0.0000 0.0000 0.0000
# 4 0.0000 0.0000 0.0000 0.2426 0.0000 0.0000
# 5 0.0000 0.0000 0.0000 0.0000 36.6471 0.0000
# 6 0.0000 0.0000 0.0000 0.0000 0.0000 7.6135
#
#
#
# Elastic Compliance Matrix: (Units=1/GPa)
#
#
# Indices 1 2 3 4 5 6 
#
# 1 0.009951 -0.003391 -0.003736 0.000000 0.000000 0.000000
# 2 -0.003391 0.022543 -0.001723 0.000000 0.000000 0.000000
# 3 -0.003736 -0.001723 0.011948 0.000000 0.000000 0.000000
# 4 0.000000 0.000000 0.000000 4.122759 0.000000 0.000000
# 5 0.000000 0.000000 0.000000 0.000000 0.027287 0.000000
# 6 0.000000 0.000000 0.000000 0.000000 0.000000 0.131346
#
#
# Mechanical properties :
#
#
# Convention : Reuss Voigt Hill
#
# Bulk Modulus (GPa) = 37.39760 47.32664 42.36212
# Shear Modulus (GPa) = 1.14878 21.81050 11.47964
#
# Velocity S-wave (km/s) = 0.81016 3.53008 2.56104
# Velocity P-wave (km/s) = 4.71618 6.60723 5.74012
#
# Compressibility (1/GPa) = 0.02673968
#
# Stress axis : x y z
#
# Youngs Moduli (GPa) = 100.49548 44.36057 83.69628
#
# Poissons Ratio (x) = 0.15044 0.31272
# Poissons Ratio (y) = 0.34080 0.14422
# Poissons Ratio (z) = 0.37549 0.07644
#
# Static dielectric constant tensor:
#      x y z
#    x 1.660420 0.000000 0.000000 
#    y 0.000000 1.549950 0.000000 
#    z 0.000000 0.000000 1.664820 
# 
# From -- ./inp_files/28823.got.cif
#   From: 2010.05.17/outbox.cif.g08.bks.cpg/sg50_15_cif.got.tgz:28823.got - 2010.06.03 11:33:33.
