data_PCOD9395479
_publ_section_title
;
Structure prediction by ZEFSAII (Michael W. Deem and Ramdas Pophale) SiO2 
 PCOD9395479
Probable space group: P B A N
;
_chemical_formula_sum "Si O2"
_cell_formula_units_Z 30
_cell_length_a 10.076805
_cell_length_b 15.370033
_cell_length_c 8.757451
_cell_angle_alpha 90.000000
_cell_angle_beta 90.000000
_cell_angle_gamma 90.000000
_cell_volume 1356.361239
_symmetry_space_group_name_H-M "P B A N"
_symmetry_group_IT_number 50
_space_group.IT_coordinate_system_code '2'
_symmetry_cell_setting 'orthorhombic'
loop_
_space_group_symop_operation_xyz
x,y,z
1/2-x,1/2-y,z
x,1/2-y,-z
1/2-x,y,-z
-x,-y,-z
1/2+x,1/2+y,-z
-x,1/2+y,z
1/2+x,-y,z
loop_
_atom_site_type_symbol
_atom_site_label
_atom_site_fract_x
_atom_site_fract_y
_atom_site_fract_z
Si Si1 0.606657 0.599164 0.315332
Si Si2 0.250000 0.250000 0.500000
Si Si3 0.750000 0.118543 0.000000
Si Si4 0.043821 0.346762 0.971323
Si Si5 0.639207 0.505296 0.738717
O O1 0.651783 0.689131 0.396736
O O2 0.587095 0.608349 0.130966
O O3 0.731180 0.538193 0.344605
O O4 0.470660 0.548799 0.354440
O O5 0.614822 0.164307 0.948423
O O6 0.695946 0.059609 0.135103
O O7 0.413549 0.409144 0.168398
O O8 0.098355 0.250000 0.000000
#
# Coordination Sequence:
#
# PCOD9395479 Si02
#       5
#     8   2   4   8   8
#     4  11  23  40  64  87 130 166 225 263 329 387
#     4  12  28  44  58  94 128 190 232 276 288 392
#     4  10  17  34  55  98 130 154 192 257 360 400
#     4  11  20  33  61 100 128 160 205 278 346 390
#     4  11  19  39  67  94 121 166 206 278 340 400
#
# _framework density 22.118001
#
# number of rings (size 3 to 8) (size 9 to 14) (size 15 to 20)
#    0.000    1.067    5.333    3.600    0.000    2.133 
#    0.000    0.000    0.000    1.600    0.000    0.000 
#    0.000    0.000    0.000    0.000    0.000    0.000 
#
# Total GULP energy -167167.203350 kJ/mol
# GULP energy per Si atom -5572.240112 kJ/mol
# Density = 2.206766 g / cm^3
# Si number density = 22.118001 Si / 1000 Ang^3
#
#
#
# Elastic Constant Matrix: (Units=GPa)
#
#
# Indices 1 2 3 4 5 6 
#
# 1 199.2062 58.8404 29.6837 0.0000 0.0000 0.0000
# 2 58.8404 97.0356 -1.4562 0.0000 0.0000 0.0000
# 3 29.6837 -1.4562 50.6057 0.0000 0.0000 0.0000
# 4 0.0000 0.0000 0.0000 -22.8011 0.0000 0.0000
# 5 0.0000 0.0000 0.0000 0.0000 -1.3621 0.0000
# 6 0.0000 0.0000 0.0000 0.0000 0.0000 2.9927
#
#
#
# Elastic Compliance Matrix: (Units=1/GPa)
#
#
# Indices 1 2 3 4 5 6 
#
# 1 0.006894 -0.004243 -0.004166 0.000000 0.000000 0.000000
# 2 -0.004243 0.012921 0.002861 0.000000 0.000000 0.000000
# 3 -0.004166 0.002861 0.022286 0.000000 0.000000 0.000000
# 4 0.000000 0.000000 0.000000 -0.043858 0.000000 0.000000
# 5 0.000000 0.000000 0.000000 0.000000 -0.734143 0.000000
# 6 0.000000 0.000000 0.000000 0.000000 0.000000 0.334141
#
#
# Mechanical properties :
#
#
# Convention : Reuss Voigt Hill
#
# Bulk Modulus (GPa) = 32.25258 57.88704 45.06981
# Shear Modulus (GPa) = -13.14662 13.08455 -0.03104
#
# Velocity S-wave (km/s) = -2.44065 2.43488 -0.11858
# Velocity P-wave (km/s) = 2.58290 5.84239 4.51691
#
# Compressibility (1/GPa) = 0.03100527
#
# Stress axis : x y z
#
# Youngs Moduli (GPa) = 145.05580 77.39222 44.87029
#
# Poissons Ratio (x) = 0.32836 0.18692
# Poissons Ratio (y) = 0.61545 -0.12835
# Poissons Ratio (z) = 0.60428 -0.22138
#
# Static dielectric constant tensor:
#      x y z
#    x 1.865560 0.000000 0.000000 
#    y 0.000000 1.951190 0.000000 
#    z 0.000000 0.000000 1.706220 
# 
# From -- ./inp_files/18410.got.cif
#   From: 2010.05.17/outbox.cif.g08.bks.cpg/sg50_10_cif.got.tgz:18410.got - 2010.06.03 11:33:33.
