data_PCOD9395668
_publ_section_title
;
Structure prediction by ZEFSAII (Michael W. Deem and Ramdas Pophale) SiO2 
 PCOD9395668
Probable space group: P B A N
;
_chemical_formula_sum "Si O2"
_cell_formula_units_Z 48
_cell_length_a 30.046600
_cell_length_b 13.944013
_cell_length_c 5.273634
_cell_angle_alpha 90.000000
_cell_angle_beta 90.000000
_cell_angle_gamma 90.000000
_cell_volume 2209.495392
_symmetry_space_group_name_H-M "P B A N"
_symmetry_group_IT_number 50
_space_group.IT_coordinate_system_code '2'
_symmetry_cell_setting 'orthorhombic'
loop_
_space_group_symop_operation_xyz
x,y,z
1/2-x,1/2-y,z
x,1/2-y,-z
1/2-x,y,-z
-x,-y,-z
1/2+x,1/2+y,-z
-x,1/2+y,z
1/2+x,-y,z
loop_
_atom_site_type_symbol
_atom_site_label
_atom_site_fract_x
_atom_site_fract_y
_atom_site_fract_z
Si Si1 0.913643 0.153726 0.576799
Si Si2 0.196543 0.857915 0.005337
Si Si3 0.303240 0.519953 0.506015
Si Si4 0.036568 0.874207 0.917919
Si Si5 0.887884 0.572212 0.444653
Si Si6 0.939121 0.900712 0.061268
O O1 0.886304 0.250000 0.500000
O O2 0.953073 0.157293 0.367088
O O3 0.897236 0.043828 0.547200
O O4 0.930383 0.162039 0.863391
O O5 0.184814 0.922726 0.763674
O O6 0.178265 0.750000 0.000000
O O7 0.250000 0.849900 0.000000
O O8 0.186528 0.912121 0.265068
O O9 0.250000 0.501271 0.500000
O O10 0.334754 0.427465 0.481628
O O11 0.046600 0.987716 0.920248
O O12 0.986405 0.853416 0.002097
O O13 0.914461 0.620585 0.675579
O O14 0.906096 0.609061 0.177024
#
# Coordination Sequence:
#
# PCOD9395668 Si02
#       6
#     8   8   8   8   8   8
#     4  10  19  29  42  63  89 112 137 171 213 253
#     4   9  17  28  40  52  68  97 138 177 209 247
#     4  10  19  30  42  57  79 107 141 178 217 252
#     4   9  17  30  46  62  81 108 138 172 210 251
#     4  10  19  30  43  62  83 109 145 182 212 242
#     4   9  17  30  47  62  78 103 143 181 206 244
#
# _framework density 21.724416000000002
#
# number of rings (size 3 to 8) (size 9 to 14) (size 15 to 20)
#    0.000    2.500    0.000    3.000    0.000    7.333 
#    0.000    0.000    0.000    0.000    0.000    0.000 
#    0.000    0.000    0.000    0.000    0.000   58.333 
#
# Total GULP energy -267819.451238 kJ/mol
# GULP energy per Si atom -5579.571901 kJ/mol
# Density = 2.167497 g / cm^3
# Si number density = 21.724416 Si / 1000 Ang^3
#
#
#
# Elastic Constant Matrix: (Units=GPa)
#
#
# Indices 1 2 3 4 5 6 
#
# 1 81.7272 -10.2763 35.4732 0.0000 0.0000 0.0000
# 2 -10.2763 21.7353 1.1119 0.0000 0.0000 0.0000
# 3 35.4732 1.1119 148.3761 0.0000 0.0000 0.0000
# 4 0.0000 0.0000 0.0000 -1.5741 0.0000 0.0000
# 5 0.0000 0.0000 0.0000 0.0000 31.1336 0.0000
# 6 0.0000 0.0000 0.0000 0.0000 0.0000 -13.7081
#
#
#
# Elastic Compliance Matrix: (Units=1/GPa)
#
#
# Indices 1 2 3 4 5 6 
#
# 1 0.014678 0.007122 -0.003562 0.000000 0.000000 0.000000
# 2 0.007122 0.049481 -0.002073 0.000000 0.000000 0.000000
# 3 -0.003562 -0.002073 0.007607 0.000000 0.000000 0.000000
# 4 0.000000 0.000000 0.000000 -0.635304 0.000000 0.000000
# 5 0.000000 0.000000 0.000000 0.000000 0.032120 0.000000
# 6 0.000000 0.000000 0.000000 0.000000 0.000000 -0.072950
#
#
# Mechanical properties :
#
#
# Convention : Reuss Voigt Hill
#
# Bulk Modulus (GPa) = 13.38019 33.82845 23.60432
# Shear Modulus (GPa) = -8.58476 18.20563 4.81043
#
# Velocity S-wave (km/s) = -1.99004 2.89801 1.48967
# Velocity P-wave (km/s) = 0.94451 5.17720 3.72125
#
# Compressibility (1/GPa) = 0.07473737
#
# Stress axis : x y z
#
# Youngs Moduli (GPa) = 68.13123 20.20967 131.46033
#
# Poissons Ratio (x) = -0.14393 0.46832
# Poissons Ratio (y) = -0.48521 0.27258
# Poissons Ratio (z) = 0.24271 0.04190
#
# Static dielectric constant tensor:
#      x y z
#    x 2.179340 0.000000 0.000000 
#    y 0.000000 1.863830 0.000000 
#    z 0.000000 0.000000 1.584470 
# 
# From -- ./inp_files/5994.got.cif
#   From: 2010.05.17/outbox.cif.g08.bks.cpg/sg50_3_cif.got.tgz:5994.got - 2010.06.03 11:33:33.
