data_PCOD9395745
_publ_section_title
;
Structure prediction by ZEFSAII (Michael W. Deem and Ramdas Pophale) SiO2 
 PCOD9395745
Probable space group: P B A N
;
_chemical_formula_sum "Si O2"
_cell_formula_units_Z 64
_cell_length_a 15.564453
_cell_length_b 24.944302
_cell_length_c 8.673572
_cell_angle_alpha 90.000000
_cell_angle_beta 90.000000
_cell_angle_gamma 90.000000
_cell_volume 3367.465897
_symmetry_space_group_name_H-M "P B A N"
_symmetry_group_IT_number 50
_space_group.IT_coordinate_system_code '2'
_symmetry_cell_setting 'orthorhombic'
loop_
_space_group_symop_operation_xyz
x,y,z
1/2-x,1/2-y,z
x,1/2-y,-z
1/2-x,y,-z
-x,-y,-z
1/2+x,1/2+y,-z
-x,1/2+y,z
1/2+x,-y,z
loop_
_atom_site_type_symbol
_atom_site_label
_atom_site_fract_x
_atom_site_fract_y
_atom_site_fract_z
Si Si1 0.728453 0.926426 0.681872
Si Si2 0.217569 0.958597 0.326287
Si Si3 0.441290 0.069677 0.163996
Si Si4 0.467447 0.015804 0.666143
Si Si5 0.039747 0.804239 0.901186
Si Si6 0.400562 0.389915 0.168777
Si Si7 0.345469 0.741855 0.319654
Si Si8 0.620419 0.368636 0.834540
O O1 0.750000 0.923888 0.500000
O O2 0.633354 0.908063 0.725447
O O3 0.802185 0.894027 0.774056
O O4 0.726433 0.990143 0.726553
O O5 0.250000 0.942913 0.500000
O O6 0.197973 0.909097 0.211430
O O7 0.125768 0.988489 0.331353
O O8 0.529394 0.101915 0.189035
O O9 0.469102 0.009837 0.208856
O O10 0.408907 0.076512 0.989906
O O11 0.454184 0.077863 0.701826
O O12 0.500000 0.000000 0.500000
O O13 0.088612 0.784006 0.751264
O O14 0.950908 0.835065 0.866183
O O15 0.024609 0.750000 0.000000
O O16 0.105498 0.842837 0.996173
O O17 0.250000 0.750000 0.251662
O O18 0.341685 0.750000 0.500000
O O19 0.372608 0.681966 0.277373
#
# Coordination Sequence:
#
# PCOD9395745 Si02
#       8
#     8   8   8   8   8   8   8   8
#     4  10  20  35  55  86 120 152 188 238 282 344
#     4   9  18  31  51  78 115 146 185 230 272 335
#     4  10  19  35  55  78 114 153 189 231 281 342
#     4  10  19  32  51  78 114 151 190 232 276 338
#     4   9  20  40  60  82 111 145 191 242 291 345
#     4  10  20  35  58  83 109 151 195 233 293 341
#     4  10  22  38  59  84 110 140 186 240 289 338
#     4   9  20  36  58  78 111 154 186 231 286 341
#
# _framework density 19.005389000000001
#
# number of rings (size 3 to 8) (size 9 to 14) (size 15 to 20)
#    0.000    2.375    0.000    3.000    1.750    6.250 
#    2.250    0.000    5.500   12.750    0.000    8.750 
#    0.000    0.000    0.000    0.000    0.000    0.000 
#
# Total GULP energy -356489.241294 kJ/mol
# GULP energy per Si atom -5570.144395 kJ/mol
# Density = 1.896213 g / cm^3
# Si number density = 19.005389 Si / 1000 Ang^3
#
#
#
# Elastic Constant Matrix: (Units=GPa)
#
#
# Indices 1 2 3 4 5 6 
#
# 1 67.4316 10.1551 25.2948 0.0000 0.0000 0.0000
# 2 10.1551 58.4583 21.4481 0.0000 0.0000 0.0000
# 3 25.2948 21.4481 59.2830 0.0000 0.0000 0.0000
# 4 0.0000 0.0000 0.0000 7.9033 0.0000 0.0000
# 5 0.0000 0.0000 0.0000 0.0000 29.7386 0.0000
# 6 0.0000 0.0000 0.0000 0.0000 0.0000 12.1667
#
#
#
# Elastic Compliance Matrix: (Units=1/GPa)
#
#
# Indices 1 2 3 4 5 6 
#
# 1 0.017662 -0.000350 -0.007409 0.000000 0.000000 0.000000
# 2 -0.000350 0.019731 -0.006989 0.000000 0.000000 0.000000
# 3 -0.007409 -0.006989 0.022558 0.000000 0.000000 0.000000
# 4 0.000000 0.000000 0.000000 0.126530 0.000000 0.000000
# 5 0.000000 0.000000 0.000000 0.000000 0.033626 0.000000
# 6 0.000000 0.000000 0.000000 0.000000 0.000000 0.082191
#
#
# Mechanical properties :
#
#
# Convention : Reuss Voigt Hill
#
# Bulk Modulus (GPa) = 32.83579 33.21876 33.02728
# Shear Modulus (GPa) = 14.62211 18.51337 16.56774
#
# Velocity S-wave (km/s) = 2.77675 3.12446 2.95573
# Velocity P-wave (km/s) = 5.25310 5.52566 5.39110
#
# Compressibility (1/GPa) = 0.03045458
#
# Stress axis : x y z
#
# Youngs Moduli (GPa) = 56.61897 50.68074 44.32936
#
# Poissons Ratio (x) = 0.01772 0.32846
# Poissons Ratio (y) = 0.01980 0.30984
# Poissons Ratio (z) = 0.41952 0.35423
#
# Static dielectric constant tensor:
#      x y z
#    x 1.694150 0.000000 0.000000 
#    y 0.000000 1.746790 0.000000 
#    z 0.000000 0.000000 1.690280 
# 
# From -- ./inp_files/13452.got.cif
#   From: 2010.05.17/outbox.cif.g08.bks.cpg/sg50_7_cif.got.tgz:13452.got - 2010.06.03 11:33:33.
