data_PCOD9395860
_publ_section_title
;
Structure prediction by ZEFSAII (Michael W. Deem and Ramdas Pophale) SiO2 
 PCOD9395860
Probable space group: P B A N
;
_chemical_formula_sum "Si O2"
_cell_formula_units_Z 38
_cell_length_a 16.082753
_cell_length_b 8.689833
_cell_length_c 11.983981
_cell_angle_alpha 90.000000
_cell_angle_beta 90.000000
_cell_angle_gamma 90.000000
_cell_volume 1674.838495
_symmetry_space_group_name_H-M "P B A N"
_symmetry_group_IT_number 50
_space_group.IT_coordinate_system_code '2'
_symmetry_cell_setting 'orthorhombic'
loop_
_space_group_symop_operation_xyz
x,y,z
1/2-x,1/2-y,z
x,1/2-y,-z
1/2-x,y,-z
-x,-y,-z
1/2+x,1/2+y,-z
-x,1/2+y,z
1/2+x,-y,z
loop_
_atom_site_type_symbol
_atom_site_label
_atom_site_fract_x
_atom_site_fract_y
_atom_site_fract_z
Si Si1 0.909161 0.535005 0.182393
Si Si2 0.222865 0.520217 0.122402
Si Si3 0.628034 0.750000 0.000000
Si Si4 0.124805 0.894956 0.661521
Si Si5 0.250000 0.750000 0.500000
Si Si6 0.020640 0.315036 0.305127
O O1 0.812252 0.490578 0.183146
O O2 0.926243 0.666440 0.273478
O O3 0.976381 0.402741 0.201092
O O4 0.922477 0.623988 0.067034
O O5 0.181756 0.355308 0.086766
O O6 0.159452 0.599092 0.209691
O O7 0.250000 0.584771 0.000000
O O8 0.199143 0.861867 0.580193
O O9 0.060378 0.756812 0.638391
O O10 0.077070 0.054958 0.640274
#
# Coordination Sequence:
#
# PCOD9395860 Si02
#       6
#     8   8   4   8   2   8
#     4  10  19  36  57  91 132 180 212 272 330 397
#     4  10  20  39  67  98 140 187 229 277 332 411
#     4  10  19  34  58  96 130 187 224 275 320 402
#     4  11  24  47  70 104 133 181 232 285 349 411
#     4  12  28  48  78  94 132 182 240 300 336 420
#     4  10  23  40  65  96 138 172 219 292 343 406
#
# _framework density 22.688756000000001
#
# number of rings (size 3 to 8) (size 9 to 14) (size 15 to 20)
#    0.000    1.684    2.105    4.105    0.000    1.684 
#    3.789    7.895    0.000   11.368    0.000    0.000 
#    0.000    0.000    0.000    0.000    0.000    0.000 
#
# Total GULP energy -211899.923059 kJ/mol
# GULP energy per Si atom -5576.313765 kJ/mol
# Density = 2.263712 g / cm^3
# Si number density = 22.688756 Si / 1000 Ang^3
#
#
#
# Elastic Constant Matrix: (Units=GPa)
#
#
# Indices 1 2 3 4 5 6 
#
# 1 113.4312 48.3427 45.1223 0.0000 0.0000 0.0000
# 2 48.3427 85.5279 29.9928 0.0000 0.0000 0.0000
# 3 45.1223 29.9928 78.4660 0.0000 0.0000 0.0000
# 4 0.0000 0.0000 0.0000 -0.8392 0.0000 0.0000
# 5 0.0000 0.0000 0.0000 0.0000 0.2119 0.0000
# 6 0.0000 0.0000 0.0000 0.0000 0.0000 21.6190
#
#
#
# Elastic Compliance Matrix: (Units=1/GPa)
#
#
# Indices 1 2 3 4 5 6 
#
# 1 0.013436 -0.005641 -0.005570 0.000000 0.000000 0.000000
# 2 -0.005641 0.015870 -0.002822 0.000000 0.000000 0.000000
# 3 -0.005570 -0.002822 0.017026 0.000000 0.000000 0.000000
# 4 0.000000 0.000000 0.000000 -1.191656 0.000000 0.000000
# 5 0.000000 0.000000 0.000000 0.000000 4.718993 0.000000
# 6 0.000000 0.000000 0.000000 0.000000 0.000000 0.046256
#
#
# Mechanical properties :
#
#
# Convention : Reuss Voigt Hill
#
# Bulk Modulus (GPa) = 54.74813 58.26007 56.50410
# Shear Modulus (GPa) = 1.36833 14.46284 7.91559
#
# Velocity S-wave (km/s) = 0.77743 2.52751 1.86985
# Velocity P-wave (km/s) = 4.99883 5.85247 5.44241
#
# Compressibility (1/GPa) = 0.01826546
#
# Stress axis : x y z
#
# Youngs Moduli (GPa) = 74.42818 63.01096 58.73261
#
# Poissons Ratio (x) = 0.35544 0.32715
# Poissons Ratio (y) = 0.41985 0.16577
# Poissons Ratio (z) = 0.41457 0.17784
#
# Static dielectric constant tensor:
#      x y z
#    x 1.884080 0.000000 0.000000 
#    y 0.000000 1.854950 0.000000 
#    z 0.000000 0.000000 1.883380 
# 
# From -- ./inp_files/21668.got.cif
#   From: 2010.05.17/outbox.cif.g08.bks.cpg/sg50_11_cif.got.tgz:21668.got - 2010.06.03 11:33:33.
