data_PCOD9395726
_publ_section_title
;
Structure prediction by ZEFSAII (Michael W. Deem and Ramdas Pophale) SiO2 
 PCOD9395726
Probable space group: P B A N
;
_chemical_formula_sum "Si O2"
_cell_formula_units_Z 48
_cell_length_a 19.467872
_cell_length_b 11.712503
_cell_length_c 9.631390
_cell_angle_alpha 90.000000
_cell_angle_beta 90.000000
_cell_angle_gamma 90.000000
_cell_volume 2196.125558
_symmetry_space_group_name_H-M "P B A N"
_symmetry_group_IT_number 50
_space_group.IT_coordinate_system_code '2'
_symmetry_cell_setting 'orthorhombic'
loop_
_space_group_symop_operation_xyz
x,y,z
1/2-x,1/2-y,z
x,1/2-y,-z
1/2-x,y,-z
-x,-y,-z
1/2+x,1/2+y,-z
-x,1/2+y,z
1/2+x,-y,z
loop_
_atom_site_type_symbol
_atom_site_label
_atom_site_fract_x
_atom_site_fract_y
_atom_site_fract_z
Si Si1 0.558513 0.258475 0.660467
Si Si2 0.366931 0.853671 0.082538
Si Si3 0.327346 0.388413 0.494718
Si Si4 0.409334 0.174232 0.760968
Si Si5 0.621574 0.923106 0.797441
Si Si6 0.461264 0.951846 0.851998
O O1 0.576322 0.250000 0.500000
O O2 0.605671 0.188692 0.768050
O O3 0.479349 0.217820 0.685251
O O4 0.563070 0.388054 0.712793
O O5 0.336469 0.979829 0.117894
O O6 0.329395 0.750000 0.000000
O O7 0.429961 0.876975 0.975563
O O8 0.324480 0.250000 0.500000
O O9 0.250000 0.433346 0.500000
O O10 0.364303 0.397464 0.347943
O O11 0.365809 0.432972 0.631445
O O12 0.371173 0.286199 0.820123
O O13 0.433831 0.079563 0.868474
O O14 0.542613 0.949822 0.833340
#
# Coordination Sequence:
#
# PCOD9395726 Si02
#       6
#     8   8   8   8   8   8
#     4  10  20  31  48  76 114 149 184 219 272 338
#     4  10  21  35  49  80 121 153 180 219 281 344
#     4   9  19  35  53  80 113 144 182 236 285 326
#     4  10  19  31  52  82 113 141 181 224 283 333
#     4  10  19  32  54  78 114 150 182 224 275 346
#     4  10  20  32  50  80 119 146 179 221 277 346
#
# _framework density 21.856673000000001
#
# number of rings (size 3 to 8) (size 9 to 14) (size 15 to 20)
#    0.000    2.167    1.667    3.000    2.333    2.000 
#    0.000    0.000    0.000    1.000    0.000   17.500 
#    0.000    0.000    0.000    0.000    0.000    0.000 
#
# Total GULP energy -267316.341520 kJ/mol
# GULP energy per Si atom -5569.090448 kJ/mol
# Density = 2.180693 g / cm^3
# Si number density = 21.856673 Si / 1000 Ang^3
#
#
#
# Elastic Constant Matrix: (Units=GPa)
#
#
# Indices 1 2 3 4 5 6 
#
# 1 44.3584 17.3229 21.3886 0.0000 0.0000 0.0000
# 2 17.3229 142.7151 59.0800 0.0000 0.0000 0.0000
# 3 21.3886 59.0800 139.4445 0.0000 0.0000 0.0000
# 4 0.0000 0.0000 0.0000 41.0225 0.0000 0.0000
# 5 0.0000 0.0000 0.0000 0.0000 -5.0962 0.0000
# 6 0.0000 0.0000 0.0000 0.0000 0.0000 3.3918
#
#
#
# Elastic Compliance Matrix: (Units=1/GPa)
#
#
# Indices 1 2 3 4 5 6 
#
# 1 0.024693 -0.001733 -0.003053 0.000000 0.000000 0.000000
# 2 -0.001733 0.008619 -0.003386 0.000000 0.000000 0.000000
# 3 -0.003053 -0.003386 0.009074 0.000000 0.000000 0.000000
# 4 0.000000 0.000000 0.000000 0.024377 0.000000 0.000000
# 5 0.000000 0.000000 0.000000 0.000000 -0.196223 0.000000
# 6 0.000000 0.000000 0.000000 0.000000 0.000000 0.294830
#
#
# Mechanical properties :
#
#
# Convention : Reuss Voigt Hill
#
# Bulk Modulus (GPa) = 38.40058 58.01122 48.20590
# Shear Modulus (GPa) = 26.26133 23.11203 24.68668
#
# Velocity S-wave (km/s) = 3.47006 3.25535 3.36442
# Velocity P-wave (km/s) = 5.80194 6.38193 6.09883
#
# Compressibility (1/GPa) = 0.02604127
#
# Stress axis : x y z
#
# Youngs Moduli (GPa) = 40.49783 116.02266 110.20343
#
# Poissons Ratio (x) = 0.20111 0.33646
# Poissons Ratio (y) = 0.07020 0.37313
# Poissons Ratio (z) = 0.12364 0.39283
#
# Static dielectric constant tensor:
#      x y z
#    x 1.784130 0.000000 0.000000 
#    y 0.000000 1.927220 0.000000 
#    z 0.000000 0.000000 1.874770 
# 
# From -- ./inp_files/15995.got.cif
#   From: 2010.05.17/outbox.cif.g08.bks.cpg/sg50_8_cif.got.tgz:15995.got - 2010.06.03 11:33:33.
