data_PCOD9395965
_publ_section_title
;
Structure prediction by ZEFSAII (Michael W. Deem and Ramdas Pophale) SiO2 
 PCOD9395965
Probable space group: P B A N
;
_chemical_formula_sum "Si O2"
_cell_formula_units_Z 40
_cell_length_a 14.774704
_cell_length_b 15.631833
_cell_length_c 8.409019
_cell_angle_alpha 90.000000
_cell_angle_beta 90.000000
_cell_angle_gamma 90.000000
_cell_volume 1942.110916
_symmetry_space_group_name_H-M "P B A N"
_symmetry_group_IT_number 50
_space_group.IT_coordinate_system_code '2'
_symmetry_cell_setting 'orthorhombic'
loop_
_space_group_symop_operation_xyz
x,y,z
1/2-x,1/2-y,z
x,1/2-y,-z
1/2-x,y,-z
-x,-y,-z
1/2+x,1/2+y,-z
-x,1/2+y,z
1/2+x,-y,z
loop_
_atom_site_type_symbol
_atom_site_label
_atom_site_fract_x
_atom_site_fract_y
_atom_site_fract_z
Si Si1 0.002357 0.732567 0.824225
Si Si2 0.720804 0.478054 0.184168
Si Si3 0.702050 0.830092 0.826908
Si Si4 0.034350 0.917998 0.701577
Si Si5 0.096614 0.926800 0.336695
O O1 0.902449 0.693220 0.844280
O O2 0.997700 0.823175 0.734425
O O3 0.060126 0.661423 0.735147
O O4 0.039760 0.750000 0.000000
O O5 0.711478 0.576065 0.244357
O O6 0.622740 0.435256 0.192937
O O7 0.798675 0.435936 0.290793
O O8 0.750000 0.477347 0.000000
O O9 0.750000 0.750000 0.741617
O O10 0.750000 0.835818 0.000000
O O11 0.072280 0.926002 0.522601
O O12 0.958593 0.990692 0.730805
#
# Coordination Sequence:
#
# PCOD9395965 Si02
#       5
#     8   8   8   8   8
#     4  12  23  40  70 100 133 172 230 281 336 391
#     4  11  23  41  69  98 133 175 232 282 337 395
#     4  10  19  36  62 100 132 164 214 283 338 387
#     4  11  25  44  66  96 142 184 224 274 339 414
#     4  11  25  44  66  96 141 185 224 271 342 412
#
# _framework density 20.596146999999998
#
# number of rings (size 3 to 8) (size 9 to 14) (size 15 to 20)
#    0.000    1.000    4.000    3.600    2.800    2.400 
#    0.000    4.000    0.000    0.000    0.000    0.000 
#    0.000    0.000    0.000    0.000    0.000    0.000 
#
# Total GULP energy -223579.458464 kJ/mol
# GULP energy per Si atom -5589.486462 kJ/mol
# Density = 2.054927 g / cm^3
# Si number density = 20.596147 Si / 1000 Ang^3
#
#
#
# Elastic Constant Matrix: (Units=GPa)
#
#
# Indices 1 2 3 4 5 6 
#
# 1 63.6467 9.5381 -4.2622 0.0000 0.0000 0.0000
# 2 9.5381 111.1017 5.1945 0.0000 0.0000 0.0000
# 3 -4.2622 5.1945 39.9717 0.0000 0.0000 0.0000
# 4 0.0000 0.0000 0.0000 18.8111 0.0000 0.0000
# 5 0.0000 0.0000 0.0000 0.0000 13.9834 0.0000
# 6 0.0000 0.0000 0.0000 0.0000 0.0000 19.2872
#
#
#
# Elastic Compliance Matrix: (Units=1/GPa)
#
#
# Indices 1 2 3 4 5 6 
#
# 1 0.016059 -0.001468 0.001903 0.000000 0.000000 0.000000
# 2 -0.001468 0.009190 -0.001351 0.000000 0.000000 0.000000
# 3 0.001903 -0.001351 0.025396 0.000000 0.000000 0.000000
# 4 0.000000 0.000000 0.000000 0.053160 0.000000 0.000000
# 5 0.000000 0.000000 0.000000 0.000000 0.071514 0.000000
# 6 0.000000 0.000000 0.000000 0.000000 0.000000 0.051848
#
#
# Mechanical properties :
#
#
# Convention : Reuss Voigt Hill
#
# Bulk Modulus (GPa) = 20.48570 26.18455 23.33513
# Shear Modulus (GPa) = 20.38577 24.03296 22.20937
#
# Velocity S-wave (km/s) = 3.14950 3.41965 3.28735
# Velocity P-wave (km/s) = 4.81599 5.32287 5.07576
#
# Compressibility (1/GPa) = 0.04881454
#
# Stress axis : x y z
#
# Youngs Moduli (GPa) = 62.26994 108.81488 39.37606
#
# Poissons Ratio (x) = 0.15970 -0.07494
# Poissons Ratio (y) = 0.09139 0.05319
# Poissons Ratio (z) = -0.11851 0.14698
#
# Static dielectric constant tensor:
#      x y z
#    x 1.720720 0.000000 0.000000 
#    y 0.000000 1.749010 0.000000 
#    z 0.000000 0.000000 1.737190 
# 
# From -- ./inp_files/12564.got.cif
#   From: 2010.05.17/outbox.cif.g08.bks.cpg/sg50_7_cif.got.tgz:12564.got - 2010.06.03 11:33:33.
