data_PCOD9395146
_publ_section_title
;
Structure prediction by ZEFSAII (Michael W. Deem and Ramdas Pophale) SiO2 
 PCOD9395146
Probable space group: P C C M
;
_chemical_formula_sum "Si O2"
_cell_formula_units_Z 64
_cell_length_a 22.377725
_cell_length_b 6.964183
_cell_length_c 14.826480
_cell_angle_alpha 90.000000
_cell_angle_beta 90.000000
_cell_angle_gamma 90.000000
_cell_volume 2310.596777
_symmetry_space_group_name_H-M "P C C M"
_symmetry_group_IT_number 49
_symmetry_cell_setting 'orthorhombic'
loop_
_space_group_symop_operation_xyz
x,y,z
-x,-y,z
x,-y,1/2-z
-x,y,1/2-z
-x,-y,-z
x,y,-z
-x,y,1/2+z
x,-y,1/2+z
loop_
_atom_site_type_symbol
_atom_site_label
_atom_site_fract_x
_atom_site_fract_y
_atom_site_fract_z
Si Si1 0.232047 0.978037 0.604403
Si Si2 0.887452 0.162941 0.606890
Si Si3 0.011648 0.714565 0.855807
Si Si4 0.362021 0.062184 0.605980
Si Si5 0.600625 0.479032 0.146215
Si Si6 0.263331 0.474282 0.895912
Si Si7 0.138840 0.595025 0.109321
Si Si8 0.534526 0.822383 0.845789
O O1 0.227858 0.043607 0.500000
O O2 0.164759 0.976588 0.643962
O O3 0.293349 0.072838 0.639334
O O4 0.244055 0.748212 0.605250
O O5 0.875140 0.168046 0.500000
O O6 0.878362 0.380492 0.643687
O O7 0.958813 0.143572 0.613152
O O8 0.082704 0.732811 0.870252
O O9 0.000000 0.500000 0.895759
O O10 0.000000 0.708243 0.750000
O O11 0.359564 0.002531 0.500000
O O12 0.398564 0.908274 0.662957
O O13 0.500000 0.000000 0.607446
O O14 0.583909 0.500000 0.250000
O O15 0.670826 0.526241 0.142922
O O16 0.602463 0.262317 0.111801
O O17 0.552675 0.626250 0.104681
O O18 0.208368 0.605788 0.859735
O O19 0.272054 0.531853 0.000000
O O20 0.141640 0.589716 0.000000
O O21 0.500000 0.799857 0.750000
#
# Coordination Sequence:
#
# PCOD9395146 Si02
#       8
#     8   8   8   8   8   8   8   8
#     4   8  15  32  58  89 121 163 221 287 349 402
#     4   8  13  23  43  69 106 159 217 275 341 409
#     4   9  15  22  33  66 114 168 217 282 348 411
#     4  11  24  44  75 108 138 179 235 292 346 415
#     4  12  25  42  67 104 140 183 230 282 357 435
#     4   9  17  35  59  85 123 174 230 292 350 408
#     4   8  14  25  43  67 105 161 222 279 338 407
#     4  11  25  47  72  98 140 190 224 273 338 421
#
# _framework density 27.698474000000001
#
# number of rings (size 3 to 8) (size 9 to 14) (size 15 to 20)
#    0.000    2.500    1.250    3.750    0.000    4.500 
#    6.750    0.625    0.000    0.000    0.000    0.875 
#    0.000    6.000    0.000    0.000    0.000    0.625 
#
# Total GULP energy -357285.691376 kJ/mol
# GULP energy per Si atom -5582.588928 kJ/mol
# Density = 2.763543 g / cm^3
# Si number density = 27.698474 Si / 1000 Ang^3
#
#
#
# Elastic Constant Matrix: (Units=GPa)
#
#
# Indices 1 2 3 4 5 6 
#
# 1 260.6390 122.9301 24.3214 0.0000 0.0000 0.0000
# 2 122.9301 124.7229 4.5414 0.0000 0.0000 0.0000
# 3 24.3214 4.5414 81.3203 0.0000 0.0000 0.0000
# 4 0.0000 0.0000 0.0000 -6.1682 0.0000 0.0000
# 5 0.0000 0.0000 0.0000 0.0000 -109.9164 0.0000
# 6 0.0000 0.0000 0.0000 0.0000 0.0000 96.7805
#
#
#
# Elastic Compliance Matrix: (Units=1/GPa)
#
#
# Indices 1 2 3 4 5 6 
#
# 1 0.007428 -0.007255 -0.001816 0.000000 0.000000 0.000000
# 2 -0.007255 0.015120 0.001325 0.000000 0.000000 0.000000
# 3 -0.001816 0.001325 0.012766 0.000000 0.000000 0.000000
# 4 0.000000 0.000000 0.000000 -0.162122 0.000000 0.000000
# 5 0.000000 0.000000 0.000000 0.000000 -0.009098 0.000000
# 6 0.000000 0.000000 0.000000 0.000000 0.000000 0.010333
#
#
# Mechanical properties :
#
#
# Convention : Reuss Voigt Hill
#
# Bulk Modulus (GPa) = 50.44770 85.58534 68.01652
# Shear Modulus (GPa) = -48.32229 17.13181 -15.59524
#
# Velocity S-wave (km/s) = -4.18135 2.48969 -2.37541
# Velocity P-wave (km/s) = 2.24920 6.26344 4.13351
#
# Compressibility (1/GPa) = 0.01982251
#
# Stress axis : x y z
#
# Youngs Moduli (GPa) = 134.62307 66.13560 78.33131
#
# Poissons Ratio (x) = 0.47983 0.14228
# Poissons Ratio (y) = 0.97672 -0.10383
# Poissons Ratio (z) = 0.24454 -0.08766
#
# Static dielectric constant tensor:
#      x y z
#    x 2.240570 0.000000 0.000000 
#    y 0.000000 2.306190 0.000000 
#    z 0.000000 0.000000 2.085180 
# 
# From -- ./inp_files/21048.got.cif
#   From: 2010.05.17/outbox.cif.g08.bks.cpg/sg49_11_cif.got.tgz:21048.got - 2010.06.03 21:02:19.
