data_PCOD9395440
_publ_section_title
;
Structure prediction by ZEFSAII (Michael W. Deem and Ramdas Pophale) SiO2 
 PCOD9395440
Probable space group: P B A N
;
_chemical_formula_sum "Si O2"
_cell_formula_units_Z 60
_cell_length_a 22.402582
_cell_length_b 32.262489
_cell_length_c 5.642051
_cell_angle_alpha 90.000000
_cell_angle_beta 90.000000
_cell_angle_gamma 90.000000
_cell_volume 4077.866019
_symmetry_space_group_name_H-M "P B A N"
_symmetry_group_IT_number 50
_space_group.IT_coordinate_system_code '2'
_symmetry_cell_setting 'orthorhombic'
loop_
_space_group_symop_operation_xyz
x,y,z
1/2-x,1/2-y,z
x,1/2-y,-z
1/2-x,y,-z
-x,-y,-z
1/2+x,1/2+y,-z
-x,1/2+y,z
1/2+x,-y,z
loop_
_atom_site_type_symbol
_atom_site_label
_atom_site_fract_x
_atom_site_fract_y
_atom_site_fract_z
Si Si1 0.689528 0.803162 0.874484
Si Si2 0.876807 0.750000 0.500000
Si Si3 0.188624 0.384967 0.407140
Si Si4 0.099318 0.333344 0.734108
Si Si5 0.011366 0.943617 0.257618
Si Si6 0.982049 0.591248 0.239968
Si Si7 0.872379 0.965196 0.245216
Si Si8 0.889910 0.515149 0.253334
O O1 0.665617 0.767051 0.706815
O O2 0.707736 0.844692 0.736636
O O3 0.750000 0.791609 0.000000
O O4 0.634203 0.817340 0.036409
O O5 0.911405 0.708734 0.416222
O O6 0.250000 0.404604 0.500000
O O7 0.145011 0.364457 0.600500
O O8 0.152040 0.418332 0.256149
O O9 0.042255 0.362021 0.775355
O O10 0.013154 0.917821 0.505023
O O11 0.945009 0.964107 0.251876
O O12 0.060951 0.979093 0.261403
O O13 0.015675 0.919583 0.005998
O O14 0.926006 0.558948 0.244525
O O15 0.854723 0.984869 0.498326
O O16 0.855371 0.986051 0.996610
#
# Coordination Sequence:
#
# PCOD9395440 Si02
#       8
#     8   4   8   8   8   8   8   8
#     4  11  22  36  49  57  72  96 135 185 232 269
#     4  10  26  35  46  60  72  96 138 180 228 274
#     4  11  21  33  45  62  78 105 139 172 215 265
#     4  11  21  36  45  59  76 103 132 174 220 263
#     4  10  17  28  45  67  86 103 124 151 199 257
#     4  10  18  28  46  62  85 103 123 155 196 256
#     4  10  18  28  43  63  86 106 129 156 196 248
#     4  10  17  28  45  66  86 105 123 154 196 256
#
# _framework density 14.713578999999999
#
# number of rings (size 3 to 8) (size 9 to 14) (size 15 to 20)
#    0.000    1.600    4.000    6.000    1.867    1.600 
#    0.000    0.000    0.000    0.000    0.000    0.000 
#    0.000    0.000    0.000    0.000    0.000    0.000 
#
# Total GULP energy -334307.312665 kJ/mol
# GULP energy per Si atom -5571.788544 kJ/mol
# Density = 1.468009 g / cm^3
# Si number density = 14.713579 Si / 1000 Ang^3
#
#
#
# Elastic Constant Matrix: (Units=GPa)
#
#
# Indices 1 2 3 4 5 6 
#
# 1 12.0873 30.1319 13.2620 0.0000 0.0000 0.0000
# 2 30.1319 92.1149 41.0098 0.0000 0.0000 0.0000
# 3 13.2620 41.0098 124.2914 0.0000 0.0000 0.0000
# 4 0.0000 0.0000 0.0000 10.6295 0.0000 0.0000
# 5 0.0000 0.0000 0.0000 0.0000 8.4276 0.0000
# 6 0.0000 0.0000 0.0000 0.0000 0.0000 48.2786
#
#
#
# Elastic Compliance Matrix: (Units=1/GPa)
#
#
# Indices 1 2 3 4 5 6 
#
# 1 0.448316 -0.146937 0.000646 0.000000 0.000000 0.000000
# 2 -0.146937 0.060884 -0.004410 0.000000 0.000000 0.000000
# 3 0.000646 -0.004410 0.009432 0.000000 0.000000 0.000000
# 4 0.000000 0.000000 0.000000 0.094078 0.000000 0.000000
# 5 0.000000 0.000000 0.000000 0.000000 0.118658 0.000000
# 6 0.000000 0.000000 0.000000 0.000000 0.000000 0.020713
#
#
# Mechanical properties :
#
#
# Convention : Reuss Voigt Hill
#
# Bulk Modulus (GPa) = 4.60343 44.14454 24.37399
# Shear Modulus (GPa) = 4.44092 23.07312 13.75702
#
# Velocity S-wave (km/s) = 1.73919 3.96429 3.06107
# Velocity P-wave (km/s) = 2.67742 7.14295 5.39399
#
# Compressibility (1/GPa) = 0.21722917
#
# Stress axis : x y z
#
# Youngs Moduli (GPa) = 2.23057 16.42457 106.02320
#
# Poissons Ratio (x) = 2.41338 -0.06850
# Poissons Ratio (y) = 0.32775 0.46761
# Poissons Ratio (z) = -0.00144 0.07244
#
# Static dielectric constant tensor:
#      x y z
#    x 1.458040 0.000000 0.000000 
#    y 0.000000 1.492120 0.000000 
#    z 0.000000 0.000000 1.620270 
# 
# From -- ./inp_files/6224.got.cif
#   From: 2010.05.17/outbox.cif.g08.bks.cpg/sg50_4_cif.got.tgz:6224.got - 2010.06.03 11:33:33.
