data_PCOD9395620
_publ_section_title
;
Structure prediction by ZEFSAII (Michael W. Deem and Ramdas Pophale) SiO2 
 PCOD9395620
Probable space group: P B A N
;
_chemical_formula_sum "Si O2"
_cell_formula_units_Z 40
_cell_length_a 5.357985
_cell_length_b 14.327871
_cell_length_c 23.152052
_cell_angle_alpha 90.000000
_cell_angle_beta 90.000000
_cell_angle_gamma 90.000000
_cell_volume 1777.348718
_symmetry_space_group_name_H-M "P B A N"
_symmetry_group_IT_number 50
_space_group.IT_coordinate_system_code '2'
_symmetry_cell_setting 'orthorhombic'
loop_
_space_group_symop_operation_xyz
x,y,z
1/2-x,1/2-y,z
x,1/2-y,-z
1/2-x,y,-z
-x,-y,-z
1/2+x,1/2+y,-z
-x,1/2+y,z
1/2+x,-y,z
loop_
_atom_site_type_symbol
_atom_site_label
_atom_site_fract_x
_atom_site_fract_y
_atom_site_fract_z
Si Si1 0.462989 0.853011 0.676292
Si Si2 0.971313 0.858618 0.724049
Si Si3 0.506456 0.811378 0.144679
Si Si4 0.265247 0.940024 0.566693
Si Si5 0.001465 0.604954 0.025162
O O1 0.733668 0.895899 0.689180
O O2 0.496184 0.747512 0.699443
O O3 0.357765 0.861831 0.611537
O O4 0.242787 0.900828 0.712716
O O5 0.935388 0.853166 0.792318
O O6 0.750000 0.750000 0.130094
O O7 0.484640 0.887073 0.093960
O O8 0.250000 0.750000 0.147834
O O9 0.250000 0.908734 0.500000
O O10 0.488640 0.016452 0.575319
O O11 0.750000 0.647625 0.000000
O O12 0.250000 0.649655 0.000000
O O13 0.000000 0.500000 0.000000
#
# Coordination Sequence:
#
# PCOD9395620 Si02
#       5
#     8   8   8   8   8
#     4  10  18  35  60  82 121 151 193 251 302 351
#     4  10  19  35  58  90 116 153 190 251 310 362
#     4  12  21  37  65  93 117 155 211 255 301 388
#     4  10  21  37  59  85 117 164 211 245 288 360
#     4  10  23  42  62  84 123 165 198 252 318 368
#
# _framework density 22.50543
#
# number of rings (size 3 to 8) (size 9 to 14) (size 15 to 20)
#    0.000    1.600    4.000    2.400    0.000    2.400 
#    0.000    2.000   26.400    4.800    0.000    0.000 
#    0.000    0.000    0.000    0.000    0.000    0.000 
#
# Total GULP energy -223051.051466 kJ/mol
# GULP energy per Si atom -5576.276287 kJ/mol
# Density = 2.245421 g / cm^3
# Si number density = 22.505430 Si / 1000 Ang^3
#
#
#
# Elastic Constant Matrix: (Units=GPa)
#
#
# Indices 1 2 3 4 5 6 
#
# 1 206.3212 6.9237 43.2458 0.0000 0.0000 0.0000
# 2 6.9237 76.3093 41.6651 0.0000 0.0000 0.0000
# 3 43.2458 41.6651 214.9753 0.0000 0.0000 0.0000
# 4 0.0000 0.0000 0.0000 21.2403 0.0000 0.0000
# 5 0.0000 0.0000 0.0000 0.0000 32.7053 0.0000
# 6 0.0000 0.0000 0.0000 0.0000 0.0000 -4.1025
#
#
#
# Elastic Compliance Matrix: (Units=1/GPa)
#
#
# Indices 1 2 3 4 5 6 
#
# 1 0.005061 0.000108 -0.001039 0.000000 0.000000 0.000000
# 2 0.000108 0.014658 -0.002863 0.000000 0.000000 0.000000
# 3 -0.001039 -0.002863 0.005416 0.000000 0.000000 0.000000
# 4 0.000000 0.000000 0.000000 0.047080 0.000000 0.000000
# 5 0.000000 0.000000 0.000000 0.000000 0.030576 0.000000
# 6 0.000000 0.000000 0.000000 0.000000 0.000000 -0.243752
#
#
# Mechanical properties :
#
#
# Convention : Reuss Voigt Hill
#
# Bulk Modulus (GPa) = 56.98925 75.69723 66.34324
# Shear Modulus (GPa) = -39.20796 37.02004 -1.09396
#
# Velocity S-wave (km/s) = -4.17844 4.06018 -0.69796
# Velocity P-wave (km/s) = 1.44853 7.46245 5.37524
#
# Compressibility (1/GPa) = 0.01754717
#
# Stress axis : x y z
#
# Youngs Moduli (GPa) = 197.59047 68.22330 184.65397
#
# Poissons Ratio (x) = -0.00738 0.19187
# Poissons Ratio (y) = -0.02137 0.52859
# Poissons Ratio (z) = 0.20531 0.19530
#
# Static dielectric constant tensor:
#      x y z
#    x 1.908900 0.000000 0.000000 
#    y 0.000000 1.753940 0.000000 
#    z 0.000000 0.000000 1.830350 
# 
# From -- ./inp_files/28068.got.cif
#   From: 2010.05.17/outbox.cif.g08.bks.cpg/sg50_15_cif.got.tgz:28068.got - 2010.06.03 11:33:33.
