data_PCOD9395311
_publ_section_title
;
Structure prediction by ZEFSAII (Michael W. Deem and Ramdas Pophale) SiO2 
 PCOD9395311
Probable space group: P C C M
;
_chemical_formula_sum "Si O2"
_cell_formula_units_Z 64
_cell_length_a 12.000000
_cell_length_b 18.000000
_cell_length_c 15.000000
_cell_angle_alpha 90.000000
_cell_angle_beta 90.000000
_cell_angle_gamma 90.000000
_cell_volume 3240.000000
_symmetry_space_group_name_H-M "P C C M"
_symmetry_group_IT_number 49
_symmetry_cell_setting 'orthorhombic'
loop_
_space_group_symop_operation_xyz
x,y,z
-x,-y,z
x,-y,1/2-z
-x,y,1/2-z
-x,-y,-z
x,y,-z
-x,y,1/2+z
x,-y,1/2+z
loop_
_atom_site_type_symbol
_atom_site_label
_atom_site_fract_x
_atom_site_fract_y
_atom_site_fract_z
Si Si1 0.032310 0.156916 0.893441
Si Si2 0.632878 0.671101 0.756617
Si Si3 0.171361 0.945301 0.833645
Si Si4 0.730863 0.834300 0.791925
Si Si5 0.774445 0.591438 0.606935
Si Si6 0.616960 0.960152 0.103552
Si Si7 0.998201 0.325959 0.607749
Si Si8 0.773963 0.414486 0.606674
O O1 0.154787 0.155189 0.849152
O O2 0.990467 0.239523 0.865019
O O3 0.944732 0.090471 0.870009
O O4 0.045230 0.155281 0.000000
O O5 0.500000 0.678352 0.750000
O O6 0.689412 0.751098 0.776895
O O7 0.683128 0.632574 0.667620
O O8 0.671807 0.618749 0.838111
O O9 0.237742 0.872910 0.800600
O O10 0.146205 0.000000 0.750000
O O11 0.268155 0.990788 0.886809
O O12 0.639306 0.886623 0.838810
O O13 0.756692 0.602130 0.500000
O O14 0.781908 0.502837 0.623065
O O15 0.892851 0.627901 0.632562
O O16 0.500000 0.000000 0.130434
O O17 0.605083 0.940682 0.000000
O O18 0.993871 0.325259 0.500000
O O19 0.885126 0.368551 0.635693
O O20 0.761435 0.403965 0.500000
#
# Coordination Sequence:
#
# PCOD9395311 Si02
#       8
#     8   8   8   8   8   8   8   8
#     4  11  21  38  65  94 129 166 206 261 327 393
#     4  12  27  43  64  93 129 175 228 269 325 395
#     4  10  23  39  62  92 129 166 209 260 322 383
#     4  11  24  41  64  88 127 168 211 262 327 387
#     4  10  22  41  65  96 133 171 217 273 328 387
#     4  10  23  43  66  93 124 166 223 273 320 384
#     4   9  18  36  63  96 130 166 209 264 331 397
#     4  10  21  41  68  96 130 171 216 271 332 394
#
# _framework density 19.753086
#
# number of rings (size 3 to 8) (size 9 to 14) (size 15 to 20)
#    0.000    1.625    1.250    2.625    1.750    9.250 
#    0.000    6.250    0.000    0.000    0.000    0.000 
#    0.000    0.000    0.000    0.000    0.000    0.000 
#
# Total GULP energy -357379.401941 kJ/mol
# GULP energy per Si atom -5584.053155 kJ/mol
# Density = 1.970813 g / cm^3
# Si number density = 19.753086 Si / 1000 Ang^3
#
#
#
# Elastic Constant Matrix: (Units=GPa)
#
#
# Indices 1 2 3 4 5 6 
#
# 1 121.6238 51.4248 27.3817 0.0000 0.0000 0.0000
# 2 51.4248 133.8268 31.1014 0.0000 0.0000 0.0000
# 3 27.3817 31.1014 64.4278 0.0000 0.0000 0.0000
# 4 0.0000 0.0000 0.0000 24.7874 0.0000 0.0000
# 5 0.0000 0.0000 0.0000 0.0000 34.9048 0.0000
# 6 0.0000 0.0000 0.0000 0.0000 0.0000 38.6836
#
#
#
# Elastic Compliance Matrix: (Units=1/GPa)
#
#
# Indices 1 2 3 4 5 6 
#
# 1 0.010235 -0.003291 -0.002761 0.000000 0.000000 0.000000
# 2 -0.003291 0.009475 -0.003175 0.000000 0.000000 0.000000
# 3 -0.002761 -0.003175 0.018227 0.000000 0.000000 0.000000
# 4 0.000000 0.000000 0.000000 0.040343 0.000000 0.000000
# 5 0.000000 0.000000 0.000000 0.000000 0.028649 0.000000
# 6 0.000000 0.000000 0.000000 0.000000 0.000000 0.025851
#
#
# Mechanical properties :
#
#
# Convention : Reuss Voigt Hill
#
# Bulk Modulus (GPa) = 51.32782 59.96601 55.64691
# Shear Modulus (GPa) = 31.69966 33.67318 32.68642
#
# Velocity S-wave (km/s) = 4.01034 4.13329 4.07228
# Velocity P-wave (km/s) = 6.89092 7.29400 7.09533
#
# Compressibility (1/GPa) = 0.01948261
#
# Stress axis : x y z
#
# Youngs Moduli (GPa) = 97.70046 105.54100 54.86233
#
# Poissons Ratio (x) = 0.34738 0.15148
# Poissons Ratio (y) = 0.32157 0.17419
# Poissons Ratio (z) = 0.26977 0.33510
#
# Static dielectric constant tensor:
#      x y z
#    x 1.693110 0.000000 0.000000 
#    y 0.000000 1.696200 0.000000 
#    z 0.000000 0.000000 1.722140 
# 
# From -- ./inp_files/13100.got.cif
#   From: 2010.05.17/outbox.ucp.g08.bks.cvg/sg49_7_cif.got.tgz:13100.got - 2010.06.11 16:40:14.
