data_PCOD9395987
_publ_section_title
;
Structure prediction by ZEFSAII (Michael W. Deem and Ramdas Pophale) SiO2 
 PCOD9395987
Probable space group: P B A N
;
_chemical_formula_sum "Si O2"
_cell_formula_units_Z 64
_cell_length_a 14.857275
_cell_length_b 16.164678
_cell_length_c 12.329012
_cell_angle_alpha 90.000000
_cell_angle_beta 90.000000
_cell_angle_gamma 90.000000
_cell_volume 2960.973327
_symmetry_space_group_name_H-M "P B A N"
_symmetry_group_IT_number 50
_space_group.IT_coordinate_system_code '2'
_symmetry_cell_setting 'orthorhombic'
loop_
_space_group_symop_operation_xyz
x,y,z
1/2-x,1/2-y,z
x,1/2-y,-z
1/2-x,y,-z
-x,-y,-z
1/2+x,1/2+y,-z
-x,1/2+y,z
1/2+x,-y,z
loop_
_atom_site_type_symbol
_atom_site_label
_atom_site_fract_x
_atom_site_fract_y
_atom_site_fract_z
Si Si1 0.849607 0.331661 0.050238
Si Si2 0.991343 0.196891 0.645040
Si Si3 0.598144 0.964097 0.242031
Si Si4 0.584678 0.937025 0.774154
Si Si5 0.675306 0.040811 0.595759
Si Si6 0.514109 0.623236 0.576703
Si Si7 0.189132 0.864451 0.289075
Si Si8 0.643300 0.518484 0.988666
O O1 0.829308 0.318086 0.177048
O O2 0.895208 0.250000 0.000000
O O3 0.750000 0.336594 0.000000
O O4 0.891788 0.422676 0.027339
O O5 0.039704 0.150640 0.743928
O O6 0.040113 0.157966 0.540366
O O7 0.990768 0.294770 0.645298
O O8 0.887543 0.169538 0.632986
O O9 0.595237 0.914796 0.354062
O O10 0.496444 0.997580 0.236688
O O11 0.662636 0.041753 0.259223
O O12 0.619873 0.932203 0.121614
O O13 0.613004 0.942751 0.898497
O O14 0.658546 0.968815 0.686265
O O15 0.750000 0.025269 0.500000
O O16 0.573314 0.064280 0.559495
O O17 0.714559 0.122979 0.657382
O O18 0.750000 0.512193 0.000000
#
# Coordination Sequence:
#
# PCOD9395987 Si02
#       8
#     8   8   8   8   8   8   8   8
#     4   9  18  30  49  77 117 157 182 228 295 360
#     4  10  22  39  55  82 119 159 195 242 305 362
#     4   9  20  35  61  81 114 160 201 243 290 362
#     4  10  21  35  58  85 118 157 201 247 291 364
#     4  11  21  34  59  91 117 155 200 247 299 359
#     4  10  22  39  57  83 119 159 199 243 303 361
#     4  10  20  35  55  86 117 149 197 246 293 353
#     4  10  19  37  58  86 114 151 205 256 302 343
#
# _framework density 21.614514
#
# number of rings (size 3 to 8) (size 9 to 14) (size 15 to 20)
#    0.000    2.125    1.250    2.625    1.750    6.000 
#    0.000    0.625    0.000    3.750    0.000    0.000 
#    0.000    0.000    0.000    0.000    0.000    0.000 
#
# Total GULP energy -356587.669388 kJ/mol
# GULP energy per Si atom -5571.682334 kJ/mol
# Density = 2.156532 g / cm^3
# Si number density = 21.614514 Si / 1000 Ang^3
#
#
#
# Elastic Constant Matrix: (Units=GPa)
#
#
# Indices 1 2 3 4 5 6 
#
# 1 56.5163 11.9540 18.0249 0.0000 0.0000 0.0000
# 2 11.9540 31.9679 8.7114 0.0000 0.0000 0.0000
# 3 18.0249 8.7114 83.0813 0.0000 0.0000 0.0000
# 4 0.0000 0.0000 0.0000 26.7947 0.0000 0.0000
# 5 0.0000 0.0000 0.0000 0.0000 33.2710 0.0000
# 6 0.0000 0.0000 0.0000 0.0000 0.0000 15.2015
#
#
#
# Elastic Compliance Matrix: (Units=1/GPa)
#
#
# Indices 1 2 3 4 5 6 
#
# 1 0.020266 -0.006568 -0.003708 0.000000 0.000000 0.000000
# 2 -0.006568 0.034330 -0.002175 0.000000 0.000000 0.000000
# 3 -0.003708 -0.002175 0.013069 0.000000 0.000000 0.000000
# 4 0.000000 0.000000 0.000000 0.037321 0.000000 0.000000
# 5 0.000000 0.000000 0.000000 0.000000 0.030056 0.000000
# 6 0.000000 0.000000 0.000000 0.000000 0.000000 0.065783
#
#
# Mechanical properties :
#
#
# Convention : Reuss Voigt Hill
#
# Bulk Modulus (GPa) = 23.38437 27.66068 25.52252
# Shear Modulus (GPa) = 20.83503 23.91177 22.37340
#
# Velocity S-wave (km/s) = 3.10810 3.32969 3.22080
# Velocity P-wave (km/s) = 4.87060 5.25429 5.06607
#
# Compressibility (1/GPa) = 0.04276361
#
# Stress axis : x y z
#
# Youngs Moduli (GPa) = 49.34419 29.12909 76.51735
#
# Poissons Ratio (x) = 0.19131 0.28374
# Poissons Ratio (y) = 0.32408 0.16641
# Poissons Ratio (z) = 0.18297 0.06335
#
# Static dielectric constant tensor:
#      x y z
#    x 1.727590 0.000000 0.000000 
#    y 0.000000 1.850790 0.000000 
#    z 0.000000 0.000000 1.904810 
# 
# From -- ./inp_files/21350.got.cif
#   From: 2010.05.17/outbox.cif.g08.bks.cpg/sg50_11_cif.got.tgz:21350.got - 2010.06.03 11:33:33.
