data_PCOD9395547
_publ_section_title
;
Structure prediction by ZEFSAII (Michael W. Deem and Ramdas Pophale) SiO2 
 PCOD9395547
Probable space group: P B A N
;
_chemical_formula_sum "Si O2"
_cell_formula_units_Z 40
_cell_length_a 34.704090
_cell_length_b 5.186795
_cell_length_c 10.753190
_cell_angle_alpha 90.000000
_cell_angle_beta 90.000000
_cell_angle_gamma 90.000000
_cell_volume 1935.606465
_symmetry_space_group_name_H-M "P B A N"
_symmetry_group_IT_number 50
_space_group.IT_coordinate_system_code '2'
_symmetry_cell_setting 'orthorhombic'
loop_
_space_group_symop_operation_xyz
x,y,z
1/2-x,1/2-y,z
x,1/2-y,-z
1/2-x,y,-z
-x,-y,-z
1/2+x,1/2+y,-z
-x,1/2+y,z
1/2+x,-y,z
loop_
_atom_site_type_symbol
_atom_site_label
_atom_site_fract_x
_atom_site_fract_y
_atom_site_fract_z
Si Si1 0.911232 0.250000 0.000000
Si Si2 0.858106 0.590498 0.373786
Si Si3 0.980021 0.884732 0.274317
Si Si4 0.037527 0.250000 0.000000
Si Si5 0.267526 0.499192 0.359713
Si Si6 0.607367 0.421967 0.265608
O O1 0.889313 0.322841 0.875233
O O2 0.936376 0.502768 0.033429
O O3 0.866900 0.750000 0.500000
O O4 0.813201 0.515103 0.371094
O O5 0.880645 0.323198 0.350145
O O6 0.867976 0.816886 0.276990
O O7 0.983994 0.842730 0.124276
O O8 0.990684 0.601945 0.323264
O O9 0.936745 0.988475 0.291599
O O10 0.250000 0.750000 0.297706
O O11 0.250000 0.499629 0.500000
O O12 0.250000 0.250000 0.296100
#
# Coordination Sequence:
#
# PCOD9395547 Si02
#       6
#     4   8   8   4   8   8
#     4  10  20  39  56  84 129 160 205 244 295 382
#     4  12  23  39  62  93 128 155 192 248 312 364
#     4  11  20  34  55  81 117 156 209 265 307 350
#     4  10  18  31  56  86 112 148 200 274 334 344
#     4  10  19  34  59  90 126 140 172 238 314 362
#     4  11  24  38  59  89 123 168 203 248 307 355
#
# _framework density 20.665358000000001
#
# number of rings (size 3 to 8) (size 9 to 14) (size 15 to 20)
#    0.000    1.200    2.000    8.400    2.800    0.800 
#    0.000    0.000    0.000   12.000    0.000   10.500 
#    0.000    0.000    0.000    0.000    0.000    0.000 
#
# Total GULP energy -223218.444298 kJ/mol
# GULP energy per Si atom -5580.461107 kJ/mol
# Density = 2.061832 g / cm^3
# Si number density = 20.665358 Si / 1000 Ang^3
#
#
#
# Elastic Constant Matrix: (Units=GPa)
#
#
# Indices 1 2 3 4 5 6 
#
# 1 105.9122 72.1041 32.6066 0.0000 0.0000 0.0000
# 2 72.1041 216.3374 26.4139 0.0000 0.0000 0.0000
# 3 32.6066 26.4139 30.7229 0.0000 0.0000 0.0000
# 4 0.0000 0.0000 0.0000 15.5152 0.0000 0.0000
# 5 0.0000 0.0000 0.0000 0.0000 42.6247 0.0000
# 6 0.0000 0.0000 0.0000 0.0000 0.0000 51.3499
#
#
#
# Elastic Compliance Matrix: (Units=1/GPa)
#
#
# Indices 1 2 3 4 5 6 
#
# 1 0.016320 -0.003714 -0.014127 0.000000 0.000000 0.000000
# 2 -0.003714 0.006010 -0.001225 0.000000 0.000000 0.000000
# 3 -0.014127 -0.001225 0.048595 0.000000 0.000000 0.000000
# 4 0.000000 0.000000 0.000000 0.064453 0.000000 0.000000
# 5 0.000000 0.000000 0.000000 0.000000 0.023461 0.000000
# 6 0.000000 0.000000 0.000000 0.000000 0.000000 0.019474
#
#
# Mechanical properties :
#
#
# Convention : Reuss Voigt Hill
#
# Bulk Modulus (GPa) = 30.49480 68.35795 49.42637
# Shear Modulus (GPa) = 21.99007 36.68783 29.33895
#
# Velocity S-wave (km/s) = 3.26560 4.21804 3.77200
# Velocity P-wave (km/s) = 5.38585 7.54140 6.55287
#
# Compressibility (1/GPa) = 0.03279248
#
# Stress axis : x y z
#
# Youngs Moduli (GPa) = 61.27576 166.39044 20.57823
#
# Poissons Ratio (x) = 0.61805 0.29070
# Poissons Ratio (y) = 0.22760 0.02521
# Poissons Ratio (z) = 0.86563 0.20381
#
# Static dielectric constant tensor:
#      x y z
#    x 1.734260 0.000000 0.000000 
#    y 0.000000 1.779150 0.000000 
#    z 0.000000 0.000000 1.779830 
# 
# From -- ./inp_files/23303.got.cif
#   From: 2010.05.17/outbox.cif.g08.bks.cpg/sg50_12_cif.got.tgz:23303.got - 2010.06.03 11:33:33.
