data_PCOD9395005
_publ_section_title
;
Structure prediction by ZEFSAII (Michael W. Deem and Ramdas Pophale) SiO2 
 PCOD9395005
Probable space group: P C C M
;
_chemical_formula_sum "Si O2"
_cell_formula_units_Z 48
_cell_length_a 20.852037
_cell_length_b 14.667529
_cell_length_c 8.615791
_cell_angle_alpha 90.000000
_cell_angle_beta 90.000000
_cell_angle_gamma 90.000000
_cell_volume 2635.121217
_symmetry_space_group_name_H-M "P C C M"
_symmetry_group_IT_number 49
_symmetry_cell_setting 'orthorhombic'
loop_
_space_group_symop_operation_xyz
x,y,z
-x,-y,z
x,-y,1/2-z
-x,y,1/2-z
-x,-y,-z
x,y,-z
-x,y,1/2+z
x,-y,1/2+z
loop_
_atom_site_type_symbol
_atom_site_label
_atom_site_fract_x
_atom_site_fract_y
_atom_site_fract_z
Si Si1 0.571109 0.600248 0.814074
Si Si2 0.260927 0.097261 0.814134
Si Si3 0.194174 0.602354 0.686643
Si Si4 0.933449 0.284298 0.685537
Si Si5 0.686338 0.281997 0.185542
Si Si6 0.884067 0.903093 0.314583
O O1 0.589158 0.500000 0.750000
O O2 0.500000 0.619971 0.750000
O O3 0.622648 0.672094 0.753396
O O4 0.570047 0.597606 0.000000
O O5 0.302024 0.181204 0.751908
O O6 0.188232 0.108505 0.751038
O O7 0.284019 0.000000 0.750000
O O8 0.259033 0.096880 0.000000
O O9 0.193501 0.500000 0.750000
O O10 0.201076 0.602167 0.500000
O O11 0.127923 0.653959 0.726071
O O12 0.253221 0.657549 0.759325
O O13 0.936305 0.276584 0.500000
O O14 0.922972 0.184210 0.757455
O O15 0.000000 0.322854 0.750000
O O16 0.683944 0.280085 0.000000
O O17 0.881980 0.906409 0.500000
O O18 0.908378 0.000000 0.250000
#
# Coordination Sequence:
#
# PCOD9395005 Si02
#       6
#     8   8   8   8   8   8
#     4  11  22  39  61  90 127 165 204 247 295 351
#     4  11  21  36  58  88 121 155 195 241 294 348
#     4  11  24  41  61  85 115 150 194 247 297 351
#     4  11  24  41  60  82 113 150 194 243 298 357
#     4  12  23  38  62  91 122 159 200 244 295 347
#     4  11  21  36  59  85 115 150 189 237 294 353
#
# _framework density 18.215481
#
# number of rings (size 3 to 8) (size 9 to 14) (size 15 to 20)
#    0.000    0.833    1.667    9.000    0.000    2.667 
#    0.000    3.333    0.000    0.500    0.000    3.500 
#    0.000    0.000    0.000    0.000    0.000    0.000 
#
# Total GULP energy -268585.830955 kJ/mol
# GULP energy per Si atom -5595.538145 kJ/mol
# Density = 1.817402 g / cm^3
# Si number density = 18.215481 Si / 1000 Ang^3
#
#
#
# Elastic Constant Matrix: (Units=GPa)
#
#
# Indices 1 2 3 4 5 6 
#
# 1 84.4388 66.6902 50.0961 0.0000 0.0000 0.0000
# 2 66.6902 138.0806 61.8178 0.0000 0.0000 0.0000
# 3 50.0961 61.8178 162.6681 0.0000 0.0000 0.0000
# 4 0.0000 0.0000 0.0000 43.3237 0.0000 0.0000
# 5 0.0000 0.0000 0.0000 0.0000 31.3367 0.0000
# 6 0.0000 0.0000 0.0000 0.0000 0.0000 -16.5525
#
#
#
# Elastic Compliance Matrix: (Units=1/GPa)
#
#
# Indices 1 2 3 4 5 6 
#
# 1 0.020328 -0.008453 -0.003048 0.000000 0.000000 0.000000
# 2 -0.008453 0.012242 -0.002049 0.000000 0.000000 0.000000
# 3 -0.003048 -0.002049 0.007865 0.000000 0.000000 0.000000
# 4 0.000000 0.000000 0.000000 0.023082 0.000000 0.000000
# 5 0.000000 0.000000 0.000000 0.000000 0.031911 0.000000
# 6 0.000000 0.000000 0.000000 0.000000 0.000000 -0.060414
#
#
# Mechanical properties :
#
#
# Convention : Reuss Voigt Hill
#
# Bulk Modulus (GPa) = 74.99388 82.48842 78.74115
# Shear Modulus (GPa) = 75.12081 25.39380 50.25731
#
# Velocity S-wave (km/s) = 6.42881 3.73779 5.25836
# Velocity P-wave (km/s) = 9.81662 8.00070 8.95481
#
# Compressibility (1/GPa) = 0.01333442
#
# Stress axis : x y z
#
# Youngs Moduli (GPa) = 49.19423 81.68397 127.14960
#
# Poissons Ratio (x) = 0.69051 0.38751
# Poissons Ratio (y) = 0.41586 0.26053
# Poissons Ratio (z) = 0.14993 0.16737
#
# Static dielectric constant tensor:
#      x y z
#    x 1.615080 0.000000 0.000000 
#    y 0.000000 1.614920 0.000000 
#    z 0.000000 0.000000 1.604150 
# 
# From -- ./inp_files/4878.got.cif
#   From: 2010.05.17/outbox.cif.g08.bks.cpg/sg49_3_cif.got.tgz:4878.got - 2010.06.03 21:02:19.
