data_PCOD9395158
_publ_section_title
;
Structure prediction by ZEFSAII (Michael W. Deem and Ramdas Pophale) SiO2 
 PCOD9395158
Probable space group: P C C M
;
_chemical_formula_sum "Si O2"
_cell_formula_units_Z 40
_cell_length_a 9.395100
_cell_length_b 11.978061
_cell_length_c 15.913334
_cell_angle_alpha 90.000000
_cell_angle_beta 90.000000
_cell_angle_gamma 90.000000
_cell_volume 1790.808329
_symmetry_space_group_name_H-M "P C C M"
_symmetry_group_IT_number 49
_symmetry_cell_setting 'orthorhombic'
loop_
_space_group_symop_operation_xyz
x,y,z
-x,-y,z
x,-y,1/2-z
-x,y,1/2-z
-x,-y,-z
x,y,-z
-x,y,1/2+z
x,-y,1/2+z
loop_
_atom_site_type_symbol
_atom_site_label
_atom_site_fract_x
_atom_site_fract_y
_atom_site_fract_z
Si Si1 0.769938 0.450999 0.601868
Si Si2 0.339188 0.959205 0.402003
Si Si3 0.641008 0.261200 0.694928
Si Si4 0.863474 0.131035 0.192569
Si Si5 0.070531 0.660328 0.098692
O O1 0.746527 0.444107 0.500000
O O2 0.654999 0.383132 0.654527
O O3 0.802419 0.578386 0.628495
O O4 0.917499 0.386921 0.625458
O O5 0.306625 0.978596 0.500000
O O6 0.345695 0.828601 0.380662
O O7 0.500000 0.000000 0.384214
O O8 0.228010 0.027804 0.343916
O O9 0.500000 0.249285 0.750000
O O10 0.764600 0.215631 0.755347
O O11 0.915311 0.210219 0.117406
O O12 0.000000 0.108478 0.250000
O O13 0.071573 0.642333 0.000000
#
# Coordination Sequence:
#
# PCOD9395158 Si02
#       5
#     8   8   8   8   8
#     4   9  19  40  68  97 134 178 222 273 333 408
#     4  11  25  46  71  95 134 189 235 278 348 429
#     4  12  24  42  66  97 140 177 219 286 352 410
#     4  12  24  42  68 103 135 174 226 290 346 404
#     4   9  19  40  67  98 135 174 223 277 335 403
#
# _framework density 22.336281
#
# number of rings (size 3 to 8) (size 9 to 14) (size 15 to 20)
#    0.000    1.400    4.000    3.000    0.000    2.400 
#    0.000    3.000    0.000    2.400    0.000    0.000 
#    0.000    0.000    0.000    0.000    0.000    0.000 
#
# Total GULP energy -223393.143665 kJ/mol
# GULP energy per Si atom -5584.828592 kJ/mol
# Density = 2.228544 g / cm^3
# Si number density = 22.336281 Si / 1000 Ang^3
#
#
#
# Elastic Constant Matrix: (Units=GPa)
#
#
# Indices 1 2 3 4 5 6 
#
# 1 96.6279 30.2577 55.7895 0.0000 0.0000 0.0000
# 2 30.2577 106.6918 32.8924 0.0000 0.0000 0.0000
# 3 55.7895 32.8924 69.7709 0.0000 0.0000 0.0000
# 4 0.0000 0.0000 0.0000 15.4629 0.0000 0.0000
# 5 0.0000 0.0000 0.0000 0.0000 24.4532 0.0000
# 6 0.0000 0.0000 0.0000 0.0000 0.0000 67.2050
#
#
#
# Elastic Compliance Matrix: (Units=1/GPa)
#
#
# Indices 1 2 3 4 5 6 
#
# 1 0.019288 -0.000837 -0.015028 0.000000 0.000000 0.000000
# 2 -0.000837 0.011003 -0.004518 0.000000 0.000000 0.000000
# 3 -0.015028 -0.004518 0.028479 0.000000 0.000000 0.000000
# 4 0.000000 0.000000 0.000000 0.064671 0.000000 0.000000
# 5 0.000000 0.000000 0.000000 0.000000 0.040895 0.000000
# 6 0.000000 0.000000 0.000000 0.000000 0.000000 0.014880
#
#
# Mechanical properties :
#
#
# Convention : Reuss Voigt Hill
#
# Bulk Modulus (GPa) = 55.54354 56.77442 56.15898
# Shear Modulus (GPa) = 22.12560 31.70095 26.91328
#
# Velocity S-wave (km/s) = 3.15074 3.77139 3.47495
# Velocity P-wave (km/s) = 6.17715 6.66616 6.42631
#
# Compressibility (1/GPa) = 0.01800389
#
# Stress axis : x y z
#
# Youngs Moduli (GPa) = 51.84635 90.88424 35.11334
#
# Poissons Ratio (x) = 0.07606 0.52769
# Poissons Ratio (y) = 0.04339 0.15864
# Poissons Ratio (z) = 0.77915 0.41061
#
# Static dielectric constant tensor:
#      x y z
#    x 1.842310 0.000000 0.000000 
#    y 0.000000 1.881050 0.000000 
#    z 0.000000 0.000000 1.846320 
# 
# From -- ./inp_files/16024.got.cif
#   From: 2010.05.17/outbox.cif.g08.bks.cpg/sg49_9_cif.got.tgz:16024.got - 2010.06.03 21:02:19.
