data_PCOD9395426
_publ_section_title
;
Structure prediction by ZEFSAII (Michael W. Deem and Ramdas Pophale) SiO2 
 PCOD9395426
Probable space group: P B A N
;
_chemical_formula_sum "Si O2"
_cell_formula_units_Z 48
_cell_length_a 25.328132
_cell_length_b 5.251971
_cell_length_c 21.394025
_cell_angle_alpha 90.000000
_cell_angle_beta 90.000000
_cell_angle_gamma 90.000000
_cell_volume 2845.889145
_symmetry_space_group_name_H-M "P B A N"
_symmetry_group_IT_number 50
_space_group.IT_coordinate_system_code '2'
_symmetry_cell_setting 'orthorhombic'
loop_
_space_group_symop_operation_xyz
x,y,z
1/2-x,1/2-y,z
x,1/2-y,-z
1/2-x,y,-z
-x,-y,-z
1/2+x,1/2+y,-z
-x,1/2+y,z
1/2+x,-y,z
loop_
_atom_site_type_symbol
_atom_site_label
_atom_site_fract_x
_atom_site_fract_y
_atom_site_fract_z
Si Si1 0.464900 0.221323 0.571689
Si Si2 0.310271 0.992422 0.971906
Si Si3 0.811206 0.212315 0.831104
Si Si4 0.691140 0.316429 0.573338
Si Si5 0.356022 0.173992 0.371063
Si Si6 0.814259 0.778741 0.231818
O O1 0.443970 0.250000 0.500000
O O2 0.506914 0.449564 0.578448
O O3 0.416815 0.253038 0.619091
O O4 0.309323 0.926191 0.898888
O O5 0.339046 0.750000 0.000000
O O6 0.250000 0.994534 0.000000
O O7 0.333364 0.250000 0.000000
O O8 0.750000 0.250000 0.814485
O O9 0.831246 0.498078 0.817123
O O10 0.835811 0.998207 0.787351
O O11 0.750000 0.250000 0.597092
O O12 0.690483 0.250000 0.500000
O O13 0.676098 0.605360 0.590995
O O14 0.652262 0.109436 0.602853
O O15 0.334725 0.165814 0.300718
O O16 0.750000 0.750000 0.231710
#
# Coordination Sequence:
#
# PCOD9395426 Si02
#       6
#     8   8   8   8   8   8
#     4  10  21  37  57  79  98 119 158 217 278 330
#     4  10  17  24  41  61  83 117 168 219 237 270
#     4  10  18  30  41  62  92 125 171 216 234 264
#     4  11  22  34  52  75 100 129 167 212 253 300
#     4  12  22  37  54  73 101 134 170 205 265 320
#     4  10  21  31  46  64  95 136 168 202 234 289
#
# _framework density 16.866434000000002
#
# number of rings (size 3 to 8) (size 9 to 14) (size 15 to 20)
#    0.000    1.500    1.667    6.000    4.667    4.000 
#    0.000    0.000    0.000    0.000    0.000    0.000 
#    0.000    0.000    0.000    0.000    0.000   58.333 
#
# Total GULP energy -267228.274091 kJ/mol
# GULP energy per Si atom -5567.255710 kJ/mol
# Density = 1.682805 g / cm^3
# Si number density = 16.866434 Si / 1000 Ang^3
#
#
#
# Elastic Constant Matrix: (Units=GPa)
#
#
# Indices 1 2 3 4 5 6 
#
# 1 20.8826 -3.8028 4.8456 0.0000 0.0000 0.0000
# 2 -3.8028 109.2505 23.9476 0.0000 0.0000 0.0000
# 3 4.8456 23.9476 63.6505 0.0000 0.0000 0.0000
# 4 0.0000 0.0000 0.0000 27.7708 0.0000 0.0000
# 5 0.0000 0.0000 0.0000 0.0000 -17.7641 0.0000
# 6 0.0000 0.0000 0.0000 0.0000 0.0000 12.7477
#
#
#
# Elastic Compliance Matrix: (Units=1/GPa)
#
#
# Indices 1 2 3 4 5 6 
#
# 1 0.049510 0.002779 -0.004815 0.000000 0.000000 0.000000
# 2 0.002779 0.010132 -0.004024 0.000000 0.000000 0.000000
# 3 -0.004815 -0.004024 0.017591 0.000000 0.000000 0.000000
# 4 0.000000 0.000000 0.000000 0.036009 0.000000 0.000000
# 5 0.000000 0.000000 0.000000 0.000000 -0.056293 0.000000
# 6 0.000000 0.000000 0.000000 0.000000 0.000000 0.078445
#
#
# Mechanical properties :
#
#
# Convention : Reuss Voigt Hill
#
# Bulk Modulus (GPa) = 15.35762 27.08492 21.22127
# Shear Modulus (GPa) = 29.54774 15.80377 22.67575
#
# Velocity S-wave (km/s) = 4.19007 3.06436 3.67063
# Velocity P-wave (km/s) = 5.70387 5.34918 5.52937
#
# Compressibility (1/GPa) = 0.06511427
#
# Stress axis : x y z
#
# Youngs Moduli (GPa) = 20.19794 98.69766 56.84686
#
# Poissons Ratio (x) = -0.27425 0.27369
# Poissons Ratio (y) = -0.05612 0.22873
# Poissons Ratio (z) = 0.09724 0.39711
#
# Static dielectric constant tensor:
#      x y z
#    x 1.529530 0.000000 0.000000 
#    y 0.000000 1.611780 0.000000 
#    z 0.000000 0.000000 1.523380 
# 
# From -- ./inp_files/30008.got.cif
#   From: 2010.05.17/outbox.cif.g08.bks.cpg/sg50_16_cif.got.tgz:30008.got - 2010.06.03 11:33:33.
