data_PCOD9395312
_publ_section_title
;
Structure prediction by ZEFSAII (Michael W. Deem and Ramdas Pophale) SiO2 
 PCOD9395312
Probable space group: P C C M
;
_chemical_formula_sum "Si O2"
_cell_formula_units_Z 40
_cell_length_a 12.000000
_cell_length_b 9.000000
_cell_length_c 18.000000
_cell_angle_alpha 90.000000
_cell_angle_beta 90.000000
_cell_angle_gamma 90.000000
_cell_volume 1944.000000
_symmetry_space_group_name_H-M "P C C M"
_symmetry_group_IT_number 49
_symmetry_cell_setting 'orthorhombic'
loop_
_space_group_symop_operation_xyz
x,y,z
-x,-y,z
x,-y,1/2-z
-x,y,1/2-z
-x,-y,-z
x,y,-z
-x,y,1/2+z
x,-y,1/2+z
loop_
_atom_site_type_symbol
_atom_site_label
_atom_site_fract_x
_atom_site_fract_y
_atom_site_fract_z
Si Si1 0.985098 0.828823 0.339604
Si Si2 0.768899 0.670795 0.589260
Si Si3 0.385249 0.831825 0.712144
Si Si4 0.818257 0.387537 0.317176
Si Si5 0.512126 0.322717 0.088886
O O1 0.084204 0.710509 0.355011
O O2 0.000000 0.835252 0.250000
O O3 0.867664 0.764693 0.370397
O O4 0.000000 0.000000 0.366146
O O5 0.786011 0.673235 0.500000
O O6 0.773495 0.502972 0.621437
O O7 0.641500 0.723127 0.604267
O O8 0.500000 0.774377 0.750000
O O9 0.275484 0.726731 0.715930
O O10 0.427432 0.795626 0.627367
O O11 0.367947 0.000000 0.750000
O O12 0.855244 0.500000 0.250000
O O13 0.500000 0.500000 0.112007
O O14 0.495502 0.321044 0.000000
#
# Coordination Sequence:
#
# PCOD9395312 Si02
#       5
#     8   8   8   8   8
#     4  11  26  43  66  98 142 189 231 290 364 436
#     4  11  24  44  73 105 136 180 244 299 350 426
#     4  11  26  41  65 105 148 181 232 296 355 431
#     4  12  24  41  68  99 137 183 237 292 355 413
#     4  10  21  43  73 104 141 188 240 296 359 425
#
# _framework density 20.576132000000001
#
# number of rings (size 3 to 8) (size 9 to 14) (size 15 to 20)
#    0.000    1.000    4.000    1.800    2.800    3.600 
#    0.000    2.000    0.000    3.600    0.000    0.000 
#    0.000    0.000    0.000    0.000    0.000    0.000 
#
# Total GULP energy -223101.406802 kJ/mol
# GULP energy per Si atom -5577.535170 kJ/mol
# Density = 2.052930 g / cm^3
# Si number density = 20.576132 Si / 1000 Ang^3
#
#
#
# Elastic Constant Matrix: (Units=GPa)
#
#
# Indices 1 2 3 4 5 6 
#
# 1 132.8059 65.4885 30.5976 0.0000 0.0000 0.0000
# 2 65.4885 149.8265 34.7658 0.0000 0.0000 0.0000
# 3 30.5976 34.7658 84.6499 0.0000 0.0000 0.0000
# 4 0.0000 0.0000 0.0000 33.1493 0.0000 0.0000
# 5 0.0000 0.0000 0.0000 0.0000 38.2360 0.0000
# 6 0.0000 0.0000 0.0000 0.0000 0.0000 44.4736
#
#
#
# Elastic Compliance Matrix: (Units=1/GPa)
#
#
# Indices 1 2 3 4 5 6 
#
# 1 0.009893 -0.003862 -0.001990 0.000000 0.000000 0.000000
# 2 -0.003862 0.008885 -0.002253 0.000000 0.000000 0.000000
# 3 -0.001990 -0.002253 0.013458 0.000000 0.000000 0.000000
# 4 0.000000 0.000000 0.000000 0.030167 0.000000 0.000000
# 5 0.000000 0.000000 0.000000 0.000000 0.026153 0.000000
# 6 0.000000 0.000000 0.000000 0.000000 0.000000 0.022485
#
#
# Mechanical properties :
#
#
# Convention : Reuss Voigt Hill
#
# Bulk Modulus (GPa) = 62.39916 69.88735 66.14326
# Shear Modulus (GPa) = 37.70921 38.93378 38.32150
#
# Velocity S-wave (km/s) = 4.28561 4.35464 4.32026
# Velocity P-wave (km/s) = 7.40813 7.70213 7.55656
#
# Compressibility (1/GPa) = 0.01602586
#
# Stress axis : x y z
#
# Youngs Moduli (GPa) = 101.08366 112.54332 74.30594
#
# Poissons Ratio (x) = 0.43469 0.14784
# Poissons Ratio (y) = 0.39043 0.16742
# Poissons Ratio (z) = 0.20111 0.25358
#
# Static dielectric constant tensor:
#      x y z
#    x 1.768520 0.000000 0.000000 
#    y 0.000000 1.747750 0.000000 
#    z 0.000000 0.000000 1.811210 
# 
# From -- ./inp_files/16849.got.cif
#   From: 2010.05.17/outbox.ucp.g08.bks.cvg/sg49_9_cif.got.tgz:16849.got - 2010.06.11 16:40:14.
