data_PCOD9395570
_publ_section_title
;
Structure prediction by ZEFSAII (Michael W. Deem and Ramdas Pophale) SiO2 
 PCOD9395570
Probable space group: P B A N
;
_chemical_formula_sum "Si O2"
_cell_formula_units_Z 44
_cell_length_a 9.243911
_cell_length_b 29.313448
_cell_length_c 8.042025
_cell_angle_alpha 90.000000
_cell_angle_beta 90.000000
_cell_angle_gamma 90.000000
_cell_volume 2179.154788
_symmetry_space_group_name_H-M "P B A N"
_symmetry_group_IT_number 50
_space_group.IT_coordinate_system_code '2'
_symmetry_cell_setting 'orthorhombic'
loop_
_space_group_symop_operation_xyz
x,y,z
1/2-x,1/2-y,z
x,1/2-y,-z
1/2-x,y,-z
-x,-y,-z
1/2+x,1/2+y,-z
-x,1/2+y,z
1/2+x,-y,z
loop_
_atom_site_type_symbol
_atom_site_label
_atom_site_fract_x
_atom_site_fract_y
_atom_site_fract_z
Si Si1 0.999277 0.936803 0.595553
Si Si2 0.585849 0.696249 0.463492
Si Si3 0.502634 0.616550 0.241281
Si Si4 0.250000 0.499776 0.500000
Si Si5 0.250000 0.365915 0.000000
Si Si6 0.750000 0.364219 0.000000
Si Si7 0.502048 0.154815 0.784755
O O1 0.997013 0.912770 0.411435
O O2 0.000944 0.898700 0.736779
O O3 0.856506 0.967650 0.605242
O O4 0.140860 0.968195 0.601936
O O5 0.590665 0.750000 0.500000
O O6 0.750000 0.678703 0.500000
O O7 0.528580 0.669538 0.301046
O O8 0.485824 0.678947 0.611153
O O9 0.638659 0.606992 0.119392
O O10 0.355284 0.610814 0.134495
O O11 0.146085 0.336208 0.881783
O O12 0.636782 0.334870 0.102211
#
# Coordination Sequence:
#
# PCOD9395570 Si02
#       7
#     8   8   8   4   4   4   8
#     4  10  20  35  59  79 110 143 193 228 278 326
#     4  10  20  37  61  88 110 143 195 239 269 320
#     4  10  20  37  59  83 112 152 184 232 277 339
#     4  10  20  32  56  88 104 138 188 246 270 322
#     4  10  18  32  57  83 108 146 192 222 278 331
#     4  10  22  36  57  85 118 150 188 218 290 339
#     4  10  20  37  59  83 112 152 184 232 277 339
#
# _framework density 20.191313000000001
#
# number of rings (size 3 to 8) (size 9 to 14) (size 15 to 20)
#    0.000    2.000    1.818    2.182    2.545    2.182 
#    0.000    7.273    0.000   76.364    0.000    0.000 
#    0.000    0.000    0.000    0.000    0.000    0.000 
#
# Total GULP energy -245053.514130 kJ/mol
# GULP energy per Si atom -5569.398048 kJ/mol
# Density = 2.014536 g / cm^3
# Si number density = 20.191313 Si / 1000 Ang^3
#
#
#
# Elastic Constant Matrix: (Units=GPa)
#
#
# Indices 1 2 3 4 5 6 
#
# 1 128.4278 21.5137 37.1914 0.0000 0.0000 0.0000
# 2 21.5137 67.9457 11.3716 0.0000 0.0000 0.0000
# 3 37.1914 11.3716 97.6173 0.0000 0.0000 0.0000
# 4 0.0000 0.0000 0.0000 5.0899 0.0000 0.0000
# 5 0.0000 0.0000 0.0000 0.0000 26.5847 0.0000
# 6 0.0000 0.0000 0.0000 0.0000 0.0000 9.4152
#
#
#
# Elastic Compliance Matrix: (Units=1/GPa)
#
#
# Indices 1 2 3 4 5 6 
#
# 1 0.009105 -0.002348 -0.003195 0.000000 0.000000 0.000000
# 2 -0.002348 0.015616 -0.000924 0.000000 0.000000 0.000000
# 3 -0.003195 -0.000924 0.011569 0.000000 0.000000 0.000000
# 4 0.000000 0.000000 0.000000 0.196469 0.000000 0.000000
# 5 0.000000 0.000000 0.000000 0.000000 0.037616 0.000000
# 6 0.000000 0.000000 0.000000 0.000000 0.000000 0.106211
#
#
# Mechanical properties :
#
#
# Convention : Reuss Voigt Hill
#
# Bulk Modulus (GPa) = 42.81914 48.23824 45.52869
# Shear Modulus (GPa) = 12.58472 23.14556 17.86514
#
# Velocity S-wave (km/s) = 2.49925 3.38940 2.97777
# Velocity P-wave (km/s) = 5.43885 6.26576 5.86690
#
# Compressibility (1/GPa) = 0.02335404
#
# Stress axis : x y z
#
# Youngs Moduli (GPa) = 109.82720 64.03748 86.43617
#
# Poissons Ratio (x) = 0.15037 0.27620
# Poissons Ratio (y) = 0.25789 0.07991
# Poissons Ratio (z) = 0.35095 0.05920
#
# Static dielectric constant tensor:
#      x y z
#    x 1.735710 0.000000 0.000000 
#    y 0.000000 1.765180 0.000000 
#    z 0.000000 0.000000 1.734810 
# 
# From -- ./inp_files/9994.got.cif
#   From: 2010.05.17/outbox.cif.g08.bks.cpg/sg50_5_cif.got.tgz:9994.got - 2010.06.03 11:33:33.
