data_PCOD9395008
_publ_section_title
;
Structure prediction by ZEFSAII (Michael W. Deem and Ramdas Pophale) SiO2 
 PCOD9395008
Probable space group: P C C M
;
_chemical_formula_sum "Si O2"
_cell_formula_units_Z 58
_cell_length_a 10.732933
_cell_length_b 11.166294
_cell_length_c 27.712674
_cell_angle_alpha 90.000000
_cell_angle_beta 90.000000
_cell_angle_gamma 90.000000
_cell_volume 3321.283206
_symmetry_space_group_name_H-M "P C C M"
_symmetry_group_IT_number 49
_symmetry_cell_setting 'orthorhombic'
loop_
_space_group_symop_operation_xyz
x,y,z
-x,-y,z
x,-y,1/2-z
-x,y,1/2-z
-x,-y,-z
x,y,-z
-x,y,1/2+z
x,-y,1/2+z
loop_
_atom_site_type_symbol
_atom_site_label
_atom_site_fract_x
_atom_site_fract_y
_atom_site_fract_z
Si Si1 0.196766 0.446642 0.444651
Si Si2 0.849897 0.073013 0.199646
Si Si3 0.000000 0.500000 0.250000
Si Si4 0.620231 0.755659 0.720287
Si Si5 0.064009 0.694449 0.555775
Si Si6 0.622389 0.570388 0.361387
Si Si7 0.225333 0.375412 0.199420
Si Si8 0.905777 0.160434 0.349599
O O1 0.239094 0.441102 0.500000
O O2 0.069731 0.370982 0.440860
O O3 0.295463 0.396378 0.407245
O O4 0.161240 0.585742 0.434016
O O5 0.723526 0.146402 0.206345
O O6 0.966726 0.156309 0.183069
O O7 0.868443 0.000000 0.250000
O O8 0.849779 0.971429 0.158374
O O9 0.907617 0.577061 0.217450
O O10 0.500000 0.800771 0.750000
O O11 0.585478 0.681022 0.672673
O O12 0.689478 0.662082 0.755705
O O13 0.081474 0.733013 0.500000
O O14 0.069185 0.797209 0.595959
O O15 0.500000 0.500000 0.376814
O O16 0.706613 0.477850 0.330614
O O17 0.192676 0.255248 0.170877
#
# Coordination Sequence:
#
# PCOD9395008 Si02
#       8
#     8   8   2   8   8   8   8   8
#     4   9  19  35  56  86 118 148 187 231 289 359
#     4  11  24  39  55  79 109 153 196 233 284 333
#     4  12  24  28  54  86 118 152 180 222 298 360
#     4  12  24  41  55  76 121 159 191 237 275 345
#     4   9  18  34  59  88 116 146 183 239 300 350
#     4  12  23  37  56  84 118 151 191 234 287 339
#     4  12  23  34  53  85 115 150 189 228 285 348
#     4  11  21  37  58  81 115 145 188 248 281 339
#
# _framework density 17.46313
#
# number of rings (size 3 to 8) (size 9 to 14) (size 15 to 20)
#    0.000    1.103    5.517    3.310    1.931    0.552 
#    0.000    1.379    0.000    0.828    0.000    0.000 
#    0.000    3.310    0.000    0.000    0.000    0.000 
#
# Total GULP energy -323633.284882 kJ/mol
# GULP energy per Si atom -5579.884222 kJ/mol
# Density = 1.742338 g / cm^3
# Si number density = 17.463130 Si / 1000 Ang^3
#
#
#
# Elastic Constant Matrix: (Units=GPa)
#
#
# Indices 1 2 3 4 5 6 
#
# 1 57.6574 1.8701 15.5093 0.0000 0.0000 0.0000
# 2 1.8701 51.0013 26.8584 0.0000 0.0000 0.0000
# 3 15.5093 26.8584 98.8970 0.0000 0.0000 0.0000
# 4 0.0000 0.0000 0.0000 27.6757 0.0000 0.0000
# 5 0.0000 0.0000 0.0000 0.0000 21.2533 0.0000
# 6 0.0000 0.0000 0.0000 0.0000 0.0000 -4.8548
#
#
#
# Elastic Compliance Matrix: (Units=1/GPa)
#
#
# Indices 1 2 3 4 5 6 
#
# 1 0.018149 0.000972 -0.003110 0.000000 0.000000 0.000000
# 2 0.000972 0.022932 -0.006380 0.000000 0.000000 0.000000
# 3 -0.003110 -0.006380 0.012332 0.000000 0.000000 0.000000
# 4 0.000000 0.000000 0.000000 0.036133 0.000000 0.000000
# 5 0.000000 0.000000 0.000000 0.000000 0.047051 0.000000
# 6 0.000000 0.000000 0.000000 0.000000 0.000000 -0.205980
#
#
# Mechanical properties :
#
#
# Convention : Reuss Voigt Hill
#
# Bulk Modulus (GPa) = 27.49031 32.89236 30.19134
# Shear Modulus (GPa) = -124.31139 19.70270 -52.30435
#
# Velocity S-wave (km/s) = -8.44628 3.36258 -5.47872
# Velocity P-wave (km/s) = 8.90749 5.82685 4.76399
#
# Compressibility (1/GPa) = 0.03637646
#
# Stress axis : x y z
#
# Youngs Moduli (GPa) = 55.09972 43.60783 81.08966
#
# Poissons Ratio (x) = -0.04241 0.25221
# Poissons Ratio (y) = -0.05358 0.51737
# Poissons Ratio (z) = 0.17137 0.27823
#
# Static dielectric constant tensor:
#      x y z
#    x 1.594490 0.000000 0.000000 
#    y 0.000000 1.610410 0.000000 
#    z 0.000000 0.000000 1.609690 
# 
# From -- ./inp_files/24566.got.cif
#   From: 2010.05.17/outbox.cif.g08.bks.cpg/sg49_13_cif.got.tgz:24566.got - 2010.06.03 21:02:19.
