data_PCOD9395548
_publ_section_title
;
Structure prediction by ZEFSAII (Michael W. Deem and Ramdas Pophale) SiO2 
 PCOD9395548
Probable space group: P B A N
;
_chemical_formula_sum "Si O2"
_cell_formula_units_Z 40
_cell_length_a 9.179623
_cell_length_b 25.564371
_cell_length_c 9.126984
_cell_angle_alpha 90.000000
_cell_angle_beta 90.000000
_cell_angle_gamma 90.000000
_cell_volume 2141.841091
_symmetry_space_group_name_H-M "P B A N"
_symmetry_group_IT_number 50
_space_group.IT_coordinate_system_code '2'
_symmetry_cell_setting 'orthorhombic'
loop_
_space_group_symop_operation_xyz
x,y,z
1/2-x,1/2-y,z
x,1/2-y,-z
1/2-x,y,-z
-x,-y,-z
1/2+x,1/2+y,-z
-x,1/2+y,z
1/2+x,-y,z
loop_
_atom_site_type_symbol
_atom_site_label
_atom_site_fract_x
_atom_site_fract_y
_atom_site_fract_z
Si Si1 0.629127 0.593841 0.299238
Si Si2 0.320841 0.528656 0.659173
Si Si3 0.205962 0.692318 0.330205
Si Si4 0.347939 0.600960 0.144891
Si Si5 0.949811 0.620280 0.369443
O O1 0.638295 0.531389 0.322657
O O2 0.522764 0.603334 0.161227
O O3 0.793048 0.615570 0.293809
O O4 0.567562 0.617015 0.453490
O O5 0.250000 0.535925 0.500000
O O6 0.202207 0.547561 0.776165
O O7 0.454772 0.569069 0.671700
O O8 0.250000 0.750000 0.277850
O O9 0.250000 0.689442 0.500000
O O10 0.294833 0.649220 0.242738
O O11 0.039508 0.671947 0.324592
O O12 0.250000 0.604043 0.000000
#
# Coordination Sequence:
#
# PCOD9395548 Si02
#       5
#     8   8   8   8   8
#     4  11  19  31  56  87 118 150 195 242 297 350
#     4  11  18  33  56  82 114 164 202 235 289 359
#     4  10  20  39  62  80 105 143 198 249 302 365
#     4  11  23  37  53  81 120 155 197 241 296 375
#     4  10  18  31  56  89 111 142 196 258 292 343
#
# _framework density 18.675522000000001
#
# number of rings (size 3 to 8) (size 9 to 14) (size 15 to 20)
#    0.000    1.400    6.000    3.000    0.000    1.200 
#    0.000    5.000    0.000    0.000    0.000    5.600 
#    0.000    0.000    0.000    0.000    0.000    0.000 
#
# Total GULP energy -223043.416067 kJ/mol
# GULP energy per Si atom -5576.085402 kJ/mol
# Density = 1.863302 g / cm^3
# Si number density = 18.675522 Si / 1000 Ang^3
#
#
#
# Elastic Constant Matrix: (Units=GPa)
#
#
# Indices 1 2 3 4 5 6 
#
# 1 164.1277 43.0837 26.0713 0.0000 0.0000 0.0000
# 2 43.0837 90.0730 15.9671 0.0000 0.0000 0.0000
# 3 26.0713 15.9671 40.8204 0.0000 0.0000 0.0000
# 4 0.0000 0.0000 0.0000 -16.9525 0.0000 0.0000
# 5 0.0000 0.0000 0.0000 0.0000 32.5646 0.0000
# 6 0.0000 0.0000 0.0000 0.0000 0.0000 -7.1748
#
#
#
# Elastic Compliance Matrix: (Units=1/GPa)
#
#
# Indices 1 2 3 4 5 6 
#
# 1 0.007431 -0.002915 -0.003606 0.000000 0.000000 0.000000
# 2 -0.002915 0.013073 -0.003252 0.000000 0.000000 0.000000
# 3 -0.003606 -0.003252 0.028072 0.000000 0.000000 0.000000
# 4 0.000000 0.000000 0.000000 -0.058988 0.000000 0.000000
# 5 0.000000 0.000000 0.000000 0.000000 0.030708 0.000000
# 6 0.000000 0.000000 0.000000 0.000000 0.000000 -0.139376
#
#
# Mechanical properties :
#
#
# Convention : Reuss Voigt Hill
#
# Bulk Modulus (GPa) = 34.44585 51.69616 43.07100
# Shear Modulus (GPa) = -55.64302 15.68071 -19.98115
#
# Velocity S-wave (km/s) = -5.46437 2.90080 -3.27450
# Velocity P-wave (km/s) = 4.61822 6.24186 2.96925
#
# Compressibility (1/GPa) = 0.02903107
#
# Stress axis : x y z
#
# Youngs Moduli (GPa) = 134.57514 76.49418 35.62226
#
# Poissons Ratio (x) = 0.22299 0.12844
# Poissons Ratio (y) = 0.39230 0.11583
# Poissons Ratio (z) = 0.48523 0.24874
#
# Static dielectric constant tensor:
#      x y z
#    x 1.762720 0.000000 0.000000 
#    y 0.000000 1.634780 0.000000 
#    z 0.000000 0.000000 1.668670 
# 
# From -- ./inp_files/9465.got.cif
#   From: 2010.05.17/outbox.cif.g08.bks.cpg/sg50_5_cif.got.tgz:9465.got - 2010.06.03 11:33:33.
