data_PCOD9395583
_publ_section_title
;
Structure prediction by ZEFSAII (Michael W. Deem and Ramdas Pophale) SiO2 
 PCOD9395583
Probable space group: P B A N
;
_chemical_formula_sum "Si O2"
_cell_formula_units_Z 40
_cell_length_a 10.986760
_cell_length_b 20.359693
_cell_length_c 9.021085
_cell_angle_alpha 90.000000
_cell_angle_beta 90.000000
_cell_angle_gamma 90.000000
_cell_volume 2017.899988
_symmetry_space_group_name_H-M "P B A N"
_symmetry_group_IT_number 50
_space_group.IT_coordinate_system_code '2'
_symmetry_cell_setting 'orthorhombic'
loop_
_space_group_symop_operation_xyz
x,y,z
1/2-x,1/2-y,z
x,1/2-y,-z
1/2-x,y,-z
-x,-y,-z
1/2+x,1/2+y,-z
-x,1/2+y,z
1/2+x,-y,z
loop_
_atom_site_type_symbol
_atom_site_label
_atom_site_fract_x
_atom_site_fract_y
_atom_site_fract_z
Si Si1 0.589151 0.376512 0.749437
Si Si2 0.750000 0.060968 0.500000
Si Si3 0.645532 0.972698 0.756718
Si Si4 0.947034 0.744223 0.677218
Si Si5 0.277231 0.146654 0.676144
Si Si6 0.750000 0.437088 0.000000
O O1 0.664157 0.395177 0.602848
O O2 0.473365 0.426659 0.750506
O O3 0.552604 0.299855 0.745098
O O4 0.670711 0.394068 0.889090
O O5 0.667392 0.016218 0.609398
O O6 0.758103 0.921376 0.757246
O O7 0.661027 0.018181 0.899261
O O8 0.963254 0.750000 0.500000
O O9 0.830299 0.697981 0.711633
O O10 0.903535 0.817659 0.715688
O O11 0.250000 0.135510 0.500000
#
# Coordination Sequence:
#
# PCOD9395583 Si02
#       6
#     8   4   8   8   8   4
#     4  10  20  35  55  82 119 157 196 239 288 351
#     4  10  20  32  53  91 116 148 192 238 300 356
#     4  10  18  33  55  86 122 146 189 247 297 343
#     4   8  15  28  52  84 106 142 184 241 295 336
#     4   8  13  26  52  85 115 133 175 243 307 337
#     4  10  22  34  52  87 123 166 194 222 294 370
#
# _framework density 19.822588
#
# number of rings (size 3 to 8) (size 9 to 14) (size 15 to 20)
#    0.000    2.800    1.000    2.400    0.000    0.000 
#    0.000    0.500    0.000    9.600   15.600    0.000 
#    0.000    0.000    0.000    0.000    0.000    0.000 
#
# Total GULP energy -222754.751155 kJ/mol
# GULP energy per Si atom -5568.868779 kJ/mol
# Density = 1.977747 g / cm^3
# Si number density = 19.822588 Si / 1000 Ang^3
#
#
#
# Elastic Constant Matrix: (Units=GPa)
#
#
# Indices 1 2 3 4 5 6 
#
# 1 72.5374 40.2996 39.2658 0.0000 0.0000 0.0000
# 2 40.2996 87.7437 44.6722 0.0000 0.0000 0.0000
# 3 39.2658 44.6722 85.6930 0.0000 0.0000 0.0000
# 4 0.0000 0.0000 0.0000 21.8634 0.0000 0.0000
# 5 0.0000 0.0000 0.0000 0.0000 11.5042 0.0000
# 6 0.0000 0.0000 0.0000 0.0000 0.0000 39.3454
#
#
#
# Elastic Compliance Matrix: (Units=1/GPa)
#
#
# Indices 1 2 3 4 5 6 
#
# 1 0.020642 -0.006351 -0.006148 0.000000 0.000000 0.000000
# 2 -0.006351 0.017468 -0.006196 0.000000 0.000000 0.000000
# 3 -0.006148 -0.006196 0.017717 0.000000 0.000000 0.000000
# 4 0.000000 0.000000 0.000000 0.045739 0.000000 0.000000
# 5 0.000000 0.000000 0.000000 0.000000 0.086925 0.000000
# 6 0.000000 0.000000 0.000000 0.000000 0.000000 0.025416
#
#
# Mechanical properties :
#
#
# Convention : Reuss Voigt Hill
#
# Bulk Modulus (GPa) = 54.23743 54.93880 54.58812
# Shear Modulus (GPa) = 19.42186 22.65839 21.04012
#
# Velocity S-wave (km/s) = 3.13355 3.38458 3.26148
# Velocity P-wave (km/s) = 6.36498 6.56120 6.46383
#
# Compressibility (1/GPa) = 0.01843745
#
# Stress axis : x y z
#
# Youngs Moduli (GPa) = 48.44444 57.24657 56.44359
#
# Poissons Ratio (x) = 0.36355 0.34701
# Poissons Ratio (y) = 0.30766 0.34974
# Poissons Ratio (z) = 0.29783 0.35472
#
# Static dielectric constant tensor:
#      x y z
#    x 1.741000 0.000000 0.000000 
#    y 0.000000 1.717220 0.000000 
#    z 0.000000 0.000000 1.686910 
# 
# From -- ./inp_files/11084.got.cif
#   From: 2010.05.17/outbox.cif.g08.bks.cpg/sg50_6_cif.got.tgz:11084.got - 2010.06.03 11:33:33.
