data_PCOD9395276
_publ_section_title
;
Structure prediction by ZEFSAII (Michael W. Deem and Ramdas Pophale) SiO2 
 PCOD9395276
Probable space group: P C C M
;
_chemical_formula_sum "Si O2"
_cell_formula_units_Z 56
_cell_length_a 15.000000
_cell_length_b 21.000000
_cell_length_c 9.000000
_cell_angle_alpha 90.000000
_cell_angle_beta 90.000000
_cell_angle_gamma 90.000000
_cell_volume 2835.000000
_symmetry_space_group_name_H-M "P C C M"
_symmetry_group_IT_number 49
_symmetry_cell_setting 'orthorhombic'
loop_
_space_group_symop_operation_xyz
x,y,z
-x,-y,z
x,-y,1/2-z
-x,y,1/2-z
-x,-y,-z
x,y,-z
-x,y,1/2+z
x,-y,1/2+z
loop_
_atom_site_type_symbol
_atom_site_label
_atom_site_fract_x
_atom_site_fract_y
_atom_site_fract_z
Si Si1 0.084953 0.067898 0.326425
Si Si2 0.408596 0.798566 0.671667
Si Si3 0.207510 0.376659 0.762753
Si Si4 0.224888 0.831514 0.827702
Si Si5 0.092164 0.737843 0.332944
Si Si6 0.923177 0.595435 0.500000
Si Si7 0.882581 0.551750 0.000000
Si Si8 0.406415 0.355389 0.175065
O O1 0.064558 0.063622 0.500000
O O2 0.181132 0.099675 0.311928
O O3 0.000000 0.102275 0.250000
O O4 0.090086 0.000000 0.250000
O O5 0.500000 0.819697 0.750000
O O6 0.410513 0.816841 0.500000
O O7 0.317979 0.822528 0.745954
O O8 0.406717 0.721450 0.680153
O O9 0.170850 0.314769 0.846249
O O10 0.135322 0.378038 0.632659
O O11 0.179577 0.436237 0.860718
O O12 0.313761 0.375113 0.743521
O O13 0.144948 0.789231 0.762822
O O14 0.237904 0.814989 0.000000
O O15 0.069010 0.759004 0.500000
O O16 0.000000 0.719171 0.250000
O O17 0.913034 0.519829 0.500000
O O18 0.030979 0.599797 0.500000
O O19 0.500000 0.376910 0.250000
O O20 0.401730 0.374101 0.000000
#
# Coordination Sequence:
#
# PCOD9395276 Si02
#       8
#     8   8   8   8   8   4   4   8
#     4  10  21  37  58  84 116 160 207 248 288 341
#     4  10  20  36  57  84 118 157 196 242 299 357
#     4  12  23  39  62  88 119 152 197 247 300 356
#     4  11  23  37  57  87 122 156 198 246 295 358
#     4  12  24  37  55  83 121 158 190 237 302 361
#     4  11  26  38  65  91 113 161 203 237 299 348
#     4  11  22  46  61  85 123 155 201 249 281 360
#     4  10  21  38  60  86 116 151 194 242 296 359
#
# _framework density 19.753086
#
# number of rings (size 3 to 8) (size 9 to 14) (size 15 to 20)
#    0.000    1.143    2.857    4.286    3.000    5.143 
#    0.000    0.000    0.000    3.000    0.000    3.000 
#    0.000    0.000    0.000    0.000    0.000    0.000 
#
# Total GULP energy -311977.854076 kJ/mol
# GULP energy per Si atom -5571.033108 kJ/mol
# Density = 1.970813 g / cm^3
# Si number density = 19.753086 Si / 1000 Ang^3
#
#
#
# Elastic Constant Matrix: (Units=GPa)
#
#
# Indices 1 2 3 4 5 6 
#
# 1 191.6896 25.3299 64.7829 0.0000 0.0000 0.0000
# 2 25.3299 28.3517 24.0839 0.0000 0.0000 0.0000
# 3 64.7829 24.0839 106.4924 0.0000 0.0000 0.0000
# 4 0.0000 0.0000 0.0000 -0.0403 0.0000 0.0000
# 5 0.0000 0.0000 0.0000 0.0000 44.6448 0.0000
# 6 0.0000 0.0000 0.0000 0.0000 0.0000 18.8455
#
#
#
# Elastic Compliance Matrix: (Units=1/GPa)
#
#
# Indices 1 2 3 4 5 6 
#
# 1 0.006789 -0.003165 -0.003414 0.000000 0.000000 0.000000
# 2 -0.003165 0.045134 -0.008282 0.000000 0.000000 0.000000
# 3 -0.003414 -0.008282 0.013340 0.000000 0.000000 0.000000
# 4 0.000000 0.000000 0.000000-24.808411 0.000000 0.000000
# 5 0.000000 0.000000 0.000000 0.000000 0.022399 0.000000
# 6 0.000000 0.000000 0.000000 0.000000 0.000000 0.053063
#
#
# Mechanical properties :
#
#
# Convention : Reuss Voigt Hill
#
# Bulk Modulus (GPa) = 28.13641 61.65857 44.89749
# Shear Modulus (GPa) = -0.20304 26.84579 13.32138
#
# Velocity S-wave (km/s) = -0.32095 3.69055 2.59973
# Velocity P-wave (km/s) = 3.76000 7.03155 5.63828
#
# Compressibility (1/GPa) = 0.03554114
#
# Stress axis : x y z
#
# Youngs Moduli (GPa) = 147.30123 22.15608 74.96111
#
# Poissons Ratio (x) = 0.07013 0.25592
# Poissons Ratio (y) = 0.46622 0.62083
# Poissons Ratio (z) = 0.50289 0.18350
#
# Static dielectric constant tensor:
#      x y z
#    x 1.661940 0.000000 0.000000 
#    y 0.000000 1.745620 0.000000 
#    z 0.000000 0.000000 2.085480 
# 
# From -- ./inp_files/4131.got.cif
#   From: 2010.05.17/outbox.ucp.g08.bks.cvg/sg49_3_cif.got.tgz:4131.got - 2010.06.11 16:40:14.
