data_PCOD9395877
_publ_section_title
;
Structure prediction by ZEFSAII (Michael W. Deem and Ramdas Pophale) SiO2 
 PCOD9395877
Probable space group: P B A N
;
_chemical_formula_sum "Si O2"
_cell_formula_units_Z 44
_cell_length_a 9.693394
_cell_length_b 14.026251
_cell_length_c 14.430398
_cell_angle_alpha 90.000000
_cell_angle_beta 90.000000
_cell_angle_gamma 90.000000
_cell_volume 1961.985445
_symmetry_space_group_name_H-M "P B A N"
_symmetry_group_IT_number 50
_space_group.IT_coordinate_system_code '2'
_symmetry_cell_setting 'orthorhombic'
loop_
_space_group_symop_operation_xyz
x,y,z
1/2-x,1/2-y,z
x,1/2-y,-z
1/2-x,y,-z
-x,-y,-z
1/2+x,1/2+y,-z
-x,1/2+y,z
1/2+x,-y,z
loop_
_atom_site_type_symbol
_atom_site_label
_atom_site_fract_x
_atom_site_fract_y
_atom_site_fract_z
Si Si1 0.681683 0.441291 0.100622
Si Si2 0.750000 0.250000 0.788689
Si Si3 0.035460 0.260130 0.686669
Si Si4 0.097940 0.439885 0.805783
Si Si5 0.553172 0.556760 0.353665
Si Si6 0.107939 0.883858 0.537172
O O1 0.724307 0.342379 0.149053
O O2 0.516458 0.445346 0.111958
O O3 0.754719 0.525200 0.159163
O O4 0.750000 0.444003 0.000000
O O5 0.884190 0.233657 0.726387
O O6 0.095839 0.335670 0.759592
O O7 0.997588 0.315923 0.592232
O O8 0.113356 0.160204 0.672485
O O9 0.037766 0.511746 0.728124
O O10 0.464639 0.578943 0.444873
O O11 0.646097 0.469226 0.390339
O O12 0.250000 0.843507 0.500000
#
# Coordination Sequence:
#
# PCOD9395877 Si02
#       6
#     8   4   8   8   8   8
#     4  11  22  41  65  93 122 158 206 265 319 375
#     4  10  19  34  65  94 116 158 214 259 303 376
#     4  10  19  35  59  88 123 163 206 252 304 364
#     4  10  23  38  65  89 123 164 200 255 318 373
#     4  10  20  36  56  85 125 156 207 250 303 369
#     4  10  21  33  59  88 119 163 207 257 299 361
#
# _framework density 22.426262999999999
#
# number of rings (size 3 to 8) (size 9 to 14) (size 15 to 20)
#    0.000    1.818    1.818    2.455    5.091    0.727 
#    0.000    0.909    4.000    1.091    0.000    0.000 
#    0.000    0.000    0.000    0.000    0.000    0.000 
#
# Total GULP energy -245914.723706 kJ/mol
# GULP energy per Si atom -5588.970993 kJ/mol
# Density = 2.237522 g / cm^3
# Si number density = 22.426263 Si / 1000 Ang^3
#
#
#
# Elastic Constant Matrix: (Units=GPa)
#
#
# Indices 1 2 3 4 5 6 
#
# 1 64.1580 3.0498 -3.4268 0.0000 0.0000 0.0000
# 2 3.0498 130.5880 11.6951 0.0000 0.0000 0.0000
# 3 -3.4268 11.6951 86.8096 0.0000 0.0000 0.0000
# 4 0.0000 0.0000 0.0000 12.2607 0.0000 0.0000
# 5 0.0000 0.0000 0.0000 0.0000 22.6480 0.0000
# 6 0.0000 0.0000 0.0000 0.0000 0.0000 15.4358
#
#
#
# Elastic Compliance Matrix: (Units=1/GPa)
#
#
# Indices 1 2 3 4 5 6 
#
# 1 0.015643 -0.000426 0.000675 0.000000 0.000000 0.000000
# 2 -0.000426 0.007763 -0.001063 0.000000 0.000000 0.000000
# 3 0.000675 -0.001063 0.011689 0.000000 0.000000 0.000000
# 4 0.000000 0.000000 0.000000 0.081562 0.000000 0.000000
# 5 0.000000 0.000000 0.000000 0.000000 0.044154 0.000000
# 6 0.000000 0.000000 0.000000 0.000000 0.000000 0.064785
#
#
# Mechanical properties :
#
#
# Convention : Reuss Voigt Hill
#
# Bulk Modulus (GPa) = 29.87946 33.79908 31.83927
# Shear Modulus (GPa) = 20.97508 28.08472 24.52990
#
# Velocity S-wave (km/s) = 3.06157 3.54264 3.31086
# Velocity P-wave (km/s) = 5.08429 5.64249 5.37064
#
# Compressibility (1/GPa) = 0.03346781
#
# Stress axis : x y z
#
# Youngs Moduli (GPa) = 63.92715 128.81978 85.54857
#
# Poissons Ratio (x) = 0.05485 -0.05773
# Poissons Ratio (y) = 0.02722 0.09091
# Poissons Ratio (z) = -0.04314 0.13689
#
# Static dielectric constant tensor:
#      x y z
#    x 1.848660 0.000000 0.000000 
#    y 0.000000 1.905100 0.000000 
#    z 0.000000 0.000000 1.807270 
# 
# From -- ./inp_files/25834.got.cif
#   From: 2010.05.17/outbox.cif.g08.bks.cpg/sg50_13_cif.got.tgz:25834.got - 2010.06.03 11:33:33.
