data_PCOD9395064
_publ_section_title
;
Structure prediction by ZEFSAII (Michael W. Deem and Ramdas Pophale) SiO2 
 PCOD9395064
Probable space group: P C C M
;
_chemical_formula_sum "Si O2"
_cell_formula_units_Z 48
_cell_length_a 9.263114
_cell_length_b 31.175750
_cell_length_c 8.612494
_cell_angle_alpha 90.000000
_cell_angle_beta 90.000000
_cell_angle_gamma 90.000000
_cell_volume 2487.155000
_symmetry_space_group_name_H-M "P C C M"
_symmetry_group_IT_number 49
_symmetry_cell_setting 'orthorhombic'
loop_
_space_group_symop_operation_xyz
x,y,z
-x,-y,z
x,-y,1/2-z
-x,y,1/2-z
-x,-y,-z
x,y,-z
-x,y,1/2+z
x,-y,1/2+z
loop_
_atom_site_type_symbol
_atom_site_label
_atom_site_fract_x
_atom_site_fract_y
_atom_site_fract_z
Si Si1 0.162149 0.288135 0.313602
Si Si2 0.339560 0.952710 0.686322
Si Si3 0.660607 0.625844 0.314099
Si Si4 0.838708 0.873583 0.314013
Si Si5 0.662061 0.207231 0.685759
Si Si6 0.839108 0.453351 0.685376
O O1 0.160380 0.283058 0.500000
O O2 0.242514 0.332661 0.275919
O O3 0.249522 0.248950 0.239175
O O4 0.000000 0.288780 0.250000
O O5 0.500000 0.942416 0.750000
O O6 0.342534 0.953188 0.500000
O O7 0.229616 0.917317 0.748352
O O8 0.303050 0.000000 0.750000
O O9 0.500000 0.631846 0.250000
O O10 0.656274 0.621496 0.500000
O O11 0.733015 0.583716 0.241909
O O12 0.840145 0.874500 0.500000
O O13 0.740759 0.834404 0.255055
O O14 0.000000 0.867939 0.250000
O O15 0.500000 0.209863 0.750000
O O16 0.659691 0.204414 0.500000
O O17 0.795579 0.500000 0.750000
O O18 0.844813 0.454884 0.500000
O O19 0.000000 0.444526 0.750000
#
# Coordination Sequence:
#
# PCOD9395064 Si02
#       6
#     8   8   8   8   8   8
#     4  11  24  42  65  93 125 162 203 250 302 361
#     4  11  22  40  64  93 125 163 207 254 307 364
#     4  11  24  41  62  90 124 161 204 251 304 361
#     4  12  25  43  64  91 125 163 206 254 307 364
#     4  12  25  43  66  93 125 162 204 252 304 362
#     4  11  22  39  63  90 122 159 203 251 304 362
#
# _framework density 19.299157999999998
#
# number of rings (size 3 to 8) (size 9 to 14) (size 15 to 20)
#    0.000    0.667    0.000   10.000    0.000    6.000 
#    0.000    3.333    0.000    0.000    0.000    0.000 
#    0.000    0.000    0.000    0.000    0.000    0.000 
#
# Total GULP energy -268808.643294 kJ/mol
# GULP energy per Si atom -5600.180069 kJ/mol
# Density = 1.925523 g / cm^3
# Si number density = 19.299158 Si / 1000 Ang^3
#
#
#
# Elastic Constant Matrix: (Units=GPa)
#
#
# Indices 1 2 3 4 5 6 
#
# 1 179.2349 107.7356 86.5442 0.0000 0.0000 0.0000
# 2 107.7356 121.5886 79.8541 0.0000 0.0000 0.0000
# 3 86.5442 79.8541 189.4960 0.0000 0.0000 0.0000
# 4 0.0000 0.0000 0.0000 40.4797 0.0000 0.0000
# 5 0.0000 0.0000 0.0000 0.0000 38.6211 0.0000
# 6 0.0000 0.0000 0.0000 0.0000 0.0000 32.9850
#
#
#
# Elastic Compliance Matrix: (Units=1/GPa)
#
#
# Indices 1 2 3 4 5 6 
#
# 1 0.012202 -0.009888 -0.001406 0.000000 0.000000 0.000000
# 2 -0.009888 0.019385 -0.003653 0.000000 0.000000 0.000000
# 3 -0.001406 -0.003653 0.007458 0.000000 0.000000 0.000000
# 4 0.000000 0.000000 0.000000 0.024704 0.000000 0.000000
# 5 0.000000 0.000000 0.000000 0.000000 0.025893 0.000000
# 6 0.000000 0.000000 0.000000 0.000000 0.000000 0.030317
#
#
# Mechanical properties :
#
#
# Convention : Reuss Voigt Hill
#
# Bulk Modulus (GPa) = 109.27015 115.39859 112.33437
# Shear Modulus (GPa) = 32.70044 36.82956 34.76500
#
# Velocity S-wave (km/s) = 4.12077 4.37321 4.24886
# Velocity P-wave (km/s) = 8.90972 9.24253 9.07765
#
# Compressibility (1/GPa) = 0.00915163
#
# Stress axis : x y z
#
# Youngs Moduli (GPa) = 81.95520 51.58540 134.07591
#
# Poissons Ratio (x) = 0.51010 0.18846
# Poissons Ratio (y) = 0.81041 0.48977
# Poissons Ratio (z) = 0.11520 0.18844
#
# Static dielectric constant tensor:
#      x y z
#    x 1.635210 0.000000 0.000000 
#    y 0.000000 1.645270 0.000000 
#    z 0.000000 0.000000 1.643450 
# 
# From -- ./inp_files/2090.got.cif
#   From: 2010.05.17/outbox.cif.g08.bks.cpg/sg49_2_cif.got.tgz:2090.got - 2010.06.03 21:02:19.
