data_PCOD9395187
_publ_section_title
;
Structure prediction by ZEFSAII (Michael W. Deem and Ramdas Pophale) SiO2 
 PCOD9395187
Probable space group: P C C M
;
_chemical_formula_sum "Si O2"
_cell_formula_units_Z 48
_cell_length_a 7.170200
_cell_length_b 18.778213
_cell_length_c 14.190672
_cell_angle_alpha 90.000000
_cell_angle_beta 90.000000
_cell_angle_gamma 90.000000
_cell_volume 1910.682354
_symmetry_space_group_name_H-M "P C C M"
_symmetry_group_IT_number 49
_symmetry_cell_setting 'orthorhombic'
loop_
_space_group_symop_operation_xyz
x,y,z
-x,-y,z
x,-y,1/2-z
-x,y,1/2-z
-x,-y,-z
x,y,-z
-x,y,1/2+z
x,-y,1/2+z
loop_
_atom_site_type_symbol
_atom_site_label
_atom_site_fract_x
_atom_site_fract_y
_atom_site_fract_z
Si Si1 0.358679 0.708320 0.392840
Si Si2 0.726990 0.582793 0.758397
Si Si3 0.782157 0.015387 0.884805
Si Si4 0.799508 0.683350 0.394209
Si Si5 0.868010 0.836357 0.608736
Si Si6 0.692050 0.865590 0.109110
O O1 0.285880 0.715906 0.500000
O O2 0.254498 0.643954 0.339854
O O3 0.574918 0.687637 0.398581
O O4 0.363214 0.788650 0.349947
O O5 0.778512 0.500000 0.750000
O O6 0.500000 0.581800 0.750000
O O7 0.834521 0.617196 0.670989
O O8 0.751927 0.096926 0.852008
O O9 0.664828 0.946374 0.854081
O O10 0.770971 0.017039 0.000000
O O11 0.000000 0.000000 0.861429
O O12 0.871961 0.675775 0.500000
O O13 0.858439 0.758354 0.349019
O O14 0.806417 0.826224 0.500000
O O15 0.082858 0.858713 0.607033
O O16 0.623724 0.866628 0.000000
#
# Coordination Sequence:
#
# PCOD9395187 Si02
#       6
#     8   8   8   8   8   8
#     4   9  17  29  46  68  91 114 144 182 220 259
#     4   9  18  32  49  68  89 114 144 179 221 267
#     4   7  10  18  35  60  87 116 151 183 208 245
#     4   9  17  29  46  68  91 114 144 182 220 259
#     4   8  13  23  41  64  90 120 151 181 215 255
#     4   8  13  23  41  64  90 120 151 181 215 255
#
# _framework density 25.121915000000001
#
# number of rings (size 3 to 8) (size 9 to 14) (size 15 to 20)
#    0.000    3.667    0.000    2.000    0.000    0.667 
#    0.000    5.000    0.000    8.000    0.000   11.667 
#    0.000    0.000    0.000    0.000    0.000    0.000 
#
# Total GULP energy -267634.196371 kJ/mol
# GULP energy per Si atom -5575.712424 kJ/mol
# Density = 2.506474 g / cm^3
# Si number density = 25.121915 Si / 1000 Ang^3
#
#
#
# Elastic Constant Matrix: (Units=GPa)
#
#
# Indices 1 2 3 4 5 6 
#
# 1 68.9394 2.8470 -7.6062 0.0000 0.0000 0.0000
# 2 2.8470 303.5341 66.2608 0.0000 0.0000 0.0000
# 3 -7.6062 66.2608 69.7194 0.0000 0.0000 0.0000
# 4 0.0000 0.0000 0.0000 46.6609 0.0000 0.0000
# 5 0.0000 0.0000 0.0000 0.0000 4.2979 0.0000
# 6 0.0000 0.0000 0.0000 0.0000 0.0000 17.6349
#
#
#
# Elastic Compliance Matrix: (Units=1/GPa)
#
#
# Indices 1 2 3 4 5 6 
#
# 1 0.014774 -0.000619 0.002200 0.000000 0.000000 0.000000
# 2 -0.000619 0.004183 -0.004043 0.000000 0.000000 0.000000
# 3 0.002200 -0.004043 0.018426 0.000000 0.000000 0.000000
# 4 0.000000 0.000000 0.000000 0.021431 0.000000 0.000000
# 5 0.000000 0.000000 0.000000 0.000000 0.232672 0.000000
# 6 0.000000 0.000000 0.000000 0.000000 0.000000 0.056706
#
#
# Mechanical properties :
#
#
# Convention : Reuss Voigt Hill
#
# Bulk Modulus (GPa) = 30.80849 62.79958 46.80403
# Shear Modulus (GPa) = 13.73875 39.09816 26.41845
#
# Velocity S-wave (km/s) = 2.34109 3.94932 3.24637
# Velocity P-wave (km/s) = 4.42694 6.77114 5.72041
#
# Compressibility (1/GPa) = 0.03245859
#
# Stress axis : x y z
#
# Youngs Moduli (GPa) = 67.68752 239.06970 54.27249
#
# Poissons Ratio (x) = 0.14794 -0.11939
# Poissons Ratio (y) = 0.04189 0.21942
# Poissons Ratio (z) = -0.14891 0.96653
#
# Static dielectric constant tensor:
#      x y z
#    x 2.030100 0.000000 0.000000 
#    y 0.000000 2.007020 0.000000 
#    z 0.000000 0.000000 2.059530 
# 
# From -- ./inp_files/11762.got.cif
#   From: 2010.05.17/outbox.cif.g08.bks.cpg/sg49_6_cif.got.tgz:11762.got - 2010.06.03 21:02:19.
