data_PCOD9395975
_publ_section_title
;
Structure prediction by ZEFSAII (Michael W. Deem and Ramdas Pophale) SiO2 
 PCOD9395975
Probable space group: P B A N
;
_chemical_formula_sum "Si O2"
_cell_formula_units_Z 52
_cell_length_a 9.903736
_cell_length_b 20.037416
_cell_length_c 13.380960
_cell_angle_alpha 90.000000
_cell_angle_beta 90.000000
_cell_angle_gamma 90.000000
_cell_volume 2655.388330
_symmetry_space_group_name_H-M "P B A N"
_symmetry_group_IT_number 50
_space_group.IT_coordinate_system_code '2'
_symmetry_cell_setting 'orthorhombic'
loop_
_space_group_symop_operation_xyz
x,y,z
1/2-x,1/2-y,z
x,1/2-y,-z
1/2-x,y,-z
-x,-y,-z
1/2+x,1/2+y,-z
-x,1/2+y,z
1/2+x,-y,z
loop_
_atom_site_type_symbol
_atom_site_label
_atom_site_fract_x
_atom_site_fract_y
_atom_site_fract_z
Si Si1 0.171159 0.813309 0.396527
Si Si2 0.218926 0.458419 0.883004
Si Si3 0.065712 0.250000 0.000000
Si Si4 0.078611 0.148223 0.845535
Si Si5 0.199876 0.601947 0.791776
Si Si6 0.101182 0.243881 0.661112
Si Si7 0.500572 0.154041 0.825751
O O1 0.250000 0.750000 0.347082
O O2 0.250000 0.825550 0.500000
O O3 0.173270 0.876208 0.322971
O O4 0.018894 0.786101 0.405890
O O5 0.355274 0.423811 0.843908
O O6 0.186932 0.525263 0.822804
O O7 0.102288 0.403448 0.863053
O O8 0.250000 0.472485 0.000000
O O9 0.136322 0.308213 0.063699
O O10 0.991390 0.210086 0.088041
O O11 0.917241 0.141168 0.851956
O O12 0.117007 0.188348 0.747441
O O13 0.351543 0.624278 0.813103
O O14 0.250000 0.250000 0.615768
O O15 0.051704 0.309465 0.723756
#
# Coordination Sequence:
#
# PCOD9395975 Si02
#       7
#     8   8   4   8   8   8   8
#     4  10  21  43  70  96 119 155 204 266 340 381
#     4  12  24  39  57  85 134 185 217 251 306 378
#     4  10  22  34  56  82 126 164 222 264 304 350
#     4  10  22  36  57  86 124 171 217 257 306 361
#     4  11  25  39  58  90 124 167 211 262 318 384
#     4  10  19  36  66  98 124 158 206 269 315 375
#     4  11  22  37  60  87 125 169 219 259 311 363
#
# _framework density 19.582822
#
# number of rings (size 3 to 8) (size 9 to 14) (size 15 to 20)
#    0.000    1.385    4.615    0.923    2.154    2.462 
#    0.000    1.538    0.000    8.308    0.000    0.000 
#    0.000    0.000    0.000    0.000    0.000    0.000 
#
# Total GULP energy -290053.560522 kJ/mol
# GULP energy per Si atom -5577.953087 kJ/mol
# Density = 1.953825 g / cm^3
# Si number density = 19.582822 Si / 1000 Ang^3
#
#
#
# Elastic Constant Matrix: (Units=GPa)
#
#
# Indices 1 2 3 4 5 6 
#
# 1 167.2031 41.9103 44.8719 0.0000 0.0000 0.0000
# 2 41.9103 129.2933 55.9165 0.0000 0.0000 0.0000
# 3 44.8719 55.9165 103.0470 0.0000 0.0000 0.0000
# 4 0.0000 0.0000 0.0000 20.5168 0.0000 0.0000
# 5 0.0000 0.0000 0.0000 0.0000 19.7628 0.0000
# 6 0.0000 0.0000 0.0000 0.0000 0.0000 25.6839
#
#
#
# Elastic Compliance Matrix: (Units=1/GPa)
#
#
# Indices 1 2 3 4 5 6 
#
# 1 0.006918 -0.001228 -0.002346 0.000000 0.000000 0.000000
# 2 -0.001228 0.010324 -0.005067 0.000000 0.000000 0.000000
# 3 -0.002346 -0.005067 0.013476 0.000000 0.000000 0.000000
# 4 0.000000 0.000000 0.000000 0.048740 0.000000 0.000000
# 5 0.000000 0.000000 0.000000 0.000000 0.050600 0.000000
# 6 0.000000 0.000000 0.000000 0.000000 0.000000 0.038935
#
#
# Mechanical properties :
#
#
# Convention : Reuss Voigt Hill
#
# Bulk Modulus (GPa) = 74.43357 76.10454 75.26905
# Shear Modulus (GPa) = 26.21169 30.31567 28.26368
#
# Velocity S-wave (km/s) = 3.66253 3.93883 3.80319
# Velocity P-wave (km/s) = 7.48182 7.72225 7.60298
#
# Compressibility (1/GPa) = 0.01343480
#
# Stress axis : x y z
#
# Youngs Moduli (GPa) = 144.54683 96.86265 74.20740
#
# Poissons Ratio (x) = 0.11893 0.17411
# Poissons Ratio (y) = 0.17748 0.37604
# Poissons Ratio (z) = 0.33915 0.49084
#
# Static dielectric constant tensor:
#      x y z
#    x 1.740600 0.000000 0.000000 
#    y 0.000000 1.674670 0.000000 
#    z 0.000000 0.000000 1.692110 
# 
# From -- ./inp_files/25175.got.cif
#   From: 2010.05.17/outbox.cif.g08.bks.cpg/sg50_13_cif.got.tgz:25175.got - 2010.06.03 11:33:33.
