data_PCOD9395278
_publ_section_title
;
Structure prediction by ZEFSAII (Michael W. Deem and Ramdas Pophale) SiO2 
 PCOD9395278
Probable space group: P C C M
;
_chemical_formula_sum "Si O2"
_cell_formula_units_Z 56
_cell_length_a 21.000000
_cell_length_b 15.000000
_cell_length_c 9.000000
_cell_angle_alpha 90.000000
_cell_angle_beta 90.000000
_cell_angle_gamma 90.000000
_cell_volume 2835.000000
_symmetry_space_group_name_H-M "P C C M"
_symmetry_group_IT_number 49
_symmetry_cell_setting 'orthorhombic'
loop_
_space_group_symop_operation_xyz
x,y,z
-x,-y,z
x,-y,1/2-z
-x,y,1/2-z
-x,-y,-z
x,y,-z
-x,y,1/2+z
x,-y,1/2+z
loop_
_atom_site_type_symbol
_atom_site_label
_atom_site_fract_x
_atom_site_fract_y
_atom_site_fract_z
Si Si1 0.676070 0.729901 0.171346
Si Si2 0.437803 0.408018 0.830383
Si Si3 0.317657 0.907787 0.177928
Si Si4 0.097484 0.410240 0.178048
Si Si5 0.237303 0.410003 0.321520
Si Si6 0.938875 0.227734 0.178519
Si Si7 0.168163 0.909779 0.176360
O O1 0.618242 0.661589 0.172476
O O2 0.653840 0.821916 0.243142
O O3 0.727445 0.680072 0.274270
O O4 0.698155 0.741473 0.000000
O O5 0.420911 0.500000 0.750000
O O6 0.500000 0.371315 0.750000
O O7 0.452709 0.427730 0.000000
O O8 0.242145 0.898800 0.215472
O O9 0.339936 0.000000 0.250000
O O10 0.324993 0.907771 0.000000
O O11 0.070297 0.500000 0.250000
O O12 0.168914 0.405237 0.243316
O O13 0.065669 0.322137 0.240651
O O14 0.096866 0.414561 0.000000
O O15 0.267622 0.500000 0.250000
O O16 0.232884 0.418349 0.500000
O O17 0.875249 0.173483 0.215579
O O18 0.000000 0.180217 0.250000
O O19 0.944080 0.236848 0.000000
O O20 0.143993 0.000000 0.250000
O O21 0.165203 0.920449 0.000000
#
# Coordination Sequence:
#
# PCOD9395278 Si02
#       7
#     8   8   8   8   8   8   8
#     4  11  22  35  54  83 114 148 188 231 276 328
#     4  10  21  36  56  81 114 153 194 234 275 322
#     4  10  20  36  58  84 112 145 181 226 279 333
#     4  11  22  38  58  79 105 140 177 221 273 327
#     4  11  21  34  53  80 112 145 179 221 272 329
#     4  11  23  39  56  79 107 138 179 224 268 322
#     4   9  20  37  58  81 108 139 174 216 268 325
#
# _framework density 19.753086
#
# number of rings (size 3 to 8) (size 9 to 14) (size 15 to 20)
#    0.000    1.571    0.000    6.857    0.000    6.857 
#    0.000    2.857    0.000    0.429    0.000    3.000 
#    0.000    0.000    0.000    0.000    0.000    0.000 
#
# Total GULP energy -312607.777078 kJ/mol
# GULP energy per Si atom -5582.281734 kJ/mol
# Density = 1.970813 g / cm^3
# Si number density = 19.753086 Si / 1000 Ang^3
#
#
#
# Elastic Constant Matrix: (Units=GPa)
#
#
# Indices 1 2 3 4 5 6 
#
# 1 38.1935 -2.3240 12.5895 0.0000 0.0000 0.0000
# 2 -2.3240 58.5275 26.3458 0.0000 0.0000 0.0000
# 3 12.5895 26.3458 124.1003 0.0000 0.0000 0.0000
# 4 0.0000 0.0000 0.0000 30.0009 0.0000 0.0000
# 5 0.0000 0.0000 0.0000 0.0000 25.5327 0.0000
# 6 0.0000 0.0000 0.0000 0.0000 0.0000 15.8043
#
#
#
# Elastic Compliance Matrix: (Units=1/GPa)
#
#
# Indices 1 2 3 4 5 6 
#
# 1 0.027439 0.002590 -0.003333 0.000000 0.000000 0.000000
# 2 0.002590 0.019136 -0.004325 0.000000 0.000000 0.000000
# 3 -0.003333 -0.004325 0.009314 0.000000 0.000000 0.000000
# 4 0.000000 0.000000 0.000000 0.033332 0.000000 0.000000
# 5 0.000000 0.000000 0.000000 0.000000 0.039165 0.000000
# 6 0.000000 0.000000 0.000000 0.000000 0.000000 0.063274
#
#
# Mechanical properties :
#
#
# Convention : Reuss Voigt Hill
#
# Bulk Modulus (GPa) = 21.85698 32.67153 27.26426
# Shear Modulus (GPa) = 23.03632 26.54825 24.79228
#
# Velocity S-wave (km/s) = 3.41869 3.67004 3.54660
# Velocity P-wave (km/s) = 5.16453 5.87664 5.53205
#
# Compressibility (1/GPa) = 0.04575197
#
# Stress axis : x y z
#
# Youngs Moduli (GPa) = 36.44468 52.25813 107.36102
#
# Poissons Ratio (x) = -0.13535 0.35788
# Poissons Ratio (y) = -0.09439 0.46435
# Poissons Ratio (z) = 0.12149 0.22603
#
# Static dielectric constant tensor:
#      x y z
#    x 1.778080 0.000000 0.000000 
#    y 0.000000 1.826000 0.000000 
#    z 0.000000 0.000000 1.678380 
# 
# From -- ./inp_files/4059.got.cif
#   From: 2010.05.17/outbox.ucp.g08.bks.cvg/sg49_3_cif.got.tgz:4059.got - 2010.06.11 16:40:14.
