data_PCOD9395667
_publ_section_title
;
Structure prediction by ZEFSAII (Michael W. Deem and Ramdas Pophale) SiO2 
 PCOD9395667
Probable space group: P B A N
;
_chemical_formula_sum "Si O2"
_cell_formula_units_Z 48
_cell_length_a 11.805084
_cell_length_b 15.492494
_cell_length_c 12.391103
_cell_angle_alpha 90.000000
_cell_angle_beta 90.000000
_cell_angle_gamma 90.000000
_cell_volume 2266.211220
_symmetry_space_group_name_H-M "P B A N"
_symmetry_group_IT_number 50
_space_group.IT_coordinate_system_code '2'
_symmetry_cell_setting 'orthorhombic'
loop_
_space_group_symop_operation_xyz
x,y,z
1/2-x,1/2-y,z
x,1/2-y,-z
1/2-x,y,-z
-x,-y,-z
1/2+x,1/2+y,-z
-x,1/2+y,z
1/2+x,-y,z
loop_
_atom_site_type_symbol
_atom_site_label
_atom_site_fract_x
_atom_site_fract_y
_atom_site_fract_z
Si Si1 0.288699 0.836711 0.304743
Si Si2 0.169128 0.403721 0.900252
Si Si3 0.581744 0.133404 0.891804
Si Si4 0.878665 0.939101 0.211931
Si Si5 0.610533 0.104085 0.128766
Si Si6 0.374762 0.506293 0.556793
O O1 0.250000 0.750000 0.361054
O O2 0.368704 0.809615 0.204006
O O3 0.185802 0.879192 0.235243
O O4 0.349058 0.900424 0.387806
O O5 0.255587 0.398589 0.802473
O O6 0.131514 0.503856 0.902436
O O7 0.052389 0.354576 0.895639
O O8 0.250000 0.383504 0.000000
O O9 0.612059 0.034776 0.847555
O O10 0.628201 0.147828 0.012071
O O11 0.979606 0.886232 0.158941
O O12 0.894653 0.948500 0.337996
O O13 0.250000 0.486440 0.500000
O O14 0.500000 0.500000 0.500000
#
# Coordination Sequence:
#
# PCOD9395667 Si02
#       6
#     8   8   8   8   8   8
#     4  11  24  39  57  83 121 165 205 253 316 400
#     4  11  15  28  51  87 120 155 193 250 309 365
#     4  10  19  28  52  85 123 160 198 238 301 384
#     4  10  19  30  54  83 122 147 192 261 324 366
#     4  11  17  31  52  88 124 158 191 241 309 381
#     4  11  24  41  63  93 119 153 213 288 345 381
#
# _framework density 21.180724999999999
#
# number of rings (size 3 to 8) (size 9 to 14) (size 15 to 20)
#    0.000    1.333    6.667    2.500    4.667    1.667 
#    0.000    0.000    0.000    1.000    0.000    1.167 
#    0.000    0.000    0.000    0.000    0.000    0.000 
#
# Total GULP energy -267248.572117 kJ/mol
# GULP energy per Si atom -5567.678586 kJ/mol
# Density = 2.113252 g / cm^3
# Si number density = 21.180725 Si / 1000 Ang^3
#
#
#
# Elastic Constant Matrix: (Units=GPa)
#
#
# Indices 1 2 3 4 5 6 
#
# 1 159.6764 13.1787 37.1488 0.0000 0.0000 0.0000
# 2 13.1787 27.0270 15.6916 0.0000 0.0000 0.0000
# 3 37.1488 15.6916 110.6568 0.0000 0.0000 0.0000
# 4 0.0000 0.0000 0.0000 9.4543 0.0000 0.0000
# 5 0.0000 0.0000 0.0000 0.0000 50.7171 0.0000
# 6 0.0000 0.0000 0.0000 0.0000 0.0000 10.0993
#
#
#
# Elastic Compliance Matrix: (Units=1/GPa)
#
#
# Indices 1 2 3 4 5 6 
#
# 1 0.006912 -0.002205 -0.002008 0.000000 0.000000 0.000000
# 2 -0.002205 0.041023 -0.005077 0.000000 0.000000 0.000000
# 3 -0.002008 -0.005077 0.010431 0.000000 0.000000 0.000000
# 4 0.000000 0.000000 0.000000 0.105772 0.000000 0.000000
# 5 0.000000 0.000000 0.000000 0.000000 0.019717 0.000000
# 6 0.000000 0.000000 0.000000 0.000000 0.000000 0.099017
#
#
# Mechanical properties :
#
#
# Convention : Reuss Voigt Hill
#
# Bulk Modulus (GPa) = 25.13410 47.71093 36.42251
# Shear Modulus (GPa) = 15.88750 29.47687 22.68218
#
# Velocity S-wave (km/s) = 2.74175 3.73457 3.27599
# Velocity P-wave (km/s) = 4.68137 6.41643 5.61631
#
# Compressibility (1/GPa) = 0.03978659
#
# Stress axis : x y z
#
# Youngs Moduli (GPa) = 144.68188 24.37674 95.86883
#
# Poissons Ratio (x) = 0.05374 0.19248
# Poissons Ratio (y) = 0.31896 0.48673
# Poissons Ratio (z) = 0.29048 0.12376
#
# Static dielectric constant tensor:
#      x y z
#    x 1.840260 0.000000 0.000000 
#    y 0.000000 1.860590 0.000000 
#    z 0.000000 0.000000 1.791510 
# 
# From -- ./inp_files/20211.got.cif
#   From: 2010.05.17/outbox.cif.g08.bks.cpg/sg50_11_cif.got.tgz:20211.got - 2010.06.03 11:33:33.
