data_PCOD9395791
_publ_section_title
;
Structure prediction by ZEFSAII (Michael W. Deem and Ramdas Pophale) SiO2 
 PCOD9395791
Probable space group: P B A N
;
_chemical_formula_sum "Si O2"
_cell_formula_units_Z 44
_cell_length_a 5.047729
_cell_length_b 29.842813
_cell_length_c 15.621854
_cell_angle_alpha 90.000000
_cell_angle_beta 90.000000
_cell_angle_gamma 90.000000
_cell_volume 2353.251601
_symmetry_space_group_name_H-M "P B A N"
_symmetry_group_IT_number 50
_space_group.IT_coordinate_system_code '2'
_symmetry_cell_setting 'orthorhombic'
loop_
_space_group_symop_operation_xyz
x,y,z
1/2-x,1/2-y,z
x,1/2-y,-z
1/2-x,y,-z
-x,-y,-z
1/2+x,1/2+y,-z
-x,1/2+y,z
1/2+x,-y,z
loop_
_atom_site_type_symbol
_atom_site_label
_atom_site_fract_x
_atom_site_fract_y
_atom_site_fract_z
Si Si1 0.308218 0.893433 0.765944
Si Si2 0.798727 0.030297 0.096987
Si Si3 0.750000 0.967422 0.500000
Si Si4 0.311442 0.702865 0.761606
Si Si5 0.692717 0.894494 0.353467
Si Si6 0.311093 0.297517 0.644571
O O1 0.259282 0.931985 0.833895
O O2 0.255734 0.844082 0.805422
O O3 0.597675 0.896497 0.724396
O O4 0.098198 0.896995 0.687767
O O5 0.592712 0.989247 0.107275
O O6 0.750000 0.046836 0.000000
O O7 0.741899 0.934688 0.418312
O O8 0.500000 0.000000 0.500000
O O9 0.250000 0.750000 0.806748
O O10 0.610159 0.702897 0.726429
O O11 0.110922 0.702678 0.679376
O O12 0.743609 0.845515 0.395928
O O13 0.250000 0.250000 0.600135
#
# Coordination Sequence:
#
# PCOD9395791 Si02
#       6
#     8   8   4   8   8   8
#     4  10  19  33  55  76  97 129 167 201 237 295
#     4  10  21  35  51  74 102 128 159 206 255 290
#     4  12  26  40  51  68 101 136 166 210 254 280
#     4   8  14  25  44  71  98 123 153 191 235 283
#     4  10  21  35  52  75  98 129 170 202 239 293
#     4   8  14  27  47  70  95 120 152 197 243 284
#
# _framework density 18.697534000000001
#
# number of rings (size 3 to 8) (size 9 to 14) (size 15 to 20)
#    0.000    2.545    0.000    2.182    0.000    4.364 
#    0.000    0.455    0.000    0.545    0.000   14.000 
#    0.000   18.909    0.000    0.000    0.000    2.909 
#
# Total GULP energy -245234.932453 kJ/mol
# GULP energy per Si atom -5573.521192 kJ/mol
# Density = 1.865498 g / cm^3
# Si number density = 18.697534 Si / 1000 Ang^3
#
#
#
# Elastic Constant Matrix: (Units=GPa)
#
#
# Indices 1 2 3 4 5 6 
#
# 1 78.8940 -1.6903 -6.5589 0.0000 0.0000 0.0000
# 2 -1.6903 137.9318 39.2895 0.0000 0.0000 0.0000
# 3 -6.5589 39.2895 37.7495 0.0000 0.0000 0.0000
# 4 0.0000 0.0000 0.0000 -21.2705 0.0000 0.0000
# 5 0.0000 0.0000 0.0000 0.0000 9.0094 0.0000
# 6 0.0000 0.0000 0.0000 0.0000 0.0000 27.7459
#
#
#
# Elastic Compliance Matrix: (Units=1/GPa)
#
#
# Indices 1 2 3 4 5 6 
#
# 1 0.012906 -0.000683 0.002953 0.000000 0.000000 0.000000
# 2 -0.000683 0.010341 -0.010882 0.000000 0.000000 0.000000
# 3 0.002953 -0.010882 0.038329 0.000000 0.000000 0.000000
# 4 0.000000 0.000000 0.000000 -0.047013 0.000000 0.000000
# 5 0.000000 0.000000 0.000000 0.000000 0.110995 0.000000
# 6 0.000000 0.000000 0.000000 0.000000 0.000000 0.036041
#
#
# Mechanical properties :
#
#
# Convention : Reuss Voigt Hill
#
# Bulk Modulus (GPa) = 22.54603 35.18396 28.86500
# Shear Modulus (GPa) = 25.82552 17.99930 21.91241
#
# Velocity S-wave (km/s) = 3.72052 3.10604 3.42708
# Velocity P-wave (km/s) = 5.52637 5.63219 5.57953
#
# Compressibility (1/GPa) = 0.04435371
#
# Stress axis : x y z
#
# Youngs Moduli (GPa) = 77.48249 96.70022 26.08967
#
# Poissons Ratio (x) = 0.06606 -0.07705
# Poissons Ratio (y) = 0.05293 0.28390
# Poissons Ratio (z) = -0.22884 1.05227
#
# Static dielectric constant tensor:
#      x y z
#    x 1.626910 0.000000 0.000000 
#    y 0.000000 1.666350 0.000000 
#    z 0.000000 0.000000 1.604670 
# 
# From -- ./inp_files/24031.got.cif
#   From: 2010.05.17/outbox.cif.g08.bks.cpg/sg50_13_cif.got.tgz:24031.got - 2010.06.03 11:33:33.
