data_PCOD9395114
_publ_section_title
;
Structure prediction by ZEFSAII (Michael W. Deem and Ramdas Pophale) SiO2 
 PCOD9395114
Probable space group: P C C M
;
_chemical_formula_sum "Si O2"
_cell_formula_units_Z 32
_cell_length_a 8.978730
_cell_length_b 10.409522
_cell_length_c 14.372806
_cell_angle_alpha 90.000000
_cell_angle_beta 90.000000
_cell_angle_gamma 90.000000
_cell_volume 1343.344072
_symmetry_space_group_name_H-M "P C C M"
_symmetry_group_IT_number 49
_symmetry_cell_setting 'orthorhombic'
loop_
_space_group_symop_operation_xyz
x,y,z
-x,-y,z
x,-y,1/2-z
-x,y,1/2-z
-x,-y,-z
x,y,-z
-x,y,1/2+z
x,-y,1/2+z
loop_
_atom_site_type_symbol
_atom_site_label
_atom_site_fract_x
_atom_site_fract_y
_atom_site_fract_z
Si Si1 0.941265 0.312662 0.000000
Si Si2 0.672251 0.963826 0.104749
Si Si3 0.349691 0.321062 0.811053
Si Si4 0.740822 0.546107 0.000000
Si Si5 0.864048 0.810677 0.311993
O O1 0.789552 0.397983 0.000000
O O2 0.935257 0.230822 0.091828
O O3 0.096963 0.386964 0.000000
O O4 0.750963 0.075574 0.162883
O O5 0.500000 0.000000 0.099060
O O6 0.669773 0.822650 0.147923
O O7 0.735501 0.959572 0.000000
O O8 0.500000 0.337709 0.750000
O O9 0.214658 0.313770 0.736329
O O10 0.337298 0.411202 0.902719
O O11 0.000000 0.855433 0.250000
#
# Coordination Sequence:
#
# PCOD9395114 Si02
#       5
#     4   8   8   4   8
#     4  11  26  52  75 106 148 199 259 317 373 437
#     4  11  23  42  73 104 154 198 233 299 380 445
#     4  12  25  45  75 111 150 194 248 306 380 452
#     4  11  26  52  77 104 150 203 253 314 377 443
#     4  12  25  45  75 114 148 192 252 312 371 451
#
# _framework density 23.821148000000001
#
# number of rings (size 3 to 8) (size 9 to 14) (size 15 to 20)
#    0.000    0.500    7.500    0.750    0.000    4.000 
#    0.000    6.250    0.000    0.000    0.000    0.000 
#    0.000    0.000    0.000    0.000    0.000    0.000 
#
# Total GULP energy -179092.480377 kJ/mol
# GULP energy per Si atom -5596.640012 kJ/mol
# Density = 2.376693 g / cm^3
# Si number density = 23.821148 Si / 1000 Ang^3
#
#
#
# Elastic Constant Matrix: (Units=GPa)
#
#
# Indices 1 2 3 4 5 6 
#
# 1 119.0183 16.6190 61.2065 0.0000 0.0000 0.0000
# 2 16.6190 64.6118 48.9080 0.0000 0.0000 0.0000
# 3 61.2065 48.9080 210.9484 0.0000 0.0000 0.0000
# 4 0.0000 0.0000 0.0000 -73.1913 0.0000 0.0000
# 5 0.0000 0.0000 0.0000 0.0000 54.3355 0.0000
# 6 0.0000 0.0000 0.0000 0.0000 0.0000 20.6944
#
#
#
# Elastic Compliance Matrix: (Units=1/GPa)
#
#
# Indices 1 2 3 4 5 6 
#
# 1 0.009886 -0.000451 -0.002764 0.000000 0.000000 0.000000
# 2 -0.000451 0.018792 -0.004226 0.000000 0.000000 0.000000
# 3 -0.002764 -0.004226 0.006522 0.000000 0.000000 0.000000
# 4 0.000000 0.000000 0.000000 -0.013663 0.000000 0.000000
# 5 0.000000 0.000000 0.000000 0.000000 0.018404 0.000000
# 6 0.000000 0.000000 0.000000 0.000000 0.000000 0.048322
#
#
# Mechanical properties :
#
#
# Convention : Reuss Voigt Hill
#
# Bulk Modulus (GPa) = 49.21505 72.00506 60.61006
# Shear Modulus (GPa) = 45.48804 18.22405 31.85604
#
# Velocity S-wave (km/s) = 4.37460 2.76893 3.66088
# Velocity P-wave (km/s) = 6.79862 6.36519 6.58547
#
# Compressibility (1/GPa) = 0.02031899
#
# Stress axis : x y z
#
# Youngs Moduli (GPa) = 101.14857 53.21438 153.32023
#
# Poissons Ratio (x) = 0.02398 0.42379
# Poissons Ratio (y) = 0.04559 0.64795
# Poissons Ratio (z) = 0.27958 0.22489
#
# Static dielectric constant tensor:
#      x y z
#    x 1.956560 0.000000 0.000000 
#    y 0.000000 1.885880 0.000000 
#    z 0.000000 0.000000 1.970930 
# 
# From -- ./inp_files/11250.got.cif
#   From: 2010.05.17/outbox.cif.g08.bks.cpg/sg49_6_cif.got.tgz:11250.got - 2010.06.03 21:02:19.
