data_PCOD9395378
_publ_section_title
;
Structure prediction by ZEFSAII (Michael W. Deem and Ramdas Pophale) SiO2 
 PCOD9395378
Probable space group: P B A N
;
_chemical_formula_sum "Si O2"
_cell_formula_units_Z 48
_cell_length_a 5.222806
_cell_length_b 14.799227
_cell_length_c 29.636413
_cell_angle_alpha 90.000000
_cell_angle_beta 90.000000
_cell_angle_gamma 90.000000
_cell_volume 2290.701838
_symmetry_space_group_name_H-M "P B A N"
_symmetry_group_IT_number 50
_space_group.IT_coordinate_system_code '2'
_symmetry_cell_setting 'orthorhombic'
loop_
_space_group_symop_operation_xyz
x,y,z
1/2-x,1/2-y,z
x,1/2-y,-z
1/2-x,y,-z
-x,-y,-z
1/2+x,1/2+y,-z
-x,1/2+y,z
1/2+x,-y,z
loop_
_atom_site_type_symbol
_atom_site_label
_atom_site_fract_x
_atom_site_fract_y
_atom_site_fract_z
Si Si1 0.361934 0.560342 0.857892
Si Si2 0.233319 0.641496 0.238622
Si Si3 0.502893 0.603083 0.479616
Si Si4 0.771297 0.642283 0.712870
Si Si5 0.782929 0.438534 0.048629
Si Si6 0.985810 0.557157 0.624139
O O1 0.647010 0.519130 0.857857
O O2 0.329404 0.615819 0.812329
O O3 0.290533 0.610914 0.904812
O O4 0.250000 0.750000 0.242359
O O5 0.512373 0.606520 0.252886
O O6 0.008952 0.608101 0.272442
O O7 0.750000 0.647894 0.500000
O O8 0.500000 0.500000 0.500000
O O9 0.527872 0.597234 0.426076
O O10 0.250000 0.645174 0.500000
O O11 0.750000 0.750000 0.716945
O O12 0.885262 0.621058 0.663768
O O13 0.568897 0.519606 0.049191
O O14 0.750000 0.391865 0.000000
O O15 0.779001 0.475635 0.627895
#
# Coordination Sequence:
#
# PCOD9395378 Si02
#       6
#     8   8   8   8   8   8
#     4  10  19  30  51  77 100 128 168 219 257 288
#     4  10  21  38  53  68  99 141 172 202 256 316
#     4  10  16  30  48  74 108 127 150 192 237 289
#     4  10  23  39  52  71 104 140 169 205 256 307
#     4   8  14  25  41  66  98 128 158 197 252 308
#     4  12  21  32  55  84 101 129 170 210 245 289
#
# _framework density 20.954274999999999
#
# number of rings (size 3 to 8) (size 9 to 14) (size 15 to 20)
#    0.000    2.000    3.333    2.000    0.000    4.000 
#    0.000    0.000    0.000    1.000    0.000    2.333 
#    0.000   17.333    0.000    0.000    0.000    2.667 
#
# Total GULP energy -267552.673159 kJ/mol
# GULP energy per Si atom -5574.014024 kJ/mol
# Density = 2.090658 g / cm^3
# Si number density = 20.954275 Si / 1000 Ang^3
#
#
#
# Elastic Constant Matrix: (Units=GPa)
#
#
# Indices 1 2 3 4 5 6 
#
# 1 138.1154 9.7639 38.0124 0.0000 0.0000 0.0000
# 2 9.7639 28.4564 3.4665 0.0000 0.0000 0.0000
# 3 38.0124 3.4665 160.8193 0.0000 0.0000 0.0000
# 4 0.0000 0.0000 0.0000 -114.3148 0.0000 0.0000
# 5 0.0000 0.0000 0.0000 0.0000 36.2990 0.0000
# 6 0.0000 0.0000 0.0000 0.0000 0.0000 6.6448
#
#
#
# Elastic Compliance Matrix: (Units=1/GPa)
#
#
# Indices 1 2 3 4 5 6 
#
# 1 0.007917 -0.002495 -0.001818 0.000000 0.000000 0.000000
# 2 -0.002495 0.036020 -0.000187 0.000000 0.000000 0.000000
# 3 -0.001818 -0.000187 0.006652 0.000000 0.000000 0.000000
# 4 0.000000 0.000000 0.000000 -0.008748 0.000000 0.000000
# 5 0.000000 0.000000 0.000000 0.000000 0.027549 0.000000
# 6 0.000000 0.000000 0.000000 0.000000 0.000000 0.150494
#
#
# Mechanical properties :
#
#
# Convention : Reuss Voigt Hill
#
# Bulk Modulus (GPa) = 24.04392 47.76410 35.90401
# Shear Modulus (GPa) = 20.59767 4.13569 12.36668
#
# Velocity S-wave (km/s) = 3.13866 1.40640 2.43199
# Velocity P-wave (km/s) = 4.96329 5.04789 5.00577
#
# Compressibility (1/GPa) = 0.04159056
#
# Stress axis : x y z
#
# Youngs Moduli (GPa) = 126.31163 27.76209 150.33559
#
# Poissons Ratio (x) = 0.06927 0.27324
# Poissons Ratio (y) = 0.31515 0.02807
# Poissons Ratio (z) = 0.22957 0.00518
#
# Static dielectric constant tensor:
#      x y z
#    x 1.767210 0.000000 0.000000 
#    y 0.000000 1.723360 0.000000 
#    z 0.000000 0.000000 1.816560 
# 
# From -- ./inp_files/31459.got.cif
#   From: 2010.05.17/outbox.cif.g08.bks.cpg/sg50_16_cif.got.tgz:31459.got - 2010.06.03 11:33:33.
