data_PCOD9395747
_publ_section_title
;
Structure prediction by ZEFSAII (Michael W. Deem and Ramdas Pophale) SiO2 
 PCOD9395747
Probable space group: P B A N
;
_chemical_formula_sum "Si O2"
_cell_formula_units_Z 56
_cell_length_a 7.306376
_cell_length_b 15.155929
_cell_length_c 21.222985
_cell_angle_alpha 90.000000
_cell_angle_beta 90.000000
_cell_angle_gamma 90.000000
_cell_volume 2350.125459
_symmetry_space_group_name_H-M "P B A N"
_symmetry_group_IT_number 50
_space_group.IT_coordinate_system_code '2'
_symmetry_cell_setting 'orthorhombic'
loop_
_space_group_symop_operation_xyz
x,y,z
1/2-x,1/2-y,z
x,1/2-y,-z
1/2-x,y,-z
-x,-y,-z
1/2+x,1/2+y,-z
-x,1/2+y,z
1/2+x,-y,z
loop_
_atom_site_type_symbol
_atom_site_label
_atom_site_fract_x
_atom_site_fract_y
_atom_site_fract_z
Si Si1 0.956602 0.354846 0.493734
Si Si2 0.634856 0.951260 0.146604
Si Si3 0.523194 0.882503 0.369935
Si Si4 0.408000 0.627849 0.224126
Si Si5 0.019060 0.318123 0.762771
Si Si6 0.620597 0.443031 0.048308
Si Si7 0.406207 0.583381 0.361631
O O1 0.941495 0.250000 0.500000
O O2 0.750000 0.394006 0.500000
O O3 0.071231 0.374814 0.556201
O O4 0.013243 0.386197 0.424233
O O5 0.662071 0.882637 0.202700
O O6 0.774403 0.989350 0.094967
O O7 0.563459 0.041395 0.181155
O O8 0.500533 0.895636 0.100022
O O9 0.566865 0.817725 0.311939
O O10 0.300544 0.881377 0.369696
O O11 0.595340 0.978818 0.353583
O O12 0.185049 0.637861 0.230421
O O13 0.490622 0.722616 0.206013
O O14 0.478842 0.615538 0.295099
O O15 0.750000 0.391317 0.000000
O O16 0.500000 0.500000 0.000000
#
# Coordination Sequence:
#
# PCOD9395747 Si02
#       7
#     8   8   8   8   8   8   8
#     4   9  17  30  49  73 102 147 197 247 295 350
#     4  11  18  36  62  85 120 152 191 239 287 350
#     4  10  19  32  52  76 109 145 197 248 298 351
#     4  10  20  34  56  86 116 154 199 244 295 353
#     4  10  20  34  56  86 116 155 199 246 293 352
#     4   9  20  36  62  92 116 153 190 223 283 349
#     4  10  19  32  52  76 109 146 196 247 297 354
#
# _framework density 23.828516
#
# number of rings (size 3 to 8) (size 9 to 14) (size 15 to 20)
#    0.000    2.143    2.857    1.286    0.000    3.429 
#    0.000    0.714    0.000   16.286    0.000    0.000 
#    0.000    0.000    0.000    0.000    0.000    0.000 
#
# Total GULP energy -311905.146297 kJ/mol
# GULP energy per Si atom -5569.734755 kJ/mol
# Density = 2.377428 g / cm^3
# Si number density = 23.828516 Si / 1000 Ang^3
#
#
#
# Elastic Constant Matrix: (Units=GPa)
#
#
# Indices 1 2 3 4 5 6 
#
# 1 45.6981 11.0269 39.7303 0.0000 0.0000 0.0000
# 2 11.0269 89.8378 38.8914 0.0000 0.0000 0.0000
# 3 39.7303 38.8914 183.0611 0.0000 0.0000 0.0000
# 4 0.0000 0.0000 0.0000 5.7138 0.0000 0.0000
# 5 0.0000 0.0000 0.0000 0.0000 394.9503 0.0000
# 6 0.0000 0.0000 0.0000 0.0000 0.0000 11.9439
#
#
#
# Elastic Compliance Matrix: (Units=1/GPa)
#
#
# Indices 1 2 3 4 5 6 
#
# 1 0.027032 -0.000857 -0.005685 0.000000 0.000000 0.000000
# 2 -0.000857 0.012286 -0.002424 0.000000 0.000000 0.000000
# 3 -0.005685 -0.002424 0.007211 0.000000 0.000000 0.000000
# 4 0.000000 0.000000 0.000000 0.175015 0.000000 0.000000
# 5 0.000000 0.000000 0.000000 0.000000 0.002532 0.000000
# 6 0.000000 0.000000 0.000000 0.000000 0.000000 0.083725
#
#
# Mechanical properties :
#
#
# Convention : Reuss Voigt Hill
#
# Bulk Modulus (GPa) = 34.96821 55.32158 45.14490
# Shear Modulus (GPa) = 14.91360 97.78482 56.34921
#
# Velocity S-wave (km/s) = 2.50446 6.41295 4.86818
# Velocity P-wave (km/s) = 4.80311 8.83751 7.11236
#
# Compressibility (1/GPa) = 0.02859740
#
# Stress axis : x y z
#
# Youngs Moduli (GPa) = 36.99330 81.39486 138.66848
#
# Poissons Ratio (x) = 0.06976 0.78830
# Poissons Ratio (y) = 0.03170 0.33615
# Poissons Ratio (z) = 0.21030 0.19731
#
# Static dielectric constant tensor:
#      x y z
#    x 2.098360 0.000000 0.000000 
#    y 0.000000 1.326380 0.000000 
#    z 0.000000 0.000000 1.917730 
# 
# From -- ./inp_files/30652.got.cif
#   From: 2010.05.17/outbox.cif.g08.bks.cpg/sg50_16_cif.got.tgz:30652.got - 2010.06.03 11:33:33.
