data_PCOD9395540
_publ_section_title
;
Structure prediction by ZEFSAII (Michael W. Deem and Ramdas Pophale) SiO2 
 PCOD9395540
Probable space group: P B A N
;
_chemical_formula_sum "Si O2"
_cell_formula_units_Z 42
_cell_length_a 13.499621
_cell_length_b 5.455137
_cell_length_c 22.526164
_cell_angle_alpha 90.000000
_cell_angle_beta 90.000000
_cell_angle_gamma 90.000000
_cell_volume 1658.878122
_symmetry_space_group_name_H-M "P B A N"
_symmetry_group_IT_number 50
_space_group.IT_coordinate_system_code '2'
_symmetry_cell_setting 'orthorhombic'
loop_
_space_group_symop_operation_xyz
x,y,z
1/2-x,1/2-y,z
x,1/2-y,-z
1/2-x,y,-z
-x,-y,-z
1/2+x,1/2+y,-z
-x,1/2+y,z
1/2+x,-y,z
loop_
_atom_site_type_symbol
_atom_site_label
_atom_site_fract_x
_atom_site_fract_y
_atom_site_fract_z
Si Si1 0.630128 0.754200 0.188454
Si Si2 0.103414 0.653509 0.610602
Si Si3 0.250000 0.750000 0.000000
Si Si4 0.381318 0.156441 0.434064
Si Si5 0.369186 0.745300 0.743279
Si Si6 0.137336 0.141570 0.940508
O O1 0.750000 0.750000 0.184286
O O2 0.605660 0.516468 0.228010
O O3 0.590290 0.709284 0.121824
O O4 0.606326 0.018709 0.216150
O O5 0.149906 0.382940 0.607662
O O6 0.084405 0.724741 0.678518
O O7 0.999415 0.625194 0.576217
O O8 0.156693 0.886082 0.580868
O O9 0.169862 0.633615 0.045795
O O10 0.361349 0.250000 0.500000
O O11 0.250000 0.750000 0.734371
O O12 0.250000 0.250000 0.940019
O O13 0.088111 0.250000 0.000000
#
# Coordination Sequence:
#
# PCOD9395540 Si02
#       6
#     8   8   2   8   8   8
#     4   9  18  28  41  57  86 125 167 186 216 268
#     4  10  18  31  50  72  96 116 151 186 223 274
#     4   8  14  20  36  54  76 104 158 204 248 248
#     4  10  19  33  56  76  90 113 143 191 243 275
#     4  10  20  31  44  64  93 134 158 178 213 271
#     4   8  15  22  35  55  77 110 156 205 235 251
#
# _framework density 25.318314999999998
#
# number of rings (size 3 to 8) (size 9 to 14) (size 15 to 20)
#    0.000    2.857    0.000    4.000    9.333    0.000 
#    0.000    0.000    0.000    6.286    0.000    0.000 
#    0.000    0.000    0.000   68.571    0.000   30.476 
#
# Total GULP energy -234559.560456 kJ/mol
# GULP energy per Si atom -5584.751439 kJ/mol
# Density = 2.526069 g / cm^3
# Si number density = 25.318315 Si / 1000 Ang^3
#
#
#
# Elastic Constant Matrix: (Units=GPa)
#
#
# Indices 1 2 3 4 5 6 
#
# 1 95.3145 2.2793 -10.2594 0.0000 0.0000 0.0000
# 2 2.2793 192.8541 57.9178 0.0000 0.0000 0.0000
# 3 -10.2594 57.9178 181.4510 0.0000 0.0000 0.0000
# 4 0.0000 0.0000 0.0000 60.8018 0.0000 0.0000
# 5 0.0000 0.0000 0.0000 0.0000 -53.9266 0.0000
# 6 0.0000 0.0000 0.0000 0.0000 0.0000 -15.1461
#
#
#
# Elastic Compliance Matrix: (Units=1/GPa)
#
#
# Indices 1 2 3 4 5 6 
#
# 1 0.010576 -0.000337 0.000705 0.000000 0.000000 0.000000
# 2 -0.000337 0.005746 -0.001853 0.000000 0.000000 0.000000
# 3 0.000705 -0.001853 0.006142 0.000000 0.000000 0.000000
# 4 0.000000 0.000000 0.000000 0.016447 0.000000 0.000000
# 5 0.000000 0.000000 0.000000 0.000000 -0.018544 0.000000
# 6 0.000000 0.000000 0.000000 0.000000 0.000000 -0.066023
#
#
# Mechanical properties :
#
#
# Convention : Reuss Voigt Hill
#
# Bulk Modulus (GPa) = 51.29532 63.27725 57.28628
# Shear Modulus (GPa) = -138.16241 26.32459 -55.91891
#
# Velocity S-wave (km/s) = -7.39517 3.22801 -4.70471
# Velocity P-wave (km/s) = 7.25355 6.24022 2.61474
#
# Compressibility (1/GPa) = 0.01949496
#
# Stress axis : x y z
#
# Youngs Moduli (GPa) = 94.55750 174.04155 162.80028
#
# Poissons Ratio (x) = 0.05863 -0.11485
# Poissons Ratio (y) = 0.03185 0.30168
# Poissons Ratio (z) = -0.06671 0.32251
#
# Static dielectric constant tensor:
#      x y z
#    x 2.195920 0.000000 0.000000 
#    y 0.000000 2.126070 0.000000 
#    z 0.000000 0.000000 1.978360 
# 
# From -- ./inp_files/29913.got.cif
#   From: 2010.05.17/outbox.cif.g08.bks.cpg/sg50_15_cif.got.tgz:29913.got - 2010.06.03 11:33:33.
