data_PCOD9395087
_publ_section_title
;
Structure prediction by ZEFSAII (Michael W. Deem and Ramdas Pophale) SiO2 
 PCOD9395087
Probable space group: P C C M
;
_chemical_formula_sum "Si O2"
_cell_formula_units_Z 30
_cell_length_a 8.340261
_cell_length_b 10.937570
_cell_length_c 16.921138
_cell_angle_alpha 90.000000
_cell_angle_beta 90.000000
_cell_angle_gamma 90.000000
_cell_volume 1543.583240
_symmetry_space_group_name_H-M "P C C M"
_symmetry_group_IT_number 49
_symmetry_cell_setting 'orthorhombic'
loop_
_space_group_symop_operation_xyz
x,y,z
-x,-y,z
x,-y,1/2-z
-x,y,1/2-z
-x,-y,-z
x,y,-z
-x,y,1/2+z
x,-y,1/2+z
loop_
_atom_site_type_symbol
_atom_site_label
_atom_site_fract_x
_atom_site_fract_y
_atom_site_fract_z
Si Si1 0.825340 0.813225 0.364635
Si Si2 0.089592 0.205628 0.000000
Si Si3 0.682963 0.967876 0.500000
Si Si4 0.000000 0.000000 0.250000
Si Si5 0.682006 0.446211 0.168229
Si Si6 0.813625 0.535434 0.000000
O O1 0.891525 0.908653 0.301250
O O2 0.729017 0.697529 0.330378
O O3 0.976351 0.780721 0.422520
O O4 0.712614 0.886789 0.423408
O O5 0.187201 0.078698 0.000000
O O6 0.208724 0.319076 0.000000
O O7 0.500000 0.000000 0.500000
O O8 0.500000 0.500000 0.168469
O O9 0.755135 0.500000 0.250000
O O10 0.745691 0.485868 0.082265
O O11 0.000000 0.500000 0.000000
#
# Coordination Sequence:
#
# PCOD9395087 Si02
#       6
#     8   4   4   2   8   4
#     4  11  23  45  68  95 137 178 232 288 346 419
#     4  11  22  43  67 100 136 172 240 280 340 425
#     4  11  24  43  69 100 131 184 226 287 358 419
#     4  12  24  42  72 100 132 182 234 286 348 410
#     4  11  27  46  66  99 145 187 229 290 358 424
#     4  12  23  40  71 103 126 182 236 285 347 411
#
# _framework density 19.435296000000001
#
# number of rings (size 3 to 8) (size 9 to 14) (size 15 to 20)
#    0.000    0.800    5.333    2.000    7.467    0.533 
#    4.800    0.000    0.000    0.000    0.000    0.000 
#    0.000    0.000    0.000    0.000    0.000    0.000 
#
# Total GULP energy -167262.201024 kJ/mol
# GULP energy per Si atom -5575.406701 kJ/mol
# Density = 1.939106 g / cm^3
# Si number density = 19.435296 Si / 1000 Ang^3
#
#
#
# Elastic Constant Matrix: (Units=GPa)
#
#
# Indices 1 2 3 4 5 6 
#
# 1 92.6738 53.3550 52.3204 0.0000 0.0000 0.0000
# 2 53.3550 183.4931 76.5155 0.0000 0.0000 0.0000
# 3 52.3204 76.5155 170.2087 0.0000 0.0000 0.0000
# 4 0.0000 0.0000 0.0000 -6.5852 0.0000 0.0000
# 5 0.0000 0.0000 0.0000 0.0000 -32.2073 0.0000
# 6 0.0000 0.0000 0.0000 0.0000 0.0000 23.5253
#
#
#
# Elastic Compliance Matrix: (Units=1/GPa)
#
#
# Indices 1 2 3 4 5 6 
#
# 1 0.014160 -0.002834 -0.003079 0.000000 0.000000 0.000000
# 2 -0.002834 0.007274 -0.002399 0.000000 0.000000 0.000000
# 3 -0.003079 -0.002399 0.007900 0.000000 0.000000 0.000000
# 4 0.000000 0.000000 0.000000 -0.151856 0.000000 0.000000
# 5 0.000000 0.000000 0.000000 0.000000 -0.031049 0.000000
# 6 0.000000 0.000000 0.000000 0.000000 0.000000 0.042508
#
#
# Mechanical properties :
#
#
# Convention : Reuss Voigt Hill
#
# Bulk Modulus (GPa) = 78.66958 90.08414 84.37686
# Shear Modulus (GPa) = -55.43061 14.55887 -20.43587
#
# Velocity S-wave (km/s) = -5.34626 2.73993 -3.24617
# Velocity P-wave (km/s) = 1.56702 7.51406 5.42755
#
# Compressibility (1/GPa) = 0.01271139
#
# Stress axis : x y z
#
# Youngs Moduli (GPa) = 70.62090 137.47459 126.58224
#
# Poissons Ratio (x) = 0.38954 0.38973
# Poissons Ratio (y) = 0.20011 0.30367
# Poissons Ratio (z) = 0.21743 0.32980
#
# Static dielectric constant tensor:
#      x y z
#    x 1.483630 0.000000 0.000000 
#    y 0.000000 1.717910 0.000000 
#    z 0.000000 0.000000 1.712600 
# 
# From -- ./inp_files/11278.got.cif
#   From: 2010.05.17/outbox.cif.g08.bks.cpg/sg49_6_cif.got.tgz:11278.got - 2010.06.03 21:02:19.
