data_PCOD9395930
_publ_section_title
;
Structure prediction by ZEFSAII (Michael W. Deem and Ramdas Pophale) SiO2 
 PCOD9395930
Probable space group: P B A N
;
_chemical_formula_sum "Si O2"
_cell_formula_units_Z 36
_cell_length_a 18.890953
_cell_length_b 10.395178
_cell_length_c 8.513384
_cell_angle_alpha 90.000000
_cell_angle_beta 90.000000
_cell_angle_gamma 90.000000
_cell_volume 1671.814242
_symmetry_space_group_name_H-M "P B A N"
_symmetry_group_IT_number 50
_space_group.IT_coordinate_system_code '2'
_symmetry_cell_setting 'orthorhombic'
loop_
_space_group_symop_operation_xyz
x,y,z
1/2-x,1/2-y,z
x,1/2-y,-z
1/2-x,y,-z
-x,-y,-z
1/2+x,1/2+y,-z
-x,1/2+y,z
1/2+x,-y,z
loop_
_atom_site_type_symbol
_atom_site_label
_atom_site_fract_x
_atom_site_fract_y
_atom_site_fract_z
Si Si1 0.127010 0.892965 0.780434
Si Si2 0.434361 0.161617 0.287048
Si Si3 0.521909 0.250000 0.000000
Si Si4 0.320654 0.178781 0.833618
Si Si5 0.750000 0.444286 0.000000
Si Si6 0.053690 0.750000 0.500000
O O1 0.068827 0.852568 0.907838
O O2 0.200334 0.874587 0.873272
O O3 0.104722 0.808571 0.631321
O O4 0.116687 0.039546 0.724322
O O5 0.476145 0.173254 0.124696
O O6 0.384813 0.290120 0.284008
O O7 0.496280 0.155821 0.416118
O O8 0.250000 0.250000 0.772270
O O9 0.300470 0.036499 0.891882
O O10 0.336032 0.250000 0.000000
#
# Coordination Sequence:
#
# PCOD9395930 Si02
#       6
#     8   8   4   8   4   4
#     4  11  21  39  61  87 121 169 205 257 308 355
#     4  11  18  38  62  89 127 157 202 261 312 359
#     4  10  22  33  59  94 114 154 222 256 296 372
#     4   9  15  30  59  97 115 142 201 268 301 349
#     4  10  19  35  68  92 120 157 214 265 304 354
#     4  10  26  36  57  95 138 164 196 236 316 404
#
# _framework density 21.533493
#
# number of rings (size 3 to 8) (size 9 to 14) (size 15 to 20)
#    0.000    2.000    5.556    1.333    0.000    2.222 
#    0.000    0.556    0.000   18.667    0.000    0.000 
#    0.000    0.000    0.000    0.000    0.000    0.000 
#
# Total GULP energy -200650.540622 kJ/mol
# GULP energy per Si atom -5573.626128 kJ/mol
# Density = 2.148448 g / cm^3
# Si number density = 21.533493 Si / 1000 Ang^3
#
#
#
# Elastic Constant Matrix: (Units=GPa)
#
#
# Indices 1 2 3 4 5 6 
#
# 1 128.4209 39.4295 70.0889 0.0000 0.0000 0.0000
# 2 39.4295 39.2084 17.5020 0.0000 0.0000 0.0000
# 3 70.0889 17.5020 78.9273 0.0000 0.0000 0.0000
# 4 0.0000 0.0000 0.0000 -4.3245 0.0000 0.0000
# 5 0.0000 0.0000 0.0000 0.0000 43.9330 0.0000
# 6 0.0000 0.0000 0.0000 0.0000 0.0000 21.8896
#
#
#
# Elastic Compliance Matrix: (Units=1/GPa)
#
#
# Indices 1 2 3 4 5 6 
#
# 1 0.019989 -0.013516 -0.014753 0.000000 0.000000 0.000000
# 2 -0.013516 0.037446 0.003699 0.000000 0.000000 0.000000
# 3 -0.014753 0.003699 0.024951 0.000000 0.000000 0.000000
# 4 0.000000 0.000000 0.000000 -0.231243 0.000000 0.000000
# 5 0.000000 0.000000 0.000000 0.000000 0.022762 0.000000
# 6 0.000000 0.000000 0.000000 0.000000 0.000000 0.045684
#
#
# Mechanical properties :
#
#
# Convention : Reuss Voigt Hill
#
# Bulk Modulus (GPa) = 30.08003 55.62196 42.85099
# Shear Modulus (GPa) = -247.63921 20.26872 -113.68525
#
# Velocity S-wave (km/s) = -10.73553 3.07133 -7.27387
# Velocity P-wave (km/s) = 11.81818 6.20193 7.11356
#
# Compressibility (1/GPa) = 0.03324465
#
# Stress axis : x y z
#
# Youngs Moduli (GPa) = 50.02863 26.70536 40.07899
#
# Poissons Ratio (x) = 0.36094 0.59129
# Poissons Ratio (y) = 0.67617 -0.14824
# Poissons Ratio (z) = 0.73808 -0.09877
#
# Static dielectric constant tensor:
#      x y z
#    x 1.821490 0.000000 0.000000 
#    y 0.000000 1.872940 0.000000 
#    z 0.000000 0.000000 1.782530 
# 
# From -- ./inp_files/15053.got.cif
#   From: 2010.05.17/outbox.cif.g08.bks.cpg/sg50_8_cif.got.tgz:15053.got - 2010.06.03 11:33:33.
