data_PCOD9395561
_publ_section_title
;
Structure prediction by ZEFSAII (Michael W. Deem and Ramdas Pophale) SiO2 
 PCOD9395561
Probable space group: P B A N
;
_chemical_formula_sum "Si O2"
_cell_formula_units_Z 44
_cell_length_a 8.427117
_cell_length_b 26.710469
_cell_length_c 9.149662
_cell_angle_alpha 90.000000
_cell_angle_beta 90.000000
_cell_angle_gamma 90.000000
_cell_volume 2059.517982
_symmetry_space_group_name_H-M "P B A N"
_symmetry_group_IT_number 50
_space_group.IT_coordinate_system_code '2'
_symmetry_cell_setting 'orthorhombic'
loop_
_space_group_symop_operation_xyz
x,y,z
1/2-x,1/2-y,z
x,1/2-y,-z
1/2-x,y,-z
-x,-y,-z
1/2+x,1/2+y,-z
-x,1/2+y,z
1/2+x,-y,z
loop_
_atom_site_type_symbol
_atom_site_label
_atom_site_fract_x
_atom_site_fract_y
_atom_site_fract_z
Si Si1 0.853923 0.966856 0.695669
Si Si2 0.750000 0.750000 0.000000
Si Si3 0.562018 0.582829 0.972450
Si Si4 0.750000 0.250000 0.000000
Si Si5 0.004150 0.814168 0.822786
Si Si6 0.512177 0.068378 0.294431
Si Si7 0.934194 0.634328 0.466860
O O1 0.931204 0.962414 0.857118
O O2 0.669192 0.952224 0.694999
O O3 0.932162 0.921480 0.605812
O O4 0.879463 0.023486 0.646935
O O5 0.853456 0.715121 0.108121
O O6 0.495844 0.630822 0.891195
O O7 0.750000 0.592861 0.000000
O O8 0.468346 0.576297 0.121982
O O9 0.647910 0.216136 0.890873
O O10 0.996932 0.825235 0.649021
O O11 0.522000 0.120732 0.381891
O O12 0.750000 0.646842 0.500000
#
# Coordination Sequence:
#
# PCOD9395561 Si02
#       7
#     8   2   8   2   8   8   8
#     4   9  18  31  50  81 118 158 201 232 281 337
#     4  10  20  34  74  86  98 142 210 258 304 382
#     4   9  17  32  57  83 115 153 206 254 282 344
#     4  10  24  42  68  88 130 146 192 276 332 398
#     4  10  20  40  63  92 112 149 197 254 324 368
#     4  10  18  32  53  81 120 159 195 243 286 345
#     4   9  19  34  59  84 120 154 196 243 288 360
#
# _framework density 21.364222000000002
#
# number of rings (size 3 to 8) (size 9 to 14) (size 15 to 20)
#    0.000    2.545    0.909    2.182    0.000    0.000 
#    6.545    0.455    0.000    1.091    0.000    0.000 
#    0.000    0.000    0.000    0.000    0.000    0.000 
#
# Total GULP energy -245360.902299 kJ/mol
# GULP energy per Si atom -5576.384143 kJ/mol
# Density = 2.131560 g / cm^3
# Si number density = 21.364222 Si / 1000 Ang^3
#
#
#
# Elastic Constant Matrix: (Units=GPa)
#
#
# Indices 1 2 3 4 5 6 
#
# 1 24.8123 29.9788 25.3655 0.0000 0.0000 0.0000
# 2 29.9788 81.9385 41.5116 0.0000 0.0000 0.0000
# 3 25.3655 41.5116 129.4448 0.0000 0.0000 0.0000
# 4 0.0000 0.0000 0.0000 35.3055 0.0000 0.0000
# 5 0.0000 0.0000 0.0000 0.0000 15.6448 0.0000
# 6 0.0000 0.0000 0.0000 0.0000 0.0000 8.6124
#
#
#
# Elastic Compliance Matrix: (Units=1/GPa)
#
#
# Indices 1 2 3 4 5 6 
#
# 1 0.077588 -0.024697 -0.007284 0.000000 0.000000 0.000000
# 2 -0.024697 0.022433 -0.002354 0.000000 0.000000 0.000000
# 3 -0.007284 -0.002354 0.009908 0.000000 0.000000 0.000000
# 4 0.000000 0.000000 0.000000 0.028324 0.000000 0.000000
# 5 0.000000 0.000000 0.000000 0.000000 0.063919 0.000000
# 6 0.000000 0.000000 0.000000 0.000000 0.000000 0.116112
#
#
# Mechanical properties :
#
#
# Convention : Reuss Voigt Hill
#
# Bulk Modulus (GPa) = 24.23761 47.76750 36.00255
# Shear Modulus (GPa) = 12.47793 21.20185 16.83989
#
# Velocity S-wave (km/s) = 2.41935 3.15366 2.81059
# Velocity P-wave (km/s) = 4.37880 5.97226 5.23650
#
# Compressibility (1/GPa) = 0.04125820
#
# Stress axis : x y z
#
# Youngs Moduli (GPa) = 12.88855 44.57712 100.93190
#
# Poissons Ratio (x) = 1.10093 0.73517
# Poissons Ratio (y) = 0.31831 0.23764
# Poissons Ratio (z) = 0.09388 0.10496
#
# Static dielectric constant tensor:
#      x y z
#    x 1.788380 0.000000 0.000000 
#    y 0.000000 1.731780 0.000000 
#    z 0.000000 0.000000 1.894970 
# 
# From -- ./inp_files/9999.got.cif
#   From: 2010.05.17/outbox.cif.g08.bks.cpg/sg50_5_cif.got.tgz:9999.got - 2010.06.03 11:33:33.
