data_PCOD9395979
_publ_section_title
;
Structure prediction by ZEFSAII (Michael W. Deem and Ramdas Pophale) SiO2 
 PCOD9395979
Probable space group: P B A N
;
_chemical_formula_sum "Si O2"
_cell_formula_units_Z 64
_cell_length_a 18.476753
_cell_length_b 15.947752
_cell_length_c 12.184019
_cell_angle_alpha 90.000000
_cell_angle_beta 90.000000
_cell_angle_gamma 90.000000
_cell_volume 3590.175626
_symmetry_space_group_name_H-M "P B A N"
_symmetry_group_IT_number 50
_space_group.IT_coordinate_system_code '2'
_symmetry_cell_setting 'orthorhombic'
loop_
_space_group_symop_operation_xyz
x,y,z
1/2-x,1/2-y,z
x,1/2-y,-z
1/2-x,y,-z
-x,-y,-z
1/2+x,1/2+y,-z
-x,1/2+y,z
1/2+x,-y,z
loop_
_atom_site_type_symbol
_atom_site_label
_atom_site_fract_x
_atom_site_fract_y
_atom_site_fract_z
Si Si1 0.526371 0.707041 0.879133
Si Si2 0.172161 0.280440 0.126647
Si Si3 0.556420 0.988668 0.124629
Si Si4 0.899364 0.961246 0.109761
Si Si5 0.133953 0.754785 0.132983
Si Si6 0.838063 0.345791 0.502620
Si Si7 0.175226 0.905559 0.739002
Si Si8 0.340670 0.921482 0.729465
O O1 0.600882 0.736474 0.822785
O O2 0.528566 0.606653 0.882906
O O3 0.449350 0.735367 0.834663
O O4 0.528045 0.750000 0.000000
O O5 0.250000 0.250000 0.173213
O O6 0.149897 0.378530 0.122458
O O7 0.174915 0.250000 0.000000
O O8 0.486331 0.049516 0.126109
O O9 0.607725 0.006209 0.226272
O O10 0.603291 0.998146 0.013570
O O11 0.872873 0.030109 0.194208
O O12 0.178813 0.681815 0.193651
O O13 0.151159 0.844615 0.184582
O O14 0.141957 0.750000 0.000000
O O15 0.863520 0.250000 0.500000
O O16 0.750000 0.343496 0.500000
O O17 0.856189 0.387312 0.618541
O O18 0.861807 0.391763 0.392193
O O19 0.255864 0.942272 0.727924
#
# Coordination Sequence:
#
# PCOD9395979 Si02
#       8
#     8   8   8   8   8   8   8   8
#     4  10  19  37  53  74 114 160 190 216 276 355
#     4  10  20  33  53  75 108 153 194 227 264 334
#     4  11  22  36  54  84 119 153 187 231 292 348
#     4  11  22  37  54  83 122 151 186 234 292 345
#     4  11  21  34  53  84 119 151 177 215 290 361
#     4   9  18  38  58  77 110 151 192 223 287 357
#     4  11  22  36  57  84 115 148 183 242 289 333
#     4  11  23  34  59  84 110 149 190 235 279 343
#
# _framework density 17.826425
#
# number of rings (size 3 to 8) (size 9 to 14) (size 15 to 20)
#    0.000    1.500    5.000    1.875    5.250    2.500 
#    0.000    0.625    0.000    0.000    0.000    0.000 
#    0.000    0.000    0.000    0.000    0.000    0.000 
#
# Total GULP energy -356800.962707 kJ/mol
# GULP energy per Si atom -5575.015042 kJ/mol
# Density = 1.778585 g / cm^3
# Si number density = 17.826425 Si / 1000 Ang^3
#
#
#
# Elastic Constant Matrix: (Units=GPa)
#
#
# Indices 1 2 3 4 5 6 
#
# 1 83.3456 25.3950 19.6215 0.0000 0.0000 0.0000
# 2 25.3950 80.1660 32.2631 0.0000 0.0000 0.0000
# 3 19.6215 32.2631 99.6737 0.0000 0.0000 0.0000
# 4 0.0000 0.0000 0.0000 20.1980 0.0000 0.0000
# 5 0.0000 0.0000 0.0000 0.0000 -8.0736 0.0000
# 6 0.0000 0.0000 0.0000 0.0000 0.0000 30.5899
#
#
#
# Elastic Compliance Matrix: (Units=1/GPa)
#
#
# Indices 1 2 3 4 5 6 
#
# 1 0.013462 -0.003677 -0.001460 0.000000 0.000000 0.000000
# 2 -0.003677 0.015347 -0.004244 0.000000 0.000000 0.000000
# 3 -0.001460 -0.004244 0.011694 0.000000 0.000000 0.000000
# 4 0.000000 0.000000 0.000000 0.049510 0.000000 0.000000
# 5 0.000000 0.000000 0.000000 0.000000 -0.123861 0.000000
# 6 0.000000 0.000000 0.000000 0.000000 0.000000 0.032691
#
#
# Mechanical properties :
#
#
# Convention : Reuss Voigt Hill
#
# Bulk Modulus (GPa) = 45.99495 46.41605 46.20550
# Shear Modulus (GPa) = 201.19623 20.93657 111.06640
#
# Velocity S-wave (km/s) = 10.63527 3.43077 7.90187
# Velocity P-wave (km/s) = 13.29171 6.46435 10.45126
#
# Compressibility (1/GPa) = 0.02174152
#
# Stress axis : x y z
#
# Youngs Moduli (GPa) = 74.28146 65.15998 85.51557
#
# Poissons Ratio (x) = 0.23960 0.12485
# Poissons Ratio (y) = 0.27314 0.36291
# Poissons Ratio (z) = 0.10845 0.27652
#
# Static dielectric constant tensor:
#      x y z
#    x 1.678600 0.000000 0.000000 
#    y 0.000000 1.628650 0.000000 
#    z 0.000000 0.000000 1.595800 
# 
# From -- ./inp_files/21939.got.cif
#   From: 2010.05.17/outbox.cif.g08.bks.cpg/sg50_11_cif.got.tgz:21939.got - 2010.06.03 11:33:33.
