data_PCOD9395613
_publ_section_title
;
Structure prediction by ZEFSAII (Michael W. Deem and Ramdas Pophale) SiO2 
 PCOD9395613
Probable space group: P B A N
;
_chemical_formula_sum "Si O2"
_cell_formula_units_Z 56
_cell_length_a 13.439491
_cell_length_b 18.277179
_cell_length_c 12.980472
_cell_angle_alpha 90.000000
_cell_angle_beta 90.000000
_cell_angle_gamma 90.000000
_cell_volume 3188.470995
_symmetry_space_group_name_H-M "P B A N"
_symmetry_group_IT_number 50
_space_group.IT_coordinate_system_code '2'
_symmetry_cell_setting 'orthorhombic'
loop_
_space_group_symop_operation_xyz
x,y,z
1/2-x,1/2-y,z
x,1/2-y,-z
1/2-x,y,-z
-x,-y,-z
1/2+x,1/2+y,-z
-x,1/2+y,z
1/2+x,-y,z
loop_
_atom_site_type_symbol
_atom_site_label
_atom_site_fract_x
_atom_site_fract_y
_atom_site_fract_z
Si Si1 0.865324 0.910329 0.462145
Si Si2 0.005697 0.047087 0.896412
Si Si3 0.811261 0.862390 0.094297
Si Si4 0.681479 0.986355 0.195342
Si Si5 0.122470 0.970872 0.705298
Si Si6 0.149317 0.219255 0.693526
Si Si7 0.545238 0.629288 0.678764
O O1 0.750000 0.912159 0.500000
O O2 0.883679 0.847113 0.377857
O O3 0.928964 0.890611 0.561546
O O4 0.891299 0.984356 0.400750
O O5 0.073736 0.116341 0.926814
O O6 0.892200 0.045059 0.856312
O O7 0.066650 0.012277 0.800061
O O8 0.000000 0.000000 0.000000
O O9 0.747236 0.936198 0.118826
O O10 0.817750 0.814400 0.197224
O O11 0.750000 0.829210 0.000000
O O12 0.614833 0.926011 0.255006
O O13 0.761140 0.025273 0.268883
O O14 0.068195 0.893232 0.699597
O O15 0.250000 0.250000 0.642848
O O16 0.074933 0.287349 0.701956
#
# Coordination Sequence:
#
# PCOD9395613 Si02
#       7
#     8   8   8   8   8   8   8
#     4  12  19  34  58  80 112 154 190 242 302 356
#     4  10  19  32  55  78 111 148 190 236 291 343
#     4  11  20  34  54  83 115 148 185 238 292 351
#     4  10  18  35  53  78 112 145 184 237 282 342
#     4  10  21  35  52  82 112 146 199 241 282 351
#     4  12  21  35  51  84 118 152 182 231 300 377
#     4  11  22  34  54  80 117 152 185 235 298 353
#
# _framework density 17.563276999999999
#
# number of rings (size 3 to 8) (size 9 to 14) (size 15 to 20)
#    0.000    1.143    8.571    0.857    0.000    0.286 
#    0.000    0.000    0.000    0.857    0.000    0.000 
#    0.000    2.857    0.000    0.000    0.000    0.000 
#
# Total GULP energy -311951.913307 kJ/mol
# GULP energy per Si atom -5570.569880 kJ/mol
# Density = 1.752330 g / cm^3
# Si number density = 17.563277 Si / 1000 Ang^3
#
#
#
# Elastic Constant Matrix: (Units=GPa)
#
#
# Indices 1 2 3 4 5 6 
#
# 1 76.9713 39.0862 11.7461 0.0000 0.0000 0.0000
# 2 39.0862 65.3615 6.7752 0.0000 0.0000 0.0000
# 3 11.7461 6.7752 76.4629 0.0000 0.0000 0.0000
# 4 0.0000 0.0000 0.0000 11.3983 0.0000 0.0000
# 5 0.0000 0.0000 0.0000 0.0000 20.5490 0.0000
# 6 0.0000 0.0000 0.0000 0.0000 0.0000 26.9336
#
#
#
# Elastic Compliance Matrix: (Units=1/GPa)
#
#
# Indices 1 2 3 4 5 6 
#
# 1 0.018934 -0.011123 -0.001923 0.000000 0.000000 0.000000
# 2 -0.011123 0.021976 -0.000239 0.000000 0.000000 0.000000
# 3 -0.001923 -0.000239 0.013395 0.000000 0.000000 0.000000
# 4 0.000000 0.000000 0.000000 0.087733 0.000000 0.000000
# 5 0.000000 0.000000 0.000000 0.000000 0.048664 0.000000
# 6 0.000000 0.000000 0.000000 0.000000 0.000000 0.037128
#
#
# Mechanical properties :
#
#
# Convention : Reuss Voigt Hill
#
# Bulk Modulus (GPa) = 36.05524 37.11232 36.58378
# Shear Modulus (GPa) = 18.96501 22.52204 20.74353
#
# Velocity S-wave (km/s) = 3.28961 3.58486 3.44040
# Velocity P-wave (km/s) = 5.91625 6.18962 6.05448
#
# Compressibility (1/GPa) = 0.02773522
#
# Stress axis : x y z
#
# Youngs Moduli (GPa) = 52.81624 45.50463 74.65600
#
# Poissons Ratio (x) = 0.50615 0.14356
# Poissons Ratio (y) = 0.58747 0.01781
# Poissons Ratio (z) = 0.10156 0.01085
#
# Static dielectric constant tensor:
#      x y z
#    x 1.637480 0.000000 0.000000 
#    y 0.000000 1.609220 0.000000 
#    z 0.000000 0.000000 1.511970 
# 
# From -- ./inp_files/20380.got.cif
#   From: 2010.05.17/outbox.cif.g08.bks.cpg/sg50_11_cif.got.tgz:20380.got - 2010.06.03 11:33:33.
