data_PCOD9395112
_publ_section_title
;
Structure prediction by ZEFSAII (Michael W. Deem and Ramdas Pophale) SiO2 
 PCOD9395112
Probable space group: P C C M
;
_chemical_formula_sum "Si O2"
_cell_formula_units_Z 32
_cell_length_a 16.825098
_cell_length_b 9.607643
_cell_length_c 10.676454
_cell_angle_alpha 90.000000
_cell_angle_beta 90.000000
_cell_angle_gamma 90.000000
_cell_volume 1725.843825
_symmetry_space_group_name_H-M "P C C M"
_symmetry_group_IT_number 49
_symmetry_cell_setting 'orthorhombic'
loop_
_space_group_symop_operation_xyz
x,y,z
-x,-y,z
x,-y,1/2-z
-x,y,1/2-z
-x,-y,-z
x,y,-z
-x,y,1/2+z
x,-y,1/2+z
loop_
_atom_site_type_symbol
_atom_site_label
_atom_site_fract_x
_atom_site_fract_y
_atom_site_fract_z
Si Si1 0.087749 0.567644 0.000000
Si Si2 0.806443 0.500000 0.750000
Si Si3 0.163153 0.000000 0.750000
Si Si4 0.459257 0.155436 0.135533
Si Si5 0.277782 0.765754 0.646587
Si Si6 0.075564 0.100782 0.500000
O O1 0.138163 0.526294 0.873977
O O2 0.069880 0.732642 0.000000
O O3 0.000000 0.500000 0.000000
O O4 0.748278 0.369467 0.724132
O O5 0.216660 0.882220 0.688248
O O6 0.116686 0.936190 0.867630
O O7 0.500000 0.231504 0.250000
O O8 0.365469 0.166329 0.160422
O O9 0.500000 0.000000 0.130544
O O10 0.474512 0.218336 0.000000
O O11 0.269190 0.731802 0.500000
O O12 0.000000 0.000000 0.500000
#
# Coordination Sequence:
#
# PCOD9395112 Si02
#       6
#     4   4   4   8   8   4
#     4  12  28  46  70  94 131 181 225 278 337 409
#     4  12  25  46  67 100 132 176 232 268 341 402
#     4  12  23  42  65  94 132 168 218 274 337 390
#     4   9  18  36  60  95 128 162 209 255 318 386
#     4  11  23  41  69  98 136 174 217 281 326 393
#     4  12  28  42  64  98 129 168 219 279 334 402
#
# _framework density 18.541654999999999
#
# number of rings (size 3 to 8) (size 9 to 14) (size 15 to 20)
#    0.000    1.000    5.000    2.250    3.500    2.000 
#    4.500    0.625    0.000    3.000    0.000    0.000 
#    0.000    0.000    0.000    0.000    0.000    0.000 
#
# Total GULP energy -178188.736601 kJ/mol
# GULP energy per Si atom -5568.398019 kJ/mol
# Density = 1.849945 g / cm^3
# Si number density = 18.541655 Si / 1000 Ang^3
#
#
#
# Elastic Constant Matrix: (Units=GPa)
#
#
# Indices 1 2 3 4 5 6 
#
# 1 122.9126 55.3300 75.2110 0.0000 0.0000 0.0000
# 2 55.3300 119.1980 22.4127 0.0000 0.0000 0.0000
# 3 75.2110 22.4127 150.1156 0.0000 0.0000 0.0000
# 4 0.0000 0.0000 0.0000 27.8995 0.0000 0.0000
# 5 0.0000 0.0000 0.0000 0.0000 57.8831 0.0000
# 6 0.0000 0.0000 0.0000 0.0000 0.0000 26.9782
#
#
#
# Elastic Compliance Matrix: (Units=1/GPa)
#
#
# Indices 1 2 3 4 5 6 
#
# 1 0.014611 -0.005562 -0.006490 0.000000 0.000000 0.000000
# 2 -0.005562 0.010749 0.001182 0.000000 0.000000 0.000000
# 3 -0.006490 0.001182 0.009737 0.000000 0.000000 0.000000
# 4 0.000000 0.000000 0.000000 0.035843 0.000000 0.000000
# 5 0.000000 0.000000 0.000000 0.000000 0.017276 0.000000
# 6 0.000000 0.000000 0.000000 0.000000 0.000000 0.037067
#
#
# Mechanical properties :
#
#
# Convention : Reuss Voigt Hill
#
# Bulk Modulus (GPa) = 74.87048 77.57040 76.22044
# Shear Modulus (GPa) = 33.00888 38.50368 35.75628
#
# Velocity S-wave (km/s) = 4.22388 4.56192 4.39615
# Velocity P-wave (km/s) = 8.01596 8.34714 8.18322
#
# Compressibility (1/GPa) = 0.01335640
#
# Stress axis : x y z
#
# Youngs Moduli (GPa) = 68.44275 93.03265 102.70464
#
# Poissons Ratio (x) = 0.51743 0.66654
# Poissons Ratio (y) = 0.38067 -0.12137
# Poissons Ratio (z) = 0.44419 -0.10994
#
# Static dielectric constant tensor:
#      x y z
#    x 1.602140 0.000000 0.000000 
#    y 0.000000 1.678750 0.000000 
#    z 0.000000 0.000000 1.630440 
# 
# From -- ./inp_files/9167.got.cif
#   From: 2010.05.17/outbox.cif.g08.bks.cpg/sg49_5_cif.got.tgz:9167.got - 2010.06.03 21:02:19.
