data_PCOD9395066
_publ_section_title
;
Structure prediction by ZEFSAII (Michael W. Deem and Ramdas Pophale) SiO2 
 PCOD9395066
Probable space group: P C C M
;
_chemical_formula_sum "Si O2"
_cell_formula_units_Z 64
_cell_length_a 11.028845
_cell_length_b 8.762265
_cell_length_c 33.510879
_cell_angle_alpha 90.000000
_cell_angle_beta 90.000000
_cell_angle_gamma 90.000000
_cell_volume 3238.413016
_symmetry_space_group_name_H-M "P C C M"
_symmetry_group_IT_number 49
_symmetry_cell_setting 'orthorhombic'
loop_
_space_group_symop_operation_xyz
x,y,z
-x,-y,z
x,-y,1/2-z
-x,y,1/2-z
-x,-y,-z
x,y,-z
-x,y,1/2+z
x,-y,1/2+z
loop_
_atom_site_type_symbol
_atom_site_label
_atom_site_fract_x
_atom_site_fract_y
_atom_site_fract_z
Si Si1 0.000000 0.814380 0.453240
Si Si2 0.357901 0.830186 0.750000
Si Si3 0.751911 0.681162 0.327545
Si Si4 0.740555 0.816706 0.585394
Si Si5 0.740555 0.183294 0.585394
Si Si6 0.751911 0.318838 0.327545
Si Si7 0.000000 0.820514 0.201993
Si Si8 0.500000 0.325112 0.452408
O O1 0.000000 0.768381 0.500000
O O2 0.126822 0.766124 0.431984
O O3 0.873178 0.766124 0.431984
O O4 0.000000 0.000000 0.452277
O O5 0.500000 0.848411 0.750000
O O6 0.324137 0.741934 0.790086
O O7 0.324137 0.741934 0.709914
O O8 0.298205 0.000000 0.750000
O O9 0.722811 0.758459 0.369585
O O10 0.742446 0.500000 0.330868
O O11 0.885461 0.736074 0.315947
O O12 0.624122 0.755343 0.561515
O O13 0.740242 1.000000 0.584470
O O14 0.722811 0.241541 0.630415
O O15 0.624122 0.244657 0.561515
O O16 0.885461 0.263926 0.315947
O O17 0.000000 0.808511 0.250000
O O18 0.000000 0.000000 0.191381
O O19 0.500000 0.500000 0.437364
O O20 0.500000 0.326830 0.500000
#
# Coordination Sequence:
#
# PCOD9395066 Si02
#       8
#     8   8   8   8   8   8   8   8
#     4   9  19  38  66  99 129 161 209 268 324 382
#     4  11  25  44  65  88 121 167 219 267 317 382
#     4  12  25  41  64  94 131 168 212 266 326 384
#     4  11  23  41  68  98 132 173 219 270 327 395
#     4  11  23  41  68  98 132 173 219 270 327 395
#     4  12  25  41  64  94 131 168 212 266 326 384
#     4  11  22  39  64  90 123 165 215 265 314 377
#     4  11  25  45  67  96 135 174 217 273 333 391
#
# _framework density 19.762765000000002
#
# number of rings (size 3 to 8) (size 9 to 14) (size 15 to 20)
#    0.000    1.000    1.250    5.625    1.750    4.500 
#    0.000    1.875    0.000    4.500    0.000    0.000 
#    0.000    0.000    0.000    0.000    0.000    0.000 
#
# Total GULP energy -357714.727693 kJ/mol
# GULP energy per Si atom -5589.292620 kJ/mol
# Density = 1.971778 g / cm^3
# Si number density = 19.762765 Si / 1000 Ang^3
#
#
#
# Elastic Constant Matrix: (Units=GPa)
#
#
# Indices 1 2 3 4 5 6 
#
# 1 147.1340 51.6755 65.7955 0.0000 0.0000 0.0000
# 2 51.6755 121.3480 48.1149 0.0000 0.0000 0.0000
# 3 65.7955 48.1149 140.2372 0.0000 0.0000 0.0000
# 4 0.0000 0.0000 0.0000 63.0118 0.0000 0.0000
# 5 0.0000 0.0000 0.0000 0.0000 26.1045 0.0000
# 6 0.0000 0.0000 0.0000 0.0000 0.0000 43.7435
#
#
#
# Elastic Compliance Matrix: (Units=1/GPa)
#
#
# Indices 1 2 3 4 5 6 
#
# 1 0.009243 -0.002566 -0.003456 0.000000 0.000000 0.000000
# 2 -0.002566 0.010251 -0.002313 0.000000 0.000000 0.000000
# 3 -0.003456 -0.002313 0.009546 0.000000 0.000000 0.000000
# 4 0.000000 0.000000 0.000000 0.015870 0.000000 0.000000
# 5 0.000000 0.000000 0.000000 0.000000 0.038308 0.000000
# 6 0.000000 0.000000 0.000000 0.000000 0.000000 0.022861
#
#
# Mechanical properties :
#
#
# Convention : Reuss Voigt Hill
#
# Bulk Modulus (GPa) = 80.84529 82.21012 81.52770
# Shear Modulus (GPa) = 39.40987 42.78084 41.09535
#
# Velocity S-wave (km/s) = 4.47043 4.65770 4.56503
# Velocity P-wave (km/s) = 8.22454 8.40324 8.31437
#
# Compressibility (1/GPa) = 0.01236930
#
# Stress axis : x y z
#
# Youngs Moduli (GPa) = 108.18670 97.55581 104.75516
#
# Poissons Ratio (x) = 0.25030 0.36208
# Poissons Ratio (y) = 0.27758 0.24232
# Poissons Ratio (z) = 0.37394 0.22566
#
# Static dielectric constant tensor:
#      x y z
#    x 1.660350 0.000000 0.000000 
#    y 0.000000 1.678500 0.000000 
#    z 0.000000 0.000000 1.598640 
# 
# From -- ./inp_files/26672.got.cif
#   From: 2010.05.17/outbox.cif.g08.bks.cpg/sg49_14_cif.got.tgz:26672.got - 2010.06.03 21:02:19.
