data_PCOD9395124
_publ_section_title
;
Structure prediction by ZEFSAII (Michael W. Deem and Ramdas Pophale) SiO2 
 PCOD9395124
Probable space group: P C C M
;
_chemical_formula_sum "Si O2"
_cell_formula_units_Z 28
_cell_length_a 4.897468
_cell_length_b 11.517340
_cell_length_c 22.149201
_cell_angle_alpha 90.000000
_cell_angle_beta 90.000000
_cell_angle_gamma 90.000000
_cell_volume 1249.343492
_symmetry_space_group_name_H-M "P C C M"
_symmetry_group_IT_number 49
_symmetry_cell_setting 'orthorhombic'
loop_
_space_group_symop_operation_xyz
x,y,z
-x,-y,z
x,-y,1/2-z
-x,y,1/2-z
-x,-y,-z
x,y,-z
-x,y,1/2+z
x,-y,1/2+z
loop_
_atom_site_type_symbol
_atom_site_label
_atom_site_fract_x
_atom_site_fract_y
_atom_site_fract_z
Si Si1 0.045184 0.863949 0.871052
Si Si2 0.500000 0.500000 0.895715
Si Si3 0.730335 0.782895 0.500000
Si Si4 0.788237 0.371838 0.500000
Si Si5 0.514076 0.272832 0.679585
O O1 0.788833 0.782218 0.850900
O O2 0.163732 0.843840 0.939100
O O3 0.289610 0.825508 0.828586
O O4 0.000000 0.000000 0.864377
O O5 0.718036 0.556302 0.940751
O O6 0.420845 0.610679 0.855543
O O7 0.413954 0.742738 0.500000
O O8 0.901335 0.664869 0.500000
O O9 0.500000 0.302502 0.750000
#
# Coordination Sequence:
#
# PCOD9395124 Si02
#       5
#     8   4   4   4   8
#     4  12  26  46  71 100 135 177 228 279 335 397
#     4  11  23  46  68 104 133 177 222 280 336 403
#     4  12  21  47  64 106 132 171 221 282 342 394
#     4  11  24  38  75  94 143 170 216 279 342 403
#     4  12  27  46  69  99 138 182 225 274 330 398
#
# _framework density 22.411771000000002
#
# number of rings (size 3 to 8) (size 9 to 14) (size 15 to 20)
#    0.000    0.286    5.714    2.571    0.000    9.143 
#    0.000    7.143    0.000    0.000    0.000    0.000 
#    0.000    0.000    0.000    0.000    0.000    0.000 
#
# Total GULP energy -156484.286501 kJ/mol
# GULP energy per Si atom -5588.724518 kJ/mol
# Density = 2.236076 g / cm^3
# Si number density = 22.411771 Si / 1000 Ang^3
#
#
#
# Elastic Constant Matrix: (Units=GPa)
#
#
# Indices 1 2 3 4 5 6 
#
# 1 66.6718 -2.8802 -10.0329 0.0000 0.0000 0.0000
# 2 -2.8802 100.4021 46.2417 0.0000 0.0000 0.0000
# 3 -10.0329 46.2417 138.3947 0.0000 0.0000 0.0000
# 4 0.0000 0.0000 0.0000 -48.5340 0.0000 0.0000
# 5 0.0000 0.0000 0.0000 0.0000 22.6438 0.0000
# 6 0.0000 0.0000 0.0000 0.0000 0.0000 33.8618
#
#
#
# Elastic Compliance Matrix: (Units=1/GPa)
#
#
# Indices 1 2 3 4 5 6 
#
# 1 0.015165 -0.000084 0.001128 0.000000 0.000000 0.000000
# 2 -0.000084 0.011772 -0.003939 0.000000 0.000000 0.000000
# 3 0.001128 -0.003939 0.008624 0.000000 0.000000 0.000000
# 4 0.000000 0.000000 0.000000 -0.020604 0.000000 0.000000
# 5 0.000000 0.000000 0.000000 0.000000 0.044162 0.000000
# 6 0.000000 0.000000 0.000000 0.000000 0.000000 0.029532
#
#
# Mechanical properties :
#
#
# Convention : Reuss Voigt Hill
#
# Bulk Modulus (GPa) = 33.59296 41.34732 37.47014
# Shear Modulus (GPa) = 47.90863 19.73702 33.82283
#
# Velocity S-wave (km/s) = 4.62849 2.97080 3.88900
# Velocity P-wave (km/s) = 6.60193 5.50059 6.07626
#
# Compressibility (1/GPa) = 0.02976814
#
# Stress axis : x y z
#
# Youngs Moduli (GPa) = 65.94188 84.94807 115.95909
#
# Poissons Ratio (x) = 0.00716 -0.13075
# Poissons Ratio (y) = 0.00556 0.45681
# Poissons Ratio (z) = -0.07435 0.33465
#
# Static dielectric constant tensor:
#      x y z
#    x 1.843070 0.000000 0.000000 
#    y 0.000000 1.864240 0.000000 
#    z 0.000000 0.000000 1.921420 
# 
# From -- ./inp_files/21550.got.cif
#   From: 2010.05.17/outbox.cif.g08.bks.cpg/sg49_11_cif.got.tgz:21550.got - 2010.06.03 21:02:19.
