data_PCOD9395799
_publ_section_title
;
Structure prediction by ZEFSAII (Michael W. Deem and Ramdas Pophale) SiO2 
 PCOD9395799
Probable space group: P B A N
;
_chemical_formula_sum "Si O2"
_cell_formula_units_Z 60
_cell_length_a 14.950308
_cell_length_b 21.476348
_cell_length_c 9.489470
_cell_angle_alpha 90.000000
_cell_angle_beta 90.000000
_cell_angle_gamma 90.000000
_cell_volume 3046.860213
_symmetry_space_group_name_H-M "P B A N"
_symmetry_group_IT_number 50
_space_group.IT_coordinate_system_code '2'
_symmetry_cell_setting 'orthorhombic'
loop_
_space_group_symop_operation_xyz
x,y,z
1/2-x,1/2-y,z
x,1/2-y,-z
1/2-x,y,-z
-x,-y,-z
1/2+x,1/2+y,-z
-x,1/2+y,z
1/2+x,-y,z
loop_
_atom_site_type_symbol
_atom_site_label
_atom_site_fract_x
_atom_site_fract_y
_atom_site_fract_z
Si Si1 0.436339 0.130142 0.442366
Si Si2 0.689128 0.560173 0.219346
Si Si3 0.975947 0.250000 0.500000
Si Si4 0.192783 0.810543 0.641527
Si Si5 0.398469 0.417470 0.260697
Si Si6 0.033617 0.428587 0.020528
Si Si7 0.077611 0.936991 0.285807
Si Si8 0.271280 0.578845 0.830392
O O1 0.362702 0.095604 0.345165
O O2 0.462007 0.201645 0.415070
O O3 0.407092 0.123943 0.602746
O O4 0.528410 0.092406 0.417603
O O5 0.793477 0.576452 0.221473
O O6 0.634137 0.576007 0.079290
O O7 0.680640 0.484869 0.217785
O O8 0.905688 0.211035 0.405780
O O9 0.250000 0.750000 0.689192
O O10 0.250000 0.831507 0.500000
O O11 0.183773 0.860167 0.766560
O O12 0.429289 0.488467 0.293049
O O13 0.460587 0.397108 0.130591
O O14 0.972258 0.407736 0.149097
O O15 0.000000 0.500000 0.000000
O O16 0.179115 0.922301 0.256389
O O17 0.250000 0.577493 0.000000
#
# Coordination Sequence:
#
# PCOD9395799 Si02
#       8
#     8   8   4   8   8   8   8   8
#     4  11  22  37  57  79 108 149 198 249 293 342
#     4  10  21  36  54  85 123 151 184 239 302 352
#     4  10  23  40  57  78 108 154 208 254 291 342
#     4   9  20  39  59  82 118 162 199 239 296 360
#     4  10  19  33  55  84 112 149 189 228 282 352
#     4   9  17  31  52  80 118 151 175 217 282 348
#     4   9  19  33  52  83 118 144 176 228 294 351
#     4  11  21  35  60  92 123 157 191 234 297 378
#
# _framework density 19.692402999999999
#
# number of rings (size 3 to 8) (size 9 to 14) (size 15 to 20)
#    0.000    2.267    0.000    5.200    0.000    7.733 
#    0.000    1.333    0.000    8.000    0.000    5.600 
#    0.000    0.000    0.000    0.000    0.000    0.000 
#
# Total GULP energy -334230.340205 kJ/mol
# GULP energy per Si atom -5570.505670 kJ/mol
# Density = 1.964758 g / cm^3
# Si number density = 19.692403 Si / 1000 Ang^3
#
#
#
# Elastic Constant Matrix: (Units=GPa)
#
#
# Indices 1 2 3 4 5 6 
#
# 1 47.8525 32.0476 22.4012 0.0000 0.0000 0.0000
# 2 32.0476 68.5190 33.1428 0.0000 0.0000 0.0000
# 3 22.4012 33.1428 81.2358 0.0000 0.0000 0.0000
# 4 0.0000 0.0000 0.0000 7.7189 0.0000 0.0000
# 5 0.0000 0.0000 0.0000 0.0000 17.2815 0.0000
# 6 0.0000 0.0000 0.0000 0.0000 0.0000 16.9079
#
#
#
# Elastic Compliance Matrix: (Units=1/GPa)
#
#
# Indices 1 2 3 4 5 6 
#
# 1 0.031121 -0.012963 -0.003293 0.000000 0.000000 0.000000
# 2 -0.012963 0.023582 -0.006047 0.000000 0.000000 0.000000
# 3 -0.003293 -0.006047 0.015685 0.000000 0.000000 0.000000
# 4 0.000000 0.000000 0.000000 0.129553 0.000000 0.000000
# 5 0.000000 0.000000 0.000000 0.000000 0.057865 0.000000
# 6 0.000000 0.000000 0.000000 0.000000 0.000000 0.059144
#
#
# Mechanical properties :
#
#
# Convention : Reuss Voigt Hill
#
# Bulk Modulus (GPa) = 38.78568 41.42116 40.10342
# Shear Modulus (GPa) = 13.50810 15.71605 14.61207
#
# Velocity S-wave (km/s) = 2.62192 2.82809 2.72695
# Velocity P-wave (km/s) = 5.37628 5.63417 5.50674
#
# Compressibility (1/GPa) = 0.02578271
#
# Stress axis : x y z
#
# Youngs Moduli (GPa) = 32.13313 42.40495 63.75595
#
# Poissons Ratio (x) = 0.54969 0.20995
# Poissons Ratio (y) = 0.41653 0.38550
# Poissons Ratio (z) = 0.10582 0.25640
#
# Static dielectric constant tensor:
#      x y z
#    x 1.749740 0.000000 0.000000 
#    y 0.000000 1.743210 0.000000 
#    z 0.000000 0.000000 1.735310 
# 
# From -- ./inp_files/13429.got.cif
#   From: 2010.05.17/outbox.cif.g08.bks.cpg/sg50_7_cif.got.tgz:13429.got - 2010.06.03 11:33:33.
