data_PCOD9395917
_publ_section_title
;
Structure prediction by ZEFSAII (Michael W. Deem and Ramdas Pophale) SiO2 
 PCOD9395917
Probable space group: P B A N
;
_chemical_formula_sum "Si O2"
_cell_formula_units_Z 64
_cell_length_a 8.518034
_cell_length_b 19.282359
_cell_length_c 20.916350
_cell_angle_alpha 90.000000
_cell_angle_beta 90.000000
_cell_angle_gamma 90.000000
_cell_volume 3435.464253
_symmetry_space_group_name_H-M "P B A N"
_symmetry_group_IT_number 50
_space_group.IT_coordinate_system_code '2'
_symmetry_cell_setting 'orthorhombic'
loop_
_space_group_symop_operation_xyz
x,y,z
1/2-x,1/2-y,z
x,1/2-y,-z
1/2-x,y,-z
-x,-y,-z
1/2+x,1/2+y,-z
-x,1/2+y,z
1/2+x,-y,z
loop_
_atom_site_type_symbol
_atom_site_label
_atom_site_fract_x
_atom_site_fract_y
_atom_site_fract_z
Si Si1 0.357181 0.579068 0.312823
Si Si2 0.156584 0.321745 0.705551
Si Si3 0.809749 0.896928 0.568124
Si Si4 0.665785 0.455161 0.434270
Si Si5 0.315203 0.821191 0.230668
Si Si6 0.368700 0.948513 0.136617
Si Si7 0.326680 0.451958 0.750359
Si Si8 0.367848 0.028749 0.952220
O O1 0.272084 0.579953 0.380255
O O2 0.316359 0.650594 0.278969
O O3 0.275985 0.514391 0.277054
O O4 0.536866 0.563113 0.300410
O O5 0.250000 0.250000 0.712111
O O6 0.179434 0.349815 0.632108
O O7 0.227293 0.381918 0.751323
O O8 0.976413 0.314481 0.728826
O O9 0.750000 0.864470 0.500000
O O10 0.984967 0.931238 0.564541
O O11 0.690718 0.962171 0.574977
O O12 0.750000 0.437586 0.500000
O O13 0.250000 0.750000 0.202938
O O14 0.329539 0.881742 0.178449
O O15 0.532120 0.933288 0.101367
O O16 0.388918 0.016085 0.183023
O O17 0.234743 0.970786 0.085600
O O18 0.250000 0.067964 0.000000
O O19 0.500000 0.000000 0.000000
#
# Coordination Sequence:
#
# PCOD9395917 Si02
#       8
#     8   8   8   8   8   8   8   8
#     4  11  20  35  59  85 115 147 193 253 314 358
#     4  12  25  40  57  80 116 161 203 255 319 373
#     4  11  23  39  59  83 113 146 198 256 314 381
#     4  11  21  35  60  88 108 143 193 254 311 364
#     4  11  23  41  58  87 122 158 203 253 303 368
#     4  10  19  35  61  93 123 160 195 241 298 343
#     4  11  21  34  59  89 118 153 198 245 299 369
#     4   9  18  33  58  94 129 155 190 237 278 330
#
# _framework density 18.629214999999999
#
# number of rings (size 3 to 8) (size 9 to 14) (size 15 to 20)
#    0.000    1.250    2.500    6.750    1.750    0.250 
#    0.000    0.000    0.000    3.750    0.000    7.875 
#    0.000    0.000    0.000    0.000    0.000    0.000 
#
# Total GULP energy -356699.837655 kJ/mol
# GULP energy per Si atom -5573.434963 kJ/mol
# Density = 1.858681 g / cm^3
# Si number density = 18.629215 Si / 1000 Ang^3
#
#
#
# Elastic Constant Matrix: (Units=GPa)
#
#
# Indices 1 2 3 4 5 6 
#
# 1 99.0574 29.3181 26.9931 0.0000 0.0000 0.0000
# 2 29.3181 87.8543 36.8439 0.0000 0.0000 0.0000
# 3 26.9931 36.8439 104.9428 0.0000 0.0000 0.0000
# 4 0.0000 0.0000 0.0000 1.1652 0.0000 0.0000
# 5 0.0000 0.0000 0.0000 0.0000 36.0328 0.0000
# 6 0.0000 0.0000 0.0000 0.0000 0.0000 24.9908
#
#
#
# Elastic Compliance Matrix: (Units=1/GPa)
#
#
# Indices 1 2 3 4 5 6 
#
# 1 0.011513 -0.003049 -0.001891 0.000000 0.000000 0.000000
# 2 -0.003049 0.014155 -0.004185 0.000000 0.000000 0.000000
# 3 -0.001891 -0.004185 0.011485 0.000000 0.000000 0.000000
# 4 0.000000 0.000000 0.000000 0.858250 0.000000 0.000000
# 5 0.000000 0.000000 0.000000 0.000000 0.027752 0.000000
# 6 0.000000 0.000000 0.000000 0.000000 0.000000 0.040015
#
#
# Mechanical properties :
#
#
# Convention : Reuss Voigt Hill
#
# Bulk Modulus (GPa) = 52.90360 53.12941 53.01650
# Shear Modulus (GPa) = 5.06216 25.68439 15.37327
#
# Velocity S-wave (km/s) = 1.65022 3.71713 2.87579
# Velocity P-wave (km/s) = 5.66487 6.85595 6.28868
#
# Compressibility (1/GPa) = 0.01890230
#
# Stress axis : x y z
#
# Youngs Moduli (GPa) = 86.85967 70.64514 87.07158
#
# Poissons Ratio (x) = 0.21540 0.16464
# Poissons Ratio (y) = 0.26484 0.36443
# Poissons Ratio (z) = 0.16424 0.29568
#
# Static dielectric constant tensor:
#      x y z
#    x 1.670730 0.000000 0.000000 
#    y 0.000000 1.612470 0.000000 
#    z 0.000000 0.000000 1.710910 
# 
# From -- ./inp_files/30734.got.cif
#   From: 2010.05.17/outbox.cif.g08.bks.cpg/sg50_16_cif.got.tgz:30734.got - 2010.06.03 11:33:33.
