data_PCOD9395489
_publ_section_title
;
Structure prediction by ZEFSAII (Michael W. Deem and Ramdas Pophale) SiO2 
 PCOD9395489
Probable space group: P B A N
;
_chemical_formula_sum "Si O2"
_cell_formula_units_Z 56
_cell_length_a 20.386500
_cell_length_b 14.885509
_cell_length_c 8.659496
_cell_angle_alpha 90.000000
_cell_angle_beta 90.000000
_cell_angle_gamma 90.000000
_cell_volume 2627.840352
_symmetry_space_group_name_H-M "P B A N"
_symmetry_group_IT_number 50
_space_group.IT_coordinate_system_code '2'
_symmetry_cell_setting 'orthorhombic'
loop_
_space_group_symop_operation_xyz
x,y,z
1/2-x,1/2-y,z
x,1/2-y,-z
1/2-x,y,-z
-x,-y,-z
1/2+x,1/2+y,-z
-x,1/2+y,z
1/2+x,-y,z
loop_
_atom_site_type_symbol
_atom_site_label
_atom_site_fract_x
_atom_site_fract_y
_atom_site_fract_z
Si Si1 0.585073 0.343870 0.025724
Si Si2 0.173342 0.519003 0.548608
Si Si3 0.472222 0.426078 0.878182
Si Si4 0.357126 0.158246 0.934079
Si Si5 0.810186 0.468826 0.100819
Si Si6 0.448142 0.918705 0.350252
Si Si7 0.411754 0.341880 0.405556
O O1 0.563039 0.355848 0.201121
O O2 0.620856 0.250000 0.000000
O O3 0.526286 0.348619 0.900429
O O4 0.628805 0.429668 0.990366
O O5 0.250000 0.516692 0.500000
O O6 0.177998 0.557376 0.722477
O O7 0.118916 0.573679 0.448815
O O8 0.141157 0.419025 0.550221
O O9 0.464403 0.482564 0.722558
O O10 0.500000 0.500000 0.000000
O O11 0.405573 0.382042 0.936387
O O12 0.398477 0.174245 0.777246
O O13 0.308558 0.076952 0.896529
O O14 0.328984 0.250000 0.000000
O O15 0.750000 0.435298 0.000000
O O16 0.514778 0.881465 0.425962
O O17 0.403719 0.250000 0.500000
#
# Coordination Sequence:
#
# PCOD9395489 Si02
#       7
#     8   8   8   8   8   8   8
#     4  11  22  38  68  99 129 166 219 275 334 392
#     4  11  26  45  65  90 130 186 222 267 350 404
#     4  10  17  36  65  92 129 162 215 265 327 385
#     4  11  22  39  66  99 126 169 216 275 331 395
#     4  11  24  45  66  92 127 172 226 276 326 405
#     4  11  22  41  67  99 132 178 220 282 343 399
#     4  11  25  40  62 101 139 170 222 274 341 410
#
# _framework density 21.310275000000001
#
# number of rings (size 3 to 8) (size 9 to 14) (size 15 to 20)
#    0.000    1.143    5.714    2.571    2.000    2.000 
#    0.000    2.857    0.000    3.000    0.000    0.000 
#    0.000    0.000    0.000    0.000    0.000    0.000 
#
# Total GULP energy -312336.239084 kJ/mol
# GULP energy per Si atom -5577.432841 kJ/mol
# Density = 2.126177 g / cm^3
# Si number density = 21.310275 Si / 1000 Ang^3
#
#
#
# Elastic Constant Matrix: (Units=GPa)
#
#
# Indices 1 2 3 4 5 6 
#
# 1 120.4139 5.4746 31.9066 0.0000 0.0000 0.0000
# 2 5.4746 68.4481 29.8762 0.0000 0.0000 0.0000
# 3 31.9066 29.8762 61.9288 0.0000 0.0000 0.0000
# 4 0.0000 0.0000 0.0000 22.4496 0.0000 0.0000
# 5 0.0000 0.0000 0.0000 0.0000 30.2392 0.0000
# 6 0.0000 0.0000 0.0000 0.0000 0.0000 -3.2730
#
#
#
# Elastic Compliance Matrix: (Units=1/GPa)
#
#
# Indices 1 2 3 4 5 6 
#
# 1 0.009789 0.001797 -0.005910 0.000000 0.000000 0.000000
# 2 0.001797 0.018836 -0.010013 0.000000 0.000000 0.000000
# 3 -0.005910 -0.010013 0.024023 0.000000 0.000000 0.000000
# 4 0.000000 0.000000 0.000000 0.044544 0.000000 0.000000
# 5 0.000000 0.000000 0.000000 0.000000 0.033070 0.000000
# 6 0.000000 0.000000 0.000000 0.000000 0.000000 -0.305534
#
#
# Mechanical properties :
#
#
# Convention : Reuss Voigt Hill
#
# Bulk Modulus (GPa) = 40.99077 42.81172 41.90125
# Shear Modulus (GPa) = -36.00056 22.11873 -6.94091
#
# Velocity S-wave (km/s) = -4.11463 3.22520 -1.80669
# Velocity P-wave (km/s) = 1.81566 5.83117 3.91828
#
# Compressibility (1/GPa) = 0.02439573
#
# Stress axis : x y z
#
# Youngs Moduli (GPa) = 102.15478 53.08893 41.62653
#
# Poissons Ratio (x) = -0.09539 0.24602
# Poissons Ratio (y) = -0.18355 0.41680
# Poissons Ratio (z) = 0.60376 0.53157
#
# Static dielectric constant tensor:
#      x y z
#    x 1.770240 0.000000 0.000000 
#    y 0.000000 1.801810 0.000000 
#    z 0.000000 0.000000 1.781710 
# 
# From -- ./inp_files/15373.got.cif
#   From: 2010.05.17/outbox.cif.g08.bks.cpg/sg50_8_cif.got.tgz:15373.got - 2010.06.03 11:33:33.
