data_PCOD9395360
_publ_section_title
;
Structure prediction by ZEFSAII (Michael W. Deem and Ramdas Pophale) SiO2 
 PCOD9395360
Probable space group: P B A N
;
_chemical_formula_sum "Si O2"
_cell_formula_units_Z 64
_cell_length_a 14.443825
_cell_length_b 5.351051
_cell_length_c 37.663409
_cell_angle_alpha 90.000000
_cell_angle_beta 90.000000
_cell_angle_gamma 90.000000
_cell_volume 2910.991481
_symmetry_space_group_name_H-M "P B A N"
_symmetry_group_IT_number 50
_space_group.IT_coordinate_system_code '2'
_symmetry_cell_setting 'orthorhombic'
loop_
_space_group_symop_operation_xyz
x,y,z
1/2-x,1/2-y,z
x,1/2-y,-z
1/2-x,y,-z
-x,-y,-z
1/2+x,1/2+y,-z
-x,1/2+y,z
1/2+x,-y,z
loop_
_atom_site_type_symbol
_atom_site_label
_atom_site_fract_x
_atom_site_fract_y
_atom_site_fract_z
Si Si1 0.354271 0.997194 0.484572
Si Si2 0.361220 0.236959 0.776465
Si Si3 0.438733 0.589301 0.587377
Si Si4 0.113229 0.160897 0.068847
Si Si5 0.058284 0.931595 0.667831
Si Si6 0.859383 0.234028 0.259829
Si Si7 0.560624 0.673368 0.854251
Si Si8 0.901882 0.164381 0.040376
O O1 0.400180 0.750000 0.500000
O O2 0.250000 0.997458 0.500000
O O3 0.362483 0.968951 0.442426
O O4 0.396004 0.250000 0.500000
O O5 0.250000 0.250000 0.773416
O O6 0.396995 0.508814 0.764491
O O7 0.387658 0.187055 0.816908
O O8 0.394656 0.008340 0.751367
O O9 0.512708 0.360938 0.583067
O O10 0.402864 0.586087 0.627848
O O11 0.122467 0.205037 0.110585
O O12 0.144390 0.396278 0.045751
O O13 0.002678 0.136910 0.059254
O O14 0.150912 0.891795 0.058619
O O15 0.123805 0.854751 0.700035
O O16 0.979281 0.715165 0.670741
O O17 0.750000 0.250000 0.253941
O O18 0.511200 0.403940 0.856086
O O19 0.916924 0.250000 0.000000
#
# Coordination Sequence:
#
# PCOD9395360 Si02
#       8
#     8   8   8   8   8   8   8   8
#     4  10  21  37  56  81 117 152 191 242 276 323
#     4  10  23  39  57  78 113 146 186 223 267 340
#     4  10  21  37  58  86 116 152 191 229 287 339
#     4  10  16  27  38  63  98 129 159 216 256 318
#     4  10  21  37  61  87 119 145 181 237 280 334
#     4  10  21  40  59  82 109 146 184 226 275 325
#     4  12  21  34  52  78 108 140 175 226 277 313
#     4  10  16  25  41  61  97 139 163 202 274 327
#
# _framework density 21.985634999999998
#
# number of rings (size 3 to 8) (size 9 to 14) (size 15 to 20)
#    0.000    1.750    2.500    4.125    0.000    4.500 
#    2.250    0.000    5.500    0.000    0.000    0.000 
#    0.000    5.500    0.000    0.000    0.000    0.000 
#
# Total GULP energy -357264.278865 kJ/mol
# GULP energy per Si atom -5582.254357 kJ/mol
# Density = 2.193559 g / cm^3
# Si number density = 21.985635 Si / 1000 Ang^3
#
#
#
# Elastic Constant Matrix: (Units=GPa)
#
#
# Indices 1 2 3 4 5 6 
#
# 1 51.2119 5.4081 5.0181 0.0000 0.0000 0.0000
# 2 5.4081 159.5798 34.0398 0.0000 0.0000 0.0000
# 3 5.0181 34.0398 147.8645 0.0000 0.0000 0.0000
# 4 0.0000 0.0000 0.0000 35.4141 0.0000 0.0000
# 5 0.0000 0.0000 0.0000 0.0000-1229.5956 0.0000
# 6 0.0000 0.0000 0.0000 0.0000 0.0000 1.4621
#
#
#
# Elastic Compliance Matrix: (Units=1/GPa)
#
#
# Indices 1 2 3 4 5 6 
#
# 1 0.019638 -0.000550 -0.000540 0.000000 0.000000 0.000000
# 2 -0.000550 0.006605 -0.001502 0.000000 0.000000 0.000000
# 3 -0.000540 -0.001502 0.007127 0.000000 0.000000 0.000000
# 4 0.000000 0.000000 0.000000 0.028237 0.000000 0.000000
# 5 0.000000 0.000000 0.000000 0.000000 -0.000813 0.000000
# 6 0.000000 0.000000 0.000000 0.000000 0.000000 0.683962
#
#
# Mechanical properties :
#
#
# Convention : Reuss Voigt Hill
#
# Bulk Modulus (GPa) = 35.47855 49.73203 42.60529
# Shear Modulus (GPa) = 6.58470 -217.59786 -105.50658
#
# Velocity S-wave (km/s) = 1.73249 -9.95930 -6.93492
# Velocity P-wave (km/s) = 4.49157 10.46808 6.68605
#
# Compressibility (1/GPa) = 0.02818605
#
# Stress axis : x y z
#
# Youngs Moduli (GPa) = 50.92245 151.38922 140.31089
#
# Poissons Ratio (x) = 0.08332 0.07573
# Poissons Ratio (y) = 0.02803 0.21074
# Poissons Ratio (z) = 0.02749 0.22738
#
# Static dielectric constant tensor:
#      x y z
#    x 1.789320 0.000000 0.000000 
#    y 0.000000 1.849490 0.000000 
#    z 0.000000 0.000000 1.805080 
# 
# From -- ./inp_files/32567.got.cif
#   From: 2010.05.17/outbox.cif.g08.bks.cpg/sg50_17_cif.got.tgz:32567.got - 2010.06.03 11:33:33.
