data_PCOD9395188
_publ_section_title
;
Structure prediction by ZEFSAII (Michael W. Deem and Ramdas Pophale) SiO2 
 PCOD9395188
Probable space group: P C C M
;
_chemical_formula_sum "Si O2"
_cell_formula_units_Z 56
_cell_length_a 20.060806
_cell_length_b 10.043331
_cell_length_c 13.737201
_cell_angle_alpha 90.000000
_cell_angle_beta 90.000000
_cell_angle_gamma 90.000000
_cell_volume 2767.734370
_symmetry_space_group_name_H-M "P C C M"
_symmetry_group_IT_number 49
_symmetry_cell_setting 'orthorhombic'
loop_
_space_group_symop_operation_xyz
x,y,z
-x,-y,z
x,-y,1/2-z
-x,y,1/2-z
-x,-y,-z
x,y,-z
-x,y,1/2+z
x,-y,1/2+z
loop_
_atom_site_type_symbol
_atom_site_label
_atom_site_fract_x
_atom_site_fract_y
_atom_site_fract_z
Si Si1 0.238618 0.739538 0.116907
Si Si2 0.355797 0.468951 0.382992
Si Si3 0.651852 0.045269 0.117773
Si Si4 0.539469 0.253075 0.118686
Si Si5 0.385538 0.758165 0.380992
Si Si6 0.885899 0.660531 0.742401
Si Si7 0.989847 0.338846 0.392157
O O1 0.290004 0.617502 0.132951
O O2 0.178374 0.722365 0.191843
O O3 0.281830 0.871301 0.137610
O O4 0.220272 0.737932 0.000000
O O5 0.362437 0.477370 0.500000
O O6 0.421160 0.386493 0.351384
O O7 0.353217 0.619958 0.346840
O O8 0.648966 0.893922 0.153009
O O9 0.586342 0.129291 0.146992
O O10 0.648012 0.040919 0.000000
O O11 0.463113 0.242859 0.148968
O O12 0.538028 0.254046 0.000000
O O13 0.383886 0.759376 0.500000
O O14 0.876743 0.500000 0.750000
O O15 0.947752 0.700708 0.673232
O O16 0.917752 0.304714 0.652852
O O17 0.995813 0.286488 0.500000
O O18 0.000000 0.500000 0.393598
#
# Coordination Sequence:
#
# PCOD9395188 Si02
#       7
#     8   8   8   8   8   8   8
#     4   9  16  26  37  54  88 129 163 194 234 289
#     4   8  14  21  30  48  77 117 163 206 246 290
#     4   8  14  21  30  48  77 117 163 205 244 291
#     4   8  12  18  28  45  73 111 157 209 259 298
#     4   9  13  18  30  48  74 113 163 213 252 288
#     4   9  16  25  41  64  89 126 162 186 232 297
#     4   8  14  25  41  65  96 121 150 195 237 281
#
# _framework density 20.233156999999999
#
# number of rings (size 3 to 8) (size 9 to 14) (size 15 to 20)
#    0.000    3.571    0.000    3.857    0.000    4.000 
#    0.000    0.000    0.000    0.000    0.000    1.000 
#    0.000   13.714    0.000   30.429    0.000  526.000 
#
# Total GULP energy -312294.222265 kJ/mol
# GULP energy per Si atom -5576.682540 kJ/mol
# Density = 2.018711 g / cm^3
# Si number density = 20.233157 Si / 1000 Ang^3
#
#
#
# Elastic Constant Matrix: (Units=GPa)
#
#
# Indices 1 2 3 4 5 6 
#
# 1 102.3753 58.2501 26.8269 0.0000 0.0000 0.0000
# 2 58.2501 136.2574 14.2058 0.0000 0.0000 0.0000
# 3 26.8269 14.2058 87.7587 0.0000 0.0000 0.0000
# 4 0.0000 0.0000 0.0000 4.4254 0.0000 0.0000
# 5 0.0000 0.0000 0.0000 0.0000 35.6064 0.0000
# 6 0.0000 0.0000 0.0000 0.0000 0.0000 10.5062
#
#
#
# Elastic Compliance Matrix: (Units=1/GPa)
#
#
# Indices 1 2 3 4 5 6 
#
# 1 0.013797 -0.005552 -0.003319 0.000000 0.000000 0.000000
# 2 -0.005552 0.009699 0.000127 0.000000 0.000000 0.000000
# 3 -0.003319 0.000127 0.012389 0.000000 0.000000 0.000000
# 4 0.000000 0.000000 0.000000 0.225970 0.000000 0.000000
# 5 0.000000 0.000000 0.000000 0.000000 0.028085 0.000000
# 6 0.000000 0.000000 0.000000 0.000000 0.000000 0.095182
#
#
# Mechanical properties :
#
#
# Convention : Reuss Voigt Hill
#
# Bulk Modulus (GPa) = 54.35546 58.32856 56.34201
# Shear Modulus (GPa) = 12.23268 25.24816 18.74042
#
# Velocity S-wave (km/s) = 2.46150 3.53634 3.04669
# Velocity P-wave (km/s) = 5.91621 6.75019 6.34691
#
# Compressibility (1/GPa) = 0.01839742
#
# Stress axis : x y z
#
# Youngs Moduli (GPa) = 72.48103 103.10003 80.71798
#
# Poissons Ratio (x) = 0.57242 0.26788
# Poissons Ratio (y) = 0.40242 -0.01026
# Poissons Ratio (z) = 0.24055 -0.01311
#
# Static dielectric constant tensor:
#      x y z
#    x 1.672390 0.000000 0.000000 
#    y 0.000000 1.723850 0.000000 
#    z 0.000000 0.000000 1.792820 
# 
# From -- ./inp_files/14408.got.cif
#   From: 2010.05.17/outbox.cif.g08.bks.cpg/sg49_8_cif.got.tgz:14408.got - 2010.06.03 21:02:19.
