data_PCOD9395034
_publ_section_title
;
Structure prediction by ZEFSAII (Michael W. Deem and Ramdas Pophale) SiO2 
 PCOD9395034
Probable space group: P C C M
;
_chemical_formula_sum "Si O2"
_cell_formula_units_Z 64
_cell_length_a 9.719564
_cell_length_b 15.597417
_cell_length_c 22.138501
_cell_angle_alpha 90.000000
_cell_angle_beta 90.000000
_cell_angle_gamma 90.000000
_cell_volume 3356.198805
_symmetry_space_group_name_H-M "P C C M"
_symmetry_group_IT_number 49
_symmetry_cell_setting 'orthorhombic'
loop_
_space_group_symop_operation_xyz
x,y,z
-x,-y,z
x,-y,1/2-z
-x,y,1/2-z
-x,-y,-z
x,y,-z
-x,y,1/2+z
x,-y,1/2+z
loop_
_atom_site_type_symbol
_atom_site_label
_atom_site_fract_x
_atom_site_fract_y
_atom_site_fract_z
Si Si1 0.660377 0.976708 0.935863
Si Si2 0.164883 0.898259 0.760523
Si Si3 0.497233 0.733179 0.926737
Si Si4 0.128692 0.437084 0.931394
Si Si5 0.636607 0.556049 0.568217
Si Si6 0.264914 0.177066 0.857848
Si Si7 0.757077 0.847817 0.603503
Si Si8 0.975815 0.251402 0.428743
O O1 0.681407 0.913509 0.881294
O O2 0.500000 0.000000 0.936546
O O3 0.754647 0.060474 0.929624
O O4 0.691478 0.932361 0.000000
O O5 0.241865 0.835859 0.712961
O O6 0.210784 0.869697 0.827076
O O7 0.000000 0.889101 0.750000
O O8 0.195868 0.000000 0.750000
O O9 0.416890 0.646647 0.907508
O O10 0.633754 0.751708 0.887322
O O11 0.391991 0.808961 0.911166
O O12 0.524127 0.729571 0.000000
O O13 0.249680 0.494057 0.901809
O O14 0.069089 0.347101 0.908107
O O15 0.000000 0.500000 0.934725
O O16 0.179525 0.417765 0.000000
O O17 0.500000 0.500000 0.563516
O O18 0.690207 0.576193 0.500000
O O19 0.118188 0.189550 0.889437
O O20 0.868161 0.778461 0.581125
O O21 0.947414 0.244850 0.500000
#
# Coordination Sequence:
#
# PCOD9395034 Si02
#       8
#     8   8   8   8   8   8   8   8
#     4  11  22  38  57  86 126 159 193 241 316 387
#     4  11  24  45  61  79 114 157 214 267 292 350
#     4  11  22  37  59  94 131 155 193 250 309 378
#     4   9  17  31  51  80 120 158 189 229 289 363
#     4   9  17  31  53  82 122 164 188 222 292 368
#     4  12  23  39  60  85 117 163 201 257 307 349
#     4  12  23  39  60  85 117 163 205 254 309 354
#     4  11  22  35  57  92 123 153 201 251 305 373
#
# _framework density 19.069192999999999
#
# number of rings (size 3 to 8) (size 9 to 14) (size 15 to 20)
#    0.000    1.250    3.750    3.750    0.000    5.000 
#    0.000    2.500    0.000    0.000    0.000   13.125 
#    0.000    0.000    0.000    0.000    0.000    0.000 
#
# Total GULP energy -356723.945984 kJ/mol
# GULP energy per Si atom -5573.811656 kJ/mol
# Density = 1.902579 g / cm^3
# Si number density = 19.069193 Si / 1000 Ang^3
#
#
#
# Elastic Constant Matrix: (Units=GPa)
#
#
# Indices 1 2 3 4 5 6 
#
# 1 77.6060 16.3262 14.0855 0.0000 0.0000 0.0000
# 2 16.3262 83.0258 14.6900 0.0000 0.0000 0.0000
# 3 14.0855 14.6900 87.1858 0.0000 0.0000 0.0000
# 4 0.0000 0.0000 0.0000 -3.2827 0.0000 0.0000
# 5 0.0000 0.0000 0.0000 0.0000 22.3557 0.0000
# 6 0.0000 0.0000 0.0000 0.0000 0.0000 42.1979
#
#
#
# Elastic Compliance Matrix: (Units=1/GPa)
#
#
# Indices 1 2 3 4 5 6 
#
# 1 0.013715 -0.002376 -0.001815 0.000000 0.000000 0.000000
# 2 -0.002376 0.012826 -0.001777 0.000000 0.000000 0.000000
# 3 -0.001815 -0.001777 0.012063 0.000000 0.000000 0.000000
# 4 0.000000 0.000000 0.000000 -0.304629 0.000000 0.000000
# 5 0.000000 0.000000 0.000000 0.000000 0.044731 0.000000
# 6 0.000000 0.000000 0.000000 0.000000 0.000000 0.023698
#
#
# Mechanical properties :
#
#
# Convention : Reuss Voigt Hill
#
# Bulk Modulus (GPa) = 37.50004 37.55790 37.52897
# Shear Modulus (GPa) = -28.28526 25.76858 -1.25834
#
# Velocity S-wave (km/s) = -3.85554 3.68002 -0.81321
# Velocity P-wave (km/s) = 0.33508 6.14777 4.34067
#
# Compressibility (1/GPa) = 0.02666664
#
# Stress axis : x y z
#
# Youngs Moduli (GPa) = 72.91345 77.96626 82.90150
#
# Poissons Ratio (x) = 0.18522 0.15050
# Poissons Ratio (y) = 0.17322 0.14734
# Poissons Ratio (z) = 0.13237 0.13857
#
# Static dielectric constant tensor:
#      x y z
#    x 1.714720 0.000000 0.000000 
#    y 0.000000 1.722380 0.000000 
#    z 0.000000 0.000000 1.652010 
# 
# From -- ./inp_files/22550.got.cif
#   From: 2010.05.17/outbox.cif.g08.bks.cpg/sg49_12_cif.got.tgz:22550.got - 2010.06.03 21:02:19.
