data_PCOD9395985
_publ_section_title
;
Structure prediction by ZEFSAII (Michael W. Deem and Ramdas Pophale) SiO2 
 PCOD9395985
Probable space group: P B A N
;
_chemical_formula_sum "Si O2"
_cell_formula_units_Z 48
_cell_length_a 24.203313
_cell_length_b 5.210953
_cell_length_c 18.013258
_cell_angle_alpha 90.000000
_cell_angle_beta 90.000000
_cell_angle_gamma 90.000000
_cell_volume 2271.874007
_symmetry_space_group_name_H-M "P B A N"
_symmetry_group_IT_number 50
_space_group.IT_coordinate_system_code '2'
_symmetry_cell_setting 'orthorhombic'
loop_
_space_group_symop_operation_xyz
x,y,z
1/2-x,1/2-y,z
x,1/2-y,-z
1/2-x,y,-z
-x,-y,-z
1/2+x,1/2+y,-z
-x,1/2+y,z
1/2+x,-y,z
loop_
_atom_site_type_symbol
_atom_site_label
_atom_site_fract_x
_atom_site_fract_y
_atom_site_fract_z
Si Si1 0.193845 0.880111 0.266097
Si Si2 0.686874 0.995006 0.966442
Si Si3 0.349953 0.820451 0.576810
Si Si4 0.033613 0.237818 0.253537
Si Si5 0.425715 0.315351 0.578348
Si Si6 0.150611 0.399855 0.199333
O O1 0.250000 0.750000 0.237953
O O2 0.189617 0.842928 0.353636
O O3 0.148286 0.679804 0.236966
O O4 0.184716 0.171973 0.240850
O O5 0.679883 0.956472 0.879260
O O6 0.661535 0.250000 0.000000
O O7 0.750000 0.995885 0.000000
O O8 0.657752 0.750000 0.000000
O O9 0.321224 0.750000 0.500000
O O10 0.397443 0.597404 0.583182
O O11 0.378577 0.097520 0.573734
O O12 0.045397 0.264135 0.342702
O O13 0.088687 0.293524 0.206297
O O14 0.989147 0.457151 0.237450
O O15 0.457218 0.250000 0.500000
#
# Coordination Sequence:
#
# PCOD9395985 Si02
#       6
#     8   8   8   8   8   8
#     4  12  24  37  64  97 130 181 219 268 337 399
#     4  10  23  41  68  99 132 167 201 249 334 410
#     4  10  19  37  58  83 128 178 225 274 332 388
#     4  12  24  40  66  93 129 180 231 272 338 396
#     4  10  20  37  60  87 125 171 227 296 340 376
#     4  12  25  44  65  98 142 165 216 281 323 400
#
# _framework density 21.127932999999999
#
# number of rings (size 3 to 8) (size 9 to 14) (size 15 to 20)
#    0.000    1.000    3.333    3.500    7.000    1.000 
#    0.000    0.000    0.000    8.000    0.000    0.000 
#    0.000    0.000    0.000    0.000    0.000    0.000 
#
# Total GULP energy -267647.387043 kJ/mol
# GULP energy per Si atom -5575.987230 kJ/mol
# Density = 2.107985 g / cm^3
# Si number density = 21.127933 Si / 1000 Ang^3
#
#
#
# Elastic Constant Matrix: (Units=GPa)
#
#
# Indices 1 2 3 4 5 6 
#
# 1 60.2471 3.1421 23.9929 0.0000 0.0000 0.0000
# 2 3.1421 134.8424 32.4343 0.0000 0.0000 0.0000
# 3 23.9929 32.4343 141.2954 0.0000 0.0000 0.0000
# 4 0.0000 0.0000 0.0000 31.6163 0.0000 0.0000
# 5 0.0000 0.0000 0.0000 0.0000 6.9236 0.0000
# 6 0.0000 0.0000 0.0000 0.0000 0.0000 -64.7585
#
#
#
# Elastic Compliance Matrix: (Units=1/GPa)
#
#
# Indices 1 2 3 4 5 6 
#
# 1 0.017816 0.000331 -0.003101 0.000000 0.000000 0.000000
# 2 0.000331 0.007856 -0.001859 0.000000 0.000000 0.000000
# 3 -0.003101 -0.001859 0.008031 0.000000 0.000000 0.000000
# 4 0.000000 0.000000 0.000000 0.031629 0.000000 0.000000
# 5 0.000000 0.000000 0.000000 0.000000 0.144433 0.000000
# 6 0.000000 0.000000 0.000000 0.000000 0.000000 -0.015442
#
#
# Mechanical properties :
#
#
# Convention : Reuss Voigt Hill
#
# Bulk Modulus (GPa) = 40.91181 50.61372 45.76277
# Shear Modulus (GPa) = 23.61497 13.21067 18.41282
#
# Velocity S-wave (km/s) = 3.34685 2.50325 2.95531
# Velocity P-wave (km/s) = 5.86013 5.68884 5.77512
#
# Compressibility (1/GPa) = 0.02444282
#
# Stress axis : x y z
#
# Youngs Moduli (GPa) = 56.12905 127.29746 124.52045
#
# Poissons Ratio (x) = -0.04211 0.38617
# Poissons Ratio (y) = -0.01857 0.23154
# Poissons Ratio (z) = 0.17407 0.23670
#
# Static dielectric constant tensor:
#      x y z
#    x 1.772890 0.000000 0.000000 
#    y 0.000000 1.780380 0.000000 
#    z 0.000000 0.000000 1.709430 
# 
# From -- ./inp_files/30004.got.cif
#   From: 2010.05.17/outbox.cif.g08.bks.cpg/sg50_16_cif.got.tgz:30004.got - 2010.06.03 11:33:33.
