data_PCOD9395162
_publ_section_title
;
Structure prediction by ZEFSAII (Michael W. Deem and Ramdas Pophale) SiO2 
 PCOD9395162
Probable space group: P C C M
;
_chemical_formula_sum "Si O2"
_cell_formula_units_Z 40
_cell_length_a 7.920070
_cell_length_b 12.406521
_cell_length_c 17.336872
_cell_angle_alpha 90.000000
_cell_angle_beta 90.000000
_cell_angle_gamma 90.000000
_cell_volume 1703.529967
_symmetry_space_group_name_H-M "P C C M"
_symmetry_group_IT_number 49
_symmetry_cell_setting 'orthorhombic'
loop_
_space_group_symop_operation_xyz
x,y,z
-x,-y,z
x,-y,1/2-z
-x,y,1/2-z
-x,-y,-z
x,y,-z
-x,y,1/2+z
x,-y,1/2+z
loop_
_atom_site_type_symbol
_atom_site_label
_atom_site_fract_x
_atom_site_fract_y
_atom_site_fract_z
Si Si1 0.670245 0.736826 0.644138
Si Si2 0.196755 0.025642 0.660516
Si Si3 0.826830 0.659439 0.795582
Si Si4 0.694386 0.184021 0.589730
Si Si5 0.703327 0.512761 0.414953
O O1 0.689302 0.690808 0.730829
O O2 0.481791 0.762061 0.615334
O O3 0.742288 0.639005 0.593615
O O4 0.764136 0.850845 0.642523
O O5 0.302033 0.942083 0.609270
O O6 0.238262 0.000000 0.750000
O O7 0.000000 0.000000 0.648855
O O8 0.831182 0.757970 0.855916
O O9 0.782551 0.555360 0.845925
O O10 0.000000 0.648248 0.750000
O O11 0.723042 0.201976 0.500000
O O12 0.500000 0.500000 0.409275
O O13 0.755154 0.473753 0.500000
#
# Coordination Sequence:
#
# PCOD9395162 Si02
#       5
#     8   8   8   8   8
#     4  12  25  44  80 112 149 205 262 307 381 469
#     4  11  25  47  74 111 154 200 254 319 386 463
#     4  12  26  48  77 115 151 204 255 308 383 467
#     4  12  26  46  77 115 155 198 253 323 385 451
#     4  11  25  47  77 114 157 198 256 327 384 447
#
# _framework density 23.480656
#
# number of rings (size 3 to 8) (size 9 to 14) (size 15 to 20)
#    0.000    0.400    4.000    4.200    0.000    6.000 
#    0.000    9.000    0.000    0.000    0.000    0.000 
#    0.000    0.000    0.000    0.000    0.000    0.000 
#
# Total GULP energy -224200.660463 kJ/mol
# GULP energy per Si atom -5605.016512 kJ/mol
# Density = 2.342721 g / cm^3
# Si number density = 23.480656 Si / 1000 Ang^3
#
#
#
# Elastic Constant Matrix: (Units=GPa)
#
#
# Indices 1 2 3 4 5 6 
#
# 1 73.8584 39.4171 60.9455 0.0000 0.0000 0.0000
# 2 39.4171 198.4771 61.2054 0.0000 0.0000 0.0000
# 3 60.9455 61.2054 184.1837 0.0000 0.0000 0.0000
# 4 0.0000 0.0000 0.0000 51.3800 0.0000 0.0000
# 5 0.0000 0.0000 0.0000 0.0000 12.9561 0.0000
# 6 0.0000 0.0000 0.0000 0.0000 0.0000 34.9828
#
#
#
# Elastic Compliance Matrix: (Units=1/GPa)
#
#
# Indices 1 2 3 4 5 6 
#
# 1 0.019369 -0.002084 -0.005717 0.000000 0.000000 0.000000
# 2 -0.002084 0.005838 -0.001250 0.000000 0.000000 0.000000
# 3 -0.005717 -0.001250 0.007736 0.000000 0.000000 0.000000
# 4 0.000000 0.000000 0.000000 0.019463 0.000000 0.000000
# 5 0.000000 0.000000 0.000000 0.000000 0.077184 0.000000
# 6 0.000000 0.000000 0.000000 0.000000 0.000000 0.028585
#
#
# Mechanical properties :
#
#
# Convention : Reuss Voigt Hill
#
# Bulk Modulus (GPa) = 67.37895 86.62835 77.00365
# Shear Modulus (GPa) = 27.59030 39.52722 33.55876
#
# Velocity S-wave (km/s) = 3.43158 4.10737 3.78459
# Velocity P-wave (km/s) = 6.66774 7.71152 7.20855
#
# Compressibility (1/GPa) = 0.01484143
#
# Stress axis : x y z
#
# Youngs Moduli (GPa) = 51.63010 171.29766 129.25798
#
# Poissons Ratio (x) = 0.35694 0.73891
# Poissons Ratio (y) = 0.10758 0.16163
# Poissons Ratio (z) = 0.29514 0.21420
#
# Static dielectric constant tensor:
#      x y z
#    x 1.909500 0.000000 0.000000 
#    y 0.000000 1.894140 0.000000 
#    z 0.000000 0.000000 1.852210 
# 
# From -- ./inp_files/15994.got.cif
#   From: 2010.05.17/outbox.cif.g08.bks.cpg/sg49_8_cif.got.tgz:15994.got - 2010.06.03 21:02:19.
