data_PCOD9395267
_publ_section_title
;
Structure prediction by ZEFSAII (Michael W. Deem and Ramdas Pophale) SiO2 
 PCOD9395267
Probable space group: P C C M
;
_chemical_formula_sum "Si O2"
_cell_formula_units_Z 64
_cell_length_a 21.000000
_cell_length_b 18.000000
_cell_length_c 9.000000
_cell_angle_alpha 90.000000
_cell_angle_beta 90.000000
_cell_angle_gamma 90.000000
_cell_volume 3402.000000
_symmetry_space_group_name_H-M "P C C M"
_symmetry_group_IT_number 49
_symmetry_cell_setting 'orthorhombic'
loop_
_space_group_symop_operation_xyz
x,y,z
-x,-y,z
x,-y,1/2-z
-x,y,1/2-z
-x,-y,-z
x,y,-z
-x,y,1/2+z
x,-y,1/2+z
loop_
_atom_site_type_symbol
_atom_site_label
_atom_site_fract_x
_atom_site_fract_y
_atom_site_fract_z
Si Si1 0.933842 0.082242 0.319546
Si Si2 0.565001 0.626305 0.171950
Si Si3 0.683384 0.182882 0.164789
Si Si4 0.824765 0.181928 0.821884
Si Si5 0.180021 0.343393 0.823815
Si Si6 0.437894 0.192199 0.166039
Si Si7 0.938601 0.581002 0.323400
Si Si8 0.693251 0.635980 0.329874
O O1 0.935742 0.080346 0.500000
O O2 0.876819 0.130881 0.254620
O O3 0.000000 0.111879 0.250000
O O4 0.927030 0.000000 0.250000
O O5 0.500000 0.601183 0.250000
O O6 0.564283 0.717104 0.174338
O O7 0.627787 0.605191 0.263436
O O8 0.568042 0.603450 0.000000
O O9 0.753114 0.150787 0.191243
O O10 0.628624 0.162489 0.276221
O O11 0.688938 0.273387 0.167571
O O12 0.661935 0.163208 0.000000
O O13 0.821955 0.258574 0.731222
O O14 0.836345 0.193748 0.000000
O O15 0.125005 0.380518 0.728639
O O16 0.247067 0.379233 0.775638
O O17 0.170162 0.349381 0.000000
O O18 0.500000 0.167314 0.250000
O O19 0.446504 0.170319 0.000000
O O20 0.936128 0.500000 0.250000
O O21 0.944995 0.576831 0.500000
O O22 0.000000 0.619819 0.250000
O O23 0.703788 0.612336 0.500000
#
# Coordination Sequence:
#
# PCOD9395267 Si02
#       8
#     8   8   8   8   8   8   8   8
#     4  11  22  38  58  79 103 133 167 206 250 300
#     4   9  15  22  33  52  79 116 158 200 242 292
#     4   8  15  26  40  58  86 120 155 195 242 289
#     4  10  20  35  53  76 104 135 169 209 254 302
#     4  11  21  34  52  77 105 136 171 209 253 303
#     4   9  15  21  32  50  77 113 155 195 235 283
#     4  11  22  39  59  80 104 133 167 206 251 300
#     4   9  16  27  41  60  88 124 161 202 248 295
#
# _framework density 18.812463000000001
#
# number of rings (size 3 to 8) (size 9 to 14) (size 15 to 20)
#    0.000    2.250    0.000    6.375    0.000    7.000 
#    0.000    2.500    0.000    0.000    0.000    0.000 
#    0.000    1.000    0.000   10.250    0.000   13.500 
#
# Total GULP energy -356699.174221 kJ/mol
# GULP energy per Si atom -5573.424597 kJ/mol
# Density = 1.876965 g / cm^3
# Si number density = 18.812463 Si / 1000 Ang^3
#
#
#
# Elastic Constant Matrix: (Units=GPa)
#
#
# Indices 1 2 3 4 5 6 
#
# 1 68.5545 -7.5863 60.1068 0.0000 0.0000 0.0000
# 2 -7.5863 -7.3443 4.6489 0.0000 0.0000 0.0000
# 3 60.1068 4.6489 164.5476 0.0000 0.0000 0.0000
# 4 0.0000 0.0000 0.0000 14.4254 0.0000 0.0000
# 5 0.0000 0.0000 0.0000 0.0000 37.9447 0.0000
# 6 0.0000 0.0000 0.0000 0.0000 0.0000 17.4067
#
#
#
# Elastic Compliance Matrix: (Units=1/GPa)
#
#
# Indices 1 2 3 4 5 6 
#
# 1 0.017203 -0.021365 -0.005680 0.000000 0.000000 0.000000
# 2 -0.021365 -0.107233 0.010834 0.000000 0.000000 0.000000
# 3 -0.005680 0.010834 0.007846 0.000000 0.000000 0.000000
# 4 0.000000 0.000000 0.000000 0.069322 0.000000 0.000000
# 5 0.000000 0.000000 0.000000 0.000000 0.026354 0.000000
# 6 0.000000 0.000000 0.000000 0.000000 0.000000 0.057449
#
#
# Mechanical properties :
#
#
# Convention : Reuss Voigt Hill
#
# Bulk Modulus (GPa) = -8.72546 37.78851 14.53153
# Shear Modulus (GPa) = 76.73041 25.19457 50.96249
#
# Velocity S-wave (km/s) = 6.39340 3.66355 5.21043
# Velocity P-wave (km/s) = 7.06063 6.16652 6.62867
#
# Compressibility (1/GPa) = -0.11460713
#
# Stress axis : x y z
#
# Youngs Moduli (GPa) = 58.12931 -9.32551 127.45112
#
# Poissons Ratio (x) = -0.19924 0.72397
# Poissons Ratio (y) = 1.24196 -1.38081
# Poissons Ratio (z) = 0.33020 0.10103
#
# Static dielectric constant tensor:
#      x y z
#    x 1.673080 0.000000 0.000000 
#    y 0.000000 2.132660 0.000000 
#    z 0.000000 0.000000 1.621480 
# 
# From -- ./inp_files/5959.got.cif
#   From: 2010.05.17/outbox.ucp.g08.bks.cvg/sg49_3_cif.got.tgz:5959.got - 2010.06.11 16:40:14.
