data_PCOD9395619
_publ_section_title
;
Structure prediction by ZEFSAII (Michael W. Deem and Ramdas Pophale) SiO2 
 PCOD9395619
Probable space group: P B A N
;
_chemical_formula_sum "Si O2"
_cell_formula_units_Z 44
_cell_length_a 8.177563
_cell_length_b 16.630803
_cell_length_c 13.429992
_cell_angle_alpha 90.000000
_cell_angle_beta 90.000000
_cell_angle_gamma 90.000000
_cell_volume 1826.471381
_symmetry_space_group_name_H-M "P B A N"
_symmetry_group_IT_number 50
_space_group.IT_coordinate_system_code '2'
_symmetry_cell_setting 'orthorhombic'
loop_
_space_group_symop_operation_xyz
x,y,z
1/2-x,1/2-y,z
x,1/2-y,-z
1/2-x,y,-z
-x,-y,-z
1/2+x,1/2+y,-z
-x,1/2+y,z
1/2+x,-y,z
loop_
_atom_site_type_symbol
_atom_site_label
_atom_site_fract_x
_atom_site_fract_y
_atom_site_fract_z
Si Si1 0.088548 0.165104 0.553506
Si Si2 0.250000 0.926666 0.500000
Si Si3 0.323325 0.839594 0.144668
Si Si4 0.223383 0.538031 0.713093
Si Si5 0.376596 0.114295 0.232374
Si Si6 0.013982 0.904764 0.028976
O O1 0.068203 0.250000 0.500000
O O2 0.250000 0.129587 0.500000
O O3 0.127223 0.173692 0.672742
O O4 0.916254 0.121292 0.529047
O O5 0.220844 0.974470 0.600615
O O6 0.250000 0.750000 0.155569
O O7 0.336108 0.888643 0.246093
O O8 0.184386 0.891156 0.087632
O O9 0.474644 0.850371 0.070328
O O10 0.238786 0.452638 0.764276
O O11 0.040404 0.566350 0.733873
O O12 0.394903 0.130815 0.114638
O O13 0.000000 0.000000 0.000000
#
# Coordination Sequence:
#
# PCOD9395619 Si02
#       6
#     8   4   8   8   8   8
#     4  10  23  42  63  92 133 181 223 284 357 427
#     4  10  23  38  64  92 127 174 236 280 344 425
#     4  10  21  38  61  94 132 173 228 289 357 423
#     4  10  22  37  61  97 128 172 223 284 345 420
#     4  10  22  37  61  92 128 166 225 280 340 423
#     4  10  18  35  59  90 122 163 216 276 341 411
#
# _framework density 24.090164999999999
#
# number of rings (size 3 to 8) (size 9 to 14) (size 15 to 20)
#    0.000    2.000    1.818    1.364    3.818    5.818 
#    0.000    1.818    0.000    0.000    0.000    0.000 
#    0.000    0.000    0.000    0.000    0.000    0.000 
#
# Total GULP energy -244992.091284 kJ/mol
# GULP energy per Si atom -5568.002075 kJ/mol
# Density = 2.403533 g / cm^3
# Si number density = 24.090165 Si / 1000 Ang^3
#
#
#
# Elastic Constant Matrix: (Units=GPa)
#
#
# Indices 1 2 3 4 5 6 
#
# 1 78.5000 14.5707 18.5343 0.0000 0.0000 0.0000
# 2 14.5707 91.2369 32.3571 0.0000 0.0000 0.0000
# 3 18.5343 32.3571 98.1706 0.0000 0.0000 0.0000
# 4 0.0000 0.0000 0.0000 33.5088 0.0000 0.0000
# 5 0.0000 0.0000 0.0000 0.0000 13.6684 0.0000
# 6 0.0000 0.0000 0.0000 0.0000 0.0000 25.2138
#
#
#
# Elastic Compliance Matrix: (Units=1/GPa)
#
#
# Indices 1 2 3 4 5 6 
#
# 1 0.013493 -0.001417 -0.002080 0.000000 0.000000 0.000000
# 2 -0.001417 0.012560 -0.003872 0.000000 0.000000 0.000000
# 3 -0.002080 -0.003872 0.011855 0.000000 0.000000 0.000000
# 4 0.000000 0.000000 0.000000 0.029843 0.000000 0.000000
# 5 0.000000 0.000000 0.000000 0.000000 0.073162 0.000000
# 6 0.000000 0.000000 0.000000 0.000000 0.000000 0.039661
#
#
# Mechanical properties :
#
#
# Convention : Reuss Voigt Hill
#
# Bulk Modulus (GPa) = 43.16087 44.31464 43.73775
# Shear Modulus (GPa) = 24.62612 27.97455 26.30034
#
# Velocity S-wave (km/s) = 3.20073 3.41140 3.30774
# Velocity P-wave (km/s) = 5.62271 5.82684 5.72569
#
# Compressibility (1/GPa) = 0.02316913
#
# Stress axis : x y z
#
# Youngs Moduli (GPa) = 74.11216 79.61732 84.34964
#
# Poissons Ratio (x) = 0.11282 0.17548
# Poissons Ratio (y) = 0.10502 0.32662
# Poissons Ratio (z) = 0.15418 0.30830
#
# Static dielectric constant tensor:
#      x y z
#    x 2.079790 0.000000 0.000000 
#    y 0.000000 1.961230 0.000000 
#    z 0.000000 0.000000 2.083420 
# 
# From -- ./inp_files/24897.got.cif
#   From: 2010.05.17/outbox.cif.g08.bks.cpg/sg50_13_cif.got.tgz:24897.got - 2010.06.03 11:33:33.
