data_PCOD9395444
_publ_section_title
;
Structure prediction by ZEFSAII (Michael W. Deem and Ramdas Pophale) SiO2 
 PCOD9395444
Probable space group: P B A N
;
_chemical_formula_sum "Si O2"
_cell_formula_units_Z 64
_cell_length_a 11.031748
_cell_length_b 27.594244
_cell_length_c 10.780803
_cell_angle_alpha 90.000000
_cell_angle_beta 90.000000
_cell_angle_gamma 90.000000
_cell_volume 3281.813846
_symmetry_space_group_name_H-M "P B A N"
_symmetry_group_IT_number 50
_space_group.IT_coordinate_system_code '2'
_symmetry_cell_setting 'orthorhombic'
loop_
_space_group_symop_operation_xyz
x,y,z
1/2-x,1/2-y,z
x,1/2-y,-z
1/2-x,y,-z
-x,-y,-z
1/2+x,1/2+y,-z
-x,1/2+y,z
1/2+x,-y,z
loop_
_atom_site_type_symbol
_atom_site_label
_atom_site_fract_x
_atom_site_fract_y
_atom_site_fract_z
Si Si1 0.122001 0.974996 0.041839
Si Si2 0.213501 0.419430 0.356846
Si Si3 0.063529 0.140299 0.306705
Si Si4 0.692240 0.323067 0.713630
Si Si5 0.208817 0.971073 0.310030
Si Si6 0.952825 0.097836 0.561576
Si Si7 0.934205 0.267729 0.640811
Si Si8 0.150518 0.894315 0.845216
O O1 0.122307 0.971326 0.189230
O O2 0.250000 0.999893 0.000000
O O3 0.131423 0.923820 0.970790
O O4 0.000000 0.000000 0.000000
O O5 0.250000 0.413141 0.500000
O O6 0.303859 0.382256 0.288890
O O7 0.242103 0.475107 0.326100
O O8 0.071514 0.408581 0.352556
O O9 0.001955 0.113931 0.427468
O O10 0.047399 0.197737 0.328552
O O11 0.976898 0.127960 0.192840
O O12 0.630012 0.360539 0.620365
O O13 0.813726 0.300815 0.652922
O O14 0.598229 0.278591 0.726802
O O15 0.745153 0.353370 0.830133
O O16 0.130566 0.950215 0.424863
O O17 0.311554 0.934115 0.260424
O O18 0.944790 0.250000 0.500000
#
# Coordination Sequence:
#
# PCOD9395444 Si02
#       8
#     8   8   8   8   8   8   8   8
#     4  10  21  37  54  77 107 146 197 234 282 330
#     4  10  23  34  46  72 115 155 194 220 280 335
#     4  10  20  33  51  77 114 142 181 233 274 339
#     4   9  17  30  51  81 105 130 178 229 277 323
#     4  10  22  34  55  73 102 154 191 232 273 331
#     4  10  21  33  50  75 110 147 188 229 272 333
#     4  10  17  28  56  82 106 135 181 228 278 344
#     4   9  20  33  53  80 106 139 179 239 280 325
#
# _framework density 19.501411000000001
#
# number of rings (size 3 to 8) (size 9 to 14) (size 15 to 20)
#    0.000    2.250    1.250    1.500    8.750    2.000 
#    0.000    0.625    0.000    0.000    0.000  140.875 
#    0.000    0.000    0.000   31.500    2.000    0.000 
#
# Total GULP energy -356701.173190 kJ/mol
# GULP energy per Si atom -5573.455831 kJ/mol
# Density = 1.945703 g / cm^3
# Si number density = 19.501411 Si / 1000 Ang^3
#
#
#
# Elastic Constant Matrix: (Units=GPa)
#
#
# Indices 1 2 3 4 5 6 
#
# 1 71.2890 38.1560 1.1331 0.0000 0.0000 0.0000
# 2 38.1560 101.0426 -6.1756 0.0000 0.0000 0.0000
# 3 1.1331 -6.1756 15.8486 0.0000 0.0000 0.0000
# 4 0.0000 0.0000 0.0000 18.7682 0.0000 0.0000
# 5 0.0000 0.0000 0.0000 0.0000 11.7783 0.0000
# 6 0.0000 0.0000 0.0000 0.0000 0.0000 17.3181
#
#
#
# Elastic Compliance Matrix: (Units=1/GPa)
#
#
# Indices 1 2 3 4 5 6 
#
# 1 0.017824 -0.006975 -0.003992 0.000000 0.000000 0.000000
# 2 -0.006975 0.012868 0.005513 0.000000 0.000000 0.000000
# 3 -0.003992 0.005513 0.065531 0.000000 0.000000 0.000000
# 4 0.000000 0.000000 0.000000 0.053281 0.000000 0.000000
# 5 0.000000 0.000000 0.000000 0.000000 0.084902 0.000000
# 6 0.000000 0.000000 0.000000 0.000000 0.000000 0.057743
#
#
# Mechanical properties :
#
#
# Convention : Reuss Voigt Hill
#
# Bulk Modulus (GPa) = 11.72142 28.26745 19.99443
# Shear Modulus (GPa) = 15.08319 19.91071 17.49695
#
# Velocity S-wave (km/s) = 2.78410 3.19876 2.99860
# Velocity P-wave (km/s) = 4.04457 5.30747 4.71846
#
# Compressibility (1/GPa) = 0.08531390
#
# Stress axis : x y z
#
# Youngs Moduli (GPa) = 56.10425 77.71474 15.26001
#
# Poissons Ratio (x) = 0.54204 0.06092
# Poissons Ratio (y) = 0.39131 -0.08412
# Poissons Ratio (z) = 0.22398 -0.42842
#
# Static dielectric constant tensor:
#      x y z
#    x 1.752500 0.000000 0.000000 
#    y 0.000000 1.745230 0.000000 
#    z 0.000000 0.000000 1.732450 
# 
# From -- ./inp_files/20577.got.cif
#   From: 2010.05.17/outbox.cif.g08.bks.cpg/sg50_11_cif.got.tgz:20577.got - 2010.06.03 11:33:33.
