data_PCOD9395734
_publ_section_title
;
Structure prediction by ZEFSAII (Michael W. Deem and Ramdas Pophale) SiO2 
 PCOD9395734
Probable space group: P B A N
;
_chemical_formula_sum "Si O2"
_cell_formula_units_Z 26
_cell_length_a 5.260083
_cell_length_b 28.934871
_cell_length_c 7.177363
_cell_angle_alpha 90.000000
_cell_angle_beta 90.000000
_cell_angle_gamma 90.000000
_cell_volume 1092.393379
_symmetry_space_group_name_H-M "P B A N"
_symmetry_group_IT_number 50
_space_group.IT_coordinate_system_code '2'
_symmetry_cell_setting 'orthorhombic'
loop_
_space_group_symop_operation_xyz
x,y,z
1/2-x,1/2-y,z
x,1/2-y,-z
1/2-x,y,-z
-x,-y,-z
1/2+x,1/2+y,-z
-x,1/2+y,z
1/2+x,-y,z
loop_
_atom_site_type_symbol
_atom_site_label
_atom_site_fract_x
_atom_site_fract_y
_atom_site_fract_z
Si Si1 0.250000 0.250000 0.500000
Si Si2 0.467901 0.518464 0.714593
Si Si3 0.335049 0.624976 0.711777
Si Si4 0.850367 0.821238 0.197143
O O1 0.099551 0.217195 0.644276
O O2 0.500000 0.500000 0.500000
O O3 0.748530 0.513843 0.794721
O O4 0.368024 0.570233 0.734811
O O5 0.250000 0.632092 0.500000
O O6 0.609309 0.648246 0.738160
O O7 0.102268 0.647802 0.824959
O O8 0.750000 0.802087 0.000000
#
# Coordination Sequence:
#
# PCOD9395734 Si02
#       4
#     2   8   8   8
#     4  12  26  50  80 104 132 182 234 282 360 428
#     4  10  19  31  61 105 132 178 245 284 323 400
#     4  12  22  43  71 104 140 190 234 282 349 415
#     4  12  28  47  72 105 143 179 230 292 353 425
#
# _framework density 23.80095
#
# number of rings (size 3 to 8) (size 9 to 14) (size 15 to 20)
#    0.000    0.615    6.154    3.231    4.308    2.462 
#    0.000    3.077    0.000   18.462    0.000    0.000 
#    0.000    0.000    0.000    0.000    0.000    0.000 
#
# Total GULP energy -145306.871802 kJ/mol
# GULP energy per Si atom -5588.725839 kJ/mol
# Density = 2.374678 g / cm^3
# Si number density = 23.800950 Si / 1000 Ang^3
#
#
#
# Elastic Constant Matrix: (Units=GPa)
#
#
# Indices 1 2 3 4 5 6 
#
# 1 205.9454 64.5656 27.7268 0.0000 0.0000 0.0000
# 2 64.5656 154.3873 41.5764 0.0000 0.0000 0.0000
# 3 27.7268 41.5764 128.8718 0.0000 0.0000 0.0000
# 4 0.0000 0.0000 0.0000 -4.1326 0.0000 0.0000
# 5 0.0000 0.0000 0.0000 0.0000 23.5306 0.0000
# 6 0.0000 0.0000 0.0000 0.0000 0.0000 -380.7000
#
#
#
# Elastic Compliance Matrix: (Units=1/GPa)
#
#
# Indices 1 2 3 4 5 6 
#
# 1 0.005617 -0.002216 -0.000494 0.000000 0.000000 0.000000
# 2 -0.002216 0.007968 -0.002094 0.000000 0.000000 0.000000
# 3 -0.000494 -0.002094 0.008541 0.000000 0.000000 0.000000
# 4 0.000000 0.000000 0.000000 -0.241976 0.000000 0.000000
# 5 0.000000 0.000000 0.000000 0.000000 0.042498 0.000000
# 6 0.000000 0.000000 0.000000 0.000000 0.000000 -0.002627
#
#
# Mechanical properties :
#
#
# Convention : Reuss Voigt Hill
#
# Bulk Modulus (GPa) = 79.87701 84.10469 81.99085
# Shear Modulus (GPa) = -30.08448 -48.57138 -39.32793
#
# Velocity S-wave (km/s) = -3.55914 -4.52235 -4.06934
# Velocity P-wave (km/s) = 4.09186 2.85387 3.52760
#
# Compressibility (1/GPa) = 0.01251925
#
# Stress axis : x y z
#
# Youngs Moduli (GPa) = 178.03526 125.50423 117.07783
#
# Poissons Ratio (x) = 0.27813 0.05778
# Poissons Ratio (y) = 0.39454 0.24514
# Poissons Ratio (z) = 0.08786 0.26278
#
# Static dielectric constant tensor:
#      x y z
#    x 1.892890 0.000000 0.000000 
#    y 0.000000 1.897830 0.000000 
#    z 0.000000 0.000000 1.943330 
# 
# From -- ./inp_files/7802.got.cif
#   From: 2010.05.17/outbox.cif.g08.bks.cpg/sg50_4_cif.got.tgz:7802.got - 2010.06.03 11:33:33.
