data_PCOD9395829
_publ_section_title
;
Structure prediction by ZEFSAII (Michael W. Deem and Ramdas Pophale) SiO2 
 PCOD9395829
Probable space group: P B A N
;
_chemical_formula_sum "Si O2"
_cell_formula_units_Z 58
_cell_length_a 14.716568
_cell_length_b 9.197782
_cell_length_c 22.268366
_cell_angle_alpha 90.000000
_cell_angle_beta 90.000000
_cell_angle_gamma 90.000000
_cell_volume 3014.241217
_symmetry_space_group_name_H-M "P B A N"
_symmetry_group_IT_number 50
_space_group.IT_coordinate_system_code '2'
_symmetry_cell_setting 'orthorhombic'
loop_
_space_group_symop_operation_xyz
x,y,z
1/2-x,1/2-y,z
x,1/2-y,-z
1/2-x,y,-z
-x,-y,-z
1/2+x,1/2+y,-z
-x,1/2+y,z
1/2+x,-y,z
loop_
_atom_site_type_symbol
_atom_site_label
_atom_site_fract_x
_atom_site_fract_y
_atom_site_fract_z
Si Si1 0.883905 0.992640 0.348022
Si Si2 0.939596 0.654594 0.362348
Si Si3 0.570633 0.161408 0.057157
Si Si4 0.526146 0.430383 0.131423
Si Si5 0.627159 0.893571 0.229695
Si Si6 0.671406 0.552203 0.215266
Si Si7 0.774041 0.922123 0.566360
Si Si8 0.750000 0.250000 0.000000
O O1 0.923010 0.828429 0.358860
O O2 0.866735 0.013683 0.277255
O O3 0.789884 0.996709 0.384302
O O4 0.956723 0.109442 0.369526
O O5 0.903847 0.591340 0.298507
O O6 0.878346 0.580006 0.413602
O O7 0.552092 0.268230 0.112685
O O8 0.518992 0.015883 0.075621
O O9 0.531945 0.250000 0.000000
O O10 0.678460 0.155987 0.040042
O O11 0.452616 0.434162 0.184533
O O12 0.617772 0.500407 0.157047
O O13 0.651102 0.723699 0.221247
O O14 0.720922 0.974496 0.214664
O O15 0.750000 0.750000 0.568000
O O16 0.750000 0.975907 0.500000
#
# Coordination Sequence:
#
# PCOD9395829 Si02
#       8
#     8   8   8   8   8   8   8   2
#     4  10  19  34  55  80 112 147 185 235 284 332
#     4  10  19  34  55  80 112 147 185 235 284 332
#     4  10  24  42  59  84 116 151 185 230 272 334
#     4  12  21  38  62  88 111 150 188 234 278 342
#     4  10  20  34  55  84 116 146 183 233 284 336
#     4  10  20  34  55  84 116 146 183 233 284 336
#     4   9  18  34  56  79 108 155 201 225 268 345
#     4   8  24  44  60  78 118 148 180 222 282 316
#
# _framework density 19.241990000000001
#
# number of rings (size 3 to 8) (size 9 to 14) (size 15 to 20)
#    0.414    1.517    4.138    0.414    1.931    0.552 
#    0.000    0.690    0.000    2.483    0.000    0.000 
#    0.000    0.000    0.000    0.000    0.000    0.000 
#
# Total GULP energy -323257.456607 kJ/mol
# GULP energy per Si atom -5573.404424 kJ/mol
# Density = 1.919819 g / cm^3
# Si number density = 19.241990 Si / 1000 Ang^3
#
#
#
# Elastic Constant Matrix: (Units=GPa)
#
#
# Indices 1 2 3 4 5 6 
#
# 1 40.3066 2.0078 -10.2915 0.0000 0.0000 0.0000
# 2 2.0078 18.9088 -1.8641 0.0000 0.0000 0.0000
# 3 -10.2915 -1.8641 47.6988 0.0000 0.0000 0.0000
# 4 0.0000 0.0000 0.0000 10.0232 0.0000 0.0000
# 5 0.0000 0.0000 0.0000 0.0000 32.2372 0.0000
# 6 0.0000 0.0000 0.0000 0.0000 0.0000 17.2810
#
#
#
# Elastic Compliance Matrix: (Units=1/GPa)
#
#
# Indices 1 2 3 4 5 6 
#
# 1 0.026351 -0.002246 0.005598 0.000000 0.000000 0.000000
# 2 -0.002246 0.053282 0.001598 0.000000 0.000000 0.000000
# 3 0.005598 0.001598 0.022235 0.000000 0.000000 0.000000
# 4 0.000000 0.000000 0.000000 0.099769 0.000000 0.000000
# 5 0.000000 0.000000 0.000000 0.000000 0.031020 0.000000
# 6 0.000000 0.000000 0.000000 0.000000 0.000000 0.057867
#
#
# Mechanical properties :
#
#
# Convention : Reuss Voigt Hill
#
# Bulk Modulus (GPa) = 8.94727 9.62428 9.28577
# Shear Modulus (GPa) = 15.72917 19.71241 17.72079
#
# Velocity S-wave (km/s) = 2.86219 3.20417 3.03800
# Velocity P-wave (km/s) = 3.94751 4.32453 4.14031
#
# Compressibility (1/GPa) = 0.11176596
#
# Stress axis : x y z
#
# Youngs Moduli (GPa) = 37.94923 18.76822 44.97392
#
# Poissons Ratio (x) = 0.04216 -0.25175
# Poissons Ratio (y) = 0.08524 -0.07185
# Poissons Ratio (z) = -0.21243 -0.02998
#
# Static dielectric constant tensor:
#      x y z
#    x 1.672500 0.000000 0.000000 
#    y 0.000000 1.657200 0.000000 
#    z 0.000000 0.000000 1.689230 
# 
# From -- ./inp_files/31762.got.cif
#   From: 2010.05.17/outbox.cif.g08.bks.cpg/sg50_16_cif.got.tgz:31762.got - 2010.06.03 11:33:33.
