data_PCOD9395125
_publ_section_title
;
Structure prediction by ZEFSAII (Michael W. Deem and Ramdas Pophale) SiO2 
 PCOD9395125
Probable space group: P C C M
;
_chemical_formula_sum "Si O2"
_cell_formula_units_Z 30
_cell_length_a 11.742863
_cell_length_b 4.833872
_cell_length_c 19.961651
_cell_angle_alpha 90.000000
_cell_angle_beta 90.000000
_cell_angle_gamma 90.000000
_cell_volume 1133.093110
_symmetry_space_group_name_H-M "P C C M"
_symmetry_group_IT_number 49
_symmetry_cell_setting 'orthorhombic'
loop_
_space_group_symop_operation_xyz
x,y,z
-x,-y,z
x,-y,1/2-z
-x,y,1/2-z
-x,-y,-z
x,y,-z
-x,y,1/2+z
x,-y,1/2+z
loop_
_atom_site_type_symbol
_atom_site_label
_atom_site_fract_x
_atom_site_fract_y
_atom_site_fract_z
Si Si1 0.824929 0.763295 0.348789
Si Si2 0.867462 0.592738 0.500000
Si Si3 0.500000 0.000000 0.390969
Si Si4 0.000000 0.500000 0.750000
Si Si5 0.382677 0.334873 0.500000
Si Si6 0.315910 0.237230 0.192187
O O1 0.858576 0.722184 0.425764
O O2 0.788485 0.080127 0.343554
O O3 0.925754 0.690767 0.298492
O O4 0.726928 0.554465 0.317454
O O5 0.732091 0.483720 0.500000
O O6 0.000000 0.500000 0.500000
O O7 0.598974 0.862879 0.436067
O O8 0.565614 0.221512 0.346790
O O9 0.500000 0.500000 0.500000
O O10 0.335016 0.000000 0.250000
#
# Coordination Sequence:
#
# PCOD9395125 Si02
#       6
#     8   4   4   2   4   8
#     4  12  27  46  76 106 152 197 253 314 388 456
#     4  12  25  48  75 116 153 200 263 322 384 462
#     4  11  25  40  74 104 145 199 254 314 392 454
#     4  12  24  52  72 108 144 220 240 318 390 472
#     4  11  23  46  72 101 154 203 249 313 396 461
#     4  12  25  47  72 110 146 196 252 319 379 464
#
# _framework density 26.476202000000001
#
# number of rings (size 3 to 8) (size 9 to 14) (size 15 to 20)
#    0.000    0.267    6.667    2.000    0.000    4.267 
#    0.000    4.000    0.000    0.000    0.000    0.000 
#    0.000    0.000    0.000    0.000    0.000    0.000 
#
# Total GULP energy -167143.122903 kJ/mol
# GULP energy per Si atom -5571.437430 kJ/mol
# Density = 2.641594 g / cm^3
# Si number density = 26.476202 Si / 1000 Ang^3
#
#
#
# Elastic Constant Matrix: (Units=GPa)
#
#
# Indices 1 2 3 4 5 6 
#
# 1 159.3675 32.8703 -10.6450 0.0000 0.0000 0.0000
# 2 32.8703 147.2079 10.5000 0.0000 0.0000 0.0000
# 3 -10.6450 10.5000 117.8738 0.0000 0.0000 0.0000
# 4 0.0000 0.0000 0.0000 -10.2422 0.0000 0.0000
# 5 0.0000 0.0000 0.0000 0.0000 35.8304 0.0000
# 6 0.0000 0.0000 0.0000 0.0000 0.0000 19.4359
#
#
#
# Elastic Compliance Matrix: (Units=1/GPa)
#
#
# Indices 1 2 3 4 5 6 
#
# 1 0.006641 -0.001535 0.000736 0.000000 0.000000 0.000000
# 2 -0.001535 0.007192 -0.000779 0.000000 0.000000 0.000000
# 3 0.000736 -0.000779 0.008620 0.000000 0.000000 0.000000
# 4 0.000000 0.000000 0.000000 -0.097636 0.000000 0.000000
# 5 0.000000 0.000000 0.000000 0.000000 0.027909 0.000000
# 6 0.000000 0.000000 0.000000 0.000000 0.000000 0.051451
#
#
# Mechanical properties :
#
#
# Convention : Reuss Voigt Hill
#
# Bulk Modulus (GPa) = 51.82551 54.43331 53.12941
# Shear Modulus (GPa) = 363.24964 35.11975 199.18470
#
# Velocity S-wave (km/s) = 11.72589 3.64602 8.68302
# Velocity P-wave (km/s) = 14.24589 6.19101 10.98349
#
# Compressibility (1/GPa) = 0.01929552
#
# Stress axis : x y z
#
# Youngs Moduli (GPa) = 150.58724 139.05253 116.01501
#
# Poissons Ratio (x) = 0.21349 -0.08544
# Poissons Ratio (y) = 0.23120 0.09041
# Poissons Ratio (z) = -0.11090 0.10836
#
# Static dielectric constant tensor:
#      x y z
#    x 1.971720 0.000000 0.000000 
#    y 0.000000 2.308410 0.000000 
#    z 0.000000 0.000000 2.437150 
# 
# From -- ./inp_files/18703.got.cif
#   From: 2010.05.17/outbox.cif.g08.bks.cpg/sg49_10_cif.got.tgz:18703.got - 2010.06.03 21:02:19.
