data_PCOD9395155
_publ_section_title
;
Structure prediction by ZEFSAII (Michael W. Deem and Ramdas Pophale) SiO2 
 PCOD9395155
Probable space group: P C C M
;
_chemical_formula_sum "Si O2"
_cell_formula_units_Z 18
_cell_length_a 4.731182
_cell_length_b 8.612527
_cell_length_c 19.018496
_cell_angle_alpha 90.000000
_cell_angle_beta 90.000000
_cell_angle_gamma 90.000000
_cell_volume 774.954886
_symmetry_space_group_name_H-M "P C C M"
_symmetry_group_IT_number 49
_symmetry_cell_setting 'orthorhombic'
loop_
_space_group_symop_operation_xyz
x,y,z
-x,-y,z
x,-y,1/2-z
-x,y,1/2-z
-x,-y,-z
x,y,-z
-x,y,1/2+z
x,-y,1/2+z
loop_
_atom_site_type_symbol
_atom_site_label
_atom_site_fract_x
_atom_site_fract_y
_atom_site_fract_z
Si Si1 0.339937 0.655950 0.580248
Si Si2 0.500000 0.000000 0.750000
Si Si3 0.158109 0.153187 0.627135
O O1 0.500000 0.500000 0.603619
O O2 0.239497 0.633640 0.500000
O O3 0.579965 0.787428 0.582096
O O4 0.079618 0.713536 0.627065
O O5 0.700351 0.896083 0.700733
O O6 0.000000 0.000000 0.599358
#
# Coordination Sequence:
#
# PCOD9395155 Si02
#       3
#     8   2   8
#     4  11  25  45  71 108 146 176 224 293 364 428
#     4  12  26  48  70 100 142 188 252 306 322 416
#     4  12  24  44  75  97 140 187 235 288 349 406
#
# _framework density 23.227160000000001
#
# number of rings (size 3 to 8) (size 9 to 14) (size 15 to 20)
#    0.000    0.444    4.444    3.333    0.000    8.889 
#    0.000    1.111    9.778    0.000    0.000    0.000 
#    0.000    0.000    0.000    0.000    0.000    0.000 
#
# Total GULP energy -100721.203944 kJ/mol
# GULP energy per Si atom -5595.622441 kJ/mol
# Density = 2.317429 g / cm^3
# Si number density = 23.227160 Si / 1000 Ang^3
#
#
#
# Elastic Constant Matrix: (Units=GPa)
#
#
# Indices 1 2 3 4 5 6 
#
# 1 189.6090 75.9324 68.1508 0.0000 0.0000 0.0000
# 2 75.9324 111.0756 56.8600 0.0000 0.0000 0.0000
# 3 68.1508 56.8600 92.0067 0.0000 0.0000 0.0000
# 4 0.0000 0.0000 0.0000 32.9340 0.0000 0.0000
# 5 0.0000 0.0000 0.0000 0.0000 50.1922 0.0000
# 6 0.0000 0.0000 0.0000 0.0000 0.0000 72.7597
#
#
#
# Elastic Compliance Matrix: (Units=1/GPa)
#
#
# Indices 1 2 3 4 5 6 
#
# 1 0.008060 -0.003589 -0.003752 0.000000 0.000000 0.000000
# 2 -0.003589 0.014767 -0.006468 0.000000 0.000000 0.000000
# 3 -0.003752 -0.006468 0.017645 0.000000 0.000000 0.000000
# 4 0.000000 0.000000 0.000000 0.030364 0.000000 0.000000
# 5 0.000000 0.000000 0.000000 0.000000 0.019923 0.000000
# 6 0.000000 0.000000 0.000000 0.000000 0.000000 0.013744
#
#
# Mechanical properties :
#
#
# Convention : Reuss Voigt Hill
#
# Bulk Modulus (GPa) = 77.79349 88.28643 83.03996
# Shear Modulus (GPa) = 36.65539 43.96038 40.30789
#
# Velocity S-wave (km/s) = 3.97687 4.35515 4.17031
# Velocity P-wave (km/s) = 7.39274 7.96130 7.68228
#
# Compressibility (1/GPa) = 0.01285455
#
# Stress axis : x y z
#
# Youngs Moduli (GPa) = 124.07022 67.71741 56.67359
#
# Poissons Ratio (x) = 0.24305 0.21264
# Poissons Ratio (y) = 0.44531 0.36654
# Poissons Ratio (z) = 0.46551 0.43797
#
# Static dielectric constant tensor:
#      x y z
#    x 1.870560 0.000000 0.000000 
#    y 0.000000 1.912520 0.000000 
#    z 0.000000 0.000000 1.821590 
# 
# From -- ./inp_files/14822.got.cif
#   From: 2010.05.17/outbox.cif.g08.bks.cpg/sg49_8_cif.got.tgz:14822.got - 2010.06.03 21:02:19.
