data_PCOD9395349
_publ_section_title
;
Structure prediction by ZEFSAII (Michael W. Deem and Ramdas Pophale) SiO2 
 PCOD9395349
Probable space group: P B A N
;
_chemical_formula_sum "Si O2"
_cell_formula_units_Z 48
_cell_length_a 25.284798
_cell_length_b 5.520387
_cell_length_c 18.821813
_cell_angle_alpha 90.000000
_cell_angle_beta 90.000000
_cell_angle_gamma 90.000000
_cell_volume 2627.183859
_symmetry_space_group_name_H-M "P B A N"
_symmetry_group_IT_number 50
_space_group.IT_coordinate_system_code '2'
_symmetry_cell_setting 'orthorhombic'
loop_
_space_group_symop_operation_xyz
x,y,z
1/2-x,1/2-y,z
x,1/2-y,-z
1/2-x,y,-z
-x,-y,-z
1/2+x,1/2+y,-z
-x,1/2+y,z
1/2+x,-y,z
loop_
_atom_site_type_symbol
_atom_site_label
_atom_site_fract_x
_atom_site_fract_y
_atom_site_fract_z
Si Si1 0.438514 0.998111 0.029168
Si Si2 0.062645 0.579740 0.196161
Si Si3 0.988017 0.140535 0.400441
Si Si4 0.553248 0.587007 0.746581
Si Si5 0.132295 0.748170 0.413395
Si Si6 0.188611 0.251660 0.413502
O O1 0.430896 0.973731 0.113316
O O2 0.414591 0.750000 0.000000
O O3 0.415924 0.250000 0.000000
O O4 0.500000 0.000000 0.000000
O O5 0.081857 0.342040 0.239276
O O6 0.998999 0.594920 0.204295
O O7 0.081337 0.837475 0.229525
O O8 0.024483 0.101795 0.330285
O O9 0.011572 0.378845 0.435851
O O10 0.927106 0.203824 0.387870
O O11 0.130440 0.750000 0.500000
O O12 0.164546 0.509617 0.391429
O O13 0.156981 0.007813 0.390989
O O14 0.250000 0.250000 0.392357
O O15 0.187018 0.250000 0.500000
#
# Coordination Sequence:
#
# PCOD9395349 Si02
#       6
#     8   8   8   8   8   8
#     4  10  16  22  31  49  68  86 111 165 235 265
#     4  10  16  25  38  48  67  93 138 175 209 256
#     4  12  21  33  45  60  87 119 153 183 211 251
#     4  10  16  27  37  51  64 100 143 174 201 235
#     4  10  21  33  48  71  91 111 141 175 220 272
#     4   9  17  33  54  72  89 107 130 168 220 276
#
# _framework density 18.270513999999999
#
# number of rings (size 3 to 8) (size 9 to 14) (size 15 to 20)
#    0.000    1.833    3.333    6.500    0.000    2.667 
#    0.000    0.000    0.000    0.000    0.000    0.000 
#    0.000    0.000    0.000    0.000    0.000    0.000 
#
# Total GULP energy -267234.517272 kJ/mol
# GULP energy per Si atom -5567.385777 kJ/mol
# Density = 1.822893 g / cm^3
# Si number density = 18.270514 Si / 1000 Ang^3
#
#
#
# Elastic Constant Matrix: (Units=GPa)
#
#
# Indices 1 2 3 4 5 6 
#
# 1 67.0631 51.9896 5.3312 0.0000 0.0000 0.0000
# 2 51.9896 242.3979 53.0728 0.0000 0.0000 0.0000
# 3 5.3312 53.0728 84.2100 0.0000 0.0000 0.0000
# 4 0.0000 0.0000 0.0000 27.2891 0.0000 0.0000
# 5 0.0000 0.0000 0.0000 0.0000 1.2594 0.0000
# 6 0.0000 0.0000 0.0000 0.0000 0.0000 23.8149
#
#
#
# Elastic Compliance Matrix: (Units=1/GPa)
#
#
# Indices 1 2 3 4 5 6 
#
# 1 0.018048 -0.004200 0.001505 0.000000 0.000000 0.000000
# 2 -0.004200 0.005763 -0.003366 0.000000 0.000000 0.000000
# 3 0.001505 -0.003366 0.013901 0.000000 0.000000 0.000000
# 4 0.000000 0.000000 0.000000 0.036645 0.000000 0.000000
# 5 0.000000 0.000000 0.000000 0.000000 0.794049 0.000000
# 6 0.000000 0.000000 0.000000 0.000000 0.000000 0.041990
#
#
# Mechanical properties :
#
#
# Convention : Reuss Voigt Hill
#
# Bulk Modulus (GPa) = 39.07987 68.27313 53.67650
# Shear Modulus (GPa) = 5.37028 29.35784 17.36406
#
# Velocity S-wave (km/s) = 1.71630 4.01289 3.08618
# Velocity P-wave (km/s) = 5.03623 7.67595 6.49168
#
# Compressibility (1/GPa) = 0.02558862
#
# Stress axis : x y z
#
# Youngs Moduli (GPa) = 55.40777 173.50778 71.93473
#
# Poissons Ratio (x) = 0.72880 -0.10824
# Poissons Ratio (y) = 0.23273 0.24216
# Poissons Ratio (z) = -0.08337 0.58410
#
# Static dielectric constant tensor:
#      x y z
#    x 1.589430 0.000000 0.000000 
#    y 0.000000 1.786770 0.000000 
#    z 0.000000 0.000000 1.586650 
# 
# From -- ./inp_files/31221.got.cif
#   From: 2010.05.17/outbox.cif.g08.bks.cpg/sg50_16_cif.got.tgz:31221.got - 2010.06.03 11:33:33.
