data_PCOD9395165
_publ_section_title
;
Structure prediction by ZEFSAII (Michael W. Deem and Ramdas Pophale) SiO2 
 PCOD9395165
Probable space group: P C C M
;
_chemical_formula_sum "Si O2"
_cell_formula_units_Z 24
_cell_length_a 5.213640
_cell_length_b 8.076265
_cell_length_c 25.977637
_cell_angle_alpha 90.000000
_cell_angle_beta 90.000000
_cell_angle_gamma 90.000000
_cell_volume 1093.833562
_symmetry_space_group_name_H-M "P C C M"
_symmetry_group_IT_number 49
_symmetry_cell_setting 'orthorhombic'
loop_
_space_group_symop_operation_xyz
x,y,z
-x,-y,z
x,-y,1/2-z
-x,y,1/2-z
-x,-y,-z
x,y,-z
-x,y,1/2+z
x,-y,1/2+z
loop_
_atom_site_type_symbol
_atom_site_label
_atom_site_fract_x
_atom_site_fract_y
_atom_site_fract_z
Si Si1 0.575438 0.309700 0.117763
Si Si2 0.925318 0.807062 0.059101
Si Si3 0.170600 0.133605 0.709009
O O1 0.500000 0.500000 0.123297
O O2 0.837630 0.288423 0.085463
O O3 0.639677 0.229483 0.173065
O O4 0.338465 0.220658 0.089781
O O5 0.890307 0.751048 0.000000
O O6 0.000000 0.000000 0.057813
O O7 0.000000 0.241294 0.750000
O O8 0.266569 0.000000 0.750000
O O9 0.000000 0.000000 0.675693
#
# Coordination Sequence:
#
# PCOD9395165 Si02
#       3
#     8   8   8
#     4  12  23  42  76 109 147 181 237 299 363 419
#     4  11  26  46  71 105 145 194 239 283 348 437
#     4   6  17  41  74  98 132 191 238 290 340 420
#
# _framework density 21.941182999999999
#
# number of rings (size 3 to 8) (size 9 to 14) (size 15 to 20)
#    2.000    0.333    0.000    4.000    0.000    6.667 
#    0.000    3.333    7.333    4.000    0.000    0.000 
#    0.000    0.000    0.000    0.000    0.000    0.000 
#
# Total GULP energy -133675.600995 kJ/mol
# GULP energy per Si atom -5569.816708 kJ/mol
# Density = 2.189124 g / cm^3
# Si number density = 21.941183 Si / 1000 Ang^3
#
#
#
# Elastic Constant Matrix: (Units=GPa)
#
#
# Indices 1 2 3 4 5 6 
#
# 1 158.6256 33.0714 91.1882 0.0000 0.0000 0.0000
# 2 33.0714 89.3071 60.1141 0.0000 0.0000 0.0000
# 3 91.1882 60.1141 195.0817 0.0000 0.0000 0.0000
# 4 0.0000 0.0000 0.0000 -28.3645 0.0000 0.0000
# 5 0.0000 0.0000 0.0000 0.0000 48.9973 0.0000
# 6 0.0000 0.0000 0.0000 0.0000 0.0000 39.2101
#
#
#
# Elastic Compliance Matrix: (Units=1/GPa)
#
#
# Indices 1 2 3 4 5 6 
#
# 1 0.008647 -0.000607 -0.003855 0.000000 0.000000 0.000000
# 2 -0.000607 0.014170 -0.004083 0.000000 0.000000 0.000000
# 3 -0.003855 -0.004083 0.008186 0.000000 0.000000 0.000000
# 4 0.000000 0.000000 0.000000 -0.035255 0.000000 0.000000
# 5 0.000000 0.000000 0.000000 0.000000 0.020409 0.000000
# 6 0.000000 0.000000 0.000000 0.000000 0.000000 0.025504
#
#
# Mechanical properties :
#
#
# Convention : Reuss Voigt Hill
#
# Bulk Modulus (GPa) = 71.87185 90.19575 81.03380
# Shear Modulus (GPa) = 78.87974 29.21128 54.04551
#
# Velocity S-wave (km/s) = 6.00238 3.65272 4.96845
# Velocity P-wave (km/s) = 8.99254 7.68030 8.36220
#
# Compressibility (1/GPa) = 0.01391365
#
# Stress axis : x y z
#
# Youngs Moduli (GPa) = 115.65173 70.56988 122.16117
#
# Poissons Ratio (x) = 0.04286 0.47088
# Poissons Ratio (y) = 0.07024 0.49874
# Poissons Ratio (z) = 0.44579 0.28811
#
# Static dielectric constant tensor:
#      x y z
#    x 1.988930 0.000000 0.000000 
#    y 0.000000 1.591720 0.000000 
#    z 0.000000 0.000000 1.704770 
# 
# From -- ./inp_files/23573.got.cif
#   From: 2010.05.17/outbox.cif.g08.bks.cpg/sg49_12_cif.got.tgz:23573.got - 2010.06.03 21:02:19.
