data_PCOD9395200
_publ_section_title
;
Structure prediction by ZEFSAII (Michael W. Deem and Ramdas Pophale) SiO2 
 PCOD9395200
Probable space group: P C C M
;
_chemical_formula_sum "Si O2"
_cell_formula_units_Z 64
_cell_length_a 30.000000
_cell_length_b 15.000000
_cell_length_c 9.000000
_cell_angle_alpha 90.000000
_cell_angle_beta 90.000000
_cell_angle_gamma 90.000000
_cell_volume 4050.000000
_symmetry_space_group_name_H-M "P C C M"
_symmetry_group_IT_number 49
_symmetry_cell_setting 'orthorhombic'
loop_
_space_group_symop_operation_xyz
x,y,z
-x,-y,z
x,-y,1/2-z
-x,y,1/2-z
-x,-y,-z
x,y,-z
-x,y,1/2+z
x,-y,1/2+z
loop_
_atom_site_type_symbol
_atom_site_label
_atom_site_fract_x
_atom_site_fract_y
_atom_site_fract_z
Si Si1 0.209852 0.731996 0.331669
Si Si2 0.791741 0.910680 0.669678
Si Si3 0.044151 0.595981 0.825060
Si Si4 0.099542 0.090294 0.329088
Si Si5 0.632189 0.401196 0.821884
Si Si6 0.544455 0.600162 0.178968
Si Si7 0.897114 0.730091 0.168893
Si Si8 0.729903 0.404374 0.825346
O O1 0.225485 0.722226 0.500000
O O2 0.223034 0.826150 0.262947
O O3 0.156334 0.729153 0.331520
O O4 0.230715 0.655735 0.233148
O O5 0.776992 0.905622 0.500000
O O6 0.846111 0.911302 0.668215
O O7 0.777066 0.000000 0.750000
O O8 0.049731 0.500000 0.750000
O O9 0.085278 0.656265 0.780335
O O10 0.000000 0.636729 0.750000
O O11 0.038510 0.587245 0.000000
O O12 0.084735 0.097303 0.500000
O O13 0.087028 0.174959 0.230507
O O14 0.084555 0.000000 0.250000
O O15 0.635717 0.500000 0.750000
O O16 0.590215 0.357602 0.739463
O O17 0.681159 0.361465 0.795127
O O18 0.624396 0.407699 0.000000
O O19 0.545458 0.500000 0.250000
O O20 0.500000 0.641822 0.250000
O O21 0.542656 0.595577 0.000000
O O22 0.912468 0.713909 0.000000
O O23 0.732266 0.500000 0.750000
O O24 0.732827 0.417170 0.000000
#
# Coordination Sequence:
#
# PCOD9395200 Si02
#       8
#     8   8   8   8   8   8   8   8
#     4  10  20  32  47  67  92 119 150 185 220 258
#     4   9  16  27  44  65  90 116 145 179 218 260
#     4  11  22  38  58  77  96 119 147 181 220 264
#     4   9  16  27  45  70  97 125 151 178 212 253
#     4   9  16  26  38  52  70  97 134 174 215 259
#     4  10  16  22  33  49  69  92 122 166 215 259
#     4  10  20  34  51  73  97 121 149 183 219 257
#     4  10  20  32  45  59  81 114 151 188 224 263
#
# _framework density 15.802469
#
# number of rings (size 3 to 8) (size 9 to 14) (size 15 to 20)
#    0.000    2.250    0.000    6.000    0.000    6.500 
#    0.000    0.000    0.000    0.375    0.000    2.625 
#    0.000    0.000    0.000    0.000    0.000    0.625 
#
# Total GULP energy -356421.798261 kJ/mol
# GULP energy per Si atom -5569.090598 kJ/mol
# Density = 1.576650 g / cm^3
# Si number density = 15.802469 Si / 1000 Ang^3
#
#
#
# Elastic Constant Matrix: (Units=GPa)
#
#
# Indices 1 2 3 4 5 6 
#
# 1 11.6776 23.5991 26.6156 0.0000 0.0000 0.0000
# 2 23.5991 47.5462 22.9271 0.0000 0.0000 0.0000
# 3 26.6156 22.9271 111.8373 0.0000 0.0000 0.0000
# 4 0.0000 0.0000 0.0000 14.4828 0.0000 0.0000
# 5 0.0000 0.0000 0.0000 0.0000 -19.1142 0.0000
# 6 0.0000 0.0000 0.0000 0.0000 0.0000 -9.7305
#
#
#
# Elastic Compliance Matrix: (Units=1/GPa)
#
#
# Indices 1 2 3 4 5 6 
#
# 1 -0.427544 0.181040 0.064635 0.000000 0.000000 0.000000
# 2 0.181040 -0.053321 -0.032154 0.000000 0.000000 0.000000
# 3 0.064635 -0.032154 0.000151 0.000000 0.000000 0.000000
# 4 0.000000 0.000000 0.000000 0.069048 0.000000 0.000000
# 5 0.000000 0.000000 0.000000 0.000000 -0.052317 0.000000
# 6 0.000000 0.000000 0.000000 0.000000 0.000000 -0.102769
#
#
# Mechanical properties :
#
#
# Convention : Reuss Voigt Hill
#
# Bulk Modulus (GPa) = -18.63212 35.26055 8.31421
# Shear Modulus (GPa) = -4.94225 3.65555 -0.64335
#
# Velocity S-wave (km/s) = -1.77040 1.52260 -0.63875
# Velocity P-wave (km/s) = 3.99941 5.04508 2.17457
#
# Compressibility (1/GPa) = -0.05367075
#
# Stress axis : x y z
#
# Youngs Moduli (GPa) = -2.33894 -18.75441 6617.91757
#
# Poissons Ratio (x) = 3.39530 -427.74852
# Poissons Ratio (y) = 0.42344 212.79161
# Poissons Ratio (z) = 0.15118 -0.60303
#
# Static dielectric constant tensor:
#      x y z
#    x 1.591660 0.000000 0.000000 
#    y 0.000000 1.516820 0.000000 
#    z 0.000000 0.000000 1.525800 
# 
# From -- ./inp_files/7070.got.cif
#   From: 2010.05.17/outbox.ucp.g08.bks.cvg/sg49_4_cif.got.tgz:7070.got - 2010.06.11 16:40:14.
