data_PCOD9395167
_publ_section_title
;
Structure prediction by ZEFSAII (Michael W. Deem and Ramdas Pophale) SiO2 
 PCOD9395167
Probable space group: P C C M
;
_chemical_formula_sum "Si O2"
_cell_formula_units_Z 20
_cell_length_a 5.183956
_cell_length_b 5.277608
_cell_length_c 29.441696
_cell_angle_alpha 90.000000
_cell_angle_beta 90.000000
_cell_angle_gamma 90.000000
_cell_volume 805.492053
_symmetry_space_group_name_H-M "P C C M"
_symmetry_group_IT_number 49
_symmetry_cell_setting 'orthorhombic'
loop_
_space_group_symop_operation_xyz
x,y,z
-x,-y,z
x,-y,1/2-z
-x,y,1/2-z
-x,-y,-z
x,y,-z
-x,y,1/2+z
x,-y,1/2+z
loop_
_atom_site_type_symbol
_atom_site_label
_atom_site_fract_x
_atom_site_fract_y
_atom_site_fract_z
Si Si1 0.000000 0.500000 0.250000
Si Si2 0.173209 0.256341 0.927745
Si Si3 0.500000 0.500000 0.000000
Si Si4 0.252517 0.171107 0.174883
O O1 0.191035 0.354812 0.216038
O O2 0.262281 0.286771 0.875540
O O3 0.000000 0.500000 0.941078
O O4 0.414093 0.292750 0.960481
O O5 0.000000 0.000000 0.932658
O O6 0.500000 0.000000 0.182795
O O7 0.000000 0.000000 0.173385
#
# Coordination Sequence:
#
# PCOD9395167 Si02
#       4
#     2   8   2   8
#     4  12  26  54  88 118 160 222 274 354 422 512
#     4  11  27  51  78 121 166 215 280 345 417 503
#     4  12  28  46  88 114 166 224 276 350 414 500
#     4  11  28  51  81 120 165 215 277 348 423 506
#
# _framework density 24.829545
#
# number of rings (size 3 to 8) (size 9 to 14) (size 15 to 20)
#    0.000    0.800    2.000    1.800   11.200    8.000 
#    0.000    4.000    0.000    0.000    0.000    0.000 
#    0.000    0.000    0.000    0.000    0.000    0.000 
#
# Total GULP energy -111551.499490 kJ/mol
# GULP energy per Si atom -5577.574975 kJ/mol
# Density = 2.477303 g / cm^3
# Si number density = 24.829545 Si / 1000 Ang^3
#
#
#
# Elastic Constant Matrix: (Units=GPa)
#
#
# Indices 1 2 3 4 5 6 
#
# 1 128.8760 43.8041 31.9771 0.0000 0.0000 0.0000
# 2 43.8041 124.7483 46.4500 0.0000 0.0000 0.0000
# 3 31.9771 46.4500 236.8516 0.0000 0.0000 0.0000
# 4 0.0000 0.0000 0.0000 210.3006 0.0000 0.0000
# 5 0.0000 0.0000 0.0000 0.0000 -16.5382 0.0000
# 6 0.0000 0.0000 0.0000 0.0000 0.0000 40.7936
#
#
#
# Elastic Compliance Matrix: (Units=1/GPa)
#
#
# Indices 1 2 3 4 5 6 
#
# 1 0.008899 -0.002888 -0.000635 0.000000 0.000000 0.000000
# 2 -0.002888 0.009585 -0.001490 0.000000 0.000000 0.000000
# 3 -0.000635 -0.001490 0.004600 0.000000 0.000000 0.000000
# 4 0.000000 0.000000 0.000000 0.004755 0.000000 0.000000
# 5 0.000000 0.000000 0.000000 0.000000 -0.060466 0.000000
# 6 0.000000 0.000000 0.000000 0.000000 0.000000 0.024514
#
#
# Mechanical properties :
#
#
# Convention : Reuss Voigt Hill
#
# Bulk Modulus (GPa) = 76.58388 81.65981 79.12184
# Shear Modulus (GPa) = 798.11249 71.46086 434.78667
#
# Velocity S-wave (km/s) = 17.94810 5.37057 13.24722
# Velocity P-wave (km/s) = 21.45748 8.45086 16.30706
#
# Compressibility (1/GPa) = 0.01305758
#
# Stress axis : x y z
#
# Youngs Moduli (GPa) = 112.37678 104.32907 217.39329
#
# Poissons Ratio (x) = 0.30133 0.13804
# Poissons Ratio (y) = 0.32457 0.32388
# Poissons Ratio (z) = 0.07136 0.15543
#
# Static dielectric constant tensor:
#      x y z
#    x 2.026590 0.000000 0.000000 
#    y 0.000000 2.023820 0.000000 
#    z 0.000000 0.000000 2.011460 
# 
# From -- ./inp_files/25292.got.cif
#   From: 2010.05.17/outbox.cif.g08.bks.cpg/sg49_13_cif.got.tgz:25292.got - 2010.06.03 21:02:19.
