data_PCOD9395562
_publ_section_title
;
Structure prediction by ZEFSAII (Michael W. Deem and Ramdas Pophale) SiO2 
 PCOD9395562
Probable space group: P B A N
;
_chemical_formula_sum "Si O2"
_cell_formula_units_Z 54
_cell_length_a 13.852149
_cell_length_b 33.814388
_cell_length_c 6.226754
_cell_angle_alpha 90.000000
_cell_angle_beta 90.000000
_cell_angle_gamma 90.000000
_cell_volume 2916.623659
_symmetry_space_group_name_H-M "P B A N"
_symmetry_group_IT_number 50
_space_group.IT_coordinate_system_code '2'
_symmetry_cell_setting 'orthorhombic'
loop_
_space_group_symop_operation_xyz
x,y,z
1/2-x,1/2-y,z
x,1/2-y,-z
1/2-x,y,-z
-x,-y,-z
1/2+x,1/2+y,-z
-x,1/2+y,z
1/2+x,-y,z
loop_
_atom_site_type_symbol
_atom_site_label
_atom_site_fract_x
_atom_site_fract_y
_atom_site_fract_z
Si Si1 0.532946 0.130874 0.088905
Si Si2 0.913920 0.523289 0.788928
Si Si3 0.451600 0.573631 0.472378
Si Si4 0.850142 0.290603 0.115244
Si Si5 0.250000 0.750000 0.500000
Si Si6 0.610894 0.586692 0.837519
Si Si7 0.346087 0.562314 0.859865
Si Si8 0.750000 0.558961 0.500000
O O1 0.535673 0.112072 0.325686
O O2 0.573270 0.174771 0.095077
O O3 0.430048 0.124147 0.971057
O O4 0.605307 0.101008 0.964173
O O5 0.905766 0.478734 0.869146
O O6 0.831861 0.531801 0.609144
O O7 0.014223 0.537152 0.677677
O O8 0.889376 0.552110 0.986163
O O9 0.530639 0.577468 0.658542
O O10 0.351801 0.569894 0.601911
O O11 0.817056 0.277522 0.351927
O O12 0.881682 0.250000 0.000000
O O13 0.750000 0.303373 0.000000
O O14 0.707235 0.585452 0.694804
O O15 0.250000 0.555847 0.000000
#
# Coordination Sequence:
#
# PCOD9395562 Si02
#       8
#     8   8   8   8   2   8   8   4
#     4  10  21  35  50  73 105 133 166 210 258 308
#     4  10  20  35  50  67  96 135 179 218 255 302
#     4   9  21  34  48  68  97 135 171 210 258 302
#     4   9  19  36  56  77 101 134 169 205 247 298
#     4   8  18  32  56  76  92 132 174 202 244 300
#     4   9  19  34  51  72 100 132 169 213 255 296
#     4  11  22  32  46  70 100 135 176 219 259 301
#     4  10  18  32  54  73  96 131 176 217 254 301
#
# _framework density 18.514558999999998
#
# number of rings (size 3 to 8) (size 9 to 14) (size 15 to 20)
#    0.000    2.519    0.000    2.222    0.000   15.407 
#    0.000    0.000    0.000    0.000    0.000    0.000 
#    0.000   34.370    0.000    0.000    0.000    0.000 
#
# Total GULP energy -300863.098760 kJ/mol
# GULP energy per Si atom -5571.538866 kJ/mol
# Density = 1.847242 g / cm^3
# Si number density = 18.514559 Si / 1000 Ang^3
#
#
#
# Elastic Constant Matrix: (Units=GPa)
#
#
# Indices 1 2 3 4 5 6 
#
# 1 57.6903 29.7970 37.9419 0.0000 0.0000 0.0000
# 2 29.7970 109.2965 38.4754 0.0000 0.0000 0.0000
# 3 37.9419 38.4754 128.5541 0.0000 0.0000 0.0000
# 4 0.0000 0.0000 0.0000 0.3233 0.0000 0.0000
# 5 0.0000 0.0000 0.0000 0.0000 35.9587 0.0000
# 6 0.0000 0.0000 0.0000 0.0000 0.0000 29.5307
#
#
#
# Elastic Compliance Matrix: (Units=1/GPa)
#
#
# Indices 1 2 3 4 5 6 
#
# 1 0.023248 -0.004385 -0.005549 0.000000 0.000000 0.000000
# 2 -0.004385 0.011054 -0.002014 0.000000 0.000000 0.000000
# 3 -0.005549 -0.002014 0.010020 0.000000 0.000000 0.000000
# 4 0.000000 0.000000 0.000000 3.093476 0.000000 0.000000
# 5 0.000000 0.000000 0.000000 0.000000 0.027810 0.000000
# 6 0.000000 0.000000 0.000000 0.000000 0.000000 0.033863
#
#
# Mechanical properties :
#
#
# Convention : Reuss Voigt Hill
#
# Bulk Modulus (GPa) = 48.95874 56.44105 52.69990
# Shear Modulus (GPa) = 1.54790 25.78428 13.66609
#
# Velocity S-wave (km/s) = 0.91535 3.73587 2.71980
# Velocity P-wave (km/s) = 5.25528 7.01141 6.19588
#
# Compressibility (1/GPa) = 0.02042536
#
# Stress axis : x y z
#
# Youngs Moduli (GPa) = 43.01404 90.46626 99.80513
#
# Poissons Ratio (x) = 0.39665 0.55385
# Poissons Ratio (y) = 0.18860 0.20104
# Poissons Ratio (z) = 0.23870 0.18222
#
# Static dielectric constant tensor:
#      x y z
#    x 1.757900 0.000000 0.000000 
#    y 0.000000 1.604350 0.000000 
#    z 0.000000 0.000000 1.718500 
# 
# From -- ./inp_files/3767.got.cif
#   From: 2010.05.17/outbox.cif.g08.bks.cpg/sg50_2_cif.got.tgz:3767.got - 2010.06.03 11:33:33.
