data_PCOD9395537
_publ_section_title
;
Structure prediction by ZEFSAII (Michael W. Deem and Ramdas Pophale) SiO2 
 PCOD9395537
Probable space group: P B A N
;
_chemical_formula_sum "Si O2"
_cell_formula_units_Z 58
_cell_length_a 7.987926
_cell_length_b 23.486991
_cell_length_c 15.455483
_cell_angle_alpha 90.000000
_cell_angle_beta 90.000000
_cell_angle_gamma 90.000000
_cell_volume 2899.639425
_symmetry_space_group_name_H-M "P B A N"
_symmetry_group_IT_number 50
_space_group.IT_coordinate_system_code '2'
_symmetry_cell_setting 'orthorhombic'
loop_
_space_group_symop_operation_xyz
x,y,z
1/2-x,1/2-y,z
x,1/2-y,-z
1/2-x,y,-z
-x,-y,-z
1/2+x,1/2+y,-z
-x,1/2+y,z
1/2+x,-y,z
loop_
_atom_site_type_symbol
_atom_site_label
_atom_site_fract_x
_atom_site_fract_y
_atom_site_fract_z
Si Si1 0.840120 0.033912 0.197383
Si Si2 0.949811 0.236884 0.405503
Si Si3 0.504090 0.303195 0.127349
Si Si4 0.077614 0.639118 0.289396
Si Si5 0.926452 0.411720 0.967864
Si Si6 0.440118 0.805907 0.762590
Si Si7 0.750000 0.750000 0.000000
Si Si8 0.533375 0.580387 0.155998
O O1 0.901436 0.071751 0.278891
O O2 0.962112 0.050857 0.116570
O O3 0.654771 0.057393 0.177414
O O4 0.847141 0.966323 0.198856
O O5 0.750000 0.250000 0.409534
O O6 0.020515 0.250000 0.500000
O O7 0.969355 0.171069 0.377073
O O8 0.008458 0.276035 0.324792
O O9 0.457488 0.338153 0.213359
O O10 0.609759 0.348566 0.071067
O O11 0.569167 0.242859 0.163786
O O12 0.357415 0.288722 0.062810
O O13 0.256297 0.668552 0.260726
O O14 0.750000 0.435365 0.000000
O O15 0.044962 0.413742 0.051412
O O16 0.544193 0.857961 0.800667
#
# Coordination Sequence:
#
# PCOD9395537 Si02
#       8
#     8   8   8   8   8   8   2   8
#     4   9  18  31  45  65  90 121 167 198 231 269
#     4   8  13  24  48  81 102 112 135 186 247 290
#     4  10  19  32  41  62  92 118 152 190 239 275
#     4   8  16  31  50  69  91 120 153 193 230 287
#     4   9  18  32  50  64  81 117 161 202 236 272
#     4   9  17  30  51  70  92 120 154 191 234 293
#     4  12  24  28  34  60 102 124 148 194 232 270
#     4  10  18  31  45  66  89 123 164 200 229 275
#
# _framework density 20.002486999999999
#
# number of rings (size 3 to 8) (size 9 to 14) (size 15 to 20)
#    0.000    2.897    0.000    3.310    0.000    1.103 
#    9.931    2.069    1.517    0.828    0.000    7.724 
#    0.000    0.000    0.000    0.000    0.000    0.000 
#
# Total GULP energy -322883.569264 kJ/mol
# GULP energy per Si atom -5566.958091 kJ/mol
# Density = 1.995696 g / cm^3
# Si number density = 20.002487 Si / 1000 Ang^3
#
#
#
# Elastic Constant Matrix: (Units=GPa)
#
#
# Indices 1 2 3 4 5 6 
#
# 1 21.2408 6.7292 14.2110 0.0000 0.0000 0.0000
# 2 6.7292 124.1948 31.5875 0.0000 0.0000 0.0000
# 3 14.2110 31.5875 92.7420 0.0000 0.0000 0.0000
# 4 0.0000 0.0000 0.0000 17.8501 0.0000 0.0000
# 5 0.0000 0.0000 0.0000 0.0000 14.7575 0.0000
# 6 0.0000 0.0000 0.0000 0.0000 0.0000 17.3556
#
#
#
# Elastic Compliance Matrix: (Units=1/GPa)
#
#
# Indices 1 2 3 4 5 6 
#
# 1 0.052544 -0.000875 -0.007753 0.000000 0.000000 0.000000
# 2 -0.000875 0.008830 -0.002873 0.000000 0.000000 0.000000
# 3 -0.007753 -0.002873 0.012949 0.000000 0.000000 0.000000
# 4 0.000000 0.000000 0.000000 0.056022 0.000000 0.000000
# 5 0.000000 0.000000 0.000000 0.000000 0.067762 0.000000
# 6 0.000000 0.000000 0.000000 0.000000 0.000000 0.057618
#
#
# Mechanical properties :
#
#
# Convention : Reuss Voigt Hill
#
# Bulk Modulus (GPa) = 19.48570 38.13699 28.81134
# Shear Modulus (GPa) = 16.90126 22.36928 19.63527
#
# Velocity S-wave (km/s) = 2.90997 3.34776 3.13651
# Velocity P-wave (km/s) = 4.58839 5.83531 5.24901
#
# Compressibility (1/GPa) = 0.05131967
#
# Stress axis : x y z
#
# Youngs Moduli (GPa) = 19.03178 113.24905 77.22414
#
# Poissons Ratio (x) = 0.09909 0.59874
# Poissons Ratio (y) = 0.01665 0.22190
# Poissons Ratio (z) = 0.14756 0.32541
#
# Static dielectric constant tensor:
#      x y z
#    x 1.803320 0.000000 0.000000 
#    y 0.000000 1.692860 0.000000 
#    z 0.000000 0.000000 1.718720 
# 
# From -- ./inp_files/25394.got.cif
#   From: 2010.05.17/outbox.cif.g08.bks.cpg/sg50_13_cif.got.tgz:25394.got - 2010.06.03 11:33:33.
