data_PCOD9395546
_publ_section_title
;
Structure prediction by ZEFSAII (Michael W. Deem and Ramdas Pophale) SiO2 
 PCOD9395546
Probable space group: P B A N
;
_chemical_formula_sum "Si O2"
_cell_formula_units_Z 60
_cell_length_a 24.010835
_cell_length_b 5.497686
_cell_length_c 22.616466
_cell_angle_alpha 90.000000
_cell_angle_beta 90.000000
_cell_angle_gamma 90.000000
_cell_volume 2985.464689
_symmetry_space_group_name_H-M "P B A N"
_symmetry_group_IT_number 50
_space_group.IT_coordinate_system_code '2'
_symmetry_cell_setting 'orthorhombic'
loop_
_space_group_symop_operation_xyz
x,y,z
1/2-x,1/2-y,z
x,1/2-y,-z
1/2-x,y,-z
-x,-y,-z
1/2+x,1/2+y,-z
-x,1/2+y,z
1/2+x,-y,z
loop_
_atom_site_type_symbol
_atom_site_label
_atom_site_fract_x
_atom_site_fract_y
_atom_site_fract_z
Si Si1 0.012739 0.157162 0.585772
Si Si2 0.139800 0.302216 0.379095
Si Si3 0.529927 0.147009 0.280539
Si Si4 0.351513 0.437576 0.258395
Si Si5 0.250000 0.750000 0.756347
Si Si6 0.685018 0.000731 0.975570
Si Si7 0.315920 0.705365 0.432791
Si Si8 0.308026 0.384163 0.842108
O O1 0.076536 0.203004 0.600479
O O2 0.991160 0.398251 0.555907
O O3 0.978014 0.146175 0.648002
O O4 0.161543 0.569766 0.394433
O O5 0.140974 0.263302 0.308948
O O6 0.169276 0.066393 0.409763
O O7 0.503891 0.404530 0.260219
O O8 0.594327 0.108377 0.263397
O O9 0.292660 0.567564 0.274780
O O10 0.344919 0.308784 0.194527
O O11 0.291723 0.596845 0.797317
O O12 0.676422 0.991448 0.905301
O O13 0.660550 0.250000 0.000000
O O14 0.750000 0.001305 0.000000
O O15 0.660805 0.750000 0.000000
O O16 0.250000 0.750000 0.433390
O O17 0.336756 0.750000 0.500000
O O18 0.250000 0.250000 0.855397
#
# Coordination Sequence:
#
# PCOD9395546 Si02
#       8
#     8   8   8   8   4   8   8   8
#     4  10  19  36  62  94 118 155 204 254 318 379
#     4  12  24  40  71  94 121 164 213 260 326 393
#     4  10  21  38  61  87 121 167 218 255 307 386
#     4  11  25  37  61  95 134 171 209 259 335 397
#     4  10  24  36  55  80 153 166 196 246 342 364
#     4  10  18  31  56  74 107 168 226 246 288 360
#     4  11  27  48  68  91 124 166 220 266 307 377
#     4  10  21  36  50  87 128 174 204 266 308 371
#
# _framework density 20.097373000000001
#
# number of rings (size 3 to 8) (size 9 to 14) (size 15 to 20)
#    0.000    1.467    4.000    2.400    8.400    3.200 
#    0.000    0.000    0.000    8.000    0.000    0.000 
#    0.000    3.200    0.000    0.000    0.000    0.000 
#
# Total GULP energy -334869.183637 kJ/mol
# GULP energy per Si atom -5581.153061 kJ/mol
# Density = 2.005163 g / cm^3
# Si number density = 20.097373 Si / 1000 Ang^3
#
#
#
# Elastic Constant Matrix: (Units=GPa)
#
#
# Indices 1 2 3 4 5 6 
#
# 1 78.9818 31.3045 31.5939 0.0000 0.0000 0.0000
# 2 31.3045 147.3154 32.5820 0.0000 0.0000 0.0000
# 3 31.5939 32.5820 70.8251 0.0000 0.0000 0.0000
# 4 0.0000 0.0000 0.0000 43.8940 0.0000 0.0000
# 5 0.0000 0.0000 0.0000 0.0000 69.3428 0.0000
# 6 0.0000 0.0000 0.0000 0.0000 0.0000 43.8616
#
#
#
# Elastic Compliance Matrix: (Units=1/GPa)
#
#
# Indices 1 2 3 4 5 6 
#
# 1 0.015933 -0.002019 -0.006179 0.000000 0.000000 0.000000
# 2 -0.002019 0.007813 -0.002693 0.000000 0.000000 0.000000
# 3 -0.006179 -0.002693 0.018114 0.000000 0.000000 0.000000
# 4 0.000000 0.000000 0.000000 0.022782 0.000000 0.000000
# 5 0.000000 0.000000 0.000000 0.000000 0.014421 0.000000
# 6 0.000000 0.000000 0.000000 0.000000 0.000000 0.022799
#
#
# Mechanical properties :
#
#
# Convention : Reuss Voigt Hill
#
# Bulk Modulus (GPa) = 49.80581 54.23145 52.01863
# Shear Modulus (GPa) = 38.36185 44.86246 41.61215
#
# Velocity S-wave (km/s) = 4.37372 4.72980 4.55524
# Velocity P-wave (km/s) = 7.09521 7.54128 7.32164
#
# Compressibility (1/GPa) = 0.02007798
#
# Stress axis : x y z
#
# Youngs Moduli (GPa) = 62.76293 127.99238 55.20440
#
# Poissons Ratio (x) = 0.25845 0.34108
# Poissons Ratio (y) = 0.12673 0.14869
# Poissons Ratio (z) = 0.38778 0.34474
#
# Static dielectric constant tensor:
#      x y z
#    x 1.786100 0.000000 0.000000 
#    y 0.000000 1.663640 0.000000 
#    z 0.000000 0.000000 1.749910 
# 
# From -- ./inp_files/31265.got.cif
#   From: 2010.05.17/outbox.cif.g08.bks.cpg/sg50_16_cif.got.tgz:31265.got - 2010.06.03 11:33:33.
