data_PCOD9395900
_publ_section_title
;
Structure prediction by ZEFSAII (Michael W. Deem and Ramdas Pophale) SiO2 
 PCOD9395900
Probable space group: P B A N
;
_chemical_formula_sum "Si O2"
_cell_formula_units_Z 40
_cell_length_a 17.084130
_cell_length_b 12.869107
_cell_length_c 10.057759
_cell_angle_alpha 90.000000
_cell_angle_beta 90.000000
_cell_angle_gamma 90.000000
_cell_volume 2211.273719
_symmetry_space_group_name_H-M "P B A N"
_symmetry_group_IT_number 50
_space_group.IT_coordinate_system_code '2'
_symmetry_cell_setting 'orthorhombic'
loop_
_space_group_symop_operation_xyz
x,y,z
1/2-x,1/2-y,z
x,1/2-y,-z
1/2-x,y,-z
-x,-y,-z
1/2+x,1/2+y,-z
-x,1/2+y,z
1/2+x,-y,z
loop_
_atom_site_type_symbol
_atom_site_label
_atom_site_fract_x
_atom_site_fract_y
_atom_site_fract_z
Si Si1 0.575652 0.380070 0.144957
Si Si2 0.100308 0.635702 0.843717
Si Si3 0.256882 0.979176 0.145735
Si Si4 0.543563 0.532884 0.637093
Si Si5 0.791271 0.635930 0.370317
O O1 0.584600 0.257084 0.165666
O O2 0.657687 0.436224 0.173635
O O3 0.513256 0.418825 0.251458
O O4 0.561894 0.398450 0.985919
O O5 0.192808 0.612672 0.855694
O O6 0.074050 0.570007 0.715341
O O7 0.232448 0.066848 0.246952
O O8 0.250000 0.026893 0.000000
O O9 0.500000 0.500000 0.500000
O O10 0.615332 0.614993 0.613316
O O11 0.750000 0.750000 0.356512
O O12 0.750000 0.589662 0.500000
#
# Coordination Sequence:
#
# PCOD9395900 Si02
#       5
#     8   8   8   8   8
#     4  10  19  35  59  82 108 142 179 232 283 333
#     4   9  20  36  55  82 111 141 181 224 282 344
#     4   9  18  35  58  82 108 140 181 228 281 340
#     4  11  23  37  56  83 113 147 191 240 286 340
#     4  10  22  39  55  76 110 152 190 227 282 350
#
# _framework density 18.089122
#
# number of rings (size 3 to 8) (size 9 to 14) (size 15 to 20)
#    0.000    2.200    0.000    2.400    0.000    8.400 
#    0.000    4.000    0.000    3.600    0.000    0.000 
#    0.000    0.000    0.000    0.000    0.000    0.000 
#
# Total GULP energy -222718.513869 kJ/mol
# GULP energy per Si atom -5567.962847 kJ/mol
# Density = 1.804795 g / cm^3
# Si number density = 18.089122 Si / 1000 Ang^3
#
#
#
# Elastic Constant Matrix: (Units=GPa)
#
#
# Indices 1 2 3 4 5 6 
#
# 1 120.2586 29.5422 64.9328 0.0000 0.0000 0.0000
# 2 29.5422 57.3276 27.1561 0.0000 0.0000 0.0000
# 3 64.9328 27.1561 110.1445 0.0000 0.0000 0.0000
# 4 0.0000 0.0000 0.0000 51.6855 0.0000 0.0000
# 5 0.0000 0.0000 0.0000 0.0000 38.1371 0.0000
# 6 0.0000 0.0000 0.0000 0.0000 0.0000 12.7454
#
#
#
# Elastic Compliance Matrix: (Units=1/GPa)
#
#
# Indices 1 2 3 4 5 6 
#
# 1 0.012761 -0.003411 -0.006682 0.000000 0.000000 0.000000
# 2 -0.003411 0.020662 -0.003083 0.000000 0.000000 0.000000
# 3 -0.006682 -0.003083 0.013778 0.000000 0.000000 0.000000
# 4 0.000000 0.000000 0.000000 0.019348 0.000000 0.000000
# 5 0.000000 0.000000 0.000000 0.000000 0.026221 0.000000
# 6 0.000000 0.000000 0.000000 0.000000 0.000000 0.078460
#
#
# Mechanical properties :
#
#
# Convention : Reuss Voigt Hill
#
# Bulk Modulus (GPa) = 47.96423 58.99921 53.48172
# Shear Modulus (GPa) = 24.44598 31.58693 28.01645
#
# Velocity S-wave (km/s) = 3.68015 4.18327 3.93975
# Velocity P-wave (km/s) = 6.68065 7.48463 7.09404
#
# Compressibility (1/GPa) = 0.02084887
#
# Stress axis : x y z
#
# Youngs Moduli (GPa) = 78.36215 48.39824 72.57703
#
# Poissons Ratio (x) = 0.16508 0.48497
# Poissons Ratio (y) = 0.26728 0.22379
# Poissons Ratio (z) = 0.52363 0.14923
#
# Static dielectric constant tensor:
#      x y z
#    x 2.137390 0.000000 0.000000 
#    y 0.000000 1.602190 0.000000 
#    z 0.000000 0.000000 1.628550 
# 
# From -- ./inp_files/12524.got.cif
#   From: 2010.05.17/outbox.cif.g08.bks.cpg/sg50_7_cif.got.tgz:12524.got - 2010.06.03 11:33:33.
