data_PCOD9395598
_publ_section_title
;
Structure prediction by ZEFSAII (Michael W. Deem and Ramdas Pophale) SiO2 
 PCOD9395598
Probable space group: P B A N
;
_chemical_formula_sum "Si O2"
_cell_formula_units_Z 58
_cell_length_a 25.850392
_cell_length_b 13.838319
_cell_length_c 8.655313
_cell_angle_alpha 90.000000
_cell_angle_beta 90.000000
_cell_angle_gamma 90.000000
_cell_volume 3096.230245
_symmetry_space_group_name_H-M "P B A N"
_symmetry_group_IT_number 50
_space_group.IT_coordinate_system_code '2'
_symmetry_cell_setting 'orthorhombic'
loop_
_space_group_symop_operation_xyz
x,y,z
1/2-x,1/2-y,z
x,1/2-y,-z
1/2-x,y,-z
-x,-y,-z
1/2+x,1/2+y,-z
-x,1/2+y,z
1/2+x,-y,z
loop_
_atom_site_type_symbol
_atom_site_label
_atom_site_fract_x
_atom_site_fract_y
_atom_site_fract_z
Si Si1 0.030028 0.502886 0.747577
Si Si2 0.250000 0.250000 0.000000
Si Si3 0.592203 0.706697 0.268223
Si Si4 0.080544 0.909885 0.718588
Si Si5 0.022154 0.729384 0.814493
Si Si6 0.825684 0.624489 0.213042
Si Si7 0.598092 0.957798 0.987670
Si Si8 0.122519 0.452603 0.516613
O O1 0.031687 0.617251 0.777272
O O2 0.074748 0.472636 0.630816
O O3 0.973820 0.468155 0.694425
O O4 0.046635 0.455107 0.909309
O O5 0.219159 0.179013 0.118422
O O6 0.534273 0.747765 0.261484
O O7 0.632639 0.791157 0.243944
O O8 0.596770 0.633646 0.124299
O O9 0.607354 0.640866 0.414172
O O10 0.063843 0.799142 0.732308
O O11 0.098783 0.946766 0.885533
O O12 0.120815 0.953726 0.595538
O O13 0.021243 0.750000 0.000000
O O14 0.826518 0.570926 0.380295
O O15 0.852300 0.550179 0.095350
#
# Coordination Sequence:
#
# PCOD9395598 Si02
#       8
#     8   2   8   8   8   8   8   8
#     4  11  20  33  49  77 116 158 218 256 265 317
#     4  12  24  40  70 100  96 134 198 244 292 396
#     4  11  20  34  55  77 115 164 200 233 293 335
#     4  11  21  32  50  75 116 163 215 242 277 329
#     4  12  21  30  55  85 115 166 232 254 259 308
#     4  11  22  39  61  83 111 141 184 236 301 366
#     4  10  18  34  52  72 113 161 189 240 297 330
#     4  10  23  37  50  74 118 165 186 231 304 345
#
# _framework density 18.732455999999999
#
# number of rings (size 3 to 8) (size 9 to 14) (size 15 to 20)
#    0.000    1.103    5.517    4.552    0.000    0.552 
#    0.000    1.379    0.000    0.000    0.000    0.000 
#    0.000    8.828   10.483    0.000    0.000    0.000 
#
# Total GULP energy -323654.518745 kJ/mol
# GULP energy per Si atom -5580.250323 kJ/mol
# Density = 1.868982 g / cm^3
# Si number density = 18.732456 Si / 1000 Ang^3
#
#
#
# Elastic Constant Matrix: (Units=GPa)
#
#
# Indices 1 2 3 4 5 6 
#
# 1 39.5809 8.5114 25.4390 0.0000 0.0000 0.0000
# 2 8.5114 86.8638 13.2874 0.0000 0.0000 0.0000
# 3 25.4390 13.2874 90.1182 0.0000 0.0000 0.0000
# 4 0.0000 0.0000 0.0000 27.3381 0.0000 0.0000
# 5 0.0000 0.0000 0.0000 0.0000 19.2001 0.0000
# 6 0.0000 0.0000 0.0000 0.0000 0.0000 14.2342
#
#
#
# Elastic Compliance Matrix: (Units=1/GPa)
#
#
# Indices 1 2 3 4 5 6 
#
# 1 0.031121 -0.001745 -0.008528 0.000000 0.000000 0.000000
# 2 -0.001745 0.011876 -0.001258 0.000000 0.000000 0.000000
# 3 -0.008528 -0.001258 0.013689 0.000000 0.000000 0.000000
# 4 0.000000 0.000000 0.000000 0.036579 0.000000 0.000000
# 5 0.000000 0.000000 0.000000 0.000000 0.052083 0.000000
# 6 0.000000 0.000000 0.000000 0.000000 0.000000 0.070253
#
#
# Mechanical properties :
#
#
# Convention : Reuss Voigt Hill
#
# Bulk Modulus (GPa) = 29.74085 34.55982 32.15034
# Shear Modulus (GPa) = 20.01032 23.44282 21.72657
#
# Velocity S-wave (km/s) = 3.27190 3.54143 3.40933
# Velocity P-wave (km/s) = 5.49408 5.93393 5.71824
#
# Compressibility (1/GPa) = 0.03362378
#
# Stress axis : x y z
#
# Youngs Moduli (GPa) = 32.13293 84.20514 73.04971
#
# Poissons Ratio (x) = 0.14693 0.62294
# Poissons Ratio (y) = 0.05607 0.09193
# Poissons Ratio (z) = 0.27402 0.10597
#
# Static dielectric constant tensor:
#      x y z
#    x 1.638500 0.000000 0.000000 
#    y 0.000000 1.684480 0.000000 
#    z 0.000000 0.000000 1.757200 
# 
# From -- ./inp_files/16109.got.cif
#   From: 2010.05.17/outbox.cif.g08.bks.cpg/sg50_9_cif.got.tgz:16109.got - 2010.06.03 11:33:33.
