data_PCOD9395910
_publ_section_title
;
Structure prediction by ZEFSAII (Michael W. Deem and Ramdas Pophale) SiO2 
 PCOD9395910
Probable space group: P B A N
;
_chemical_formula_sum "Si O2"
_cell_formula_units_Z 32
_cell_length_a 18.396487
_cell_length_b 18.655426
_cell_length_c 4.966668
_cell_angle_alpha 90.000000
_cell_angle_beta 90.000000
_cell_angle_gamma 90.000000
_cell_volume 1704.532157
_symmetry_space_group_name_H-M "P B A N"
_symmetry_group_IT_number 50
_space_group.IT_coordinate_system_code '2'
_symmetry_cell_setting 'orthorhombic'
loop_
_space_group_symop_operation_xyz
x,y,z
1/2-x,1/2-y,z
x,1/2-y,-z
1/2-x,y,-z
-x,-y,-z
1/2+x,1/2+y,-z
-x,1/2+y,z
1/2+x,-y,z
loop_
_atom_site_type_symbol
_atom_site_label
_atom_site_fract_x
_atom_site_fract_y
_atom_site_fract_z
Si Si1 0.956016 0.533192 0.744890
Si Si2 0.201593 0.963533 0.767258
Si Si3 0.116110 0.665851 0.002186
Si Si4 0.979667 0.165835 0.507622
O O1 0.873551 0.506510 0.739111
O O2 0.961464 0.617111 0.660438
O O3 0.000000 0.500000 0.500000
O O4 0.000000 0.500000 0.000000
O O5 0.250000 0.958041 0.500000
O O6 0.176955 0.886215 0.884100
O O7 0.250000 0.998693 0.000000
O O8 0.047424 0.651981 0.203362
O O9 0.134810 0.750000 0.000000
O O10 0.090811 0.650923 0.697928
O O11 0.997823 0.250000 0.500000
#
# Coordination Sequence:
#
# PCOD9395910 Si02
#       4
#     8   8   8   8
#     4  12  21  38  63  87 115 161 206 256 306 360
#     4  12  24  37  56  86 127 161 201 248 314 374
#     4  10  20  36  56  82 118 156 198 238 298 365
#     4  10  19  35  60  88 112 148 202 258 297 354
#
# _framework density 18.773481
#
# number of rings (size 3 to 8) (size 9 to 14) (size 15 to 20)
#    0.000    1.000    5.000    3.000    0.000    0.500 
#    0.000    1.250    0.000    0.750    0.000    1.750 
#    0.000    0.000    0.000    0.000    0.000    0.000 
#
# Total GULP energy -178333.544787 kJ/mol
# GULP energy per Si atom -5572.923275 kJ/mol
# Density = 1.873075 g / cm^3
# Si number density = 18.773481 Si / 1000 Ang^3
#
#
#
# Elastic Constant Matrix: (Units=GPa)
#
#
# Indices 1 2 3 4 5 6 
#
# 1 140.6329 64.5546 47.1117 0.0000 0.0000 0.0000
# 2 64.5546 114.1245 44.6610 0.0000 0.0000 0.0000
# 3 47.1117 44.6610 136.4385 0.0000 0.0000 0.0000
# 4 0.0000 0.0000 0.0000 25.1107 0.0000 0.0000
# 5 0.0000 0.0000 0.0000 0.0000 31.1688 0.0000
# 6 0.0000 0.0000 0.0000 0.0000 0.0000 12.6912
#
#
#
# Elastic Compliance Matrix: (Units=1/GPa)
#
#
# Indices 1 2 3 4 5 6 
#
# 1 0.009990 -0.004933 -0.001835 0.000000 0.000000 0.000000
# 2 -0.004933 0.012485 -0.002384 0.000000 0.000000 0.000000
# 3 -0.001835 -0.002384 0.008743 0.000000 0.000000 0.000000
# 4 0.000000 0.000000 0.000000 0.039824 0.000000 0.000000
# 5 0.000000 0.000000 0.000000 0.000000 0.032083 0.000000
# 6 0.000000 0.000000 0.000000 0.000000 0.000000 0.078795
#
#
# Mechanical properties :
#
#
# Convention : Reuss Voigt Hill
#
# Bulk Modulus (GPa) = 77.42372 78.20563 77.81467
# Shear Modulus (GPa) = 24.44667 29.45206 26.94937
#
# Velocity S-wave (km/s) = 3.61250 3.96512 3.79291
# Velocity P-wave (km/s) = 7.66360 7.91902 7.79236
#
# Compressibility (1/GPa) = 0.01291594
#
# Stress axis : x y z
#
# Youngs Moduli (GPa) = 100.10462 80.09426 114.37596
#
# Poissons Ratio (x) = 0.39507 0.20985
# Poissons Ratio (y) = 0.49377 0.27263
# Poissons Ratio (z) = 0.18367 0.19092
#
# Static dielectric constant tensor:
#      x y z
#    x 1.661580 0.000000 0.000000 
#    y 0.000000 1.816010 0.000000 
#    z 0.000000 0.000000 1.665950 
# 
# From -- ./inp_files/3149.got.cif
#   From: 2010.05.17/outbox.cif.g08.bks.cpg/sg50_2_cif.got.tgz:3149.got - 2010.06.03 11:33:33.
