data_PCOD9395820
_publ_section_title
;
Structure prediction by ZEFSAII (Michael W. Deem and Ramdas Pophale) SiO2 
 PCOD9395820
Probable space group: P B A N
;
_chemical_formula_sum "Si O2"
_cell_formula_units_Z 56
_cell_length_a 10.145610
_cell_length_b 14.404480
_cell_length_c 15.923869
_cell_angle_alpha 90.000000
_cell_angle_beta 90.000000
_cell_angle_gamma 90.000000
_cell_volume 2327.149827
_symmetry_space_group_name_H-M "P B A N"
_symmetry_group_IT_number 50
_space_group.IT_coordinate_system_code '2'
_symmetry_cell_setting 'orthorhombic'
loop_
_space_group_symop_operation_xyz
x,y,z
1/2-x,1/2-y,z
x,1/2-y,-z
1/2-x,y,-z
-x,-y,-z
1/2+x,1/2+y,-z
-x,1/2+y,z
1/2+x,-y,z
loop_
_atom_site_type_symbol
_atom_site_label
_atom_site_fract_x
_atom_site_fract_y
_atom_site_fract_z
Si Si1 0.621743 0.393192 0.441753
Si Si2 0.987033 0.890691 0.176694
Si Si3 0.994704 0.108205 0.187197
Si Si4 0.742816 0.385655 0.728451
Si Si5 0.102170 0.359877 0.996937
Si Si6 0.882030 0.605586 0.554692
Si Si7 0.752967 0.887052 0.722665
O O1 0.750000 0.396758 0.500000
O O2 0.682638 0.352123 0.356170
O O3 0.575868 0.499457 0.422858
O O4 0.500585 0.354580 0.497734
O O5 0.101793 0.851858 0.237215
O O6 0.840804 0.858137 0.200654
O O7 0.988674 0.998314 0.200524
O O8 0.990968 0.885142 0.075996
O O9 0.042760 0.120197 0.093401
O O10 0.100202 0.145495 0.255135
O O11 0.846679 0.139950 0.199840
O O12 0.735511 0.499198 0.716683
O O13 0.115490 0.250000 0.000000
O O14 0.250000 0.402728 0.000000
O O15 0.750000 0.601859 0.500000
O O16 0.827232 0.647185 0.641323
#
# Coordination Sequence:
#
# PCOD9395820 Si02
#       7
#     8   8   8   8   8   8   8
#     4   9  15  24  37  62 101 139 169 198 251 305
#     4  10  19  34  53  76 103 137 179 213 263 320
#     4  10  19  34  53  76 105 137 176 219 260 313
#     4   9  18  28  46  73 102 138 172 215 256 304
#     4  11  23  39  57  77 102 134 174 223 272 325
#     4   9  15  22  37  62  97 139 173 205 245 296
#     4   9  16  28  46  69 102 140 180 211 247 308
#
# _framework density 24.063769000000001
#
# number of rings (size 3 to 8) (size 9 to 14) (size 15 to 20)
#    0.000    2.429    1.429    2.143    0.000    7.429 
#    0.000    1.429    0.000    0.000    0.000    0.000 
#    0.000   17.143    0.000    0.000    0.000    0.000 
#
# Total GULP energy -312246.298074 kJ/mol
# GULP energy per Si atom -5575.826751 kJ/mol
# Density = 2.400900 g / cm^3
# Si number density = 24.063769 Si / 1000 Ang^3
#
#
#
# Elastic Constant Matrix: (Units=GPa)
#
#
# Indices 1 2 3 4 5 6 
#
# 1 125.8612 2.8153 30.2578 0.0000 0.0000 0.0000
# 2 2.8153 60.0670 -22.9147 0.0000 0.0000 0.0000
# 3 30.2578 -22.9147 104.9634 0.0000 0.0000 0.0000
# 4 0.0000 0.0000 0.0000 -34.9129 0.0000 0.0000
# 5 0.0000 0.0000 0.0000 0.0000 112.2424 0.0000
# 6 0.0000 0.0000 0.0000 0.0000 0.0000 -17.0059
#
#
#
# Elastic Compliance Matrix: (Units=1/GPa)
#
#
# Indices 1 2 3 4 5 6 
#
# 1 0.008656 -0.001481 -0.002819 0.000000 0.000000 0.000000
# 2 -0.001481 0.018414 0.004447 0.000000 0.000000 0.000000
# 3 -0.002819 0.004447 0.011310 0.000000 0.000000 0.000000
# 4 0.000000 0.000000 0.000000 -0.028643 0.000000 0.000000
# 5 0.000000 0.000000 0.000000 0.000000 0.008909 0.000000
# 6 0.000000 0.000000 0.000000 0.000000 0.000000 -0.058803
#
#
# Mechanical properties :
#
#
# Convention : Reuss Voigt Hill
#
# Bulk Modulus (GPa) = 25.85645 34.57872 30.21759
# Shear Modulus (GPa) = -181.42789 30.78027 -75.32381
#
# Velocity S-wave (km/s) = -8.69243 3.58035 -5.60087
# Velocity P-wave (km/s) = 9.48557 5.61183 5.40756
#
# Compressibility (1/GPa) = 0.03867506
#
# Stress axis : x y z
#
# Youngs Moduli (GPa) = 115.52696 54.30676 88.41390
#
# Poissons Ratio (x) = 0.08043 0.24920
# Poissons Ratio (y) = 0.17109 -0.39317
# Poissons Ratio (z) = 0.32562 -0.24150
#
# Static dielectric constant tensor:
#      x y z
#    x 1.926270 0.000000 0.000000 
#    y 0.000000 1.975900 0.000000 
#    z 0.000000 0.000000 2.019990 
# 
# From -- ./inp_files/25276.got.cif
#   From: 2010.05.17/outbox.cif.g08.bks.cpg/sg50_13_cif.got.tgz:25276.got - 2010.06.03 11:33:33.
