data_PCOD9395241
_publ_section_title
;
Structure prediction by ZEFSAII (Michael W. Deem and Ramdas Pophale) SiO2 
 PCOD9395241
Probable space group: P C C M
;
_chemical_formula_sum "Si O2"
_cell_formula_units_Z 56
_cell_length_a 9.000000
_cell_length_b 21.000000
_cell_length_c 15.000000
_cell_angle_alpha 90.000000
_cell_angle_beta 90.000000
_cell_angle_gamma 90.000000
_cell_volume 2835.000000
_symmetry_space_group_name_H-M "P C C M"
_symmetry_group_IT_number 49
_symmetry_cell_setting 'orthorhombic'
loop_
_space_group_symop_operation_xyz
x,y,z
-x,-y,z
x,-y,1/2-z
-x,y,1/2-z
-x,-y,-z
x,y,-z
-x,y,1/2+z
x,-y,1/2+z
loop_
_atom_site_type_symbol
_atom_site_label
_atom_site_fract_x
_atom_site_fract_y
_atom_site_fract_z
Si Si1 0.829994 0.510973 0.107347
Si Si2 0.310874 0.354313 0.901052
Si Si3 0.178151 0.293507 0.737919
Si Si4 0.175042 0.150321 0.735457
Si Si5 0.349528 0.907898 0.598601
Si Si6 0.327694 0.962481 0.844918
Si Si7 0.389676 0.400090 0.334490
O O1 0.779167 0.582416 0.128573
O O2 0.703852 0.462892 0.142510
O O3 0.000000 0.500000 0.138339
O O4 0.829588 0.504230 0.000000
O O5 0.262597 0.300587 0.832456
O O6 0.484508 0.373522 0.901029
O O7 0.263529 0.337631 0.000000
O O8 0.206438 0.222127 0.704509
O O9 0.263546 0.346603 0.680579
O O10 0.000000 0.303857 0.750000
O O11 0.270034 0.133270 0.824796
O O12 0.216659 0.095269 0.666821
O O13 0.000000 0.147294 0.750000
O O14 0.346720 0.878876 0.500000
O O15 0.277387 0.978581 0.595470
O O16 0.518510 0.928738 0.625098
O O17 0.341427 0.000000 0.750000
O O18 0.500000 0.410000 0.250000
#
# Coordination Sequence:
#
# PCOD9395241 Si02
#       7
#     8   8   8   8   8   8   8
#     4  10  20  35  56  80 108 141 173 211 267 326
#     4  10  21  36  56  81 108 137 172 222 275 316
#     4  10  22  39  56  75 104 143 184 221 258 313
#     4  10  21  37  55  76 107 146 180 213 263 320
#     4  10  19  33  56  84 109 137 176 221 262 305
#     4   9  17  32  56  81 109 144 176 210 258 315
#     4  10  21  35  54  80 107 137 178 224 264 309
#
# _framework density 19.753086
#
# number of rings (size 3 to 8) (size 9 to 14) (size 15 to 20)
#    0.000    2.143    0.000    5.571    0.000   11.714 
#    0.000    6.429    0.000    6.000    0.000    0.000 
#    0.000    0.000    0.000    0.000    0.000    0.000 
#
# Total GULP energy -311951.898867 kJ/mol
# GULP energy per Si atom -5570.569623 kJ/mol
# Density = 1.970813 g / cm^3
# Si number density = 19.753086 Si / 1000 Ang^3
#
#
#
# Elastic Constant Matrix: (Units=GPa)
#
#
# Indices 1 2 3 4 5 6 
#
# 1 73.0536 14.6533 -8.9591 0.0000 0.0000 0.0000
# 2 14.6533 69.8630 -6.8334 0.0000 0.0000 0.0000
# 3 -8.9591 -6.8334 41.1116 0.0000 0.0000 0.0000
# 4 0.0000 0.0000 0.0000 9.2159 0.0000 0.0000
# 5 0.0000 0.0000 0.0000 0.0000 5.3069 0.0000
# 6 0.0000 0.0000 0.0000 0.0000 0.0000 21.6009
#
#
#
# Elastic Compliance Matrix: (Units=1/GPa)
#
#
# Indices 1 2 3 4 5 6 
#
# 1 0.014582 -0.002793 0.002713 0.000000 0.000000 0.000000
# 2 -0.002793 0.015085 0.001899 0.000000 0.000000 0.000000
# 3 0.002713 0.001899 0.025231 0.000000 0.000000 0.000000
# 4 0.000000 0.000000 0.000000 0.108509 0.000000 0.000000
# 5 0.000000 0.000000 0.000000 0.000000 0.188435 0.000000
# 6 0.000000 0.000000 0.000000 0.000000 0.000000 0.046294
#
#
# Mechanical properties :
#
#
# Convention : Reuss Voigt Hill
#
# Bulk Modulus (GPa) = 17.08347 20.19443 18.63895
# Shear Modulus (GPa) = 12.07703 19.56922 15.82312
#
# Velocity S-wave (km/s) = 2.47533 3.15094 2.83335
# Velocity P-wave (km/s) = 4.10329 4.84598 4.49002
#
# Compressibility (1/GPa) = 0.05853612
#
# Stress axis : x y z
#
# Youngs Moduli (GPa) = 68.57973 66.28991 39.63383
#
# Poissons Ratio (x) = 0.18515 -0.10754
# Poissons Ratio (y) = 0.19154 -0.07525
# Poissons Ratio (z) = -0.18608 -0.12587
#
# Static dielectric constant tensor:
#      x y z
#    x 1.680430 0.000000 0.000000 
#    y 0.000000 1.688070 0.000000 
#    z 0.000000 0.000000 1.814260 
# 
# From -- ./inp_files/12013.got.cif
#   From: 2010.05.17/outbox.ucp.g08.bks.cvg/sg49_7_cif.got.tgz:12013.got - 2010.06.11 16:40:14.
