data_PCOD9395482
_publ_section_title
;
Structure prediction by ZEFSAII (Michael W. Deem and Ramdas Pophale) SiO2 
 PCOD9395482
Probable space group: P B A N
;
_chemical_formula_sum "Si O2"
_cell_formula_units_Z 42
_cell_length_a 22.123224
_cell_length_b 12.370979
_cell_length_c 8.887562
_cell_angle_alpha 90.000000
_cell_angle_beta 90.000000
_cell_angle_gamma 90.000000
_cell_volume 2432.400756
_symmetry_space_group_name_H-M "P B A N"
_symmetry_group_IT_number 50
_space_group.IT_coordinate_system_code '2'
_symmetry_cell_setting 'orthorhombic'
loop_
_space_group_symop_operation_xyz
x,y,z
1/2-x,1/2-y,z
x,1/2-y,-z
1/2-x,y,-z
-x,-y,-z
1/2+x,1/2+y,-z
-x,1/2+y,z
1/2+x,-y,z
loop_
_atom_site_type_symbol
_atom_site_label
_atom_site_fract_x
_atom_site_fract_y
_atom_site_fract_z
Si Si1 0.250000 0.750000 0.500000
Si Si2 0.448652 0.078650 0.820007
Si Si3 0.563628 0.800429 0.654126
Si Si4 0.140274 0.671368 0.315318
Si Si5 0.586614 0.503813 0.142090
Si Si6 0.573151 0.381740 0.616478
O O1 0.205641 0.682912 0.391151
O O2 0.442911 0.201585 0.769824
O O3 0.519398 0.047658 0.838089
O O4 0.423686 0.997911 0.692519
O O5 0.415018 0.052780 0.975582
O O6 0.589545 0.750000 0.500000
O O7 0.595519 0.900093 0.737273
O O8 0.496300 0.844144 0.616505
O O9 0.133050 0.592842 0.174994
O O10 0.112339 0.791310 0.294539
O O11 0.098046 0.621337 0.447601
#
# Coordination Sequence:
#
# PCOD9395482 Si02
#       6
#     2   8   8   8   8   8
#     4   8  20  32  60  70  98 116 184 222 272 272
#     4  10  19  29  41  72 103 143 161 193 242 323
#     4  11  17  28  44  69  99 139 168 197 232 315
#     4  10  17  35  48  76  89 133 167 224 250 295
#     4  10  20  28  45  67 107 135 168 199 250 298
#     4   9  17  28  47  64  98 129 169 202 240 294
#
# _framework density 17.266891999999999
#
# number of rings (size 3 to 8) (size 9 to 14) (size 15 to 20)
#    0.000    2.286    3.810    1.714    0.000    3.810 
#    0.000    0.000    0.000    9.143    0.000   16.667 
#    0.000   18.286    0.000    0.000    0.000    0.000 
#
# Total GULP energy -234187.561645 kJ/mol
# GULP energy per Si atom -5575.894325 kJ/mol
# Density = 1.722759 g / cm^3
# Si number density = 17.266892 Si / 1000 Ang^3
#
#
#
# Elastic Constant Matrix: (Units=GPa)
#
#
# Indices 1 2 3 4 5 6 
#
# 1 35.0551 -3.0730 6.7407 0.0000 0.0000 0.0000
# 2 -3.0730 67.7858 5.9035 0.0000 0.0000 0.0000
# 3 6.7407 5.9035 43.6934 0.0000 0.0000 0.0000
# 4 0.0000 0.0000 0.0000 25.8667 0.0000 0.0000
# 5 0.0000 0.0000 0.0000 0.0000 14.6631 0.0000
# 6 0.0000 0.0000 0.0000 0.0000 0.0000 6.2883
#
#
#
# Elastic Compliance Matrix: (Units=1/GPa)
#
#
# Indices 1 2 3 4 5 6 
#
# 1 0.029605 0.001761 -0.004805 0.000000 0.000000 0.000000
# 2 0.001761 0.015033 -0.002303 0.000000 0.000000 0.000000
# 3 -0.004805 -0.002303 0.023939 0.000000 0.000000 0.000000
# 4 0.000000 0.000000 0.000000 0.038660 0.000000 0.000000
# 5 0.000000 0.000000 0.000000 0.000000 0.068198 0.000000
# 6 0.000000 0.000000 0.000000 0.000000 0.000000 0.159024
#
#
# Mechanical properties :
#
#
# Convention : Reuss Voigt Hill
#
# Bulk Modulus (GPa) = 17.27646 18.40853 17.84249
# Shear Modulus (GPa) = 13.71938 18.49450 16.10694
#
# Velocity S-wave (km/s) = 2.82183 3.27631 3.05753
# Velocity P-wave (km/s) = 4.54359 4.99966 4.77707
#
# Compressibility (1/GPa) = 0.05788224
#
# Stress axis : x y z
#
# Youngs Moduli (GPa) = 33.77825 66.52158 41.77250
#
# Poissons Ratio (x) = -0.11712 0.20072
# Poissons Ratio (y) = -0.05947 0.09619
# Poissons Ratio (z) = 0.16231 0.15318
#
# Static dielectric constant tensor:
#      x y z
#    x 1.564950 0.000000 0.000000 
#    y 0.000000 1.597160 0.000000 
#    z 0.000000 0.000000 1.630130 
# 
# From -- ./inp_files/11349.got.cif
#   From: 2010.05.17/outbox.cif.g08.bks.cpg/sg50_6_cif.got.tgz:11349.got - 2010.06.03 11:33:33.
