data_PCOD9395106
_publ_section_title
;
Structure prediction by ZEFSAII (Michael W. Deem and Ramdas Pophale) SiO2 
 PCOD9395106
Probable space group: P C C M
;
_chemical_formula_sum "Si O2"
_cell_formula_units_Z 40
_cell_length_a 8.908384
_cell_length_b 11.828708
_cell_length_c 19.154061
_cell_angle_alpha 90.000000
_cell_angle_beta 90.000000
_cell_angle_gamma 90.000000
_cell_volume 2018.352916
_symmetry_space_group_name_H-M "P C C M"
_symmetry_group_IT_number 49
_symmetry_cell_setting 'orthorhombic'
loop_
_space_group_symop_operation_xyz
x,y,z
-x,-y,z
x,-y,1/2-z
-x,y,1/2-z
-x,-y,-z
x,y,-z
-x,y,1/2+z
x,-y,1/2+z
loop_
_atom_site_type_symbol
_atom_site_label
_atom_site_fract_x
_atom_site_fract_y
_atom_site_fract_z
Si Si1 0.352163 0.571393 0.581844
Si Si2 0.642376 0.811949 0.847683
Si Si3 0.835295 0.445830 0.819615
Si Si4 0.287882 0.193980 0.688127
Si Si5 0.819950 0.012872 0.920855
O O1 0.500000 0.500000 0.601836
O O2 0.358178 0.595434 0.500000
O O3 0.326479 0.686592 0.623812
O O4 0.224010 0.487626 0.606312
O O5 0.706133 0.834271 0.770201
O O6 0.461270 0.810022 0.838665
O O7 0.721134 0.903576 0.897917
O O8 0.757065 0.500000 0.750000
O O9 0.799025 0.313471 0.816261
O O10 0.000000 0.500000 0.817109
O O11 0.209039 0.105531 0.638059
O O12 0.773784 0.045671 0.000000
O O13 0.000000 0.000000 0.922231
#
# Coordination Sequence:
#
# PCOD9395106 Si02
#       5
#     8   8   8   8   8
#     4  11  23  40  66  97 132 176 220 270 336 399
#     4  11  23  43  69  98 131 172 224 282 334 393
#     4  11  24  41  65  99 137 177 219 270 337 396
#     4  11  24  42  70  97 130 174 225 276 333 400
#     4  11  27  46  66  96 136 177 220 277 339 402
#
# _framework density 19.81814
#
# number of rings (size 3 to 8) (size 9 to 14) (size 15 to 20)
#    0.000    1.000    4.000    1.800    2.800    7.200 
#    0.000    0.000    0.000    0.000    0.000    0.000 
#    0.000    0.000    0.000    0.000    0.000    0.000 
#
# Total GULP energy -222965.988935 kJ/mol
# GULP energy per Si atom -5574.149723 kJ/mol
# Density = 1.977303 g / cm^3
# Si number density = 19.818140 Si / 1000 Ang^3
#
#
#
# Elastic Constant Matrix: (Units=GPa)
#
#
# Indices 1 2 3 4 5 6 
#
# 1 73.8778 24.0261 34.4097 0.0000 0.0000 0.0000
# 2 24.0261 109.7383 50.6188 0.0000 0.0000 0.0000
# 3 34.4097 50.6188 83.9222 0.0000 0.0000 0.0000
# 4 0.0000 0.0000 0.0000 129.6415 0.0000 0.0000
# 5 0.0000 0.0000 0.0000 0.0000 28.5225 0.0000
# 6 0.0000 0.0000 0.0000 0.0000 0.0000 29.7019
#
#
#
# Elastic Compliance Matrix: (Units=1/GPa)
#
#
# Indices 1 2 3 4 5 6 
#
# 1 0.016769 -0.000693 -0.006458 0.000000 0.000000 0.000000
# 2 -0.000693 0.012654 -0.007348 0.000000 0.000000 0.000000
# 3 -0.006458 -0.007348 0.018996 0.000000 0.000000 0.000000
# 4 0.000000 0.000000 0.000000 0.007714 0.000000 0.000000
# 5 0.000000 0.000000 0.000000 0.000000 0.035060 0.000000
# 6 0.000000 0.000000 0.000000 0.000000 0.000000 0.033668
#
#
# Mechanical properties :
#
#
# Convention : Reuss Voigt Hill
#
# Bulk Modulus (GPa) = 51.49044 53.96085 52.72564
# Shear Modulus (GPa) = 31.18544 48.13876 39.66210
#
# Velocity S-wave (km/s) = 3.97114 4.93386 4.47845
# Velocity P-wave (km/s) = 6.86036 7.72945 7.30784
#
# Compressibility (1/GPa) = 0.01942108
#
# Stress axis : x y z
#
# Youngs Moduli (GPa) = 59.63412 79.02780 52.64306
#
# Poissons Ratio (x) = 0.05474 0.33996
# Poissons Ratio (y) = 0.04130 0.38684
# Poissons Ratio (z) = 0.38511 0.58072
#
# Static dielectric constant tensor:
#      x y z
#    x 2.298390 0.000000 0.000000 
#    y 0.000000 2.012780 0.000000 
#    z 0.000000 0.000000 1.682390 
# 
# From -- ./inp_files/16005.got.cif
#   From: 2010.05.17/outbox.cif.g08.bks.cpg/sg49_9_cif.got.tgz:16005.got - 2010.06.03 21:02:19.
