data_PCOD9395320
_publ_section_title
;
Structure prediction by ZEFSAII (Michael W. Deem and Ramdas Pophale) SiO2 
 PCOD9395320
Probable space group: P C C M
;
_chemical_formula_sum "Si O2"
_cell_formula_units_Z 58
_cell_length_a 18.000000
_cell_length_b 9.000000
_cell_length_c 18.000000
_cell_angle_alpha 90.000000
_cell_angle_beta 90.000000
_cell_angle_gamma 90.000000
_cell_volume 2916.000000
_symmetry_space_group_name_H-M "P C C M"
_symmetry_group_IT_number 49
_symmetry_cell_setting 'orthorhombic'
loop_
_space_group_symop_operation_xyz
x,y,z
-x,-y,z
x,-y,1/2-z
-x,y,1/2-z
-x,-y,-z
x,y,-z
-x,y,1/2+z
x,-y,1/2+z
loop_
_atom_site_type_symbol
_atom_site_label
_atom_site_fract_x
_atom_site_fract_y
_atom_site_fract_z
Si Si1 0.613338 0.294603 0.166215
Si Si2 0.756499 0.386466 0.086268
Si Si3 0.173945 0.620238 0.683286
Si Si4 0.915887 0.074859 0.671393
Si Si5 0.672972 0.183155 0.317913
Si Si6 0.522277 0.165503 0.587615
Si Si7 0.500000 0.500000 0.750000
Si Si8 0.775764 0.964720 0.413175
O O1 0.681739 0.388915 0.134786
O O2 0.642587 0.184528 0.232344
O O3 0.559789 0.236154 0.100747
O O4 0.554646 0.399429 0.204598
O O5 0.815386 0.509269 0.113238
O O6 0.779177 0.213403 0.096356
O O7 0.739998 0.410293 0.000000
O O8 0.164452 0.500000 0.750000
O O9 0.108006 0.747152 0.679775
O O10 0.254772 0.704814 0.687216
O O11 0.857177 0.023208 0.609488
O O12 0.893684 0.000000 0.750000
O O13 0.000000 0.000000 0.658411
O O14 0.596732 0.215626 0.366174
O O15 0.714015 0.044766 0.360653
O O16 0.540529 0.170426 0.500000
O O17 0.500000 0.000000 0.612530
O O18 0.758893 0.996311 0.500000
#
# Coordination Sequence:
#
# PCOD9395320 Si02
#       8
#     8   8   8   8   8   8   2   8
#     4  12  23  40  61  85 124 173 231 294 359 409
#     4  11  24  41  63  96 135 175 225 279 346 414
#     4  11  22  42  69 100 135 179 223 283 344 416
#     4  10  23  44  72 106 139 174 222 270 326 405
#     4  11  22  39  66  91 125 175 240 299 346 417
#     4  11  24  40  56  84 127 174 234 298 355 407
#     4  12  24  44  52  80 120 156 216 298 348 424
#     4  10  23  42  67 100 137 179 225 282 340 409
#
# _framework density 19.890260999999999
#
# number of rings (size 3 to 8) (size 9 to 14) (size 15 to 20)
#    0.000    1.103    2.759    3.310    1.931    7.448 
#    0.000    5.517    0.000    1.655    0.000    0.000 
#    0.000    0.000    0.000    0.000    0.000    0.000 
#
# Total GULP energy -322899.492311 kJ/mol
# GULP energy per Si atom -5567.232626 kJ/mol
# Density = 1.984499 g / cm^3
# Si number density = 19.890261 Si / 1000 Ang^3
#
#
#
# Elastic Constant Matrix: (Units=GPa)
#
#
# Indices 1 2 3 4 5 6 
#
# 1 107.6296 43.0239 39.0688 0.0000 0.0000 0.0000
# 2 43.0239 104.5569 41.3674 0.0000 0.0000 0.0000
# 3 39.0688 41.3674 87.4535 0.0000 0.0000 0.0000
# 4 0.0000 0.0000 0.0000 31.7554 0.0000 0.0000
# 5 0.0000 0.0000 0.0000 0.0000 34.9267 0.0000
# 6 0.0000 0.0000 0.0000 0.0000 0.0000 43.4699
#
#
#
# Elastic Compliance Matrix: (Units=1/GPa)
#
#
# Indices 1 2 3 4 5 6 
#
# 1 0.012035 -0.003476 -0.003733 0.000000 0.000000 0.000000
# 2 -0.003476 0.012770 -0.004488 0.000000 0.000000 0.000000
# 3 -0.003733 -0.004488 0.015225 0.000000 0.000000 0.000000
# 4 0.000000 0.000000 0.000000 0.031491 0.000000 0.000000
# 5 0.000000 0.000000 0.000000 0.000000 0.028631 0.000000
# 6 0.000000 0.000000 0.000000 0.000000 0.000000 0.023004
#
#
# Mechanical properties :
#
#
# Convention : Reuss Voigt Hill
#
# Bulk Modulus (GPa) = 60.10241 60.72888 60.41565
# Shear Modulus (GPa) = 32.87424 33.77573 33.32498
#
# Velocity S-wave (km/s) = 4.06985 4.12528 4.09766
# Velocity P-wave (km/s) = 7.23654 7.29992 7.26830
#
# Compressibility (1/GPa) = 0.01663827
#
# Stress axis : x y z
#
# Youngs Moduli (GPa) = 83.08838 78.30918 65.68171
#
# Poissons Ratio (x) = 0.27217 0.24516
# Poissons Ratio (y) = 0.28878 0.29476
# Poissons Ratio (z) = 0.31014 0.35143
#
# Static dielectric constant tensor:
#      x y z
#    x 1.685380 0.000000 0.000000 
#    y 0.000000 1.757410 0.000000 
#    z 0.000000 0.000000 1.712660 
# 
# From -- ./inp_files/18197.got.cif
#   From: 2010.05.17/outbox.ucp.g08.bks.cvg/sg49_10_cif.got.tgz:18197.got - 2010.06.11 16:40:14.
