data_PCOD9395245
_publ_section_title
;
Structure prediction by ZEFSAII (Michael W. Deem and Ramdas Pophale) SiO2 
 PCOD9395245
Probable space group: P C C M
;
_chemical_formula_sum "Si O2"
_cell_formula_units_Z 64
_cell_length_a 21.000000
_cell_length_b 18.000000
_cell_length_c 9.000000
_cell_angle_alpha 90.000000
_cell_angle_beta 90.000000
_cell_angle_gamma 90.000000
_cell_volume 3402.000000
_symmetry_space_group_name_H-M "P C C M"
_symmetry_group_IT_number 49
_symmetry_cell_setting 'orthorhombic'
loop_
_space_group_symop_operation_xyz
x,y,z
-x,-y,z
x,-y,1/2-z
-x,y,1/2-z
-x,-y,-z
x,y,-z
-x,y,1/2+z
x,-y,1/2+z
loop_
_atom_site_type_symbol
_atom_site_label
_atom_site_fract_x
_atom_site_fract_y
_atom_site_fract_z
Si Si1 0.564565 0.117241 0.825874
Si Si2 0.700717 0.068878 0.170233
Si Si3 0.063042 0.184467 0.666659
Si Si4 0.296589 0.330795 0.822075
Si Si5 0.193542 0.423117 0.678589
Si Si6 0.206056 0.792453 0.174171
Si Si7 0.567153 0.296538 0.824621
Si Si8 0.061113 0.638708 0.835501
O O1 0.500000 0.091112 0.750000
O O2 0.631133 0.087061 0.762914
O O3 0.568022 0.206718 0.812994
O O4 0.560571 0.099998 0.000000
O O5 0.747282 0.137761 0.173500
O O6 0.731368 0.000000 0.250000
O O7 0.689540 0.049182 0.000000
O O8 0.065469 0.152622 0.500000
O O9 0.135669 0.182898 0.728827
O O10 0.051945 0.272993 0.654521
O O11 0.000000 0.154766 0.750000
O O12 0.259784 0.401200 0.754951
O O13 0.247448 0.266897 0.765691
O O14 0.367425 0.322446 0.753915
O O15 0.300100 0.331474 0.000000
O O16 0.173575 0.500000 0.750000
O O17 0.200802 0.423858 0.500000
O O18 0.133091 0.371468 0.720854
O O19 0.198396 0.766467 0.000000
O O20 0.500000 0.321232 0.750000
O O21 0.568038 0.315560 0.000000
O O22 0.000000 0.608103 0.750000
O O23 0.060616 0.605651 0.000000
#
# Coordination Sequence:
#
# PCOD9395245 Si02
#       8
#     8   8   8   8   8   8   8   8
#     4   9  18  32  51  74 105 144 180 218 264 317
#     4  10  21  36  53  75 106 145 184 226 277 328
#     4   9  17  31  53  79 106 138 175 222 278 330
#     4  12  23  35  57  87 112 144 187 231 276 326
#     4  11  23  40  57  79 112 151 189 230 278 327
#     4  10  19  37  58  77 107 147 184 225 281 331
#     4  10  19  35  57  83 114 145 181 227 277 327
#     4   9  18  32  52  76 108 146 182 222 270 324
#
# _framework density 18.812463000000001
#
# number of rings (size 3 to 8) (size 9 to 14) (size 15 to 20)
#    0.000    2.000    2.500    1.875    0.000    3.500 
#    0.000    2.500    0.000    0.750    0.000    5.250 
#    0.000    0.000    0.000    0.000    0.000    0.000 
#
# Total GULP energy -356277.601477 kJ/mol
# GULP energy per Si atom -5566.837523 kJ/mol
# Density = 1.876965 g / cm^3
# Si number density = 18.812463 Si / 1000 Ang^3
#
#
#
# Elastic Constant Matrix: (Units=GPa)
#
#
# Indices 1 2 3 4 5 6 
#
# 1 155.5057 -0.0886 57.6687 0.0000 0.0000 0.0000
# 2 -0.0886 13.7859 13.5911 0.0000 0.0000 0.0000
# 3 57.6687 13.5911 68.7571 0.0000 0.0000 0.0000
# 4 0.0000 0.0000 0.0000 13.0853 0.0000 0.0000
# 5 0.0000 0.0000 0.0000 0.0000 33.0129 0.0000
# 6 0.0000 0.0000 0.0000 0.0000 0.0000 8.4042
#
#
#
# Elastic Compliance Matrix: (Units=1/GPa)
#
#
# Indices 1 2 3 4 5 6 
#
# 1 0.010499 0.010866 -0.010954 0.000000 0.000000 0.000000
# 2 0.010866 0.101342 -0.029146 0.000000 0.000000 0.000000
# 3 -0.010954 -0.029146 0.029492 0.000000 0.000000 0.000000
# 4 0.000000 0.000000 0.000000 0.076422 0.000000 0.000000
# 5 0.000000 0.000000 0.000000 0.000000 0.030291 0.000000
# 6 0.000000 0.000000 0.000000 0.000000 0.000000 0.118988
#
#
# Mechanical properties :
#
#
# Convention : Reuss Voigt Hill
#
# Bulk Modulus (GPa) = 12.06760 42.26565 27.16663
# Shear Modulus (GPa) = 11.03454 22.02566 16.53010
#
# Velocity S-wave (km/s) = 2.42452 3.42541 2.96747
# Velocity P-wave (km/s) = 3.77708 6.17739 5.11989
#
# Compressibility (1/GPa) = 0.08286653
#
# Stress axis : x y z
#
# Youngs Moduli (GPa) = 95.24730 9.86760 33.90701
#
# Poissons Ratio (x) = -0.10723 0.37141
# Poissons Ratio (y) = -1.03500 0.98825
# Poissons Ratio (z) = 1.04332 0.28760
#
# Static dielectric constant tensor:
#      x y z
#    x 1.668290 0.000000 0.000000 
#    y 0.000000 1.762930 0.000000 
#    z 0.000000 0.000000 1.668520 
# 
# From -- ./inp_files/5257.got.cif
#   From: 2010.05.17/outbox.ucp.g08.bks.cvg/sg49_3_cif.got.tgz:5257.got - 2010.06.11 16:40:14.
