data_PCOD9395790
_publ_section_title
;
Structure prediction by ZEFSAII (Michael W. Deem and Ramdas Pophale) SiO2 
 PCOD9395790
Probable space group: P B A N
;
_chemical_formula_sum "Si O2"
_cell_formula_units_Z 40
_cell_length_a 12.069575
_cell_length_b 16.170780
_cell_length_c 9.220966
_cell_angle_alpha 90.000000
_cell_angle_beta 90.000000
_cell_angle_gamma 90.000000
_cell_volume 1799.696894
_symmetry_space_group_name_H-M "P B A N"
_symmetry_group_IT_number 50
_space_group.IT_coordinate_system_code '2'
_symmetry_cell_setting 'orthorhombic'
loop_
_space_group_symop_operation_xyz
x,y,z
1/2-x,1/2-y,z
x,1/2-y,-z
1/2-x,y,-z
-x,-y,-z
1/2+x,1/2+y,-z
-x,1/2+y,z
1/2+x,-y,z
loop_
_atom_site_type_symbol
_atom_site_label
_atom_site_fract_x
_atom_site_fract_y
_atom_site_fract_z
Si Si1 0.776321 0.108725 0.349031
Si Si2 0.464872 0.615191 0.871831
Si Si3 0.959368 0.073778 0.794774
Si Si4 0.299259 0.168800 0.839280
Si Si5 0.326907 0.426267 0.628416
O O1 0.750000 0.154775 0.500000
O O2 0.659662 0.085897 0.276371
O O3 0.859060 0.140958 0.223987
O O4 0.837030 0.023616 0.401024
O O5 0.502839 0.521212 0.828454
O O6 0.570024 0.671313 0.836196
O O7 0.453455 0.615244 0.045936
O O8 0.054055 0.106003 0.682278
O O9 0.250000 0.250000 0.764570
O O10 0.251018 0.087385 0.766795
O O11 0.250000 0.167070 0.000000
O O12 0.250000 0.390282 0.500000
#
# Coordination Sequence:
#
# PCOD9395790 Si02
#       5
#     8   8   8   8   8
#     4  10  21  32  54  88 119 150 183 238 297 353
#     4  10  20  33  56  81 117 152 191 238 291 352
#     4  10  19  33  54  84 117 151 189 235 297 358
#     4  11  22  38  57  81 113 148 198 242 284 338
#     4  10  21  33  54  83 120 151 188 236 292 346
#
# _framework density 22.225964999999999
#
# number of rings (size 3 to 8) (size 9 to 14) (size 15 to 20)
#    0.000    1.800    4.000    0.600    2.800    2.800 
#    0.000    0.000    0.000    1.200    0.000    1.400 
#    0.000    0.000    0.000    0.000    0.000    0.000 
#
# Total GULP energy -222892.998562 kJ/mol
# GULP energy per Si atom -5572.324964 kJ/mol
# Density = 2.217538 g / cm^3
# Si number density = 22.225965 Si / 1000 Ang^3
#
#
#
# Elastic Constant Matrix: (Units=GPa)
#
#
# Indices 1 2 3 4 5 6 
#
# 1 207.2240 8.8898 89.6677 0.0000 0.0000 0.0000
# 2 8.8898 28.9574 24.1922 0.0000 0.0000 0.0000
# 3 89.6677 24.1922 110.3233 0.0000 0.0000 0.0000
# 4 0.0000 0.0000 0.0000 15.1133 0.0000 0.0000
# 5 0.0000 0.0000 0.0000 0.0000 50.5941 0.0000
# 6 0.0000 0.0000 0.0000 0.0000 0.0000 38.2151
#
#
#
# Elastic Compliance Matrix: (Units=1/GPa)
#
#
# Indices 1 2 3 4 5 6 
#
# 1 0.007726 0.003519 -0.007051 0.000000 0.000000 0.000000
# 2 0.003519 0.043882 -0.012483 0.000000 0.000000 0.000000
# 3 -0.007051 -0.012483 0.017532 0.000000 0.000000 0.000000
# 4 0.000000 0.000000 0.000000 0.066167 0.000000 0.000000
# 5 0.000000 0.000000 0.000000 0.000000 0.019765 0.000000
# 6 0.000000 0.000000 0.000000 0.000000 0.000000 0.026168
#
#
# Mechanical properties :
#
#
# Convention : Reuss Voigt Hill
#
# Bulk Modulus (GPa) = 26.94664 65.77824 46.36244
# Shear Modulus (GPa) = 22.15933 35.70150 28.93042
#
# Velocity S-wave (km/s) = 3.16096 4.01221 3.61175
# Velocity P-wave (km/s) = 5.04703 7.15005 6.18853
#
# Compressibility (1/GPa) = 0.03711038
#
# Stress axis : x y z
#
# Youngs Moduli (GPa) = 129.43795 22.78857 57.03778
#
# Poissons Ratio (x) = -0.08019 0.40217
# Poissons Ratio (y) = -0.45547 0.71198
# Poissons Ratio (z) = 0.91265 0.28446
#
# Static dielectric constant tensor:
#      x y z
#    x 1.780740 0.000000 0.000000 
#    y 0.000000 1.927270 0.000000 
#    z 0.000000 0.000000 1.827280 
# 
# From -- ./inp_files/11022.got.cif
#   From: 2010.05.17/outbox.cif.g08.bks.cpg/sg50_6_cif.got.tgz:11022.got - 2010.06.03 11:33:33.
