data_PCOD9395077
_publ_section_title
;
Structure prediction by ZEFSAII (Michael W. Deem and Ramdas Pophale) SiO2 
 PCOD9395077
Probable space group: P C C M
;
_chemical_formula_sum "Si O2"
_cell_formula_units_Z 38
_cell_length_a 12.302865
_cell_length_b 5.280871
_cell_length_c 25.411300
_cell_angle_alpha 90.000000
_cell_angle_beta 90.000000
_cell_angle_gamma 90.000000
_cell_volume 1650.968171
_symmetry_space_group_name_H-M "P C C M"
_symmetry_group_IT_number 49
_symmetry_cell_setting 'orthorhombic'
loop_
_space_group_symop_operation_xyz
x,y,z
-x,-y,z
x,-y,1/2-z
-x,y,1/2-z
-x,-y,-z
x,y,-z
-x,y,1/2+z
x,-y,1/2+z
loop_
_atom_site_type_symbol
_atom_site_label
_atom_site_fract_x
_atom_site_fract_y
_atom_site_fract_z
Si Si1 0.500000 0.000000 0.750000
Si Si2 0.324564 0.201567 0.668469
Si Si3 0.888318 0.856223 0.182205
Si Si4 0.212967 0.500000 0.750000
Si Si5 0.120734 0.579727 0.577047
Si Si6 0.732609 0.087706 0.058248
O O1 0.419015 0.132667 0.708948
O O2 0.285191 0.460852 0.697474
O O3 0.350041 0.146200 0.607103
O O4 0.217176 0.027182 0.671699
O O5 0.865765 0.730801 0.238106
O O6 0.891986 0.633643 0.138881
O O7 0.000000 0.000000 0.175833
O O8 0.192137 0.336605 0.563475
O O9 0.000000 0.500000 0.557817
O O10 0.187625 0.837317 0.560938
O O11 0.682041 0.081146 0.000000
#
# Coordination Sequence:
#
# PCOD9395077 Si02
#       6
#     2   8   8   4   8   8
#     4  12  24  50  72 100 142 184 236 322 356 442
#     4  11  25  45  67 103 137 181 244 291 367 424
#     4  11  24  41  62 100 147 185 230 292 359 437
#     4  12  22  44  66 100 134 191 237 294 358 438
#     4  11  22  41  64  98 142 190 240 285 352 427
#     4  11  24  43  68  96 140 188 238 300 351 424
#
# _framework density 23.016798999999999
#
# number of rings (size 3 to 8) (size 9 to 14) (size 15 to 20)
#    0.000    0.842    4.211    3.789    0.000    5.474 
#    3.789    0.526    0.000    0.000    0.000    5.895 
#    0.000    0.000    0.000    0.000    0.000    0.000 
#
# Total GULP energy -211617.793889 kJ/mol
# GULP energy per Si atom -5568.889313 kJ/mol
# Density = 2.296441 g / cm^3
# Si number density = 23.016799 Si / 1000 Ang^3
#
#
#
# Elastic Constant Matrix: (Units=GPa)
#
#
# Indices 1 2 3 4 5 6 
#
# 1 85.3643 17.5498 33.8362 0.0000 0.0000 0.0000
# 2 17.5498 117.4347 19.5792 0.0000 0.0000 0.0000
# 3 33.8362 19.5792 183.2617 0.0000 0.0000 0.0000
# 4 0.0000 0.0000 0.0000 33.4869 0.0000 0.0000
# 5 0.0000 0.0000 0.0000 0.0000-5958.2999 0.0000
# 6 0.0000 0.0000 0.0000 0.0000 0.0000 -10.8044
#
#
#
# Elastic Compliance Matrix: (Units=1/GPa)
#
#
# Indices 1 2 3 4 5 6 
#
# 1 0.012914 -0.001560 -0.002218 0.000000 0.000000 0.000000
# 2 -0.001560 0.008858 -0.000658 0.000000 0.000000 0.000000
# 3 -0.002218 -0.000658 0.005936 0.000000 0.000000 0.000000
# 4 0.000000 0.000000 0.000000 0.029862 0.000000 0.000000
# 5 0.000000 0.000000 0.000000 0.000000 -0.000168 0.000000
# 6 0.000000 0.000000 0.000000 0.000000 0.000000 -0.092555
#
#
# Mechanical properties :
#
#
# Convention : Reuss Voigt Hill
#
# Bulk Modulus (GPa) = 53.08824 58.66567 55.87695
# Shear Modulus (GPa) = -249.99970 -1166.11711 -708.05841
#
# Velocity S-wave (km/s) = -10.43322 -22.53303 -17.55832
# Velocity P-wave (km/s) = 11.04631 25.52331 19.66546
#
# Compressibility (1/GPa) = 0.01883656
#
# Stress axis : x y z
#
# Youngs Moduli (GPa) = 77.43347 112.88859 168.45007
#
# Poissons Ratio (x) = 0.17613 0.37358
# Poissons Ratio (y) = 0.12081 0.11090
# Poissons Ratio (z) = 0.17173 0.07432
#
# Static dielectric constant tensor:
#      x y z
#    x 1.906900 0.000000 0.000000 
#    y 0.000000 1.951390 0.000000 
#    z 0.000000 0.000000 2.017900 
# 
# From -- ./inp_files/24708.got.cif
#   From: 2010.05.17/outbox.cif.g08.bks.cpg/sg49_13_cif.got.tgz:24708.got - 2010.06.03 21:02:19.
