data_PCOD9395369
_publ_section_title
;
Structure prediction by ZEFSAII (Michael W. Deem and Ramdas Pophale) SiO2 
 PCOD9395369
Probable space group: P B A N
;
_chemical_formula_sum "Si O2"
_cell_formula_units_Z 46
_cell_length_a 15.342059
_cell_length_b 14.792567
_cell_length_c 11.702178
_cell_angle_alpha 90.000000
_cell_angle_beta 90.000000
_cell_angle_gamma 90.000000
_cell_volume 2655.790991
_symmetry_space_group_name_H-M "P B A N"
_symmetry_group_IT_number 50
_space_group.IT_coordinate_system_code '2'
_symmetry_cell_setting 'orthorhombic'
loop_
_space_group_symop_operation_xyz
x,y,z
1/2-x,1/2-y,z
x,1/2-y,-z
1/2-x,y,-z
-x,-y,-z
1/2+x,1/2+y,-z
-x,1/2+y,z
1/2+x,-y,z
loop_
_atom_site_type_symbol
_atom_site_label
_atom_site_fract_x
_atom_site_fract_y
_atom_site_fract_z
Si Si1 0.250000 0.750000 0.500000
Si Si2 0.784868 0.382554 0.120745
Si Si3 0.361048 0.658247 0.692494
Si Si4 0.530313 0.187928 0.197372
Si Si5 0.370792 0.445407 0.051210
Si Si6 0.542405 0.498001 0.187581
Si Si7 0.899937 0.750000 0.000000
O O1 0.312055 0.685990 0.576827
O O2 0.718393 0.349277 0.216216
O O3 0.881540 0.344782 0.135735
O O4 0.799588 0.490994 0.111041
O O5 0.750000 0.352084 0.000000
O O6 0.432053 0.736660 0.718085
O O7 0.411816 0.565061 0.718973
O O8 0.463444 0.228038 0.106077
O O9 0.485714 0.094948 0.239018
O O10 0.456580 0.451866 0.131938
O O11 0.349158 0.341026 0.031461
O O12 0.398407 0.485715 0.926553
#
# Coordination Sequence:
#
# PCOD9395369 Si02
#       7
#     2   8   8   8   8   8   4
#     4  12  28  40  54  84 108 146 206 242 292 324
#     4  11  19  30  52  82 114 141 176 223 290 346
#     4  12  21  39  55  78 117 145 183 248 279 328
#     4  10  19  31  54  81 105 147 187 217 282 334
#     4   9  17  29  48  85 117 146 181 210 278 359
#     4   9  18  32  52  80 115 145 178 226 277 347
#     4  10  16  28  52  78 122 148 172 216 260 352
#
# _framework density 17.320640999999998
#
# number of rings (size 3 to 8) (size 9 to 14) (size 15 to 20)
#    0.000    1.739    5.217    2.087    0.000    0.696 
#    0.000    1.304    0.000    0.000    0.000    0.000 
#    0.000   12.522    0.000    0.000    0.000    0.000 
#
# Total GULP energy -256333.074393 kJ/mol
# GULP energy per Si atom -5572.458139 kJ/mol
# Density = 1.728122 g / cm^3
# Si number density = 17.320641 Si / 1000 Ang^3
#
#
#
# Elastic Constant Matrix: (Units=GPa)
#
#
# Indices 1 2 3 4 5 6 
#
# 1 78.8745 41.6570 28.6778 0.0000 0.0000 0.0000
# 2 41.6570 151.1570 41.8678 0.0000 0.0000 0.0000
# 3 28.6778 41.8678 73.1037 0.0000 0.0000 0.0000
# 4 0.0000 0.0000 0.0000 -382.4601 0.0000 0.0000
# 5 0.0000 0.0000 0.0000 0.0000 19.2160 0.0000
# 6 0.0000 0.0000 0.0000 0.0000 0.0000 33.4971
#
#
#
# Elastic Compliance Matrix: (Units=1/GPa)
#
#
# Indices 1 2 3 4 5 6 
#
# 1 0.015970 -0.003168 -0.004450 0.000000 0.000000 0.000000
# 2 -0.003168 0.008492 -0.003620 0.000000 0.000000 0.000000
# 3 -0.004450 -0.003620 0.017498 0.000000 0.000000 0.000000
# 4 0.000000 0.000000 0.000000 -0.002615 0.000000 0.000000
# 5 0.000000 0.000000 0.000000 0.000000 0.052040 0.000000
# 6 0.000000 0.000000 0.000000 0.000000 0.000000 0.029853
#
#
# Mechanical properties :
#
#
# Convention : Reuss Voigt Hill
#
# Bulk Modulus (GPa) = 51.32974 58.61559 54.97267
# Shear Modulus (GPa) = 33.28672 -53.22054 -9.96691
#
# Velocity S-wave (km/s) = 4.38858 -5.54918 -2.40143
# Velocity P-wave (km/s) = 7.44170 2.67262 4.91101
#
# Compressibility (1/GPa) = 0.01948188
#
# Stress axis : x y z
#
# Youngs Moduli (GPa) = 62.61826 117.76352 57.14821
#
# Poissons Ratio (x) = 0.37313 0.25432
# Poissons Ratio (y) = 0.19840 0.20690
# Poissons Ratio (z) = 0.27866 0.42634
#
# Static dielectric constant tensor:
#      x y z
#    x 1.610280 0.000000 0.000000 
#    y 0.000000 1.670680 0.000000 
#    z 0.000000 0.000000 1.549090 
# 
# From -- ./inp_files/21858.got.cif
#   From: 2010.05.17/outbox.cif.g08.bks.cpg/sg50_11_cif.got.tgz:21858.got - 2010.06.03 11:33:33.
