data_PCOD9395674
_publ_section_title
;
Structure prediction by ZEFSAII (Michael W. Deem and Ramdas Pophale) SiO2 
 PCOD9395674
Probable space group: P B A N
;
_chemical_formula_sum "Si O2"
_cell_formula_units_Z 60
_cell_length_a 5.518726
_cell_length_b 25.035685
_cell_length_c 20.743174
_cell_angle_alpha 90.000000
_cell_angle_beta 90.000000
_cell_angle_gamma 90.000000
_cell_volume 2865.982414
_symmetry_space_group_name_H-M "P B A N"
_symmetry_group_IT_number 50
_space_group.IT_coordinate_system_code '2'
_symmetry_cell_setting 'orthorhombic'
loop_
_space_group_symop_operation_xyz
x,y,z
1/2-x,1/2-y,z
x,1/2-y,-z
1/2-x,y,-z
-x,-y,-z
1/2+x,1/2+y,-z
-x,1/2+y,z
1/2+x,-y,z
loop_
_atom_site_type_symbol
_atom_site_label
_atom_site_fract_x
_atom_site_fract_y
_atom_site_fract_z
Si Si1 0.250000 0.965677 0.500000
Si Si2 0.710864 0.966722 0.929701
Si Si3 0.165429 0.306957 0.255626
Si Si4 0.682594 0.690149 0.410423
Si Si5 0.281477 0.621466 0.261447
Si Si6 0.328884 0.632398 0.591431
Si Si7 0.377223 0.416892 0.198841
Si Si8 0.563607 0.488878 0.694574
O O1 0.238715 0.923359 0.559017
O O2 0.500000 0.000000 0.500000
O O3 0.749754 0.931255 0.866737
O O4 0.441759 0.992255 0.926863
O O5 0.750000 0.940373 0.000000
O O6 0.250000 0.250000 0.231099
O O7 0.198075 0.308813 0.332504
O O8 0.283942 0.360057 0.226048
O O9 0.883994 0.320606 0.246815
O O10 0.750000 0.750000 0.431274
O O11 0.406271 0.670413 0.422852
O O12 0.908747 0.653238 0.432507
O O13 0.147855 0.627092 0.330690
O O14 0.453636 0.571696 0.281138
O O15 0.159650 0.598521 0.197431
O O16 0.400835 0.468946 0.246170
O O17 0.316846 0.502048 0.659058
#
# Coordination Sequence:
#
# PCOD9395674 Si02
#       8
#     4   8   8   8   8   8   8   8
#     4  12  28  48  65  88 127 172 208 256 316 386
#     4  10  22  38  58  86 124 165 201 249 312 369
#     4  10  21  36  56  88 129 166 200 248 318 380
#     4  10  21  41  66  93 123 157 202 266 320 367
#     4  10  21  35  57  89 121 160 204 257 312 370
#     4  11  23  42  64  89 123 163 212 251 314 388
#     4  11  20  34  56  87 122 157 203 254 308 362
#     4  10  19  29  49  78 112 140 184 241 293 341
#
# _framework density 20.935229
#
# number of rings (size 3 to 8) (size 9 to 14) (size 15 to 20)
#    0.000    1.600    2.667    2.800    1.867    2.667 
#    0.000    2.000    0.000    0.400    0.000    0.000 
#    0.000    0.000    0.000    0.000    0.000    0.000 
#
# Total GULP energy -334045.616162 kJ/mol
# GULP energy per Si atom -5567.426936 kJ/mol
# Density = 2.088758 g / cm^3
# Si number density = 20.935229 Si / 1000 Ang^3
#
#
#
# Elastic Constant Matrix: (Units=GPa)
#
#
# Indices 1 2 3 4 5 6 
#
# 1 117.2916 27.0242 -3.4673 0.0000 0.0000 0.0000
# 2 27.0242 82.9957 9.4717 0.0000 0.0000 0.0000
# 3 -3.4673 9.4717 65.8195 0.0000 0.0000 0.0000
# 4 0.0000 0.0000 0.0000 11.3067 0.0000 0.0000
# 5 0.0000 0.0000 0.0000 0.0000 18.8230 0.0000
# 6 0.0000 0.0000 0.0000 0.0000 0.0000 30.8095
#
#
#
# Elastic Compliance Matrix: (Units=1/GPa)
#
#
# Indices 1 2 3 4 5 6 
#
# 1 0.009274 -0.003127 0.000939 0.000000 0.000000 0.000000
# 2 -0.003127 0.013304 -0.002079 0.000000 0.000000 0.000000
# 3 0.000939 -0.002079 0.015542 0.000000 0.000000 0.000000
# 4 0.000000 0.000000 0.000000 0.088444 0.000000 0.000000
# 5 0.000000 0.000000 0.000000 0.000000 0.053126 0.000000
# 6 0.000000 0.000000 0.000000 0.000000 0.000000 0.032458
#
#
# Mechanical properties :
#
#
# Convention : Reuss Voigt Hill
#
# Bulk Modulus (GPa) = 33.80115 36.90711 35.35413
# Shear Modulus (GPa) = 21.68783 27.72637 24.70710
#
# Velocity S-wave (km/s) = 3.22211 3.64316 3.43909
# Velocity P-wave (km/s) = 5.47935 5.94679 5.71785
#
# Compressibility (1/GPa) = 0.02958480
#
# Stress axis : x y z
#
# Youngs Moduli (GPa) = 107.82919 75.16411 64.34293
#
# Poissons Ratio (x) = 0.23502 -0.06039
# Poissons Ratio (y) = 0.33716 0.13379
# Poissons Ratio (z) = -0.10120 0.15629
#
# Static dielectric constant tensor:
#      x y z
#    x 2.128530 0.000000 0.000000 
#    y 0.000000 1.756250 0.000000 
#    z 0.000000 0.000000 1.778350 
# 
# From -- ./inp_files/30459.got.cif
#   From: 2010.05.17/outbox.cif.g08.bks.cpg/sg50_16_cif.got.tgz:30459.got - 2010.06.03 11:33:33.
