data_PCOD9395521
_publ_section_title
;
Structure prediction by ZEFSAII (Michael W. Deem and Ramdas Pophale) SiO2 
 PCOD9395521
Probable space group: P B A N
;
_chemical_formula_sum "Si O2"
_cell_formula_units_Z 36
_cell_length_a 29.477454
_cell_length_b 12.862572
_cell_length_c 5.462684
_cell_angle_alpha 90.000000
_cell_angle_beta 90.000000
_cell_angle_gamma 90.000000
_cell_volume 2071.208729
_symmetry_space_group_name_H-M "P B A N"
_symmetry_group_IT_number 50
_space_group.IT_coordinate_system_code '2'
_symmetry_cell_setting 'orthorhombic'
loop_
_space_group_symop_operation_xyz
x,y,z
1/2-x,1/2-y,z
x,1/2-y,-z
1/2-x,y,-z
-x,-y,-z
1/2+x,1/2+y,-z
-x,1/2+y,z
1/2+x,-y,z
loop_
_atom_site_type_symbol
_atom_site_label
_atom_site_fract_x
_atom_site_fract_y
_atom_site_fract_z
Si Si1 0.974570 0.149272 0.113916
Si Si2 0.957087 0.750000 0.500000
Si Si3 0.147368 0.124273 0.014238
Si Si4 0.802567 0.623692 0.510569
Si Si5 0.557329 0.933654 0.816357
O O1 0.010521 0.195036 0.304363
O O2 0.946518 0.055987 0.235556
O O3 0.949776 0.250000 0.000000
O O4 0.006939 0.099824 0.903552
O O5 0.929740 0.654524 0.617962
O O6 0.173270 0.091160 0.764311
O O7 0.096203 0.081748 0.016369
O O8 0.145475 0.250000 0.000000
O O9 0.172507 0.090874 0.261343
O O10 0.803100 0.750000 0.500000
O O11 0.750000 0.591385 0.500000
#
# Coordination Sequence:
#
# PCOD9395521 Si02
#       5
#     8   4   8   8   8
#     4   9  19  34  46  65  95 132 169 206 250 293
#     4  10  18  30  48  66  95 134 167 210 248 298
#     4  10  19  29  47  71  98 128 167 200 240 296
#     4   9  18  31  46  66  97 132 161 193 245 304
#     4  10  20  30  47  69  97 129 169 207 249 292
#
# _framework density 17.381155
#
# number of rings (size 3 to 8) (size 9 to 14) (size 15 to 20)
#    0.000    2.444    0.000    3.333    7.778    2.667 
#    0.000    0.000    0.000    0.000    0.000    0.000 
#    0.000    5.333    0.000    0.000    0.000    0.000 
#
# Total GULP energy -200438.102052 kJ/mol
# GULP energy per Si atom -5567.725057 kJ/mol
# Density = 1.734159 g / cm^3
# Si number density = 17.381155 Si / 1000 Ang^3
#
#
#
# Elastic Constant Matrix: (Units=GPa)
#
#
# Indices 1 2 3 4 5 6 
#
# 1 52.5340 26.7439 14.8083 0.0000 0.0000 0.0000
# 2 26.7439 98.7969 33.0654 0.0000 0.0000 0.0000
# 3 14.8083 33.0654 69.9872 0.0000 0.0000 0.0000
# 4 0.0000 0.0000 0.0000 8.5054 0.0000 0.0000
# 5 0.0000 0.0000 0.0000 0.0000 6.4321 0.0000
# 6 0.0000 0.0000 0.0000 0.0000 0.0000 1.5351
#
#
#
# Elastic Compliance Matrix: (Units=1/GPa)
#
#
# Indices 1 2 3 4 5 6 
#
# 1 0.022365 -0.005310 -0.002223 0.000000 0.000000 0.000000
# 2 -0.005310 0.013284 -0.005152 0.000000 0.000000 0.000000
# 3 -0.002223 -0.005152 0.017193 0.000000 0.000000 0.000000
# 4 0.000000 0.000000 0.000000 0.117572 0.000000 0.000000
# 5 0.000000 0.000000 0.000000 0.000000 0.155469 0.000000
# 6 0.000000 0.000000 0.000000 0.000000 0.000000 0.651426
#
#
# Mechanical properties :
#
#
# Convention : Reuss Voigt Hill
#
# Bulk Modulus (GPa) = 36.40301 41.17257 38.78779
# Shear Modulus (GPa) = 4.94151 13.07456 9.00803
#
# Velocity S-wave (km/s) = 1.68796 2.74565 2.27901
# Velocity P-wave (km/s) = 4.97879 5.81300 5.41199
#
# Compressibility (1/GPa) = 0.02747025
#
# Stress axis : x y z
#
# Youngs Moduli (GPa) = 44.71219 75.28115 58.16333
#
# Poissons Ratio (x) = 0.39974 0.12932
# Poissons Ratio (y) = 0.23742 0.29967
# Poissons Ratio (z) = 0.09942 0.38787
#
# Static dielectric constant tensor:
#      x y z
#    x 1.575810 0.000000 0.000000 
#    y 0.000000 1.616910 0.000000 
#    z 0.000000 0.000000 1.687230 
# 
# From -- ./inp_files/2529.got.cif
#   From: 2010.05.17/outbox.cif.g08.bks.cpg/sg50_2_cif.got.tgz:2529.got - 2010.06.03 11:33:33.
