data_PCOD9395819
_publ_section_title
;
Structure prediction by ZEFSAII (Michael W. Deem and Ramdas Pophale) SiO2 
 PCOD9395819
Probable space group: P B A N
;
_chemical_formula_sum "Si O2"
_cell_formula_units_Z 58
_cell_length_a 25.063798
_cell_length_b 9.117676
_cell_length_c 14.340007
_cell_angle_alpha 90.000000
_cell_angle_beta 90.000000
_cell_angle_gamma 90.000000
_cell_volume 3277.029873
_symmetry_space_group_name_H-M "P B A N"
_symmetry_group_IT_number 50
_space_group.IT_coordinate_system_code '2'
_symmetry_cell_setting 'orthorhombic'
loop_
_space_group_symop_operation_xyz
x,y,z
1/2-x,1/2-y,z
x,1/2-y,-z
1/2-x,y,-z
-x,-y,-z
1/2+x,1/2+y,-z
-x,1/2+y,z
1/2+x,-y,z
loop_
_atom_site_type_symbol
_atom_site_label
_atom_site_fract_x
_atom_site_fract_y
_atom_site_fract_z
Si Si1 0.025079 0.213034 0.742619
Si Si2 0.606853 0.536291 0.811560
Si Si3 0.840362 0.016254 0.553058
Si Si4 0.188874 0.210143 0.280246
Si Si5 0.380310 0.459144 0.649151
Si Si6 0.590081 0.213769 0.333174
Si Si7 0.750000 0.250000 0.500000
Si Si8 0.032038 0.610031 0.936449
O O1 0.061661 0.354710 0.766810
O O2 0.062179 0.104750 0.681207
O O3 0.972396 0.243517 0.681810
O O4 0.001625 0.151012 0.841769
O O5 0.662127 0.621416 0.804524
O O6 0.609367 0.388831 0.750990
O O7 0.584684 0.479056 0.908074
O O8 0.892048 0.113650 0.580558
O O9 0.791310 0.133566 0.547982
O O10 0.825764 0.892587 0.629762
O O11 0.857388 0.942218 0.455762
O O12 0.250000 0.250000 0.275262
O O13 0.158964 0.364160 0.288420
O O14 0.380618 0.631896 0.665671
O O15 0.043211 0.750000 0.000000
O O16 0.000000 0.500000 0.000000
#
# Coordination Sequence:
#
# PCOD9395819 Si02
#       8
#     8   8   8   8   8   8   2   8
#     4  10  21  36  55  81 125 151 186 238 289 370
#     4   9  20  36  52  86 119 147 189 241 287 357
#     4  11  22  35  53  78 108 151 205 252 295 337
#     4  10  22  39  59  79 113 151 202 250 298 341
#     4  11  21  36  55  80 113 157 197 242 299 344
#     4  10  19  34  52  78 114 151 193 241 292 346
#     4  12  20  36  54  76 112 136 212 264 278 328
#     4  11  20  34  60  91 122 150 185 232 297 362
#
# _framework density 17.698952999999999
#
# number of rings (size 3 to 8) (size 9 to 14) (size 15 to 20)
#    0.000    1.655    2.759    2.897    1.931    1.103 
#    0.000    4.138    0.000    0.000    0.000    7.724 
#    8.276    0.000    0.000    0.000    0.000    0.000 
#
# Total GULP energy -322914.691499 kJ/mol
# GULP energy per Si atom -5567.494681 kJ/mol
# Density = 1.765867 g / cm^3
# Si number density = 17.698953 Si / 1000 Ang^3
#
#
#
# Elastic Constant Matrix: (Units=GPa)
#
#
# Indices 1 2 3 4 5 6 
#
# 1 107.0231 40.9504 29.6638 0.0000 0.0000 0.0000
# 2 40.9504 100.9586 21.9986 0.0000 0.0000 0.0000
# 3 29.6638 21.9986 58.4773 0.0000 0.0000 0.0000
# 4 0.0000 0.0000 0.0000 28.4781 0.0000 0.0000
# 5 0.0000 0.0000 0.0000 0.0000 18.8510 0.0000
# 6 0.0000 0.0000 0.0000 0.0000 0.0000 29.7743
#
#
#
# Elastic Compliance Matrix: (Units=1/GPa)
#
#
# Indices 1 2 3 4 5 6 
#
# 1 0.012136 -0.003901 -0.004689 0.000000 0.000000 0.000000
# 2 -0.003901 0.012043 -0.002552 0.000000 0.000000 0.000000
# 3 -0.004689 -0.002552 0.020439 0.000000 0.000000 0.000000
# 4 0.000000 0.000000 0.000000 0.035115 0.000000 0.000000
# 5 0.000000 0.000000 0.000000 0.000000 0.053048 0.000000
# 6 0.000000 0.000000 0.000000 0.000000 0.000000 0.033586
#
#
# Mechanical properties :
#
#
# Convention : Reuss Voigt Hill
#
# Bulk Modulus (GPa) = 44.77165 50.18717 47.47941
# Shear Modulus (GPa) = 25.49787 27.01041 26.25414
#
# Velocity S-wave (km/s) = 3.79970 3.91077 3.85564
# Velocity P-wave (km/s) = 6.67843 6.98640 6.83415
#
# Compressibility (1/GPa) = 0.02233556
#
# Stress axis : x y z
#
# Youngs Moduli (GPa) = 82.39971 83.03349 48.92590
#
# Poissons Ratio (x) = 0.32390 0.22940
# Poissons Ratio (y) = 0.32143 0.12485
# Poissons Ratio (z) = 0.38635 0.21188
#
# Static dielectric constant tensor:
#      x y z
#    x 1.628800 0.000000 0.000000 
#    y 0.000000 1.577150 0.000000 
#    z 0.000000 0.000000 1.584860 
# 
# From -- ./inp_files/25382.got.cif
#   From: 2010.05.17/outbox.cif.g08.bks.cpg/sg50_13_cif.got.tgz:25382.got - 2010.06.03 11:33:33.
