data_PCOD9395528
_publ_section_title
;
Structure prediction by ZEFSAII (Michael W. Deem and Ramdas Pophale) SiO2 
 PCOD9395528
Probable space group: P B A N
;
_chemical_formula_sum "Si O2"
_cell_formula_units_Z 48
_cell_length_a 10.735008
_cell_length_b 14.564851
_cell_length_c 14.284587
_cell_angle_alpha 90.000000
_cell_angle_beta 90.000000
_cell_angle_gamma 90.000000
_cell_volume 2233.449345
_symmetry_space_group_name_H-M "P B A N"
_symmetry_group_IT_number 50
_space_group.IT_coordinate_system_code '2'
_symmetry_cell_setting 'orthorhombic'
loop_
_space_group_symop_operation_xyz
x,y,z
1/2-x,1/2-y,z
x,1/2-y,-z
1/2-x,y,-z
-x,-y,-z
1/2+x,1/2+y,-z
-x,1/2+y,z
1/2+x,-y,z
loop_
_atom_site_type_symbol
_atom_site_label
_atom_site_fract_x
_atom_site_fract_y
_atom_site_fract_z
Si Si1 0.394205 0.360939 0.894109
Si Si2 0.222280 0.112781 0.606505
Si Si3 0.724048 0.111715 0.607576
Si Si4 0.027382 0.392980 0.699705
Si Si5 0.109149 0.139683 0.103878
Si Si6 0.526692 0.107753 0.297194
O O1 0.251431 0.393319 0.876254
O O2 0.387980 0.250291 0.896403
O O3 0.487943 0.386010 0.811356
O O4 0.427703 0.391051 0.999552
O O5 0.250000 0.137708 0.500000
O O6 0.339079 0.145281 0.668178
O O7 0.090249 0.147005 0.645006
O O8 0.218383 0.000618 0.610940
O O9 0.750000 0.136530 0.500000
O O10 0.591668 0.145627 0.646158
O O11 0.838728 0.143375 0.672349
O O12 0.019753 0.386660 0.811544
O O13 0.031737 0.500559 0.676405
#
# Coordination Sequence:
#
# PCOD9395528 Si02
#       6
#     8   8   8   8   8   8
#     4   9  18  34  55  75  97 130 170 210 252 296
#     4   9  16  28  48  73 100 132 171 209 242 287
#     4   9  18  30  46  73 106 136 163 197 250 301
#     4  10  18  30  51  77 103 131 166 209 248 289
#     4   9  18  34  55  75  97 130 170 210 252 296
#     4  10  18  30  51  77 103 131 166 209 248 289
#
# _framework density 21.491420999999999
#
# number of rings (size 3 to 8) (size 9 to 14) (size 15 to 20)
#    0.000    2.667    1.667    2.000    0.000    4.667 
#    0.000    1.667    0.000    8.000    0.000    0.000 
#    0.000    0.000    0.000    0.000    0.000    0.000 
#
# Total GULP energy -267868.558329 kJ/mol
# GULP energy per Si atom -5580.594965 kJ/mol
# Density = 2.144251 g / cm^3
# Si number density = 21.491421 Si / 1000 Ang^3
#
#
#
# Elastic Constant Matrix: (Units=GPa)
#
#
# Indices 1 2 3 4 5 6 
#
# 1 103.4694 -21.7167 49.2777 0.0000 0.0000 0.0000
# 2 -21.7167 37.5698 -43.1991 0.0000 0.0000 0.0000
# 3 49.2777 -43.1991 116.1697 0.0000 0.0000 0.0000
# 4 0.0000 0.0000 0.0000 38.8935 0.0000 0.0000
# 5 0.0000 0.0000 0.0000 0.0000 39.8274 0.0000
# 6 0.0000 0.0000 0.0000 0.0000 0.0000 1.9273
#
#
#
# Elastic Compliance Matrix: (Units=1/GPa)
#
#
# Indices 1 2 3 4 5 6 
#
# 1 0.012190 0.001923 -0.004456 0.000000 0.000000 0.000000
# 2 0.001923 0.046803 0.016588 0.000000 0.000000 0.000000
# 3 -0.004456 0.016588 0.016667 0.000000 0.000000 0.000000
# 4 0.000000 0.000000 0.000000 0.025711 0.000000 0.000000
# 5 0.000000 0.000000 0.000000 0.000000 0.025108 0.000000
# 6 0.000000 0.000000 0.000000 0.000000 0.000000 0.518857
#
#
# Mechanical properties :
#
#
# Convention : Reuss Voigt Hill
#
# Bulk Modulus (GPa) = 9.63666 25.10365 17.37016
# Shear Modulus (GPa) = 7.67087 34.31945 20.99516
#
# Velocity S-wave (km/s) = 1.89130 4.00045 3.12894
# Velocity P-wave (km/s) = 3.04353 5.74841 4.59931
#
# Compressibility (1/GPa) = 0.10377035
#
# Stress axis : x y z
#
# Youngs Moduli (GPa) = 82.03132 21.36638 59.99925
#
# Poissons Ratio (x) = -0.04108 0.26736
# Poissons Ratio (y) = -0.15773 -0.99529
# Poissons Ratio (z) = 0.36553 -0.35443
#
# Static dielectric constant tensor:
#      x y z
#    x 1.778760 0.000000 0.000000 
#    y 0.000000 1.823220 0.000000 
#    z 0.000000 0.000000 1.783540 
# 
# From -- ./inp_files/24984.got.cif
#   From: 2010.05.17/outbox.cif.g08.bks.cpg/sg50_13_cif.got.tgz:24984.got - 2010.06.03 11:33:33.
