data_PCOD9395520
_publ_section_title
;
Structure prediction by ZEFSAII (Michael W. Deem and Ramdas Pophale) SiO2 
 PCOD9395520
Probable space group: P B A N
;
_chemical_formula_sum "Si O2"
_cell_formula_units_Z 52
_cell_length_a 15.724409
_cell_length_b 14.237676
_cell_length_c 8.806858
_cell_angle_alpha 90.000000
_cell_angle_beta 90.000000
_cell_angle_gamma 90.000000
_cell_volume 1971.670920
_symmetry_space_group_name_H-M "P B A N"
_symmetry_group_IT_number 50
_space_group.IT_coordinate_system_code '2'
_symmetry_cell_setting 'orthorhombic'
loop_
_space_group_symop_operation_xyz
x,y,z
1/2-x,1/2-y,z
x,1/2-y,-z
1/2-x,y,-z
-x,-y,-z
1/2+x,1/2+y,-z
-x,1/2+y,z
1/2+x,-y,z
loop_
_atom_site_type_symbol
_atom_site_label
_atom_site_fract_x
_atom_site_fract_y
_atom_site_fract_z
Si Si1 0.386021 0.094685 0.683078
Si Si2 0.850574 0.383247 0.317085
Si Si3 0.809773 0.892043 0.316464
Si Si4 0.608483 0.603024 0.016210
Si Si5 0.582444 0.750000 0.500000
Si Si6 0.083975 0.620873 0.000961
Si Si7 0.146037 0.603259 0.339101
O O1 0.287490 0.099242 0.632819
O O2 0.379899 0.138346 0.848266
O O3 0.451363 0.158810 0.588991
O O4 0.401074 0.983510 0.688638
O O5 0.867508 0.339771 0.148550
O O6 0.870546 0.353268 0.492316
O O7 0.748211 0.389308 0.316071
O O8 0.857981 0.803085 0.381141
O O9 0.862361 0.988777 0.350378
O O10 0.819152 0.879057 0.136482
O O11 0.604015 0.490072 0.003276
O O12 0.513172 0.636209 0.050763
O O13 0.102721 0.640130 0.181676
#
# Coordination Sequence:
#
# PCOD9395520 Si02
#       7
#     8   8   8   8   4   8   8
#     4  10  18  30  45  63  88 121 163 202 229 261
#     4   9  16  28  47  70  94 122 152 187 231 278
#     4  10  18  30  45  63  88 121 163 202 229 261
#     4   9  19  32  42  61  87 119 160 197 230 276
#     4  12  21  30  46  66  88 120 169 212 231 254
#     4   9  17  31  45  65  91 122 157 188 230 283
#     4   9  16  28  47  70  94 122 152 187 231 278
#
# _framework density 26.373570000000001
#
# number of rings (size 3 to 8) (size 9 to 14) (size 15 to 20)
#    0.000    2.462    1.538    2.308    0.000    4.308 
#    2.769    4.615    0.000    0.000    0.000    0.000 
#    0.000    0.000    0.000   16.615    0.000   40.615 
#
# Total GULP energy -289531.474072 kJ/mol
# GULP energy per Si atom -5567.912963 kJ/mol
# Density = 2.631354 g / cm^3
# Si number density = 26.373570 Si / 1000 Ang^3
#
#
#
# Elastic Constant Matrix: (Units=GPa)
#
#
# Indices 1 2 3 4 5 6 
#
# 1 63.6299 -1.1298 29.8510 0.0000 0.0000 0.0000
# 2 -1.1298 100.0271 10.0461 0.0000 0.0000 0.0000
# 3 29.8510 10.0461 191.6563 0.0000 0.0000 0.0000
# 4 0.0000 0.0000 0.0000 -94.7870 0.0000 0.0000
# 5 0.0000 0.0000 0.0000 0.0000 24.3440 0.0000
# 6 0.0000 0.0000 0.0000 0.0000 0.0000 -15.2339
#
#
#
# Elastic Compliance Matrix: (Units=1/GPa)
#
#
# Indices 1 2 3 4 5 6 
#
# 1 0.016976 0.000460 -0.002668 0.000000 0.000000 0.000000
# 2 0.000460 0.010063 -0.000599 0.000000 0.000000 0.000000
# 3 -0.002668 -0.000599 0.005665 0.000000 0.000000 0.000000
# 4 0.000000 0.000000 0.000000 -0.010550 0.000000 0.000000
# 5 0.000000 0.000000 0.000000 0.000000 0.041078 0.000000
# 6 0.000000 0.000000 0.000000 0.000000 0.000000 -0.065643
#
#
# Mechanical properties :
#
#
# Convention : Reuss Voigt Hill
#
# Bulk Modulus (GPa) = 36.91654 48.09420 42.50537
# Shear Modulus (GPa) = 408.76176 3.96770 206.36473
#
# Velocity S-wave (km/s) = 12.46297 1.22788 8.85532
# Velocity P-wave (km/s) = 14.87040 4.50395 10.98668
#
# Compressibility (1/GPa) = 0.02708813
#
# Stress axis : x y z
#
# Youngs Moduli (GPa) = 58.90752 99.37738 176.53374
#
# Poissons Ratio (x) = -0.04568 0.47101
# Poissons Ratio (y) = -0.02708 0.10575
# Poissons Ratio (z) = 0.15717 0.05953
#
# Static dielectric constant tensor:
#      x y z
#    x 2.019150 0.000000 0.000000 
#    y 0.000000 2.105770 0.000000 
#    z 0.000000 0.000000 2.211260 
# 
# From -- ./inp_files/14431.got.cif
#   From: 2010.05.17/outbox.cif.g08.bks.cpg/sg50_8_cif.got.tgz:14431.got - 2010.06.03 11:33:33.
