data_PCOD9395614
_publ_section_title
;
Structure prediction by ZEFSAII (Michael W. Deem and Ramdas Pophale) SiO2 
 PCOD9395614
Probable space group: P B A N
;
_chemical_formula_sum "Si O2"
_cell_formula_units_Z 64
_cell_length_a 23.081950
_cell_length_b 12.184886
_cell_length_c 12.657980
_cell_angle_alpha 90.000000
_cell_angle_beta 90.000000
_cell_angle_gamma 90.000000
_cell_volume 3560.068639
_symmetry_space_group_name_H-M "P B A N"
_symmetry_group_IT_number 50
_space_group.IT_coordinate_system_code '2'
_symmetry_cell_setting 'orthorhombic'
loop_
_space_group_symop_operation_xyz
x,y,z
1/2-x,1/2-y,z
x,1/2-y,-z
1/2-x,y,-z
-x,-y,-z
1/2+x,1/2+y,-z
-x,1/2+y,z
1/2+x,-y,z
loop_
_atom_site_type_symbol
_atom_site_label
_atom_site_fract_x
_atom_site_fract_y
_atom_site_fract_z
Si Si1 0.328714 0.952258 0.296428
Si Si2 0.094590 0.137197 0.364382
Si Si3 0.287281 0.493320 0.396847
Si Si4 0.007607 0.996624 0.230751
Si Si5 0.102854 0.648080 0.867222
Si Si6 0.597912 0.408271 0.099071
Si Si7 0.420615 0.392907 0.604807
Si Si8 0.185843 0.791435 0.314710
O O1 0.262105 0.988020 0.307910
O O2 0.352698 0.954278 0.177159
O O3 0.342200 0.827390 0.335384
O O4 0.364988 0.033994 0.368690
O O5 0.068917 0.108198 0.479951
O O6 0.092635 0.268730 0.358507
O O7 0.159874 0.086640 0.367534
O O8 0.053979 0.084273 0.275087
O O9 0.250000 0.461035 0.500000
O O10 0.311182 0.618970 0.407778
O O11 0.044819 0.898895 0.182590
O O12 0.971502 0.947974 0.328432
O O13 0.962154 0.043158 0.144671
O O14 0.095628 0.777064 0.887907
O O15 0.153927 0.646448 0.780890
O O16 0.111683 0.579971 0.975201
O O17 0.250000 0.750000 0.284266
#
# Coordination Sequence:
#
# PCOD9395614 Si02
#       8
#     8   8   8   8   8   8   8   8
#     4   9  19  36  53  78 114 150 180 233 285 325
#     4  11  22  37  57  83 111 151 194 228 279 344
#     4  11  20  36  57  82 113 146 192 231 283 334
#     4  11  20  36  58  79 116 147 186 238 282 334
#     4  10  18  35  56  84 110 144 191 230 287 338
#     4   9  20  34  55  82 113 145 185 231 290 335
#     4  10  22  38  54  81 117 148 194 229 280 340
#     4   9  19  34  56  82 115 143 186 234 284 340
#
# _framework density 17.977180000000001
#
# number of rings (size 3 to 8) (size 9 to 14) (size 15 to 20)
#    0.000    2.000    2.500    1.500    0.000    2.750 
#    0.000   10.625    0.000    0.000    0.000    0.000 
#   15.000    0.000    0.000    0.000    0.000    0.000 
#
# Total GULP energy -356466.916007 kJ/mol
# GULP energy per Si atom -5569.795563 kJ/mol
# Density = 1.793626 g / cm^3
# Si number density = 17.977180 Si / 1000 Ang^3
#
#
#
# Elastic Constant Matrix: (Units=GPa)
#
#
# Indices 1 2 3 4 5 6 
#
# 1 72.7673 20.1208 25.1401 0.0000 0.0000 0.0000
# 2 20.1208 46.1533 7.0781 0.0000 0.0000 0.0000
# 3 25.1401 7.0781 52.2725 0.0000 0.0000 0.0000
# 4 0.0000 0.0000 0.0000 21.1412 0.0000 0.0000
# 5 0.0000 0.0000 0.0000 0.0000 15.0410 0.0000
# 6 0.0000 0.0000 0.0000 0.0000 0.0000 31.4032
#
#
#
# Elastic Compliance Matrix: (Units=1/GPa)
#
#
# Indices 1 2 3 4 5 6 
#
# 1 0.018351 -0.006788 -0.007907 0.000000 0.000000 0.000000
# 2 -0.006788 0.024637 -0.000072 0.000000 0.000000 0.000000
# 3 -0.007907 -0.000072 0.022943 0.000000 0.000000 0.000000
# 4 0.000000 0.000000 0.000000 0.047301 0.000000 0.000000
# 5 0.000000 0.000000 0.000000 0.000000 0.066485 0.000000
# 6 0.000000 0.000000 0.000000 0.000000 0.000000 0.031844
#
#
# Mechanical properties :
#
#
# Convention : Reuss Voigt Hill
#
# Bulk Modulus (GPa) = 27.47321 30.65233 29.06277
# Shear Modulus (GPa) = 19.74525 21.44068 20.59297
#
# Velocity S-wave (km/s) = 3.31773 3.45724 3.38820
# Velocity P-wave (km/s) = 5.47649 5.74668 5.61321
#
# Compressibility (1/GPa) = 0.03639910
#
# Stress axis : x y z
#
# Youngs Moduli (GPa) = 54.49321 40.58934 43.58659
#
# Poissons Ratio (x) = 0.27551 0.34462
# Poissons Ratio (y) = 0.36988 0.00312
# Poissons Ratio (z) = 0.43086 0.00290
#
# Static dielectric constant tensor:
#      x y z
#    x 1.640750 0.000000 0.000000 
#    y 0.000000 1.618510 0.000000 
#    z 0.000000 0.000000 1.666730 
# 
# From -- ./inp_files/22886.got.cif
#   From: 2010.05.17/outbox.cif.g08.bks.cpg/sg50_12_cif.got.tgz:22886.got - 2010.06.03 11:33:33.
