data_PCOD9395323
_publ_section_title
;
Structure prediction by ZEFSAII (Michael W. Deem and Ramdas Pophale) SiO2 
 PCOD9395323
Probable space group: P C C M
;
_chemical_formula_sum "Si O2"
_cell_formula_units_Z 64
_cell_length_a 24.000000
_cell_length_b 15.000000
_cell_length_c 9.000000
_cell_angle_alpha 90.000000
_cell_angle_beta 90.000000
_cell_angle_gamma 90.000000
_cell_volume 3240.000000
_symmetry_space_group_name_H-M "P C C M"
_symmetry_group_IT_number 49
_symmetry_cell_setting 'orthorhombic'
loop_
_space_group_symop_operation_xyz
x,y,z
-x,-y,z
x,-y,1/2-z
-x,y,1/2-z
-x,-y,-z
x,y,-z
-x,y,1/2+z
x,-y,1/2+z
loop_
_atom_site_type_symbol
_atom_site_label
_atom_site_fract_x
_atom_site_fract_y
_atom_site_fract_z
Si Si1 0.236251 0.235653 0.831125
Si Si2 0.832998 0.583568 0.826946
Si Si3 0.829862 0.086556 0.824677
Si Si4 0.631516 0.749366 0.823565
Si Si5 0.559721 0.902854 0.319846
Si Si6 0.440862 0.402126 0.680212
Si Si7 0.942855 0.149976 0.320535
Si Si8 0.056566 0.348151 0.321013
O O1 0.205194 0.329674 0.819539
O O2 0.208806 0.170063 0.713175
O O3 0.301895 0.246958 0.812351
O O4 0.225402 0.201235 0.000000
O O5 0.803796 0.500000 0.750000
O O6 0.889019 0.600649 0.733324
O O7 0.846341 0.567177 0.000000
O O8 0.888422 0.101118 0.739926
O O9 0.803072 0.000000 0.750000
O O10 0.838754 0.076806 0.000000
O O11 0.604764 0.833831 0.740934
O O12 0.606079 0.663838 0.741025
O O13 0.617041 0.748670 0.000000
O O14 0.500000 0.875678 0.250000
O O15 0.557235 0.905676 0.500000
O O16 0.571291 0.000000 0.250000
O O17 0.431789 0.500000 0.750000
O O18 0.500000 0.371106 0.750000
O O19 0.443431 0.404689 0.500000
O O20 0.945066 0.151695 0.500000
O O21 0.938265 0.250022 0.253509
O O22 0.000000 0.112947 0.250000
O O23 0.052981 0.342138 0.500000
O O24 0.000000 0.386726 0.250000
#
# Coordination Sequence:
#
# PCOD9395323 Si02
#       8
#     8   8   8   8   8   8   8   8
#     4  10  24  45  66  88 122 163 208 260 309 359
#     4  11  23  41  64  90 121 159 203 255 308 369
#     4  12  25  42  66  92 122 161 206 254 310 370
#     4  11  23  41  64  92 125 166 210 257 308 366
#     4  11  22  39  63  94 129 167 206 254 307 366
#     4  11  22  39  63  94 130 168 208 256 309 367
#     4  11  21  37  61  91 125 159 199 247 306 370
#     4  11  21  36  60  91 122 159 198 246 307 369
#
# _framework density 19.753086
#
# number of rings (size 3 to 8) (size 9 to 14) (size 15 to 20)
#    0.000    1.000    1.250    8.250    0.000    3.000 
#    0.000    3.750    0.000    0.000    0.000    0.000 
#    0.000    0.000    0.000    0.000    0.000    0.000 
#
# Total GULP energy -357884.444172 kJ/mol
# GULP energy per Si atom -5591.944440 kJ/mol
# Density = 1.970813 g / cm^3
# Si number density = 19.753086 Si / 1000 Ang^3
#
#
#
# Elastic Constant Matrix: (Units=GPa)
#
#
# Indices 1 2 3 4 5 6 
#
# 1 87.2004 36.9409 58.9847 0.0000 0.0000 0.0000
# 2 36.9409 75.2601 51.9406 0.0000 0.0000 0.0000
# 3 58.9847 51.9406 228.5558 0.0000 0.0000 0.0000
# 4 0.0000 0.0000 0.0000 33.8579 0.0000 0.0000
# 5 0.0000 0.0000 0.0000 0.0000 -104.1276 0.0000
# 6 0.0000 0.0000 0.0000 0.0000 0.0000 -60.6567
#
#
#
# Elastic Compliance Matrix: (Units=1/GPa)
#
#
# Indices 1 2 3 4 5 6 
#
# 1 0.015811 -0.005864 -0.002748 0.000000 0.000000 0.000000
# 2 -0.005864 0.017934 -0.002562 0.000000 0.000000 0.000000
# 3 -0.002748 -0.002562 0.005667 0.000000 0.000000 0.000000
# 4 0.000000 0.000000 0.000000 0.029535 0.000000 0.000000
# 5 0.000000 0.000000 0.000000 0.000000 -0.009604 0.000000
# 6 0.000000 0.000000 0.000000 0.000000 0.000000 -0.016486
#
#
# Mechanical properties :
#
#
# Convention : Reuss Voigt Hill
#
# Bulk Modulus (GPa) = 58.60591 76.30541 67.45566
# Shear Modulus (GPa) = 70.52910 -9.97526 30.27692
#
# Velocity S-wave (km/s) = 5.98188 -2.24965 3.91931
# Velocity P-wave (km/s) = 8.80024 5.65381 7.39627
#
# Compressibility (1/GPa) = 0.01706313
#
# Stress axis : x y z
#
# Youngs Moduli (GPa) = 63.24817 55.76003 176.47032
#
# Poissons Ratio (x) = 0.32699 0.48488
# Poissons Ratio (y) = 0.37091 0.45215
# Poissons Ratio (z) = 0.17379 0.14287
#
# Static dielectric constant tensor:
#      x y z
#    x 1.688620 0.000000 0.000000 
#    y 0.000000 1.783470 0.000000 
#    z 0.000000 0.000000 1.657340 
# 
# From -- ./inp_files/6537.got.cif
#   From: 2010.05.17/outbox.ucp.g08.bks.cvg/sg49_4_cif.got.tgz:6537.got - 2010.06.11 16:40:14.
