data_PCOD9395089
_publ_section_title
;
Structure prediction by ZEFSAII (Michael W. Deem and Ramdas Pophale) SiO2 
 PCOD9395089
Probable space group: P C C M
;
_chemical_formula_sum "Si O2"
_cell_formula_units_Z 32
_cell_length_a 6.300779
_cell_length_b 14.269606
_cell_length_c 15.884882
_cell_angle_alpha 90.000000
_cell_angle_beta 90.000000
_cell_angle_gamma 90.000000
_cell_volume 1428.203924
_symmetry_space_group_name_H-M "P C C M"
_symmetry_group_IT_number 49
_symmetry_cell_setting 'orthorhombic'
loop_
_space_group_symop_operation_xyz
x,y,z
-x,-y,z
x,-y,1/2-z
-x,y,1/2-z
-x,-y,-z
x,y,-z
-x,y,1/2+z
x,-y,1/2+z
loop_
_atom_site_type_symbol
_atom_site_label
_atom_site_fract_x
_atom_site_fract_y
_atom_site_fract_z
Si Si1 0.479357 0.889913 0.500000
Si Si2 0.232351 0.258656 0.500000
Si Si3 0.378728 0.402022 0.000000
Si Si4 0.000000 0.000000 0.750000
Si Si5 0.305198 0.840440 0.683463
Si Si6 0.000000 0.500000 0.250000
Si Si7 0.055919 0.661217 0.641123
O O1 0.715489 0.849435 0.500000
O O2 0.377073 0.851407 0.586270
O O3 0.500000 0.000000 0.500000
O O4 0.445677 0.320345 0.500000
O O5 0.099686 0.283234 0.581307
O O6 0.500000 0.500000 0.000000
O O7 0.228924 0.390149 0.918342
O O8 0.151511 0.071537 0.800038
O O9 0.500000 0.844439 0.750000
O O10 0.185803 0.740267 0.692603
O O11 0.916869 0.579714 0.313902
#
# Coordination Sequence:
#
# PCOD9395089 Si02
#       7
#     4   4   4   2   8   2   8
#     4  12  26  46  80 110 147 199 253 307 369 467
#     4  11  24  48  71 105 149 190 246 317 373 438
#     4  11  22  44  72  98 139 185 240 308 367 441
#     4  12  28  46  76 104 156 202 240 322 364 444
#     4  12  28  50  73 114 152 195 252 310 381 442
#     4  12  26  42  70 106 140 196 258 300 374 468
#     4  11  26  45  70 105 141 197 243 306 378 443
#
# _framework density 22.405764999999999
#
# number of rings (size 3 to 8) (size 9 to 14) (size 15 to 20)
#    0.000    0.500    2.500    4.875   10.500    4.500 
#    0.000    1.250    0.000    0.000    0.000    0.000 
#    0.000    0.000    0.000    0.000    0.000    0.000 
#
# Total GULP energy -178647.063290 kJ/mol
# GULP energy per Si atom -5582.720728 kJ/mol
# Density = 2.235477 g / cm^3
# Si number density = 22.405765 Si / 1000 Ang^3
#
#
#
# Elastic Constant Matrix: (Units=GPa)
#
#
# Indices 1 2 3 4 5 6 
#
# 1 84.8393 50.4381 54.0353 0.0000 0.0000 0.0000
# 2 50.4381 201.9420 55.1058 0.0000 0.0000 0.0000
# 3 54.0353 55.1058 121.5674 0.0000 0.0000 0.0000
# 4 0.0000 0.0000 0.0000 41.1377 0.0000 0.0000
# 5 0.0000 0.0000 0.0000 0.0000 17.4849 0.0000
# 6 0.0000 0.0000 0.0000 0.0000 0.0000 46.2880
#
#
#
# Elastic Compliance Matrix: (Units=1/GPa)
#
#
# Indices 1 2 3 4 5 6 
#
# 1 0.017538 -0.002571 -0.006630 0.000000 0.000000 0.000000
# 2 -0.002571 0.006028 -0.001589 0.000000 0.000000 0.000000
# 3 -0.006630 -0.001589 0.011893 0.000000 0.000000 0.000000
# 4 0.000000 0.000000 0.000000 0.024309 0.000000 0.000000
# 5 0.000000 0.000000 0.000000 0.000000 0.057192 0.000000
# 6 0.000000 0.000000 0.000000 0.000000 0.000000 0.021604
#
#
# Mechanical properties :
#
#
# Convention : Reuss Voigt Hill
#
# Bulk Modulus (GPa) = 72.05657 80.83412 76.44534
# Shear Modulus (GPa) = 30.34494 37.56674 33.95584
#
# Velocity S-wave (km/s) = 3.68412 4.09914 3.89716
# Velocity P-wave (km/s) = 7.09413 7.65243 7.37856
#
# Compressibility (1/GPa) = 0.01387799
#
# Stress axis : x y z
#
# Youngs Moduli (GPa) = 57.01758 165.89597 84.08019
#
# Poissons Ratio (x) = 0.42656 0.55746
# Poissons Ratio (y) = 0.14661 0.13365
# Poissons Ratio (z) = 0.37803 0.26369
#
# Static dielectric constant tensor:
#      x y z
#    x 1.838990 0.000000 0.000000 
#    y 0.000000 1.800740 0.000000 
#    z 0.000000 0.000000 1.904250 
# 
# From -- ./inp_files/15192.got.cif
#   From: 2010.05.17/outbox.cif.g08.bks.cpg/sg49_8_cif.got.tgz:15192.got - 2010.06.03 21:02:19.
