data_PCOD9395093
_publ_section_title
;
Structure prediction by ZEFSAII (Michael W. Deem and Ramdas Pophale) SiO2 
 PCOD9395093
Probable space group: P C C M
;
_chemical_formula_sum "Si O2"
_cell_formula_units_Z 48
_cell_length_a 8.838772
_cell_length_b 17.438017
_cell_length_c 14.148683
_cell_angle_alpha 90.000000
_cell_angle_beta 90.000000
_cell_angle_gamma 90.000000
_cell_volume 2180.745798
_symmetry_space_group_name_H-M "P C C M"
_symmetry_group_IT_number 49
_symmetry_cell_setting 'orthorhombic'
loop_
_space_group_symop_operation_xyz
x,y,z
-x,-y,z
x,-y,1/2-z
-x,y,1/2-z
-x,-y,-z
x,y,-z
-x,y,1/2+z
x,-y,1/2+z
loop_
_atom_site_type_symbol
_atom_site_label
_atom_site_fract_x
_atom_site_fract_y
_atom_site_fract_z
Si Si1 0.794182 0.127066 0.500000
Si Si2 0.324346 0.499353 0.137606
Si Si3 0.126348 0.359925 0.327536
Si Si4 0.482782 0.770383 0.000000
Si Si5 0.173000 0.080502 0.787460
Si Si6 0.013278 0.731599 0.500000
Si Si7 0.660643 0.772300 0.701671
Si Si8 0.302925 0.633022 0.500000
O O1 0.631548 0.173676 0.500000
O O2 0.806826 0.083015 0.599327
O O3 0.947180 0.179463 0.500000
O O4 0.500000 0.500000 0.106071
O O5 0.326202 0.500000 0.250000
O O6 0.211608 0.570218 0.119471
O O7 0.271899 0.421741 0.089014
O O8 0.249963 0.306061 0.277515
O O9 0.000000 0.384058 0.250000
O O10 0.061663 0.302266 0.406377
O O11 0.379044 0.781932 0.091553
O O12 0.541736 0.681296 0.000000
O O13 0.253643 0.155190 0.744676
O O14 0.000000 0.084350 0.750000
O O15 0.237322 0.000000 0.750000
O O16 0.179320 0.697096 0.500000
O O17 0.500000 0.765123 0.750000
#
# Coordination Sequence:
#
# PCOD9395093 Si02
#       8
#     4   8   8   4   8   4   8   4
#     4  11  22  47  71 109 149 195 249 297 370 432
#     4  11  25  41  64  93 134 184 229 299 361 438
#     4  12  26  42  69 101 136 185 242 303 363 430
#     4  11  25  43  75 108 141 203 237 313 366 446
#     4  11  26  47  76 111 153 197 241 306 367 440
#     4  11  24  41  68  97 134 179 232 302 344 431
#     4  12  25  44  73 105 144 188 244 294 365 442
#     4  11  24  44  67  95 141 178 245 295 373 434
#
# _framework density 22.010818
#
# number of rings (size 3 to 8) (size 9 to 14) (size 15 to 20)
#    0.000    0.667    1.667    5.750    7.000    6.000 
#    0.000    0.833    0.000    0.000    0.000    0.000 
#    0.000    0.000    0.000    0.000    0.000    0.000 
#
# Total GULP energy -268297.814934 kJ/mol
# GULP energy per Si atom -5589.537811 kJ/mol
# Density = 2.196072 g / cm^3
# Si number density = 22.010818 Si / 1000 Ang^3
#
#
#
# Elastic Constant Matrix: (Units=GPa)
#
#
# Indices 1 2 3 4 5 6 
#
# 1 83.8082 17.2675 25.6068 0.0000 0.0000 0.0000
# 2 17.2675 92.7318 51.0863 0.0000 0.0000 0.0000
# 3 25.6068 51.0863 168.8268 0.0000 0.0000 0.0000
# 4 0.0000 0.0000 0.0000 48.0148 0.0000 0.0000
# 5 0.0000 0.0000 0.0000 0.0000 25.3841 0.0000
# 6 0.0000 0.0000 0.0000 0.0000 0.0000 12.8122
#
#
#
# Elastic Compliance Matrix: (Units=1/GPa)
#
#
# Indices 1 2 3 4 5 6 
#
# 1 0.012698 -0.001564 -0.001453 0.000000 0.000000 0.000000
# 2 -0.001564 0.013134 -0.003737 0.000000 0.000000 0.000000
# 3 -0.001453 -0.003737 0.007274 0.000000 0.000000 0.000000
# 4 0.000000 0.000000 0.000000 0.020827 0.000000 0.000000
# 5 0.000000 0.000000 0.000000 0.000000 0.039395 0.000000
# 6 0.000000 0.000000 0.000000 0.000000 0.000000 0.078051
#
#
# Mechanical properties :
#
#
# Convention : Reuss Voigt Hill
#
# Bulk Modulus (GPa) = 51.02420 59.25422 55.13921
# Shear Modulus (GPa) = 26.12071 34.00265 30.06168
#
# Velocity S-wave (km/s) = 3.44862 3.93468 3.69964
# Velocity P-wave (km/s) = 6.25212 6.90081 6.58446
#
# Compressibility (1/GPa) = 0.01959854
#
# Stress axis : x y z
#
# Youngs Moduli (GPa) = 78.75168 76.13963 137.46924
#
# Poissons Ratio (x) = 0.11910 0.19970
# Poissons Ratio (y) = 0.12319 0.51372
# Poissons Ratio (z) = 0.11440 0.28453
#
# Static dielectric constant tensor:
#      x y z
#    x 1.849930 0.000000 0.000000 
#    y 0.000000 1.803530 0.000000 
#    z 0.000000 0.000000 1.756540 
# 
# From -- ./inp_files/11910.got.cif
#   From: 2010.05.17/outbox.cif.g08.bks.cpg/sg49_6_cif.got.tgz:11910.got - 2010.06.03 21:02:19.
