data_PCOD9395847
_publ_section_title
;
Structure prediction by ZEFSAII (Michael W. Deem and Ramdas Pophale) SiO2 
 PCOD9395847
Probable space group: P B A N
;
_chemical_formula_sum "Si O2"
_cell_formula_units_Z 48
_cell_length_a 34.554314
_cell_length_b 7.635652
_cell_length_c 8.343001
_cell_angle_alpha 90.000000
_cell_angle_beta 90.000000
_cell_angle_gamma 90.000000
_cell_volume 2201.256736
_symmetry_space_group_name_H-M "P B A N"
_symmetry_group_IT_number 50
_space_group.IT_coordinate_system_code '2'
_symmetry_cell_setting 'orthorhombic'
loop_
_space_group_symop_operation_xyz
x,y,z
1/2-x,1/2-y,z
x,1/2-y,-z
1/2-x,y,-z
-x,-y,-z
1/2+x,1/2+y,-z
-x,1/2+y,z
1/2+x,-y,z
loop_
_atom_site_type_symbol
_atom_site_label
_atom_site_fract_x
_atom_site_fract_y
_atom_site_fract_z
Si Si1 0.088031 0.035745 0.176524
Si Si2 0.045232 0.459900 0.500000
Si Si3 0.750000 0.041660 0.820408
Si Si4 0.911969 0.535745 0.823476
Si Si5 0.333135 0.458976 0.321239
Si Si6 0.833135 0.958976 0.321239
O O1 0.064638 0.976200 0.334051
O O2 0.086426 0.250000 0.175297
O O3 0.132692 0.980608 0.204649
O O4 0.074553 0.977690 1.000000
O O5 0.050847 0.250000 0.500000
O O6 0.064638 0.523800 0.334052
O O7 0.000000 0.500000 0.500000
O O8 0.750000 0.250000 0.829624
O O9 0.789587 0.991290 0.733928
O O10 0.710413 0.991290 0.733928
O O11 0.750000 0.967264 0.000000
O O12 0.867307 0.480608 0.795351
O O13 0.339196 0.530517 0.500000
O O14 0.337785 0.250000 0.329749
#
# Coordination Sequence:
#
# PCOD9395847 Si02
#       6
#     8   8   8   8   8   8
#     4   9  17  32  56  82 108 139 176 222 269 311
#     4  10  20  36  56  81 110 139 175 216 265 324
#     4  11  24  37  48  72 112 151 184 220 267 323
#     4   9  17  32  56  82 108 139 176 222 269 311
#     4  10  19  34  57  82 104 134 183 233 270 314
#     4  10  19  34  57  82 104 134 183 233 270 314
#
# _framework density 21.805724999999999
#
# number of rings (size 3 to 8) (size 9 to 14) (size 15 to 20)
#    0.000    2.167    1.667    2.000    0.000    6.000 
#    0.000    1.667    0.000    2.000    0.000    0.000 
#    0.000    0.000    0.000    0.000    0.000    0.000 
#
# Total GULP energy -267985.409674 kJ/mol
# GULP energy per Si atom -5583.029368 kJ/mol
# Density = 2.175609 g / cm^3
# Si number density = 21.805725 Si / 1000 Ang^3
#
#
#
# Elastic Constant Matrix: (Units=GPa)
#
#
# Indices 1 2 3 4 5 6 
#
# 1 136.5846 -6.6623 83.7358 0.0000 0.0000 0.0000
# 2 -6.6623 38.8107 8.6742 0.0000 0.0000 0.0000
# 3 83.7358 8.6742 213.2492 0.0000 0.0000 0.0000
# 4 0.0000 0.0000 0.0000 -0.9839 0.0000 0.0000
# 5 0.0000 0.0000 0.0000 0.0000 17.8816 0.0000
# 6 0.0000 0.0000 0.0000 0.0000 0.0000 -5.1774
#
#
#
# Elastic Compliance Matrix: (Units=1/GPa)
#
#
# Indices 1 2 3 4 5 6 
#
# 1 0.009894 0.002590 -0.003991 0.000000 0.000000 0.000000
# 2 0.002590 0.026681 -0.002102 0.000000 0.000000 0.000000
# 3 -0.003991 -0.002102 0.006342 0.000000 0.000000 0.000000
# 4 0.000000 0.000000 0.000000 -1.016393 0.000000 0.000000
# 5 0.000000 0.000000 0.000000 0.000000 0.055923 0.000000
# 6 0.000000 0.000000 0.000000 0.000000 0.000000 -0.193146
#
#
# Mechanical properties :
#
#
# Convention : Reuss Voigt Hill
#
# Bulk Modulus (GPa) = 27.84621 62.23776 45.04199
# Shear Modulus (GPa) = -4.57992 22.53718 8.97863
#
# Velocity S-wave (km/s) = -1.45082 3.21837 2.03138
# Velocity P-wave (km/s) = 3.16091 6.51263 5.11887
#
# Compressibility (1/GPa) = 0.03591153
#
# Stress axis : x y z
#
# Youngs Moduli (GPa) = 101.06847 37.48040 157.68369
#
# Poissons Ratio (x) = -0.09709 0.62924
# Poissons Ratio (y) = -0.26180 0.33152
# Poissons Ratio (z) = 0.40332 0.07880
#
# Static dielectric constant tensor:
#      x y z
#    x 1.803670 0.000000 0.000000 
#    y 0.000000 1.812060 0.000000 
#    z 0.000000 0.000000 1.823030 
# 
# From -- ./inp_files/16929.got.cif
#   From: 2010.05.17/outbox.cif.g08.bks.cpg/sg50_9_cif.got.tgz:16929.got - 2010.06.03 11:33:33.
