data_PCOD9395500
_publ_section_title
;
Structure prediction by ZEFSAII (Michael W. Deem and Ramdas Pophale) SiO2 
 PCOD9395500
Probable space group: P B A N
;
_chemical_formula_sum "Si O2"
_cell_formula_units_Z 56
_cell_length_a 24.039233
_cell_length_b 7.374493
_cell_length_c 16.299920
_cell_angle_alpha 90.000000
_cell_angle_beta 90.000000
_cell_angle_gamma 90.000000
_cell_volume 2889.603452
_symmetry_space_group_name_H-M "P B A N"
_symmetry_group_IT_number 50
_space_group.IT_coordinate_system_code '2'
_symmetry_cell_setting 'orthorhombic'
loop_
_space_group_symop_operation_xyz
x,y,z
1/2-x,1/2-y,z
x,1/2-y,-z
1/2-x,y,-z
-x,-y,-z
1/2+x,1/2+y,-z
-x,1/2+y,z
1/2+x,-y,z
loop_
_atom_site_type_symbol
_atom_site_label
_atom_site_fract_x
_atom_site_fract_y
_atom_site_fract_z
Si Si1 0.369336 0.528059 0.339713
Si Si2 0.750000 0.029165 0.595710
Si Si3 0.630664 0.028059 0.660287
Si Si4 0.433851 0.532784 0.820788
Si Si5 0.933809 0.466133 0.000000
Si Si6 0.566149 0.032784 0.179212
Si Si7 0.065184 0.965834 0.500000
O O1 0.306123 0.473003 0.358130
O O2 0.370081 0.750000 0.338274
O O3 0.397516 0.465782 0.255349
O O4 0.405978 0.466803 0.417257
O O5 0.750000 0.250000 0.593808
O O6 0.750000 0.971830 0.500000
O O7 0.693877 0.973003 0.641869
O O8 0.602484 0.965782 0.744651
O O9 0.594022 0.966803 0.582743
O O10 0.500000 0.500000 0.808923
O O11 0.427758 0.750000 0.822916
O O12 0.415453 0.463436 0.910865
O O13 0.915453 0.536563 0.089135
O O14 0.923961 0.250000 0.000000
O O15 0.000000 0.500000 0.000000
O O16 0.074109 0.750000 0.500000
O O17 0.000000 0.000000 0.500000
#
# Coordination Sequence:
#
# PCOD9395500 Si02
#       7
#     8   8   8   8   8   8   8
#     4   9  16  25  39  58  80 103 131 166 198 228
#     4   9  14  24  40  57  77 103 136 170 196 223
#     4   9  16  25  39  58  80 103 131 166 198 228
#     4   9  16  26  40  60  83 106 131 160 196 237
#     4   8  14  24  38  55  79 107 131 156 189 232
#     4   9  16  26  40  60  83 106 131 160 196 237
#     4  10  18  27  39  59  83 104 125 156 198 238
#
# _framework density 19.379823999999999
#
# number of rings (size 3 to 8) (size 9 to 14) (size 15 to 20)
#    0.000    3.000    1.429    0.857    0.000    0.000 
#    0.000    0.000    0.000    0.857    0.000   11.000 
#    0.000    0.000    0.000   21.000    0.000   14.571 
#
# Total GULP energy -312241.289090 kJ/mol
# GULP energy per Si atom -5575.737305 kJ/mol
# Density = 1.933571 g / cm^3
# Si number density = 19.379824 Si / 1000 Ang^3
#
#
#
# Elastic Constant Matrix: (Units=GPa)
#
#
# Indices 1 2 3 4 5 6 
#
# 1 149.5951 -1.2478 119.2083 0.0000 0.0000 0.0000
# 2 -1.2478 70.8523 12.3139 0.0000 0.0000 0.0000
# 3 119.2083 12.3139 253.3924 0.0000 0.0000 0.0000
# 4 0.0000 0.0000 0.0000 -12.8055 0.0000 0.0000
# 5 0.0000 0.0000 0.0000 0.0000 5.6844 0.0000
# 6 0.0000 0.0000 0.0000 0.0000 0.0000 10.1000
#
#
#
# Elastic Compliance Matrix: (Units=1/GPa)
#
#
# Indices 1 2 3 4 5 6 
#
# 1 0.010775 0.001080 -0.005122 0.000000 0.000000 0.000000
# 2 0.001080 0.014342 -0.001205 0.000000 0.000000 0.000000
# 3 -0.005122 -0.001205 0.006414 0.000000 0.000000 0.000000
# 4 0.000000 0.000000 0.000000 -0.078092 0.000000 0.000000
# 5 0.000000 0.000000 0.000000 0.000000 0.175921 0.000000
# 6 0.000000 0.000000 0.000000 0.000000 0.000000 0.099010
#
#
# Mechanical properties :
#
#
# Convention : Reuss Voigt Hill
#
# Bulk Modulus (GPa) = 47.53229 81.59871 64.56550
# Shear Modulus (GPa) = 20.33537 23.50015 21.91776
#
# Velocity S-wave (km/s) = 3.24281 3.48603 3.36662
# Velocity P-wave (km/s) = 6.21297 7.64196 6.96422
#
# Compressibility (1/GPa) = 0.02103833
#
# Stress axis : x y z
#
# Youngs Moduli (GPa) = 92.80801 69.72377 155.89852
#
# Poissons Ratio (x) = -0.07529 0.79844
# Poissons Ratio (y) = -0.10022 0.18786
# Poissons Ratio (z) = 0.47532 0.08402
#
# Static dielectric constant tensor:
#      x y z
#    x 1.585950 0.000000 0.000000 
#    y 0.000000 1.767230 0.000000 
#    z 0.000000 0.000000 1.707410 
# 
# From -- ./inp_files/29739.got.cif
#   From: 2010.05.17/outbox.cif.g08.bks.cpg/sg50_15_cif.got.tgz:29739.got - 2010.06.03 11:33:33.
