data_PCOD9395387
_publ_section_title
;
Structure prediction by ZEFSAII (Michael W. Deem and Ramdas Pophale) SiO2 
 PCOD9395387
Probable space group: P B A N
;
_chemical_formula_sum "Si O2"
_cell_formula_units_Z 40
_cell_length_a 16.615124
_cell_length_b 5.468639
_cell_length_c 18.546816
_cell_angle_alpha 90.000000
_cell_angle_beta 90.000000
_cell_angle_gamma 90.000000
_cell_volume 1685.202930
_symmetry_space_group_name_H-M "P B A N"
_symmetry_group_IT_number 50
_space_group.IT_coordinate_system_code '2'
_symmetry_cell_setting 'orthorhombic'
loop_
_space_group_symop_operation_xyz
x,y,z
1/2-x,1/2-y,z
x,1/2-y,-z
1/2-x,y,-z
-x,-y,-z
1/2+x,1/2+y,-z
-x,1/2+y,z
1/2+x,-y,z
loop_
_atom_site_type_symbol
_atom_site_label
_atom_site_fract_x
_atom_site_fract_y
_atom_site_fract_z
Si Si1 0.282935 0.499524 0.082357
Si Si2 0.199997 0.000490 0.303416
Si Si3 0.842566 0.500786 0.470366
Si Si4 0.531036 0.392630 0.917198
Si Si5 0.969206 0.097601 0.749889
O O1 0.250000 0.750000 0.116647
O O2 0.378606 0.508352 0.079122
O O3 0.250000 0.250000 0.116397
O O4 0.250000 0.499788 0.000000
O O5 0.250000 0.250000 0.293190
O O6 0.164346 0.005778 0.384579
O O7 0.250000 0.750000 0.297253
O O8 0.123546 0.980015 0.251740
O O9 0.880514 0.750000 0.500000
O O10 0.750000 0.500586 0.500000
O O11 0.879641 0.250000 0.500000
O O12 0.473642 0.612351 0.943928
O O13 0.505887 0.365506 0.832937
O O14 0.982783 0.367258 0.716582
#
# Coordination Sequence:
#
# PCOD9395387 Si02
#       5
#     8   8   8   8   8
#     4  10  21  38  58  88 123 150 182 243 297 313
#     4  12  21  33  59  90 106 143 199 242 281 332
#     4  10  16  30  49  78 107 141 176 237 278 326
#     4  10  21  40  63  82 111 162 201 221 274 358
#     4  10  23  41  57  81 120 155 185 235 293 340
#
# _framework density 23.736013
#
# number of rings (size 3 to 8) (size 9 to 14) (size 15 to 20)
#    0.000    1.600    4.000    2.400    0.000    1.600 
#    0.000   12.000    0.000    3.600    0.000    0.000 
#    0.000    0.000    0.000    0.000    0.000    0.000 
#
# Total GULP energy -223599.016804 kJ/mol
# GULP energy per Si atom -5589.975420 kJ/mol
# Density = 2.368199 g / cm^3
# Si number density = 23.736013 Si / 1000 Ang^3
#
#
#
# Elastic Constant Matrix: (Units=GPa)
#
#
# Indices 1 2 3 4 5 6 
#
# 1 75.5483 46.3061 -16.2666 0.0000 0.0000 0.0000
# 2 46.3061 266.7719 18.8820 0.0000 0.0000 0.0000
# 3 -16.2666 18.8820 59.2543 0.0000 0.0000 0.0000
# 4 0.0000 0.0000 0.0000 -3.9125 0.0000 0.0000
# 5 0.0000 0.0000 0.0000 0.0000 -29.2170 0.0000
# 6 0.0000 0.0000 0.0000 0.0000 0.0000 31.4782
#
#
#
# Elastic Compliance Matrix: (Units=1/GPa)
#
#
# Indices 1 2 3 4 5 6 
#
# 1 0.016416 -0.003242 0.005540 0.000000 0.000000 0.000000
# 2 -0.003242 0.004475 -0.002316 0.000000 0.000000 0.000000
# 3 0.005540 -0.002316 0.019135 0.000000 0.000000 0.000000
# 4 0.000000 0.000000 0.000000 -0.255591 0.000000 0.000000
# 5 0.000000 0.000000 0.000000 0.000000 -0.034227 0.000000
# 6 0.000000 0.000000 0.000000 0.000000 0.000000 0.031768
#
#
# Mechanical properties :
#
#
# Convention : Reuss Voigt Hill
#
# Bulk Modulus (GPa) = 25.00590 55.49084 40.24837
# Shear Modulus (GPa) = -24.43115 23.17994 -0.62561
#
# Velocity S-wave (km/s) = -3.21173 3.12841 -0.51395
# Velocity P-wave (km/s) = 1.78766 6.03973 4.07937
#
# Compressibility (1/GPa) = 0.03999056
#
# Stress axis : x y z
#
# Youngs Moduli (GPa) = 60.91542 223.45779 52.25983
#
# Poissons Ratio (x) = 0.72436 -0.28950
# Poissons Ratio (y) = 0.19746 0.12103
# Poissons Ratio (z) = -0.33745 0.51751
#
# Static dielectric constant tensor:
#      x y z
#    x 1.841790 0.000000 0.000000 
#    y 0.000000 1.996860 0.000000 
#    z 0.000000 0.000000 1.957310 
# 
# From -- ./inp_files/29608.got.cif
#   From: 2010.05.17/outbox.cif.g08.bks.cpg/sg50_15_cif.got.tgz:29608.got - 2010.06.03 11:33:33.
