data_PCOD9395390
_publ_section_title
;
Structure prediction by ZEFSAII (Michael W. Deem and Ramdas Pophale) SiO2 
 PCOD9395390
Probable space group: P B A N
;
_chemical_formula_sum "Si O2"
_cell_formula_units_Z 44
_cell_length_a 31.262577
_cell_length_b 5.251608
_cell_length_c 16.821221
_cell_angle_alpha 90.000000
_cell_angle_beta 90.000000
_cell_angle_gamma 90.000000
_cell_volume 2761.687869
_symmetry_space_group_name_H-M "P B A N"
_symmetry_group_IT_number 50
_space_group.IT_coordinate_system_code '2'
_symmetry_cell_setting 'orthorhombic'
loop_
_space_group_symop_operation_xyz
x,y,z
1/2-x,1/2-y,z
x,1/2-y,-z
1/2-x,y,-z
-x,-y,-z
1/2+x,1/2+y,-z
-x,1/2+y,z
1/2+x,-y,z
loop_
_atom_site_type_symbol
_atom_site_label
_atom_site_fract_x
_atom_site_fract_y
_atom_site_fract_z
Si Si1 0.470834 0.250000 0.500000
Si Si2 0.906318 0.793716 0.646878
Si Si3 0.730836 0.492893 0.410233
Si Si4 0.451691 0.002551 0.964181
Si Si5 0.634597 0.292283 0.408890
Si Si6 0.028295 0.467248 0.778167
O O1 0.500000 0.500000 0.500000
O O2 0.440629 0.285991 0.424218
O O3 0.890073 0.501909 0.644233
O O4 0.870224 0.008313 0.627186
O O5 0.931782 0.892404 0.723423
O O6 0.750000 0.750000 0.374179
O O7 0.750000 0.496152 0.500000
O O8 0.680937 0.427439 0.417116
O O9 0.750000 0.250000 0.366347
O O10 0.457233 0.024071 0.870161
O O11 0.431080 0.750000 0.000000
O O12 0.429779 0.250000 0.000000
O O13 0.500000 0.000000 0.000000
O O14 0.618409 0.250000 0.500000
O O15 0.993472 0.242272 0.763480
#
# Coordination Sequence:
#
# PCOD9395390 Si02
#       6
#     4   8   8   8   8   8
#     4  12  22  36  46  58  83 122 189 224 244 268
#     4  12  25  35  49  66  94 139 166 209 269 292
#     4  10  19  30  53  78  88 109 155 212 247 283
#     4  10  16  30  51  76  90 114 151 218 265 299
#     4  12  21  38  51  69  98 127 165 213 246 313
#     4  12  21  35  52  70  97 124 177 223 250 301
#
# _framework density 15.932285
#
# number of rings (size 3 to 8) (size 9 to 14) (size 15 to 20)
#    0.000    0.727    7.273    4.364    2.545    0.000 
#    0.000    0.000    0.000    0.000    0.000    0.000 
#    0.000    0.000    0.000    0.000    0.000   63.636 
#
# Total GULP energy -244969.175216 kJ/mol
# GULP energy per Si atom -5567.481255 kJ/mol
# Density = 1.589602 g / cm^3
# Si number density = 15.932285 Si / 1000 Ang^3
#
#
#
# Elastic Constant Matrix: (Units=GPa)
#
#
# Indices 1 2 3 4 5 6 
#
# 1 47.1483 15.7897 16.1662 0.0000 0.0000 0.0000
# 2 15.7897 149.5443 7.3062 0.0000 0.0000 0.0000
# 3 16.1662 7.3062 76.6609 0.0000 0.0000 0.0000
# 4 0.0000 0.0000 0.0000 18.3674 0.0000 0.0000
# 5 0.0000 0.0000 0.0000 0.0000 5.4490 0.0000
# 6 0.0000 0.0000 0.0000 0.0000 0.0000 29.6465
#
#
#
# Elastic Compliance Matrix: (Units=1/GPa)
#
#
# Indices 1 2 3 4 5 6 
#
# 1 0.023599 -0.002259 -0.004761 0.000000 0.000000 0.000000
# 2 -0.002259 0.006935 -0.000185 0.000000 0.000000 0.000000
# 3 -0.004761 -0.000185 0.014066 0.000000 0.000000 0.000000
# 4 0.000000 0.000000 0.000000 0.054444 0.000000 0.000000
# 5 0.000000 0.000000 0.000000 0.000000 0.183521 0.000000
# 6 0.000000 0.000000 0.000000 0.000000 0.000000 0.033731
#
#
# Mechanical properties :
#
#
# Convention : Reuss Voigt Hill
#
# Bulk Modulus (GPa) = 33.12374 39.09752 36.11063
# Shear Modulus (GPa) = 14.67273 26.29865 20.48569
#
# Velocity S-wave (km/s) = 3.03800 4.06723 3.58969
# Velocity P-wave (km/s) = 5.75685 6.83005 6.31628
#
# Compressibility (1/GPa) = 0.03018983
#
# Stress axis : x y z
#
# Youngs Moduli (GPa) = 42.37512 144.20604 71.09304
#
# Poissons Ratio (x) = 0.32577 0.33849
# Poissons Ratio (y) = 0.09573 0.01312
# Poissons Ratio (z) = 0.20176 0.02661
#
# Static dielectric constant tensor:
#      x y z
#    x 1.578820 0.000000 0.000000 
#    y 0.000000 2.024650 0.000000 
#    z 0.000000 0.000000 1.571640 
# 
# From -- ./inp_files/27698.got.cif
#   From: 2010.05.17/outbox.cif.g08.bks.cpg/sg50_14_cif.got.tgz:27698.got - 2010.06.03 11:33:33.
