data_PCOD9395466
_publ_section_title
;
Structure prediction by ZEFSAII (Michael W. Deem and Ramdas Pophale) SiO2 
 PCOD9395466
Probable space group: P B A N
;
_chemical_formula_sum "Si O2"
_cell_formula_units_Z 46
_cell_length_a 18.771639
_cell_length_b 15.353431
_cell_length_c 7.933906
_cell_angle_alpha 90.000000
_cell_angle_beta 90.000000
_cell_angle_gamma 90.000000
_cell_volume 2286.623623
_symmetry_space_group_name_H-M "P B A N"
_symmetry_group_IT_number 50
_space_group.IT_coordinate_system_code '2'
_symmetry_cell_setting 'orthorhombic'
loop_
_space_group_symop_operation_xyz
x,y,z
1/2-x,1/2-y,z
x,1/2-y,-z
1/2-x,y,-z
-x,-y,-z
1/2+x,1/2+y,-z
-x,1/2+y,z
1/2+x,-y,z
loop_
_atom_site_type_symbol
_atom_site_label
_atom_site_fract_x
_atom_site_fract_y
_atom_site_fract_z
Si Si1 0.108002 0.628096 0.924963
Si Si2 0.064433 0.417582 0.343778
Si Si3 0.750000 0.250000 0.500000
Si Si4 0.989348 0.250000 0.500000
Si Si5 0.133809 0.808738 0.737330
Si Si6 0.438046 0.148452 0.001573
Si Si7 0.918444 0.524558 0.303738
O O1 0.133291 0.715394 0.832289
O O2 0.122624 0.549876 0.798592
O O3 0.022919 0.637961 0.960042
O O4 0.137979 0.622066 0.113446
O O5 0.097507 0.401607 0.159919
O O6 0.105929 0.452656 0.507571
O O7 0.033697 0.322648 0.400521
O O8 0.998236 0.484057 0.319766
O O9 0.800568 0.190665 0.386926
O O10 0.937937 0.195663 0.373919
O O11 0.421107 0.250000 0.000000
O O12 0.421785 0.105943 0.822086
#
# Coordination Sequence:
#
# PCOD9395466 Si02
#       7
#     8   8   2   4   8   8   8
#     4  10  17  32  46  64  84 134 160 197 239 296
#     4  10  18  27  41  65  93 125 164 214 219 267
#     4  10  24  34  44  80  80 118 158 220 268 288
#     4  11  16  29  46  64  92 132 168 191 236 285
#     4  10  19  32  50  63  92 117 167 203 245 305
#     4  11  18  30  44  68  96 132 171 197 231 271
#     4  10  20  28  41  68  95 121 170 204 231 268
#
# _framework density 20.116996
#
# number of rings (size 3 to 8) (size 9 to 14) (size 15 to 20)
#    0.000    1.739    5.217    4.174    0.000    2.783 
#    0.000    0.000    0.000    0.000    0.000    0.000 
#    0.000    0.000    0.000    4.696    0.000    0.174 
#
# Total GULP energy -256716.608851 kJ/mol
# GULP energy per Si atom -5580.795845 kJ/mol
# Density = 2.007121 g / cm^3
# Si number density = 20.116996 Si / 1000 Ang^3
#
#
#
# Elastic Constant Matrix: (Units=GPa)
#
#
# Indices 1 2 3 4 5 6 
#
# 1 12.3963 0.6747 13.6779 0.0000 0.0000 0.0000
# 2 0.6747 77.5348 27.8324 0.0000 0.0000 0.0000
# 3 13.6779 27.8324 159.8848 0.0000 0.0000 0.0000
# 4 0.0000 0.0000 0.0000 40.5815 0.0000 0.0000
# 5 0.0000 0.0000 0.0000 0.0000 6.4540 0.0000
# 6 0.0000 0.0000 0.0000 0.0000 0.0000 1.2315
#
#
#
# Elastic Compliance Matrix: (Units=1/GPa)
#
#
# Indices 1 2 3 4 5 6 
#
# 1 0.089396 0.002098 -0.008013 0.000000 0.000000 0.000000
# 2 0.002098 0.013806 -0.002583 0.000000 0.000000 0.000000
# 3 -0.008013 -0.002583 0.007390 0.000000 0.000000 0.000000
# 4 0.000000 0.000000 0.000000 0.024642 0.000000 0.000000
# 5 0.000000 0.000000 0.000000 0.000000 0.154942 0.000000
# 6 0.000000 0.000000 0.000000 0.000000 0.000000 0.811998
#
#
# Mechanical properties :
#
#
# Convention : Reuss Voigt Hill
#
# Bulk Modulus (GPa) = 10.68408 37.13179 23.90793
# Shear Modulus (GPa) = 4.34643 23.49546 13.92095
#
# Velocity S-wave (km/s) = 1.47148 3.42122 2.63344
# Velocity P-wave (km/s) = 2.86523 5.83989 4.59967
#
# Compressibility (1/GPa) = 0.09359723
#
# Stress axis : x y z
#
# Youngs Moduli (GPa) = 11.18616 72.43048 135.32470
#
# Poissons Ratio (x) = -0.15199 1.08436
# Poissons Ratio (y) = -0.02347 0.34953
# Poissons Ratio (z) = 0.08963 0.18708
#
# Static dielectric constant tensor:
#      x y z
#    x 1.694520 0.000000 0.000000 
#    y 0.000000 1.764820 0.000000 
#    z 0.000000 0.000000 1.813460 
# 
# From -- ./inp_files/16069.got.cif
#   From: 2010.05.17/outbox.cif.g08.bks.cpg/sg50_9_cif.got.tgz:16069.got - 2010.06.03 11:33:33.
