data_PCOD9395227
_publ_section_title
;
Structure prediction by ZEFSAII (Michael W. Deem and Ramdas Pophale) SiO2 
 PCOD9395227
Probable space group: P C C M
;
_chemical_formula_sum "Si O2"
_cell_formula_units_Z 64
_cell_length_a 30.000000
_cell_length_b 15.000000
_cell_length_c 9.000000
_cell_angle_alpha 90.000000
_cell_angle_beta 90.000000
_cell_angle_gamma 90.000000
_cell_volume 4050.000000
_symmetry_space_group_name_H-M "P C C M"
_symmetry_group_IT_number 49
_symmetry_cell_setting 'orthorhombic'
loop_
_space_group_symop_operation_xyz
x,y,z
-x,-y,z
x,-y,1/2-z
-x,y,1/2-z
-x,-y,-z
x,y,-z
-x,y,1/2+z
x,-y,1/2+z
loop_
_atom_site_type_symbol
_atom_site_label
_atom_site_fract_x
_atom_site_fract_y
_atom_site_fract_z
Si Si1 0.593073 0.902084 0.181450
Si Si2 0.621610 0.598312 0.819692
Si Si3 0.233028 0.783546 0.319960
Si Si4 0.853734 0.098716 0.321794
Si Si5 0.548096 0.731339 0.318827
Si Si6 0.725808 0.403649 0.322619
Si Si7 0.689926 0.903167 0.680293
Si Si8 0.954911 0.098921 0.679035
O O1 0.560383 0.828124 0.249944
O O2 0.642542 0.878747 0.244089
O O3 0.583192 0.000000 0.250000
O O4 0.592605 0.903136 0.000000
O O5 0.614544 0.500000 0.750000
O O6 0.586805 0.665357 0.742373
O O7 0.673858 0.621196 0.788345
O O8 0.615762 0.598363 0.000000
O O9 0.239003 0.792065 0.500000
O O10 0.185566 0.830950 0.282871
O O11 0.241606 0.678946 0.283141
O O12 0.271566 0.837062 0.234021
O O13 0.852036 0.086306 0.500000
O O14 0.904401 0.132789 0.287504
O O15 0.847076 0.000000 0.250000
O O16 0.500000 0.704907 0.250000
O O17 0.547213 0.732602 0.500000
O O18 0.735347 0.500000 0.250000
O O19 0.728109 0.415175 0.500000
O O20 0.686115 0.907027 0.500000
O O21 0.700892 0.000000 0.750000
O O22 0.960018 0.095236 0.500000
O O23 0.000000 0.141414 0.750000
O O24 0.953708 0.000000 0.750000
#
# Coordination Sequence:
#
# PCOD9395227 Si02
#       8
#     8   8   8   8   8   8   8   8
#     4  11  22  39  59  79 102 132 168 206 243 284
#     4  10  20  37  59  83 106 132 162 198 241 291
#     4  10  19  32  48  69  98 132 163 199 244 292
#     4   9  18  29  42  62  93 129 167 203 243 289
#     4  12  25  41  59  82 107 133 163 199 242 292
#     4   9  19  34  54  75  98 125 157 194 236 283
#     4  11  21  33  50  74 101 132 166 201 237 282
#     4   9  15  24  38  57  81 117 161 205 244 285
#
# _framework density 15.802469
#
# number of rings (size 3 to 8) (size 9 to 14) (size 15 to 20)
#    0.000    1.875    0.000    6.375    0.000    4.500 
#    0.000    2.500    0.000    0.000    0.000    0.000 
#    0.000    0.500    0.000    6.250    0.000    0.000 
#
# Total GULP energy -356943.284489 kJ/mol
# GULP energy per Si atom -5577.238820 kJ/mol
# Density = 1.576650 g / cm^3
# Si number density = 15.802469 Si / 1000 Ang^3
#
#
#
# Elastic Constant Matrix: (Units=GPa)
#
#
# Indices 1 2 3 4 5 6 
#
# 1 103.6969 63.7469 37.5089 0.0000 0.0000 0.0000
# 2 63.7469 82.3089 31.2177 0.0000 0.0000 0.0000
# 3 37.5089 31.2177 106.5640 0.0000 0.0000 0.0000
# 4 0.0000 0.0000 0.0000 27.1098 0.0000 0.0000
# 5 0.0000 0.0000 0.0000 0.0000 22.2422 0.0000
# 6 0.0000 0.0000 0.0000 0.0000 0.0000 23.7168
#
#
#
# Elastic Compliance Matrix: (Units=1/GPa)
#
#
# Indices 1 2 3 4 5 6 
#
# 1 0.019066 -0.013749 -0.002683 0.000000 0.000000 0.000000
# 2 -0.013749 0.023582 -0.002069 0.000000 0.000000 0.000000
# 3 -0.002683 -0.002069 0.010935 0.000000 0.000000 0.000000
# 4 0.000000 0.000000 0.000000 0.036887 0.000000 0.000000
# 5 0.000000 0.000000 0.000000 0.000000 0.044959 0.000000
# 6 0.000000 0.000000 0.000000 0.000000 0.000000 0.042164
#
#
# Mechanical properties :
#
#
# Convention : Reuss Voigt Hill
#
# Bulk Modulus (GPa) = 60.31046 61.94631 61.12839
# Shear Modulus (GPa) = 22.71468 25.28687 24.00077
#
# Velocity S-wave (km/s) = 3.79544 4.00457 3.90140
# Velocity P-wave (km/s) = 7.57992 7.78894 7.68514
#
# Compressibility (1/GPa) = 0.01658087
#
# Stress axis : x y z
#
# Youngs Moduli (GPa) = 52.44971 42.40503 91.45250
#
# Poissons Ratio (x) = 0.58301 0.24539
# Poissons Ratio (y) = 0.72111 0.18922
# Poissons Ratio (z) = 0.14074 0.08774
#
# Static dielectric constant tensor:
#      x y z
#    x 1.560680 0.000000 0.000000 
#    y 0.000000 1.526050 0.000000 
#    z 0.000000 0.000000 1.527010 
# 
# From -- ./inp_files/7080.got.cif
#   From: 2010.05.17/outbox.ucp.g08.bks.cvg/sg49_4_cif.got.tgz:7080.got - 2010.06.11 16:40:14.
