data_PCOD9395688
_publ_section_title
;
Structure prediction by ZEFSAII (Michael W. Deem and Ramdas Pophale) SiO2 
 PCOD9395688
Probable space group: P B A N
;
_chemical_formula_sum "Si O2"
_cell_formula_units_Z 36
_cell_length_a 31.811123
_cell_length_b 5.222528
_cell_length_c 12.425390
_cell_angle_alpha 90.000000
_cell_angle_beta 90.000000
_cell_angle_gamma 90.000000
_cell_volume 2064.285714
_symmetry_space_group_name_H-M "P B A N"
_symmetry_group_IT_number 50
_space_group.IT_coordinate_system_code '2'
_symmetry_cell_setting 'orthorhombic'
loop_
_space_group_symop_operation_xyz
x,y,z
1/2-x,1/2-y,z
x,1/2-y,-z
1/2-x,y,-z
-x,-y,-z
1/2+x,1/2+y,-z
-x,1/2+y,z
1/2+x,-y,z
loop_
_atom_site_type_symbol
_atom_site_label
_atom_site_fract_x
_atom_site_fract_y
_atom_site_fract_z
Si Si1 0.230937 0.008925 0.378237
Si Si2 0.093718 0.721116 0.302066
Si Si3 0.970823 0.250000 0.500000
Si Si4 0.973733 0.257315 0.871325
Si Si5 0.636307 0.780880 0.376544
O O1 0.250000 0.250000 0.317415
O O2 0.250000 0.005093 0.500000
O O3 0.182175 0.083569 0.386202
O O4 0.250000 0.750000 0.330323
O O5 0.059160 0.715357 0.396929
O O6 0.069059 0.685371 0.191252
O O7 0.128601 0.500468 0.325637
O O8 0.111248 0.008054 0.309943
O O9 0.000000 0.500000 0.500000
O O10 0.006473 0.482607 0.841718
O O11 0.967848 0.250000 0.000000
O O12 0.621146 0.750000 0.500000
#
# Coordination Sequence:
#
# PCOD9395688 Si02
#       5
#     8   8   4   8   8
#     4  10  19  30  50  69 100 148 180 214 240 309
#     4  12  23  35  52  76 112 142 182 224 279 330
#     4  12  22  32  46  68 103 144 179 210 258 328
#     4  10  21  40  62  79 100 140 193 244 282 316
#     4  12  21  35  49  78 112 152 174 212 276 323
#
# _framework density 17.439446
#
# number of rings (size 3 to 8) (size 9 to 14) (size 15 to 20)
#    0.000    0.889    4.444    5.333    3.111    0.000 
#    0.000    0.000    0.000    0.000    0.000    0.000 
#    0.000   13.333    0.000    0.000    0.000    0.000 
#
# Total GULP energy -200538.842395 kJ/mol
# GULP energy per Si atom -5570.523400 kJ/mol
# Density = 1.739975 g / cm^3
# Si number density = 17.439446 Si / 1000 Ang^3
#
#
#
# Elastic Constant Matrix: (Units=GPa)
#
#
# Indices 1 2 3 4 5 6 
#
# 1 63.3577 17.8481 14.8045 0.0000 0.0000 0.0000
# 2 17.8481 144.8029 9.2007 0.0000 0.0000 0.0000
# 3 14.8045 9.2007 27.3718 0.0000 0.0000 0.0000
# 4 0.0000 0.0000 0.0000 10.0525 0.0000 0.0000
# 5 0.0000 0.0000 0.0000 0.0000 40.2663 0.0000
# 6 0.0000 0.0000 0.0000 0.0000 0.0000 43.7638
#
#
#
# Elastic Compliance Matrix: (Units=1/GPa)
#
#
# Indices 1 2 3 4 5 6 
#
# 1 0.018457 -0.001676 -0.009419 0.000000 0.000000 0.000000
# 2 -0.001676 0.007209 -0.001516 0.000000 0.000000 0.000000
# 3 -0.009419 -0.001516 0.042138 0.000000 0.000000 0.000000
# 4 0.000000 0.000000 0.000000 0.099478 0.000000 0.000000
# 5 0.000000 0.000000 0.000000 0.000000 0.024835 0.000000
# 6 0.000000 0.000000 0.000000 0.000000 0.000000 0.022850
#
#
# Mechanical properties :
#
#
# Convention : Reuss Voigt Hill
#
# Bulk Modulus (GPa) = 23.48534 35.47101 29.47817
# Shear Modulus (GPa) = 19.65540 31.72847 25.69193
#
# Velocity S-wave (km/s) = 3.36082 4.27001 3.84240
# Velocity P-wave (km/s) = 5.34380 6.68538 6.05188
#
# Compressibility (1/GPa) = 0.04257976
#
# Stress axis : x y z
#
# Youngs Moduli (GPa) = 54.18122 138.71692 23.73145
#
# Poissons Ratio (x) = 0.23255 0.22353
# Poissons Ratio (y) = 0.09083 0.03599
# Poissons Ratio (z) = 0.51034 0.21036
#
# Static dielectric constant tensor:
#      x y z
#    x 1.704930 0.000000 0.000000 
#    y 0.000000 1.468200 0.000000 
#    z 0.000000 0.000000 1.513460 
# 
# From -- ./inp_files/17962.got.cif
#   From: 2010.05.17/outbox.cif.g08.bks.cpg/sg50_9_cif.got.tgz:17962.got - 2010.06.03 11:33:33.
