data_PCOD9395359
_publ_section_title
;
Structure prediction by ZEFSAII (Michael W. Deem and Ramdas Pophale) SiO2 
 PCOD9395359
Probable space group: P B A N
;
_chemical_formula_sum "Si O2"
_cell_formula_units_Z 34
_cell_length_a 5.465521
_cell_length_b 34.834138
_cell_length_c 8.633250
_cell_angle_alpha 90.000000
_cell_angle_beta 90.000000
_cell_angle_gamma 90.000000
_cell_volume 1643.656088
_symmetry_space_group_name_H-M "P B A N"
_symmetry_group_IT_number 50
_space_group.IT_coordinate_system_code '2'
_symmetry_cell_setting 'orthorhombic'
loop_
_space_group_symop_operation_xyz
x,y,z
1/2-x,1/2-y,z
x,1/2-y,-z
1/2-x,y,-z
-x,-y,-z
1/2+x,1/2+y,-z
-x,1/2+y,z
1/2+x,-y,z
loop_
_atom_site_type_symbol
_atom_site_label
_atom_site_fract_x
_atom_site_fract_y
_atom_site_fract_z
Si Si1 0.495171 0.727471 0.791766
Si Si2 0.504497 0.860932 0.169577
Si Si3 0.504025 0.392542 0.818435
Si Si4 0.497045 0.984162 0.821430
Si Si5 0.750000 0.250000 0.500000
O O1 0.250000 0.750000 0.845479
O O2 0.511054 0.684649 0.853949
O O3 0.427978 0.725358 0.609094
O O4 0.750000 0.750000 0.816441
O O5 0.252215 0.874256 0.248118
O O6 0.752572 0.875623 0.249147
O O7 0.500234 0.880099 0.999420
O O8 0.508911 0.438363 0.817014
O O9 0.248975 0.000739 0.750112
O O10 0.500000 0.000000 0.000000
#
# Coordination Sequence:
#
# PCOD9395359 Si02
#       5
#     8   8   8   8   2
#     4  10  20  35  52  71  85 117 155 197 243 283
#     4  10  18  31  46  63  95 126 156 187 237 268
#     4  10  19  30  42  67 100 134 155 188 225 262
#     4  10  16  25  41  60  86 130 170 187 207 251
#     4   8  22  36  58  66  90 104 158 204 250 278
#
# _framework density 20.685593000000001
#
# number of rings (size 3 to 8) (size 9 to 14) (size 15 to 20)
#    0.706    1.412    0.000    8.824    0.000    0.000 
#    0.000   14.118    0.000    0.000    0.000    0.000 
#    0.000    0.000    0.000   78.353    0.000    0.000 
#
# Total GULP energy -189452.768010 kJ/mol
# GULP energy per Si atom -5572.140236 kJ/mol
# Density = 2.063851 g / cm^3
# Si number density = 20.685593 Si / 1000 Ang^3
#
#
#
# Elastic Constant Matrix: (Units=GPa)
#
#
# Indices 1 2 3 4 5 6 
#
# 1 271.6246 107.1210 -1.0327 0.0000 0.0000 0.0000
# 2 107.1210 223.1796 -0.7726 0.0000 0.0000 0.0000
# 3 -1.0327 -0.7726 21.5826 0.0000 0.0000 0.0000
# 4 0.0000 0.0000 0.0000 -7.8155 0.0000 0.0000
# 5 0.0000 0.0000 0.0000 0.000050109.9306 0.0000
# 6 0.0000 0.0000 0.0000 0.0000 0.0000 40.9799
#
#
#
# Elastic Compliance Matrix: (Units=1/GPa)
#
#
# Indices 1 2 3 4 5 6 
#
# 1 0.004542 -0.002179 0.000139 0.000000 0.000000 0.000000
# 2 -0.002179 0.005527 0.000094 0.000000 0.000000 0.000000
# 3 0.000139 0.000094 0.046344 0.000000 0.000000 0.000000
# 4 0.000000 0.000000 0.000000 -0.127950 0.000000 0.000000
# 5 0.000000 0.000000 0.000000 0.000000 0.000020 0.000000
# 6 0.000000 0.000000 0.000000 0.000000 0.000000 0.024402
#
#
# Mechanical properties :
#
#
# Convention : Reuss Voigt Hill
#
# Bulk Modulus (GPa) = 19.04064 80.77982 49.91023
# Shear Modulus (GPa) = -194.42844 10056.02372 4930.79764
#
# Velocity S-wave (km/s) = -9.70548 69.79914 48.87598
# Velocity P-wave (km/s) = 10.78750 80.83953 56.65094
#
# Compressibility (1/GPa) = 0.05251925
#
# Stress axis : x y z
#
# Youngs Moduli (GPa) = 220.18871 180.92788 21.57794
#
# Poissons Ratio (x) = 0.39431 -0.00301
# Poissons Ratio (y) = 0.47987 -0.00202
# Poissons Ratio (z) = -0.03067 -0.01693
#
# Static dielectric constant tensor:
#      x y z
#    x 1.926330 0.000000 0.000000 
#    y 0.000000 1.592820 0.000000 
#    z 0.000000 0.000000 1.785700 
# 
# From -- ./inp_files/23245.got.cif
#   From: 2010.05.17/outbox.cif.g08.bks.cpg/sg50_12_cif.got.tgz:23245.got - 2010.06.03 11:33:33.
