data_PCOD9395265
_publ_section_title
;
Structure prediction by ZEFSAII (Michael W. Deem and Ramdas Pophale) SiO2 
 PCOD9395265
Probable space group: P C C M
;
_chemical_formula_sum "Si O2"
_cell_formula_units_Z 54
_cell_length_a 15.000000
_cell_length_b 12.000000
_cell_length_c 15.000000
_cell_angle_alpha 90.000000
_cell_angle_beta 90.000000
_cell_angle_gamma 90.000000
_cell_volume 2700.000000
_symmetry_space_group_name_H-M "P C C M"
_symmetry_group_IT_number 49
_symmetry_cell_setting 'orthorhombic'
loop_
_space_group_symop_operation_xyz
x,y,z
-x,-y,z
x,-y,1/2-z
-x,y,1/2-z
-x,-y,-z
x,y,-z
-x,y,1/2+z
x,-y,1/2+z
loop_
_atom_site_type_symbol
_atom_site_label
_atom_site_fract_x
_atom_site_fract_y
_atom_site_fract_z
Si Si1 0.875731 0.063805 0.603397
Si Si2 0.366636 0.547062 0.395195
Si Si3 0.287245 0.768987 0.601796
Si Si4 0.872110 0.199303 0.899060
Si Si5 0.323922 0.289813 0.399155
Si Si6 0.604732 0.875460 0.251881
Si Si7 0.000000 0.830873 0.750000
Si Si8 0.500000 0.500000 0.250000
O O1 0.906186 0.075665 0.500000
O O2 0.798555 0.154910 0.617685
O O3 0.945839 0.096979 0.678136
O O4 0.851009 0.933463 0.613155
O O5 0.395979 0.555559 0.500000
O O6 0.286345 0.635580 0.384366
O O7 0.341977 0.418758 0.377999
O O8 0.440547 0.571012 0.319594
O O9 0.311920 0.787330 0.500000
O O10 0.362798 0.814685 0.664323
O O11 0.781148 0.266818 0.895940
O O12 0.933978 0.233805 0.816523
O O13 0.909767 0.211652 0.000000
O O14 0.355693 0.270248 0.500000
O O15 0.366497 0.200544 0.333926
O O16 0.500000 0.884627 0.250000
O O17 0.644678 0.000000 0.250000
#
# Coordination Sequence:
#
# PCOD9395265 Si02
#       8
#     8   8   8   8   8   8   4   2
#     4  10  20  34  55  82 112 148 187 229 283 341
#     4  10  23  39  61  88 111 148 195 239 293 343
#     4  10  22  40  60  83 114 152 193 238 285 342
#     4  10  20  34  55  82 112 148 187 229 283 341
#     4  10  22  40  60  83 114 152 193 238 285 342
#     4  11  24  38  55  83 114 150 194 234 286 346
#     4  12  21  32  54  85 118 143 178 236 287 338
#     4  12  22  36  56  82 118 142 178 248 292 328
#
# _framework density 20.0
#
# number of rings (size 3 to 8) (size 9 to 14) (size 15 to 20)
#    0.000    1.630    0.000    4.667    4.148    3.556 
#    0.000    1.481    0.000    1.778    0.000    5.185 
#    0.000    0.000    0.000    0.000    0.000    0.000 
#
# Total GULP energy -301165.302312 kJ/mol
# GULP energy per Si atom -5577.135228 kJ/mol
# Density = 1.995448 g / cm^3
# Si number density = 20.000000 Si / 1000 Ang^3
#
#
#
# Elastic Constant Matrix: (Units=GPa)
#
#
# Indices 1 2 3 4 5 6 
#
# 1 59.1802 49.3402 78.0579 0.0000 0.0000 0.0000
# 2 49.3402 95.8409 28.7678 0.0000 0.0000 0.0000
# 3 78.0579 28.7678 58.4528 0.0000 0.0000 0.0000
# 4 0.0000 0.0000 0.0000 20.0313 0.0000 0.0000
# 5 0.0000 0.0000 0.0000 0.0000 38.4991 0.0000
# 6 0.0000 0.0000 0.0000 0.0000 0.0000 35.0017
#
#
#
# Elastic Compliance Matrix: (Units=1/GPa)
#
#
# Indices 1 2 3 4 5 6 
#
# 1 -0.021497 0.002875 0.027292 0.000000 0.000000 0.000000
# 2 0.002875 0.011858 -0.009675 0.000000 0.000000 0.000000
# 3 0.027292 -0.009675 -0.014576 0.000000 0.000000 0.000000
# 4 0.000000 0.000000 0.000000 0.049922 0.000000 0.000000
# 5 0.000000 0.000000 0.000000 0.000000 0.025975 0.000000
# 6 0.000000 0.000000 0.000000 0.000000 0.000000 0.028570
#
#
# Mechanical properties :
#
#
# Convention : Reuss Voigt Hill
#
# Bulk Modulus (GPa) = 59.63544 58.42283 59.02913
# Shear Modulus (GPa) = 111.46051 22.52695 66.99373
#
# Velocity S-wave (km/s) = 7.47337 3.35975 5.79393
# Velocity P-wave (km/s) = 10.21522 6.65773 8.62195
#
# Compressibility (1/GPa) = 0.01676855
#
# Stress axis : x y z
#
# Youngs Moduli (GPa) = -46.51909 84.33101 -68.60678
#
# Poissons Ratio (x) = -0.24244 1.87239
# Poissons Ratio (y) = 0.13373 -0.66377
# Poissons Ratio (z) = 1.26958 0.81590
#
# Static dielectric constant tensor:
#      x y z
#    x 1.255880 0.000000 0.000000 
#    y 0.000000 1.719540 0.000000 
#    z 0.000000 0.000000 1.720600 
# 
# From -- ./inp_files/13638.got.cif
#   From: 2010.05.17/outbox.ucp.g08.bks.cvg/sg49_7_cif.got.tgz:13638.got - 2010.06.11 16:40:14.
