data_PCOD9395519
_publ_section_title
;
Structure prediction by ZEFSAII (Michael W. Deem and Ramdas Pophale) SiO2 
 PCOD9395519
Probable space group: P B A N
;
_chemical_formula_sum "Si O2"
_cell_formula_units_Z 40
_cell_length_a 8.747065
_cell_length_b 20.100501
_cell_length_c 11.459814
_cell_angle_alpha 90.000000
_cell_angle_beta 90.000000
_cell_angle_gamma 90.000000
_cell_volume 2014.868953
_symmetry_space_group_name_H-M "P B A N"
_symmetry_group_IT_number 50
_space_group.IT_coordinate_system_code '2'
_symmetry_cell_setting 'orthorhombic'
loop_
_space_group_symop_operation_xyz
x,y,z
1/2-x,1/2-y,z
x,1/2-y,-z
1/2-x,y,-z
-x,-y,-z
1/2+x,1/2+y,-z
-x,1/2+y,z
1/2+x,-y,z
loop_
_atom_site_type_symbol
_atom_site_label
_atom_site_fract_x
_atom_site_fract_y
_atom_site_fract_z
Si Si1 0.138923 0.432136 0.609640
Si Si2 0.812122 0.677476 0.194778
Si Si3 0.113080 0.064380 0.919588
Si Si4 0.654708 0.037664 0.720876
Si Si5 0.384442 0.862750 0.079502
O O1 0.250000 0.422567 0.500000
O O2 0.158276 0.368082 0.692489
O O3 0.202208 0.498497 0.671728
O O4 0.956812 0.444041 0.613036
O O5 0.750000 0.750000 0.219947
O O6 0.686579 0.633730 0.125779
O O7 0.971905 0.680879 0.123386
O O8 0.082304 0.016611 0.810850
O O9 0.250000 0.035905 0.000000
O O10 0.968531 0.082020 0.998248
O O11 0.680428 0.101000 0.804412
O O12 0.250000 0.833311 0.000000
#
# Coordination Sequence:
#
# PCOD9395519 Si02
#       5
#     8   8   8   8   8
#     4  10  20  33  52  74  98 134 174 219 264 300
#     4   9  20  36  50  69 101 138 175 211 248 302
#     4   9  17  29  48  72 103 139 162 193 249 311
#     4  10  18  30  48  75 106 128 163 208 254 310
#     4  10  18  29  50  77 102 130 162 202 252 307
#
# _framework density 19.852409000000002
#
# number of rings (size 3 to 8) (size 9 to 14) (size 15 to 20)
#    0.000    2.400    0.000    4.200    0.000    4.000 
#    0.000    2.000    0.000    0.000    0.000    0.000 
#    0.000   19.200    0.000    0.000    0.000    0.000 
#
# Total GULP energy -222956.082397 kJ/mol
# GULP energy per Si atom -5573.902060 kJ/mol
# Density = 1.980722 g / cm^3
# Si number density = 19.852409 Si / 1000 Ang^3
#
#
#
# Elastic Constant Matrix: (Units=GPa)
#
#
# Indices 1 2 3 4 5 6 
#
# 1 82.6895 29.4003 28.5355 0.0000 0.0000 0.0000
# 2 29.4003 70.6717 -4.2417 0.0000 0.0000 0.0000
# 3 28.5355 -4.2417 54.1261 0.0000 0.0000 0.0000
# 4 0.0000 0.0000 0.0000 -5.5102 0.0000 0.0000
# 5 0.0000 0.0000 0.0000 0.0000 38.9171 0.0000
# 6 0.0000 0.0000 0.0000 0.0000 0.0000 10.8070
#
#
#
# Elastic Compliance Matrix: (Units=1/GPa)
#
#
# Indices 1 2 3 4 5 6 
#
# 1 0.018721 -0.008420 -0.010530 0.000000 0.000000 0.000000
# 2 -0.008420 0.018004 0.005850 0.000000 0.000000 0.000000
# 3 -0.010530 0.005850 0.024485 0.000000 0.000000 0.000000
# 4 0.000000 0.000000 0.000000 -0.181483 0.000000 0.000000
# 5 0.000000 0.000000 0.000000 0.000000 0.025696 0.000000
# 6 0.000000 0.000000 0.000000 0.000000 0.000000 0.092532
#
#
# Mechanical properties :
#
#
# Convention : Reuss Voigt Hill
#
# Bulk Modulus (GPa) = 28.56284 34.98615 31.77449
# Shear Modulus (GPa) = 139.57138 19.09569 79.33353
#
# Velocity S-wave (km/s) = 8.39387 3.10479 6.32838
# Velocity P-wave (km/s) = 10.40969 5.52398 8.33295
#
# Compressibility (1/GPa) = 0.03501053
#
# Stress axis : x y z
#
# Youngs Moduli (GPa) = 53.41632 55.54347 40.84129
#
# Poissons Ratio (x) = 0.46768 0.43004
# Poissons Ratio (y) = 0.44977 -0.23892
# Poissons Ratio (z) = 0.56245 -0.32493
#
# Static dielectric constant tensor:
#      x y z
#    x 1.780780 0.000000 0.000000 
#    y 0.000000 1.688450 0.000000 
#    z 0.000000 0.000000 1.741300 
# 
# From -- ./inp_files/18748.got.cif
#   From: 2010.05.17/outbox.cif.g08.bks.cpg/sg50_10_cif.got.tgz:18748.got - 2010.06.03 11:33:33.
