data_PCOD9395109
_publ_section_title
;
Structure prediction by ZEFSAII (Michael W. Deem and Ramdas Pophale) SiO2 
 PCOD9395109
Probable space group: P C C M
;
_chemical_formula_sum "Si O2"
_cell_formula_units_Z 28
_cell_length_a 8.559997
_cell_length_b 9.903364
_cell_length_c 15.809096
_cell_angle_alpha 90.000000
_cell_angle_beta 90.000000
_cell_angle_gamma 90.000000
_cell_volume 1340.180798
_symmetry_space_group_name_H-M "P C C M"
_symmetry_group_IT_number 49
_symmetry_cell_setting 'orthorhombic'
loop_
_space_group_symop_operation_xyz
x,y,z
-x,-y,z
x,-y,1/2-z
-x,y,1/2-z
-x,-y,-z
x,y,-z
-x,y,1/2+z
x,-y,1/2+z
loop_
_atom_site_type_symbol
_atom_site_label
_atom_site_fract_x
_atom_site_fract_y
_atom_site_fract_z
Si Si1 0.163101 0.913437 0.175204
Si Si2 0.096131 0.636779 0.859393
Si Si3 0.315058 0.024937 0.500000
Si Si4 0.872435 0.749398 0.000000
Si Si5 0.682959 0.518532 0.500000
O O1 0.146413 0.756027 0.204041
O O2 0.242498 0.000000 0.250000
O O3 0.258949 0.907752 0.087666
O O4 0.000000 0.000000 0.162020
O O5 0.000000 0.500000 0.837013
O O6 0.241290 0.588949 0.917403
O O7 0.981560 0.722363 0.919998
O O8 0.216160 0.887716 0.500000
O O9 0.500000 0.000000 0.500000
O O10 0.749028 0.631159 0.000000
O O11 0.500000 0.500000 0.500000
#
# Coordination Sequence:
#
# PCOD9395109 Si02
#       5
#     8   8   4   4   4
#     4  11  23  41  66  96 124 166 220 269 317 389
#     4   9  18  36  60  85 127 162 202 274 317 373
#     4  12  24  37  65  91 135 175 211 267 331 389
#     4   9  17  33  54  89 124 157 215 254 316 387
#     4   9  18  29  57  93 125 161 217 259 317 389
#
# _framework density 20.892703999999998
#
# number of rings (size 3 to 8) (size 9 to 14) (size 15 to 20)
#    0.000    2.000    2.857    3.857    4.000    0.571 
#    0.000    2.857    0.000    0.000    0.000    2.000 
#    0.000    0.000    0.000    0.000    0.000    0.000 
#
# Total GULP energy -156045.105192 kJ/mol
# GULP energy per Si atom -5573.039471 kJ/mol
# Density = 2.084515 g / cm^3
# Si number density = 20.892704 Si / 1000 Ang^3
#
#
#
# Elastic Constant Matrix: (Units=GPa)
#
#
# Indices 1 2 3 4 5 6 
#
# 1 133.0052 21.7096 25.8960 0.0000 0.0000 0.0000
# 2 21.7096 178.8777 24.9606 0.0000 0.0000 0.0000
# 3 25.8960 24.9606 95.6356 0.0000 0.0000 0.0000
# 4 0.0000 0.0000 0.0000 22.7127 0.0000 0.0000
# 5 0.0000 0.0000 0.0000 0.0000 6.4682 0.0000
# 6 0.0000 0.0000 0.0000 0.0000 0.0000 9.7930
#
#
#
# Elastic Compliance Matrix: (Units=1/GPa)
#
#
# Indices 1 2 3 4 5 6 
#
# 1 0.008019 -0.000696 -0.001990 0.000000 0.000000 0.000000
# 2 -0.000696 0.005862 -0.001342 0.000000 0.000000 0.000000
# 3 -0.001990 -0.001342 0.011345 0.000000 0.000000 0.000000
# 4 0.000000 0.000000 0.000000 0.044028 0.000000 0.000000
# 5 0.000000 0.000000 0.000000 0.000000 0.154604 0.000000
# 6 0.000000 0.000000 0.000000 0.000000 0.000000 0.102114
#
#
# Mechanical properties :
#
#
# Convention : Reuss Voigt Hill
#
# Bulk Modulus (GPa) = 58.23256 61.40565 59.81910
# Shear Modulus (GPa) = 14.71665 30.12492 22.42078
#
# Velocity S-wave (km/s) = 2.65692 3.80134 3.27943
# Velocity P-wave (km/s) = 6.11105 6.98009 6.55998
#
# Compressibility (1/GPa) = 0.01717252
#
# Stress axis : x y z
#
# Youngs Moduli (GPa) = 124.69630 170.58889 88.14189
#
# Poissons Ratio (x) = 0.11866 0.17540
# Poissons Ratio (y) = 0.08674 0.11825
# Poissons Ratio (z) = 0.24814 0.22887
#
# Static dielectric constant tensor:
#      x y z
#    x 1.570640 0.000000 0.000000 
#    y 0.000000 1.805720 0.000000 
#    z 0.000000 0.000000 1.812170 
# 
# From -- ./inp_files/15749.got.cif
#   From: 2010.05.17/outbox.cif.g08.bks.cpg/sg49_8_cif.got.tgz:15749.got - 2010.06.03 21:02:19.
