data_PCOD9395292
_publ_section_title
;
Structure prediction by ZEFSAII (Michael W. Deem and Ramdas Pophale) SiO2 
 PCOD9395292
Probable space group: P C C M
;
_chemical_formula_sum "Si O2"
_cell_formula_units_Z 58
_cell_length_a 12.000000
_cell_length_b 18.000000
_cell_length_c 15.000000
_cell_angle_alpha 90.000000
_cell_angle_beta 90.000000
_cell_angle_gamma 90.000000
_cell_volume 3240.000000
_symmetry_space_group_name_H-M "P C C M"
_symmetry_group_IT_number 49
_symmetry_cell_setting 'orthorhombic'
loop_
_space_group_symop_operation_xyz
x,y,z
-x,-y,z
x,-y,1/2-z
-x,y,1/2-z
-x,-y,-z
x,y,-z
-x,y,1/2+z
x,-y,1/2+z
loop_
_atom_site_type_symbol
_atom_site_label
_atom_site_fract_x
_atom_site_fract_y
_atom_site_fract_z
Si Si1 0.134622 0.257717 0.254408
Si Si2 0.685745 0.990961 0.851103
Si Si3 0.500000 0.000000 0.000000
Si Si4 0.544458 0.750589 0.607356
Si Si5 0.678031 0.377708 0.216576
Si Si6 0.760469 0.146929 0.894598
Si Si7 0.706915 0.184417 0.392600
Si Si8 0.629886 0.523026 0.892903
O O1 0.205856 0.332521 0.275418
O O2 0.162505 0.198623 0.332869
O O3 0.198072 0.225571 0.165666
O O4 0.000000 0.267509 0.250000
O O5 0.713420 0.903786 0.868482
O O6 0.647007 0.000000 0.750000
O O7 0.770337 0.060480 0.865751
O O8 0.593792 0.009536 0.923209
O O9 0.545595 0.730707 0.500000
O O10 0.591045 0.682028 0.669085
O O11 0.635027 0.817648 0.618801
O O12 0.418408 0.781223 0.627734
O O13 0.686801 0.449100 0.150271
O O14 0.647110 0.411762 0.316327
O O15 0.784294 0.153785 0.000000
O O16 0.720768 0.191665 0.500000
O O17 0.500000 0.500000 0.892218
O O18 0.657972 0.538053 0.000000
#
# Coordination Sequence:
#
# PCOD9395292 Si02
#       8
#     8   8   2   8   8   8   8   8
#     4  11  26  44  64  89 121 170 227 275 312 365
#     4  12  22  37  57  88 125 170 209 260 325 398
#     4  12  22  32  56  90 138 156 198 250 336 404
#     4   9  20  34  59  95 128 162 201 246 322 398
#     4  10  21  40  66  92 131 168 202 252 308 371
#     4  10  20  39  63  87 123 164 210 265 331 392
#     4  11  23  39  61  90 127 163 210 270 328 388
#     4  10  22  38  64 101 138 165 196 235 301 389
#
# _framework density 17.901235
#
# number of rings (size 3 to 8) (size 9 to 14) (size 15 to 20)
#    0.000    1.517    2.759    2.276    5.793    3.310 
#    0.000    2.759    0.000    2.483    0.000    0.000 
#    0.000    0.000    0.000    0.000    0.000    0.000 
#
# Total GULP energy -322908.089593 kJ/mol
# GULP energy per Si atom -5567.380855 kJ/mol
# Density = 1.786049 g / cm^3
# Si number density = 17.901235 Si / 1000 Ang^3
#
#
#
# Elastic Constant Matrix: (Units=GPa)
#
#
# Indices 1 2 3 4 5 6 
#
# 1 123.2283 50.1821 48.5002 0.0000 0.0000 0.0000
# 2 50.1821 133.3963 48.2733 0.0000 0.0000 0.0000
# 3 48.5002 48.2733 164.9118 0.0000 0.0000 0.0000
# 4 0.0000 0.0000 0.0000 24.3478 0.0000 0.0000
# 5 0.0000 0.0000 0.0000 0.0000 25.8338 0.0000
# 6 0.0000 0.0000 0.0000 0.0000 0.0000 -84.5322
#
#
#
# Elastic Compliance Matrix: (Units=1/GPa)
#
#
# Indices 1 2 3 4 5 6 
#
# 1 0.010193 -0.003075 -0.002097 0.000000 0.000000 0.000000
# 2 -0.003075 0.009313 -0.001822 0.000000 0.000000 0.000000
# 3 -0.002097 -0.001822 0.007214 0.000000 0.000000 0.000000
# 4 0.000000 0.000000 0.000000 0.041071 0.000000 0.000000
# 5 0.000000 0.000000 0.000000 0.000000 0.038709 0.000000
# 6 0.000000 0.000000 0.000000 0.000000 0.000000 -0.011830
#
#
# Mechanical properties :
#
#
# Convention : Reuss Voigt Hill
#
# Bulk Modulus (GPa) = 78.55104 79.49417 79.02260
# Shear Modulus (GPa) = 44.28605 11.43529 27.86067
#
# Velocity S-wave (km/s) = 4.97924 2.53019 3.94935
# Velocity P-wave (km/s) = 8.77682 7.28281 8.06449
#
# Compressibility (1/GPa) = 0.01273058
#
# Stress axis : x y z
#
# Youngs Moduli (GPa) = 98.10703 107.38178 138.62116
#
# Poissons Ratio (x) = 0.33025 0.29075
# Poissons Ratio (y) = 0.30172 0.25250
# Poissons Ratio (z) = 0.20578 0.19560
#
# Static dielectric constant tensor:
#      x y z
#    x 1.602490 0.000000 0.000000 
#    y 0.000000 1.677710 0.000000 
#    z 0.000000 0.000000 1.643090 
# 
# From -- ./inp_files/13056.got.cif
#   From: 2010.05.17/outbox.ucp.g08.bks.cvg/sg49_7_cif.got.tgz:13056.got - 2010.06.11 16:40:14.
