data_PCOD9395615
_publ_section_title
;
Structure prediction by ZEFSAII (Michael W. Deem and Ramdas Pophale) SiO2 
 PCOD9395615
Probable space group: P B A N
;
_chemical_formula_sum "Si O2"
_cell_formula_units_Z 58
_cell_length_a 13.816505
_cell_length_b 33.395506
_cell_length_c 5.308159
_cell_angle_alpha 90.000000
_cell_angle_beta 90.000000
_cell_angle_gamma 90.000000
_cell_volume 2449.233268
_symmetry_space_group_name_H-M "P B A N"
_symmetry_group_IT_number 50
_space_group.IT_coordinate_system_code '2'
_symmetry_cell_setting 'orthorhombic'
loop_
_space_group_symop_operation_xyz
x,y,z
1/2-x,1/2-y,z
x,1/2-y,-z
1/2-x,y,-z
-x,-y,-z
1/2+x,1/2+y,-z
-x,1/2+y,z
1/2+x,-y,z
loop_
_atom_site_type_symbol
_atom_site_label
_atom_site_fract_x
_atom_site_fract_y
_atom_site_fract_z
Si Si1 0.609482 0.205009 0.110516
Si Si2 0.148414 0.567564 0.280699
Si Si3 0.881808 0.816635 0.141371
Si Si4 0.750000 0.750000 0.000000
Si Si5 0.126955 0.842214 0.616916
Si Si6 0.600980 0.638187 0.633210
Si Si7 0.185303 0.053407 0.248508
Si Si8 0.867033 0.034411 0.776912
O O1 0.493841 0.197523 0.138315
O O2 0.648794 0.186530 0.376267
O O3 0.624839 0.250000 0.000000
O O4 0.647190 0.178969 0.879538
O O5 0.168051 0.613230 0.352429
O O6 0.252076 0.545376 0.249873
O O7 0.090775 0.548041 0.511044
O O8 0.097654 0.560455 0.012775
O O9 0.859719 0.847537 0.364119
O O10 0.817901 0.777491 0.168711
O O11 0.861753 0.836257 0.870085
O O12 0.012408 0.851784 0.612125
O O13 0.622603 0.592276 0.689551
O O14 0.250000 0.045611 0.500000
O O15 0.126825 0.012812 0.188689
O O16 0.250000 0.061147 0.000000
#
# Coordination Sequence:
#
# PCOD9395615 Si02
#       8
#     8   8   8   2   8   8   8   8
#     4  10  19  38  56  82 110 153 187 236 275 344
#     4  10  18  35  56  86 112 144 181 241 272 350
#     4  10  23  38  55  78 111 146 194 242 285 330
#     4  12  24  38  56  82 104 154 200 244 292 326
#     4  10  21  36  59  81 117 148 190 233 293 332
#     4  10  24  39  53  81 114 149 191 237 291 344
#     4  12  21  37  58  79 108 154 191 237 283 347
#     4  10  19  35  58  85 112 138 193 228 282 334
#
# _framework density 23.680876999999999
#
# number of rings (size 3 to 8) (size 9 to 14) (size 15 to 20)
#    0.000    1.655    3.448    2.069    2.897    1.103 
#    0.000    1.379    0.000    0.000    0.000   28.966 
#    0.000    0.000    0.000    0.000    0.000    0.000 
#
# Total GULP energy -324218.947614 kJ/mol
# GULP energy per Si atom -5589.981855 kJ/mol
# Density = 2.362698 g / cm^3
# Si number density = 23.680877 Si / 1000 Ang^3
#
#
#
# Elastic Constant Matrix: (Units=GPa)
#
#
# Indices 1 2 3 4 5 6 
#
# 1 58.3280 30.3906 39.4274 0.0000 0.0000 0.0000
# 2 30.3906 179.4621 73.3808 0.0000 0.0000 0.0000
# 3 39.4274 73.3808 219.9320 0.0000 0.0000 0.0000
# 4 0.0000 0.0000 0.0000 43.8947 0.0000 0.0000
# 5 0.0000 0.0000 0.0000 0.0000 18.8003 0.0000
# 6 0.0000 0.0000 0.0000 0.0000 0.0000 17.6519
#
#
#
# Elastic Compliance Matrix: (Units=1/GPa)
#
#
# Indices 1 2 3 4 5 6 
#
# 1 0.020266 -0.002254 -0.002881 0.000000 0.000000 0.000000
# 2 -0.002254 0.006703 -0.001832 0.000000 0.000000 0.000000
# 3 -0.002881 -0.001832 0.005675 0.000000 0.000000 0.000000
# 4 0.000000 0.000000 0.000000 0.022782 0.000000 0.000000
# 5 0.000000 0.000000 0.000000 0.000000 0.053191 0.000000
# 6 0.000000 0.000000 0.000000 0.000000 0.000000 0.056651
#
#
# Mechanical properties :
#
#
# Convention : Reuss Voigt Hill
#
# Bulk Modulus (GPa) = 53.44946 82.67998 68.06472
# Shear Modulus (GPa) = 26.96301 37.03760 32.00030
#
# Velocity S-wave (km/s) = 3.37797 3.95907 3.68001
# Velocity P-wave (km/s) = 6.15093 7.47590 6.84555
#
# Compressibility (1/GPa) = 0.01870926
#
# Stress axis : x y z
#
# Youngs Moduli (GPa) = 49.34297 149.18318 176.21837
#
# Poissons Ratio (x) = 0.33624 0.50771
# Poissons Ratio (y) = 0.11121 0.32292
# Poissons Ratio (z) = 0.14216 0.27337
#
# Static dielectric constant tensor:
#      x y z
#    x 1.991090 0.000000 0.000000 
#    y 0.000000 1.877620 0.000000 
#    z 0.000000 0.000000 1.928630 
# 
# From -- ./inp_files/4693.got.cif
#   From: 2010.05.17/outbox.cif.g08.bks.cpg/sg50_3_cif.got.tgz:4693.got - 2010.06.03 11:33:33.
