data_PCOD9395260
_publ_section_title
;
Structure prediction by ZEFSAII (Michael W. Deem and Ramdas Pophale) SiO2 
 PCOD9395260
Probable space group: P C C M
;
_chemical_formula_sum "Si O2"
_cell_formula_units_Z 64
_cell_length_a 15.000000
_cell_length_b 24.000000
_cell_length_c 9.000000
_cell_angle_alpha 90.000000
_cell_angle_beta 90.000000
_cell_angle_gamma 90.000000
_cell_volume 3240.000000
_symmetry_space_group_name_H-M "P C C M"
_symmetry_group_IT_number 49
_symmetry_cell_setting 'orthorhombic'
loop_
_space_group_symop_operation_xyz
x,y,z
-x,-y,z
x,-y,1/2-z
-x,y,1/2-z
-x,-y,-z
x,y,-z
-x,y,1/2+z
x,-y,1/2+z
loop_
_atom_site_type_symbol
_atom_site_label
_atom_site_fract_x
_atom_site_fract_y
_atom_site_fract_z
Si Si1 0.870505 0.705426 0.665732
Si Si2 0.910357 0.165370 0.825387
Si Si3 0.275532 0.141433 0.176098
Si Si4 0.583047 0.352031 0.673770
Si Si5 0.411174 0.939108 0.177531
Si Si6 0.724646 0.553148 0.825959
Si Si7 0.669023 0.252567 0.170836
Si Si8 0.089129 0.405283 0.824289
O O1 0.893646 0.684470 0.500000
O O2 0.909762 0.767128 0.683661
O O3 0.764733 0.716410 0.672332
O O4 0.899918 0.660130 0.784119
O O5 0.825314 0.145168 0.733888
O O6 0.000000 0.144148 0.750000
O O7 0.902882 0.151423 0.000000
O O8 0.326633 0.094822 0.268245
O O9 0.320827 0.199569 0.223943
O O10 0.280519 0.132717 0.000000
O O11 0.500000 0.381700 0.750000
O O12 0.568709 0.341363 0.500000
O O13 0.667841 0.391413 0.690441
O O14 0.599526 0.295841 0.764543
O O15 0.500000 0.912647 0.250000
O O16 0.405013 0.000000 0.250000
O O17 0.418769 0.941962 0.000000
O O18 0.682220 0.500000 0.750000
O O19 0.822740 0.564996 0.763313
O O20 0.732418 0.541591 0.000000
O O21 0.651263 0.235952 0.000000
O O22 0.000000 0.426574 0.750000
O O23 0.085590 0.411634 0.000000
#
# Coordination Sequence:
#
# PCOD9395260 Si02
#       8
#     8   8   8   8   8   8   8   8
#     4   9  18  32  53  80 111 148 188 229 279 336
#     4  10  20  34  52  82 120 161 206 249 296 350
#     4  11  22  37  59  89 124 165 205 250 300 351
#     4  11  23  41  62  88 115 146 186 231 286 349
#     4  11  22  40  64  92 124 160 205 255 304 359
#     4  10  24  43  62  82 109 143 184 233 286 343
#     4  10  20  36  58  86 118 154 192 235 288 346
#     4  11  22  36  55  82 111 143 183 228 278 338
#
# _framework density 19.753086
#
# number of rings (size 3 to 8) (size 9 to 14) (size 15 to 20)
#    0.000    1.625    1.250    5.250    0.000    6.500 
#    0.000    5.000    0.000    0.375    0.000    2.625 
#    0.000    0.000    0.000    0.000    0.000    0.000 
#
# Total GULP energy -357292.265788 kJ/mol
# GULP energy per Si atom -5582.691653 kJ/mol
# Density = 1.970813 g / cm^3
# Si number density = 19.753086 Si / 1000 Ang^3
#
#
#
# Elastic Constant Matrix: (Units=GPa)
#
#
# Indices 1 2 3 4 5 6 
#
# 1 66.4256 18.9876 50.1698 0.0000 0.0000 0.0000
# 2 18.9876 34.2598 30.1096 0.0000 0.0000 0.0000
# 3 50.1698 30.1096 116.0603 0.0000 0.0000 0.0000
# 4 0.0000 0.0000 0.0000 32.8808 0.0000 0.0000
# 5 0.0000 0.0000 0.0000 0.0000 31.6753 0.0000
# 6 0.0000 0.0000 0.0000 0.0000 0.0000 33.2353
#
#
#
# Elastic Compliance Matrix: (Units=1/GPa)
#
#
# Indices 1 2 3 4 5 6 
#
# 1 0.023047 -0.005204 -0.008612 0.000000 0.000000 0.000000
# 2 -0.005204 0.038984 -0.007864 0.000000 0.000000 0.000000
# 3 -0.008612 -0.007864 0.014379 0.000000 0.000000 0.000000
# 4 0.000000 0.000000 0.000000 0.030413 0.000000 0.000000
# 5 0.000000 0.000000 0.000000 0.000000 0.031570 0.000000
# 6 0.000000 0.000000 0.000000 0.000000 0.000000 0.030088
#
#
# Mechanical properties :
#
#
# Convention : Reuss Voigt Hill
#
# Bulk Modulus (GPa) = 30.25779 46.14218 38.19999
# Shear Modulus (GPa) = 22.43561 27.39020 24.91291
#
# Velocity S-wave (km/s) = 3.37382 3.72779 3.55521
# Velocity P-wave (km/s) = 5.52523 6.47601 6.01942
#
# Compressibility (1/GPa) = 0.03304934
#
# Stress axis : x y z
#
# Youngs Moduli (GPa) = 43.39007 25.65123 69.54413
#
# Poissons Ratio (x) = 0.13349 0.59894
# Poissons Ratio (y) = 0.22580 0.54691
# Poissons Ratio (z) = 0.37369 0.20173
#
# Static dielectric constant tensor:
#      x y z
#    x 1.784840 0.000000 0.000000 
#    y 0.000000 1.696740 0.000000 
#    z 0.000000 0.000000 1.659480 
# 
# From -- ./inp_files/4400.got.cif
#   From: 2010.05.17/outbox.ucp.g08.bks.cvg/sg49_3_cif.got.tgz:4400.got - 2010.06.11 16:40:14.
