data_PCOD9395046
_publ_section_title
;
Structure prediction by ZEFSAII (Michael W. Deem and Ramdas Pophale) SiO2 
 PCOD9395046
Probable space group: P C C M
;
_chemical_formula_sum "Si O2"
_cell_formula_units_Z 58
_cell_length_a 15.032229
_cell_length_b 26.155203
_cell_length_c 8.264356
_cell_angle_alpha 90.000000
_cell_angle_beta 90.000000
_cell_angle_gamma 90.000000
_cell_volume 3249.305121
_symmetry_space_group_name_H-M "P C C M"
_symmetry_group_IT_number 49
_symmetry_cell_setting 'orthorhombic'
loop_
_space_group_symop_operation_xyz
x,y,z
-x,-y,z
x,-y,1/2-z
-x,y,1/2-z
-x,-y,-z
x,y,-z
-x,y,1/2+z
x,-y,1/2+z
loop_
_atom_site_type_symbol
_atom_site_label
_atom_site_fract_x
_atom_site_fract_y
_atom_site_fract_z
Si Si1 0.897576 0.553390 0.192725
Si Si2 0.165876 0.945992 0.192883
Si Si3 0.102586 0.666533 0.695915
Si Si4 0.597291 0.190363 0.809716
Si Si5 0.500000 0.000000 0.250000
Si Si6 0.362903 0.922897 0.311312
Si Si7 0.904273 0.837062 0.307233
Si Si8 0.233146 0.756086 0.690584
O O1 0.855216 0.500000 0.250000
O O2 0.866169 0.609528 0.247489
O O3 0.000000 0.552468 0.250000
O O4 0.896073 0.552707 0.000000
O O5 0.261438 0.937350 0.276204
O O6 0.106782 0.896796 0.232424
O O7 0.128294 0.000000 0.250000
O O8 0.179330 0.946917 0.000000
O O9 0.101266 0.668231 0.500000
O O10 0.172119 0.709335 0.752859
O O11 0.000000 0.674805 0.750000
O O12 0.500000 0.206359 0.750000
O O13 0.621749 0.136847 0.722382
O O14 0.672965 0.232008 0.772705
O O15 0.595419 0.179878 0.000000
O O16 0.426462 0.957395 0.197804
O O17 0.385063 0.934381 0.500000
O O18 0.894816 0.830555 0.500000
O O19 0.827137 0.805969 0.220083
O O20 0.000000 0.818156 0.250000
O O21 0.248270 0.748803 0.500000
#
# Coordination Sequence:
#
# PCOD9395046 Si02
#       8
#     8   8   8   8   2   8   8   8
#     4   9  15  25  41  66 102 144 188 229 269 312
#     4  11  24  40  58  78 104 131 166 210 258 313
#     4   9  19  32  49  76 110 148 190 232 271 315
#     4  12  25  41  60  82 108 137 173 213 262 321
#     4  12  26  36  60  86 112 128 166 204 260 320
#     4  12  24  38  58  81 107 134 163 203 255 316
#     4  11  24  40  58  80 106 136 174 219 265 316
#     4  11  22  38  59  81 108 143 180 222 272 318
#
# _framework density 17.849969999999999
#
# number of rings (size 3 to 8) (size 9 to 14) (size 15 to 20)
#    0.000    1.241    2.759    4.345    0.000    5.793 
#    0.000    1.379    0.000    0.000    0.000    0.000 
#    0.000    0.552    0.000    6.345    0.000    1.931 
#
# Total GULP energy -323622.575472 kJ/mol
# GULP energy per Si atom -5579.699577 kJ/mol
# Density = 1.780934 g / cm^3
# Si number density = 17.849970 Si / 1000 Ang^3
#
#
#
# Elastic Constant Matrix: (Units=GPa)
#
#
# Indices 1 2 3 4 5 6 
#
# 1 76.2223 34.8408 10.1220 0.0000 0.0000 0.0000
# 2 34.8408 123.6208 19.7697 0.0000 0.0000 0.0000
# 3 10.1220 19.7697 50.3884 0.0000 0.0000 0.0000
# 4 0.0000 0.0000 0.0000 17.4078 0.0000 0.0000
# 5 0.0000 0.0000 0.0000 0.0000 17.8102 0.0000
# 6 0.0000 0.0000 0.0000 0.0000 0.0000 10.7300
#
#
#
# Elastic Compliance Matrix: (Units=1/GPa)
#
#
# Indices 1 2 3 4 5 6 
#
# 1 0.015160 -0.004039 -0.001461 0.000000 0.000000 0.000000
# 2 -0.004039 0.009707 -0.002997 0.000000 0.000000 0.000000
# 3 -0.001461 -0.002997 0.021315 0.000000 0.000000 0.000000
# 4 0.000000 0.000000 0.000000 0.057446 0.000000 0.000000
# 5 0.000000 0.000000 0.000000 0.000000 0.056148 0.000000
# 6 0.000000 0.000000 0.000000 0.000000 0.000000 0.093197
#
#
# Mechanical properties :
#
#
# Convention : Reuss Voigt Hill
#
# Bulk Modulus (GPa) = 34.26024 42.18852 38.22438
# Shear Modulus (GPa) = 17.87663 21.55617 19.71640
#
# Velocity S-wave (km/s) = 3.16807 3.47887 3.32710
# Velocity P-wave (km/s) = 5.71116 6.31055 6.01832
#
# Compressibility (1/GPa) = 0.02918835
#
# Stress axis : x y z
#
# Youngs Moduli (GPa) = 65.96443 103.01960 46.91495
#
# Poissons Ratio (x) = 0.41609 0.06852
# Poissons Ratio (y) = 0.26643 0.14061
# Poissons Ratio (z) = 0.09635 0.30876
#
# Static dielectric constant tensor:
#      x y z
#    x 1.572090 0.000000 0.000000 
#    y 0.000000 1.654500 0.000000 
#    z 0.000000 0.000000 1.654030 
# 
# From -- ./inp_files/4233.got.cif
#   From: 2010.05.17/outbox.cif.g08.bks.cpg/sg49_3_cif.got.tgz:4233.got - 2010.06.03 21:02:19.
