data_PCOD9395723
_publ_section_title
;
Structure prediction by ZEFSAII (Michael W. Deem and Ramdas Pophale) SiO2 
 PCOD9395723
Probable space group: P B A N
;
_chemical_formula_sum "Si O2"
_cell_formula_units_Z 56
_cell_length_a 13.648929
_cell_length_b 33.534575
_cell_length_c 5.103401
_cell_angle_alpha 90.000000
_cell_angle_beta 90.000000
_cell_angle_gamma 90.000000
_cell_volume 2335.882945
_symmetry_space_group_name_H-M "P B A N"
_symmetry_group_IT_number 50
_space_group.IT_coordinate_system_code '2'
_symmetry_cell_setting 'orthorhombic'
loop_
_space_group_symop_operation_xyz
x,y,z
1/2-x,1/2-y,z
x,1/2-y,-z
1/2-x,y,-z
-x,-y,-z
1/2+x,1/2+y,-z
-x,1/2+y,z
1/2+x,-y,z
loop_
_atom_site_type_symbol
_atom_site_label
_atom_site_fract_x
_atom_site_fract_y
_atom_site_fract_z
Si Si1 0.115598 0.131953 0.076273
Si Si2 0.080128 0.703785 0.524729
Si Si3 0.148456 0.319756 0.432605
Si Si4 0.651309 0.432550 0.854596
Si Si5 0.138586 0.499526 0.468803
Si Si6 0.110641 0.845743 0.975818
Si Si7 0.065654 0.454721 0.966580
O O1 0.149045 0.143340 0.364705
O O2 0.999923 0.139614 0.066749
O O3 0.128451 0.085739 0.014523
O O4 0.153606 0.162552 0.858247
O O5 0.104362 0.750000 0.500000
O O6 0.130345 0.675636 0.302946
O O7 0.959191 0.699697 0.519902
O O8 0.112269 0.688096 0.806237
O O9 0.250000 0.297125 0.500000
O O10 0.641269 0.454174 0.570547
O O11 0.750000 0.448520 0.000000
O O12 0.658581 0.384750 0.886747
O O13 0.546999 0.443166 0.982893
O O14 0.250000 0.486158 0.500000
O O15 0.102959 0.484777 0.188393
O O16 0.078091 0.474805 0.684790
#
# Coordination Sequence:
#
# PCOD9395723 Si02
#       7
#     8   8   8   8   8   8   8
#     4   9  19  34  53  79 115 162 210 251 302 366
#     4  10  20  38  62  88 120 159 202 253 320 391
#     4  10  19  31  51  83 121 161 207 254 305 373
#     4  11  25  46  71  97 130 172 224 278 334 398
#     4  12  26  43  64  97 134 175 222 271 331 393
#     4   9  21  39  62  89 116 155 203 253 312 380
#     4  11  24  43  66  94 132 176 223 278 333 381
#
# _framework density 23.973806
#
# number of rings (size 3 to 8) (size 9 to 14) (size 15 to 20)
#    0.000    1.714    0.000    3.857    0.000   10.571 
#    0.000    0.000    0.000    7.714    0.000    0.000 
#    0.000    0.000    0.000    0.000    0.000    0.000 
#
# Total GULP energy -312721.124034 kJ/mol
# GULP energy per Si atom -5584.305786 kJ/mol
# Density = 2.391924 g / cm^3
# Si number density = 23.973806 Si / 1000 Ang^3
#
#
#
# Elastic Constant Matrix: (Units=GPa)
#
#
# Indices 1 2 3 4 5 6 
#
# 1 75.5724 2.9816 -11.7641 0.0000 0.0000 0.0000
# 2 2.9816 112.8562 27.5218 0.0000 0.0000 0.0000
# 3 -11.7641 27.5218 115.5610 0.0000 0.0000 0.0000
# 4 0.0000 0.0000 0.0000 2.1102 0.0000 0.0000
# 5 0.0000 0.0000 0.0000 0.0000 18.2328 0.0000
# 6 0.0000 0.0000 0.0000 0.0000 0.0000 9.6226
#
#
#
# Elastic Compliance Matrix: (Units=1/GPa)
#
#
# Indices 1 2 3 4 5 6 
#
# 1 0.013503 -0.000735 0.001550 0.000000 0.000000 0.000000
# 2 -0.000735 0.009447 -0.002325 0.000000 0.000000 0.000000
# 3 0.001550 -0.002325 0.009365 0.000000 0.000000 0.000000
# 4 0.000000 0.000000 0.000000 0.473898 0.000000 0.000000
# 5 0.000000 0.000000 0.000000 0.000000 0.054846 0.000000
# 6 0.000000 0.000000 0.000000 0.000000 0.000000 0.103922
#
#
# Mechanical properties :
#
#
# Convention : Reuss Voigt Hill
#
# Bulk Modulus (GPa) = 34.13560 37.94091 36.03825
# Shear Modulus (GPa) = 7.37718 25.00980 16.19349
#
# Velocity S-wave (km/s) = 1.75609 3.23339 2.60179
# Velocity P-wave (km/s) = 4.28736 5.45894 4.90823
#
# Compressibility (1/GPa) = 0.02929493
#
# Stress axis : x y z
#
# Youngs Moduli (GPa) = 74.06015 105.85196 106.78252
#
# Poissons Ratio (x) = 0.07776 -0.16546
# Poissons Ratio (y) = 0.05440 0.24824
# Poissons Ratio (z) = -0.11476 0.24607
#
# Static dielectric constant tensor:
#      x y z
#    x 2.026440 0.000000 0.000000 
#    y 0.000000 1.885720 0.000000 
#    z 0.000000 0.000000 1.860920 
# 
# From -- ./inp_files/3736.got.cif
#   From: 2010.05.17/outbox.cif.g08.bks.cpg/sg50_2_cif.got.tgz:3736.got - 2010.06.03 11:33:33.
