data_PCOD9395757
_publ_section_title
;
Structure prediction by ZEFSAII (Michael W. Deem and Ramdas Pophale) SiO2 
 PCOD9395757
Probable space group: P B A N
;
_chemical_formula_sum "Si O2"
_cell_formula_units_Z 48
_cell_length_a 8.689596
_cell_length_b 21.861083
_cell_length_c 12.005664
_cell_angle_alpha 90.000000
_cell_angle_beta 90.000000
_cell_angle_gamma 90.000000
_cell_volume 2280.643709
_symmetry_space_group_name_H-M "P B A N"
_symmetry_group_IT_number 50
_space_group.IT_coordinate_system_code '2'
_symmetry_cell_setting 'orthorhombic'
loop_
_space_group_symop_operation_xyz
x,y,z
1/2-x,1/2-y,z
x,1/2-y,-z
1/2-x,y,-z
-x,-y,-z
1/2+x,1/2+y,-z
-x,1/2+y,z
1/2+x,-y,z
loop_
_atom_site_type_symbol
_atom_site_label
_atom_site_fract_x
_atom_site_fract_y
_atom_site_fract_z
Si Si1 0.609059 0.201093 0.192398
Si Si2 0.239386 0.406979 0.364321
Si Si3 0.526740 0.490568 0.368364
Si Si4 0.425914 0.175694 0.989024
Si Si5 0.709514 0.127370 0.627763
Si Si6 0.067515 0.313870 0.741350
O O1 0.750000 0.250000 0.165472
O O2 0.548160 0.163148 0.086124
O O3 0.671037 0.157451 0.288421
O O4 0.468525 0.243003 0.237738
O O5 0.250000 0.399932 0.500000
O O6 0.378230 0.453137 0.328696
O O7 0.083965 0.442703 0.331160
O O8 0.275341 0.343693 0.302131
O O9 0.500000 0.500000 0.500000
O O10 0.667349 0.443136 0.351727
O O11 0.418342 0.250000 0.000000
O O12 0.250000 0.153446 0.000000
O O13 0.472622 0.158839 0.863624
O O14 0.750000 0.134048 0.500000
O O15 0.553677 0.164562 0.650129
#
# Coordination Sequence:
#
# PCOD9395757 Si02
#       6
#     8   8   8   8   8   8
#     4   9  19  34  57  82 106 145 192 236 290 340
#     4   9  17  32  53  82 112 146 189 238 283 350
#     4   9  17  32  53  80 111 151 194 235 274 337
#     4   9  18  36  55  74 106 141 196 244 275 338
#     4  10  19  32  53  84 116 145 182 232 288 349
#     4   9  19  33  53  78 109 143 183 236 289 335
#
# _framework density 21.046689000000001
#
# number of rings (size 3 to 8) (size 9 to 14) (size 15 to 20)
#    0.000    2.833    0.000    1.500    0.000   10.667 
#   12.000    0.000    7.333    1.000    0.000    0.000 
#    0.000    0.000    0.000    0.000    0.000    0.000 
#
# Total GULP energy -267306.016850 kJ/mol
# GULP energy per Si atom -5568.875351 kJ/mol
# Density = 2.099879 g / cm^3
# Si number density = 21.046689 Si / 1000 Ang^3
#
#
#
# Elastic Constant Matrix: (Units=GPa)
#
#
# Indices 1 2 3 4 5 6 
#
# 1 83.8397 47.4155 43.2545 0.0000 0.0000 0.0000
# 2 47.4155 53.5824 22.2515 0.0000 0.0000 0.0000
# 3 43.2545 22.2515 72.7901 0.0000 0.0000 0.0000
# 4 0.0000 0.0000 0.0000 -8.8919 0.0000 0.0000
# 5 0.0000 0.0000 0.0000 0.0000 30.8867 0.0000
# 6 0.0000 0.0000 0.0000 0.0000 0.0000 39.6942
#
#
#
# Elastic Compliance Matrix: (Units=1/GPa)
#
#
# Indices 1 2 3 4 5 6 
#
# 1 0.030172 -0.022053 -0.011188 0.000000 0.000000 0.000000
# 2 -0.022053 0.037496 0.001643 0.000000 0.000000 0.000000
# 3 -0.011188 0.001643 0.019884 0.000000 0.000000 0.000000
# 4 0.000000 0.000000 0.000000 -0.112461 0.000000 0.000000
# 5 0.000000 0.000000 0.000000 0.000000 0.032376 0.000000
# 6 0.000000 0.000000 0.000000 0.000000 0.000000 0.025193
#
#
# Mechanical properties :
#
#
# Convention : Reuss Voigt Hill
#
# Bulk Modulus (GPa) = 41.05908 48.45058 44.75483
# Shear Modulus (GPa) = 48.08918 18.82384 33.45651
#
# Velocity S-wave (km/s) = 4.78523 2.99387 3.99135
# Velocity P-wave (km/s) = 7.07687 5.91790 6.52318
#
# Compressibility (1/GPa) = 0.02435515
#
# Stress axis : x y z
#
# Youngs Moduli (GPa) = 33.14383 26.66966 50.29160
#
# Poissons Ratio (x) = 0.58815 0.56264
# Poissons Ratio (y) = 0.73093 -0.08261
# Poissons Ratio (z) = 0.37080 -0.04381
#
# Static dielectric constant tensor:
#      x y z
#    x 1.886490 0.000000 0.000000 
#    y 0.000000 1.825940 0.000000 
#    z 0.000000 0.000000 1.792520 
# 
# From -- ./inp_files/19163.got.cif
#   From: 2010.05.17/outbox.cif.g08.bks.cpg/sg50_10_cif.got.tgz:19163.got - 2010.06.03 11:33:33.
