data_PCOD9395752
_publ_section_title
;
Structure prediction by ZEFSAII (Michael W. Deem and Ramdas Pophale) SiO2 
 PCOD9395752
Probable space group: P B A N
;
_chemical_formula_sum "Si O2"
_cell_formula_units_Z 24
_cell_length_a 5.216530
_cell_length_b 14.192355
_cell_length_c 13.224526
_cell_angle_alpha 90.000000
_cell_angle_beta 90.000000
_cell_angle_gamma 90.000000
_cell_volume 979.075741
_symmetry_space_group_name_H-M "P B A N"
_symmetry_group_IT_number 50
_space_group.IT_coordinate_system_code '2'
_symmetry_cell_setting 'orthorhombic'
loop_
_space_group_symop_operation_xyz
x,y,z
1/2-x,1/2-y,z
x,1/2-y,-z
1/2-x,y,-z
-x,-y,-z
1/2+x,1/2+y,-z
-x,1/2+y,z
1/2+x,-y,z
loop_
_atom_site_type_symbol
_atom_site_label
_atom_site_fract_x
_atom_site_fract_y
_atom_site_fract_z
Si Si1 0.757121 0.635144 0.884554
Si Si2 0.008105 0.604528 0.547175
Si Si3 0.244224 0.636226 0.763139
O O1 0.750000 0.750000 0.886404
O O2 0.527825 0.608783 0.805099
O O3 0.040178 0.610533 0.848055
O O4 0.750000 0.601566 0.000000
O O5 0.750000 0.647057 0.500000
O O6 0.250000 0.654587 0.500000
O O7 0.000000 0.500000 0.500000
O O8 0.097180 0.597805 0.663278
O O9 0.250000 0.750000 0.749373
#
# Coordination Sequence:
#
# PCOD9395752 Si02
#       3
#     8   8   8
#     4   9  17  30  50  79 114 145 173 216 281 346
#     4  10  21  37  55  77 104 148 196 232 276 331
#     4  10  19  32  52  81 112 141 180 232 280 330
#
# _framework density 24.512913999999999
#
# number of rings (size 3 to 8) (size 9 to 14) (size 15 to 20)
#    0.000    2.333    0.000    3.000    0.000    4.667 
#    0.000    1.667    0.000    0.000    0.000   93.333 
#    0.000    0.000    0.000    0.000    0.000    0.333 
#
# Total GULP energy -133649.599737 kJ/mol
# GULP energy per Si atom -5568.733322 kJ/mol
# Density = 2.445712 g / cm^3
# Si number density = 24.512914 Si / 1000 Ang^3
#
#
#
# Elastic Constant Matrix: (Units=GPa)
#
#
# Indices 1 2 3 4 5 6 
#
# 1 220.3592 7.2470 43.1589 0.0000 0.0000 0.0000
# 2 7.2470 117.6217 17.5640 0.0000 0.0000 0.0000
# 3 43.1589 17.5640 168.9729 0.0000 0.0000 0.0000
# 4 0.0000 0.0000 0.0000 18.8797 0.0000 0.0000
# 5 0.0000 0.0000 0.0000 0.0000 55.9271 0.0000
# 6 0.0000 0.0000 0.0000 0.0000 0.0000 -50.3874
#
#
#
# Elastic Compliance Matrix: (Units=1/GPa)
#
#
# Indices 1 2 3 4 5 6 
#
# 1 0.004779 -0.000114 -0.001209 0.000000 0.000000 0.000000
# 2 -0.000114 0.008639 -0.000869 0.000000 0.000000 0.000000
# 3 -0.001209 -0.000869 0.006317 0.000000 0.000000 0.000000
# 4 0.000000 0.000000 0.000000 0.052967 0.000000 0.000000
# 5 0.000000 0.000000 0.000000 0.000000 0.017880 0.000000
# 6 0.000000 0.000000 0.000000 0.000000 0.000000 -0.019846
#
#
# Mechanical properties :
#
#
# Convention : Reuss Voigt Hill
#
# Bulk Modulus (GPa) = 65.14087 71.43262 68.28675
# Shear Modulus (GPa) = 62.31654 34.14947 48.23300
#
# Velocity S-wave (km/s) = 5.04749 3.73650 4.44064
# Velocity P-wave (km/s) = 7.78468 6.91515 7.36277
#
# Compressibility (1/GPa) = 0.01535134
#
# Stress axis : x y z
#
# Youngs Moduli (GPa) = 209.26971 115.75955 158.29945
#
# Poissons Ratio (x) = 0.01319 0.19133
# Poissons Ratio (y) = 0.02384 0.13754
# Poissons Ratio (z) = 0.25294 0.10058
#
# Static dielectric constant tensor:
#      x y z
#    x 1.933020 0.000000 0.000000 
#    y 0.000000 1.936670 0.000000 
#    z 0.000000 0.000000 2.088420 
# 
# From -- ./inp_files/17341.got.cif
#   From: 2010.05.17/outbox.cif.g08.bks.cpg/sg50_9_cif.got.tgz:17341.got - 2010.06.03 11:33:33.
