data_PCOD9395195
_publ_section_title
;
Structure prediction by ZEFSAII (Michael W. Deem and Ramdas Pophale) SiO2 
 PCOD9395195
Probable space group: P C C M
;
_chemical_formula_sum "Si O2"
_cell_formula_units_Z 56
_cell_length_a 17.510170
_cell_length_b 10.557975
_cell_length_c 14.908540
_cell_angle_alpha 90.000000
_cell_angle_beta 90.000000
_cell_angle_gamma 90.000000
_cell_volume 2756.170669
_symmetry_space_group_name_H-M "P C C M"
_symmetry_group_IT_number 49
_symmetry_cell_setting 'orthorhombic'
loop_
_space_group_symop_operation_xyz
x,y,z
-x,-y,z
x,-y,1/2-z
-x,y,1/2-z
-x,-y,-z
x,y,-z
-x,y,1/2+z
x,-y,1/2+z
loop_
_atom_site_type_symbol
_atom_site_label
_atom_site_fract_x
_atom_site_fract_y
_atom_site_fract_z
Si Si1 0.325627 0.728244 0.109561
Si Si2 0.677208 0.228122 0.390292
Si Si3 0.000573 0.643702 0.643786
Si Si4 0.167870 0.647974 0.606224
Si Si5 0.413804 0.476098 0.109361
Si Si6 0.587677 0.020899 0.890189
Si Si7 0.834043 0.642774 0.606372
O O1 0.362081 0.594494 0.136472
O O2 0.375824 0.846639 0.140055
O O3 0.237455 0.724267 0.139297
O O4 0.327394 0.732742 0.000000
O O5 0.677532 0.224956 0.500000
O O6 0.762473 0.266441 0.360051
O O7 0.622035 0.343261 0.362346
O O8 0.641639 0.095160 0.361601
O O9 0.918334 0.699339 0.619572
O O10 0.000000 0.500000 0.604994
O O11 0.000000 0.634724 0.750000
O O12 0.082263 0.700721 0.618499
O O13 0.180376 0.636724 0.500000
O O14 0.168897 0.502674 0.642572
O O15 0.500000 0.500000 0.138911
O O16 0.414124 0.474090 0.000000
O O17 0.500000 0.000000 0.862112
O O18 0.586740 0.022172 0.000000
O O19 0.823651 0.631366 0.500000
#
# Coordination Sequence:
#
# PCOD9395195 Si02
#       7
#     8   8   8   8   8   8   8
#     4   9  15  23  35  54  81 113 146 176 208 253
#     4   9  15  23  35  54  81 113 146 176 208 253
#     4   9  17  27  41  64  91 112 136 176 223 264
#     4   9  15  25  41  61  86 115 146 176 211 256
#     4   9  14  20  32  51  77 108 140 175 213 251
#     4   9  16  24  34  53  85 120 146 173 215 257
#     4   9  15  25  41  61  86 115 146 176 211 256
#
# _framework density 20.318045000000001
#
# number of rings (size 3 to 8) (size 9 to 14) (size 15 to 20)
#    0.000    3.000    1.429    1.286    0.000    5.143 
#    0.000    0.000    0.000    0.857    0.000    7.000 
#    0.000    6.857    0.000    0.000    0.000    0.000 
#
# Total GULP energy -312227.760679 kJ/mol
# GULP energy per Si atom -5575.495726 kJ/mol
# Density = 2.027180 g / cm^3
# Si number density = 20.318045 Si / 1000 Ang^3
#
#
#
# Elastic Constant Matrix: (Units=GPa)
#
#
# Indices 1 2 3 4 5 6 
#
# 1 134.3515 11.2422 -23.6578 0.0000 0.0000 0.0000
# 2 11.2422 61.1572 -15.2736 0.0000 0.0000 0.0000
# 3 -23.6578 -15.2736 47.9357 0.0000 0.0000 0.0000
# 4 0.0000 0.0000 0.0000 -3.1022 0.0000 0.0000
# 5 0.0000 0.0000 0.0000 0.0000 -53.1677 0.0000
# 6 0.0000 0.0000 0.0000 0.0000 0.0000 -92.9551
#
#
#
# Elastic Compliance Matrix: (Units=1/GPa)
#
#
# Indices 1 2 3 4 5 6 
#
# 1 0.008168 -0.000537 0.003860 0.000000 0.000000 0.000000
# 2 -0.000537 0.017800 0.005406 0.000000 0.000000 0.000000
# 3 0.003860 0.005406 0.024489 0.000000 0.000000 0.000000
# 4 0.000000 0.000000 0.000000 -0.322357 0.000000 0.000000
# 5 0.000000 0.000000 0.000000 0.000000 -0.018808 0.000000
# 6 0.000000 0.000000 0.000000 0.000000 0.000000 -0.010758
#
#
# Mechanical properties :
#
#
# Convention : Reuss Voigt Hill
#
# Bulk Modulus (GPa) = 14.72440 20.89623 17.81032
# Shear Modulus (GPa) = -16.87563 -11.76942 -14.32253
#
# Velocity S-wave (km/s) = -2.88509 -2.40939 -2.65791
# Velocity P-wave (km/s) = 1.95849 1.60208 0.79656
#
# Compressibility (1/GPa) = 0.06791446
#
# Stress axis : x y z
#
# Youngs Moduli (GPa) = 122.43193 56.17879 40.83489
#
# Poissons Ratio (x) = 0.03019 -0.15761
# Poissons Ratio (y) = 0.06580 -0.22077
# Poissons Ratio (z) = -0.47256 -0.30373
#
# Static dielectric constant tensor:
#      x y z
#    x 1.757570 0.000000 0.000000 
#    y 0.000000 1.682030 0.000000 
#    z 0.000000 0.000000 1.771950 
# 
# From -- ./inp_files/21004.got.cif
#   From: 2010.05.17/outbox.cif.g08.bks.cpg/sg49_11_cif.got.tgz:21004.got - 2010.06.03 21:02:19.
