data_PCOD9395911
_publ_section_title
;
Structure prediction by ZEFSAII (Michael W. Deem and Ramdas Pophale) SiO2 
 PCOD9395911
Probable space group: P B A N
;
_chemical_formula_sum "Si O2"
_cell_formula_units_Z 56
_cell_length_a 15.799603
_cell_length_b 15.603867
_cell_length_c 11.971079
_cell_angle_alpha 90.000000
_cell_angle_beta 90.000000
_cell_angle_gamma 90.000000
_cell_volume 2951.288810
_symmetry_space_group_name_H-M "P B A N"
_symmetry_group_IT_number 50
_space_group.IT_coordinate_system_code '2'
_symmetry_cell_setting 'orthorhombic'
loop_
_space_group_symop_operation_xyz
x,y,z
1/2-x,1/2-y,z
x,1/2-y,-z
1/2-x,y,-z
-x,-y,-z
1/2+x,1/2+y,-z
-x,1/2+y,z
1/2+x,-y,z
loop_
_atom_site_type_symbol
_atom_site_label
_atom_site_fract_x
_atom_site_fract_y
_atom_site_fract_z
Si Si1 0.915474 0.436693 0.302536
Si Si2 0.274042 0.650698 0.167271
Si Si3 0.164793 0.432188 0.547800
Si Si4 0.379118 0.916011 0.040733
Si Si5 0.431972 0.069061 0.899582
Si Si6 0.551741 0.690546 0.398212
Si Si7 0.830681 0.693393 0.247989
O O1 0.827711 0.391932 0.265856
O O2 0.899570 0.497643 0.407659
O O3 0.943613 0.498585 0.200109
O O4 0.982268 0.365455 0.336122
O O5 0.250000 0.750000 0.182475
O O6 0.188003 0.598790 0.139376
O O7 0.336954 0.638426 0.060237
O O8 0.250000 0.471713 0.500000
O O9 0.120219 0.370618 0.458570
O O10 0.191148 0.375171 0.655047
O O11 0.476107 0.893781 0.068738
O O12 0.388739 0.014003 0.998205
O O13 0.370642 0.141674 0.853818
O O14 0.517861 0.750000 0.500000
O O15 0.598569 0.748449 0.307167
O O16 0.750000 0.750000 0.219122
#
# Coordination Sequence:
#
# PCOD9395911 Si02
#       7
#     8   8   8   8   8   8   8
#     4  10  22  38  53  90 114 154 200 237 281 343
#     4  10  21  38  61  83 116 153 198 234 283 346
#     4  10  19  36  59  82 116 158 199 227 290 349
#     4   9  18  38  60  84 110 154 186 239 290 346
#     4   9  20  36  62  87 115 146 194 238 291 349
#     4  10  21  36  59  84 119 155 190 244 288 341
#     4  10  19  35  60  91 115 150 193 243 289 344
#
# _framework density 18.974761999999998
#
# number of rings (size 3 to 8) (size 9 to 14) (size 15 to 20)
#    0.000    2.286    1.429    1.286    2.000    1.143 
#    7.714    0.000    0.000    0.000    7.429    0.000 
#    0.000    0.000    0.000    0.000    0.000    0.000 
#
# Total GULP energy -312387.663247 kJ/mol
# GULP energy per Si atom -5578.351129 kJ/mol
# Density = 1.893157 g / cm^3
# Si number density = 18.974762 Si / 1000 Ang^3
#
#
#
# Elastic Constant Matrix: (Units=GPa)
#
#
# Indices 1 2 3 4 5 6 
#
# 1 85.7622 44.8441 21.7290 0.0000 0.0000 0.0000
# 2 44.8441 70.7528 18.3797 0.0000 0.0000 0.0000
# 3 21.7290 18.3797 24.4551 0.0000 0.0000 0.0000
# 4 0.0000 0.0000 0.0000 108.3702 0.0000 0.0000
# 5 0.0000 0.0000 0.0000 0.0000 8.7345 0.0000
# 6 0.0000 0.0000 0.0000 0.0000 0.0000 29.8408
#
#
#
# Elastic Compliance Matrix: (Units=1/GPa)
#
#
# Indices 1 2 3 4 5 6 
#
# 1 0.019166 -0.009597 -0.009816 0.000000 0.000000 0.000000
# 2 -0.009597 0.022369 -0.008284 0.000000 0.000000 0.000000
# 3 -0.009816 -0.008284 0.055839 0.000000 0.000000 0.000000
# 4 0.000000 0.000000 0.000000 0.009228 0.000000 0.000000
# 5 0.000000 0.000000 0.000000 0.000000 0.114488 0.000000
# 6 0.000000 0.000000 0.000000 0.000000 0.000000 0.033511
#
#
# Mechanical properties :
#
#
# Convention : Reuss Voigt Hill
#
# Bulk Modulus (GPa) = 23.82174 38.98619 31.40396
# Shear Modulus (GPa) = 15.43266 35.79026 25.61146
#
# Velocity S-wave (km/s) = 2.85498 4.34776 3.67790
# Velocity P-wave (km/s) = 4.84248 6.76719 5.88407
#
# Compressibility (1/GPa) = 0.04197846
#
# Stress axis : x y z
#
# Youngs Moduli (GPa) = 52.17699 44.70536 17.90861
#
# Poissons Ratio (x) = 0.42906 0.17579
# Poissons Ratio (y) = 0.50077 0.14836
# Poissons Ratio (z) = 0.51216 0.37034
#
# Static dielectric constant tensor:
#      x y z
#    x 1.637140 0.000000 0.000000 
#    y 0.000000 1.651080 0.000000 
#    z 0.000000 0.000000 1.673260 
# 
# From -- ./inp_files/26564.got.cif
#   From: 2010.05.17/outbox.cif.g08.bks.cpg/sg50_14_cif.got.tgz:26564.got - 2010.06.03 11:33:33.
