data_PCOD9395117
_publ_section_title
;
Structure prediction by ZEFSAII (Michael W. Deem and Ramdas Pophale) SiO2 
 PCOD9395117
Probable space group: P C C M
;
_chemical_formula_sum "Si O2"
_cell_formula_units_Z 38
_cell_length_a 17.635210
_cell_length_b 4.872255
_cell_length_c 18.371501
_cell_angle_alpha 90.000000
_cell_angle_beta 90.000000
_cell_angle_gamma 90.000000
_cell_volume 1578.538891
_symmetry_space_group_name_H-M "P C C M"
_symmetry_group_IT_number 49
_symmetry_cell_setting 'orthorhombic'
loop_
_space_group_symop_operation_xyz
x,y,z
-x,-y,z
x,-y,1/2-z
-x,y,1/2-z
-x,-y,-z
x,y,-z
-x,y,1/2+z
x,-y,1/2+z
loop_
_atom_site_type_symbol
_atom_site_label
_atom_site_fract_x
_atom_site_fract_y
_atom_site_fract_z
Si Si1 0.500000 0.000000 0.250000
Si Si2 0.178437 0.611465 0.639222
Si Si3 0.251454 0.684336 0.000000
Si Si4 0.694874 0.500000 0.750000
Si Si5 0.083713 0.091823 0.333937
Si Si6 0.344569 0.799204 0.500000
Si Si7 0.420968 0.375738 0.136313
O O1 0.551978 0.813787 0.201265
O O2 0.213298 0.447645 0.571235
O O3 0.242219 0.667165 0.701664
O O4 0.109962 0.406899 0.663109
O O5 0.142236 0.903438 0.621632
O O6 0.332479 0.531271 0.000000
O O7 0.271568 0.004043 0.000000
O O8 0.639542 0.430345 0.819617
O O9 0.089768 0.000000 0.250000
O O10 0.000000 0.000000 0.358186
O O11 0.386566 0.825058 0.424157
O O12 0.500000 0.500000 0.107502
#
# Coordination Sequence:
#
# PCOD9395117 Si02
#       7
#     2   8   4   4   8   4   8
#     4  12  26  42  76  98 140 186 244 312 358 434
#     4  12  25  44  72 106 144 191 236 297 357 433
#     4  12  28  48  69 110 148 187 240 305 358 440
#     4  12  23  44  73 100 144 182 250 288 377 414
#     4  11  23  44  73 110 145 184 237 295 356 425
#     4  12  29  47  76 100 151 193 244 305 381 424
#     4  12  27  49  68 107 142 193 246 314 364 445
#
# _framework density 24.072896
#
# number of rings (size 3 to 8) (size 9 to 14) (size 15 to 20)
#    0.000    0.211    6.316    2.211    5.895    2.105 
#    0.000    3.158    0.000    0.000    0.000    0.000 
#    0.000    0.000    0.000    0.000    0.000    0.000 
#
# Total GULP energy -211755.489544 kJ/mol
# GULP energy per Si atom -5572.512883 kJ/mol
# Density = 2.401811 g / cm^3
# Si number density = 24.072896 Si / 1000 Ang^3
#
#
#
# Elastic Constant Matrix: (Units=GPa)
#
#
# Indices 1 2 3 4 5 6 
#
# 1 117.4291 21.5974 37.2295 0.0000 0.0000 0.0000
# 2 21.5974 95.1412 10.9406 0.0000 0.0000 0.0000
# 3 37.2295 10.9406 120.8792 0.0000 0.0000 0.0000
# 4 0.0000 0.0000 0.0000 44.0330 0.0000 0.0000
# 5 0.0000 0.0000 0.0000 0.0000 33.0464 0.0000
# 6 0.0000 0.0000 0.0000 0.0000 0.0000 27.3772
#
#
#
# Elastic Compliance Matrix: (Units=1/GPa)
#
#
# Indices 1 2 3 4 5 6 
#
# 1 0.009762 -0.001890 -0.002836 0.000000 0.000000 0.000000
# 2 -0.001890 0.010987 -0.000412 0.000000 0.000000 0.000000
# 3 -0.002836 -0.000412 0.009183 0.000000 0.000000 0.000000
# 4 0.000000 0.000000 0.000000 0.022710 0.000000 0.000000
# 5 0.000000 0.000000 0.000000 0.000000 0.030260 0.000000
# 6 0.000000 0.000000 0.000000 0.000000 0.000000 0.036527
#
#
# Mechanical properties :
#
#
# Convention : Reuss Voigt Hill
#
# Bulk Modulus (GPa) = 50.87260 52.55384 51.71322
# Shear Modulus (GPa) = 36.69489 38.47011 37.58250
#
# Velocity S-wave (km/s) = 3.90849 4.00192 3.95548
# Velocity P-wave (km/s) = 6.44570 6.57513 6.51074
#
# Compressibility (1/GPa) = 0.01965695
#
# Stress axis : x y z
#
# Youngs Moduli (GPa) = 102.43390 91.01543 108.89228
#
# Poissons Ratio (x) = 0.17202 0.30878
# Poissons Ratio (y) = 0.19360 0.04490
# Poissons Ratio (z) = 0.29047 0.03753
#
# Static dielectric constant tensor:
#      x y z
#    x 2.052590 0.000000 0.000000 
#    y 0.000000 1.925420 0.000000 
#    z 0.000000 0.000000 1.991050 
# 
# From -- ./inp_files/18100.got.cif
#   From: 2010.05.17/outbox.cif.g08.bks.cpg/sg49_10_cif.got.tgz:18100.got - 2010.06.03 21:02:19.
