data_PCOD9395161
_publ_section_title
;
Structure prediction by ZEFSAII (Michael W. Deem and Ramdas Pophale) SiO2 
 PCOD9395161
Probable space group: P C C M
;
_chemical_formula_sum "Si O2"
_cell_formula_units_Z 22
_cell_length_a 5.726056
_cell_length_b 5.334161
_cell_length_c 31.217732
_cell_angle_alpha 90.000000
_cell_angle_beta 90.000000
_cell_angle_gamma 90.000000
_cell_volume 953.505184
_symmetry_space_group_name_H-M "P C C M"
_symmetry_group_IT_number 49
_symmetry_cell_setting 'orthorhombic'
loop_
_space_group_symop_operation_xyz
x,y,z
-x,-y,z
x,-y,1/2-z
-x,y,1/2-z
-x,-y,-z
x,y,-z
-x,y,1/2+z
x,-y,1/2+z
loop_
_atom_site_type_symbol
_atom_site_label
_atom_site_fract_x
_atom_site_fract_y
_atom_site_fract_z
Si Si1 0.749214 0.363991 0.000000
Si Si2 0.848029 0.740910 0.687075
Si Si3 0.500000 0.500000 0.250000
Si Si4 0.748881 0.135503 0.905440
O O1 0.500000 0.500000 0.000000
O O2 0.745153 0.231167 0.045973
O O3 0.000000 0.500000 0.000000
O O4 0.636923 0.694900 0.719247
O O5 0.764062 0.702448 0.637824
O O6 0.000000 0.500000 0.697486
O O7 0.000000 0.000000 0.691153
O O8 0.500000 0.000000 0.900368
O O9 0.000000 0.000000 0.903465
#
# Coordination Sequence:
#
# PCOD9395161 Si02
#       4
#     4   8   2   8
#     4  12  24  40  74 112 154 204 259 315 392 478
#     4  11  29  52  77 116 156 209 269 335 407 484
#     4  12  30  50  88 106 168 206 290 334 434 472
#     4  11  25  47  74 109 156 206 260 323 396 477
#
# _framework density 23.072762999999998
#
# number of rings (size 3 to 8) (size 9 to 14) (size 15 to 20)
#    0.000    0.727    0.000    4.909   12.727    4.364 
#    0.000    0.000    0.000    0.000    0.000    0.000 
#    0.000    0.000    0.000    0.000    0.000    0.000 
#
# Total GULP energy -122622.064973 kJ/mol
# GULP energy per Si atom -5573.730226 kJ/mol
# Density = 2.302025 g / cm^3
# Si number density = 23.072763 Si / 1000 Ang^3
#
#
#
# Elastic Constant Matrix: (Units=GPa)
#
#
# Indices 1 2 3 4 5 6 
#
# 1 156.9411 34.0428 42.4287 0.0000 0.0000 0.0000
# 2 34.0428 81.1671 27.4803 0.0000 0.0000 0.0000
# 3 42.4287 27.4803 218.4224 0.0000 0.0000 0.0000
# 4 0.0000 0.0000 0.0000 56.1271 0.0000 0.0000
# 5 0.0000 0.0000 0.0000 0.0000 85.5843 0.0000
# 6 0.0000 0.0000 0.0000 0.0000 0.0000 17.3511
#
#
#
# Elastic Compliance Matrix: (Units=1/GPa)
#
#
# Indices 1 2 3 4 5 6 
#
# 1 0.007241 -0.002675 -0.001070 0.000000 0.000000 0.000000
# 2 -0.002675 0.013856 -0.001224 0.000000 0.000000 0.000000
# 3 -0.001070 -0.001224 0.004940 0.000000 0.000000 0.000000
# 4 0.000000 0.000000 0.000000 0.017817 0.000000 0.000000
# 5 0.000000 0.000000 0.000000 0.000000 0.011684 0.000000
# 6 0.000000 0.000000 0.000000 0.000000 0.000000 0.057633
#
#
# Mechanical properties :
#
#
# Convention : Reuss Voigt Hill
#
# Bulk Modulus (GPa) = 62.10964 73.82600 67.96782
# Shear Modulus (GPa) = 38.91769 55.31778 47.11773
#
# Velocity S-wave (km/s) = 4.11145 4.90178 4.52390
# Velocity P-wave (km/s) = 7.03677 8.00644 7.53721
#
# Compressibility (1/GPa) = 0.01610056
#
# Stress axis : x y z
#
# Youngs Moduli (GPa) = 138.09624 72.16862 202.42448
#
# Poissons Ratio (x) = 0.19304 0.21662
# Poissons Ratio (y) = 0.36938 0.24771
# Poissons Ratio (z) = 0.14778 0.08831
#
# Static dielectric constant tensor:
#      x y z
#    x 1.658690 0.000000 0.000000 
#    y 0.000000 1.886030 0.000000 
#    z 0.000000 0.000000 1.191450 
# 
# From -- ./inp_files/25335.got.cif
#   From: 2010.05.17/outbox.cif.g08.bks.cpg/sg49_13_cif.got.tgz:25335.got - 2010.06.03 21:02:19.
