data_PCOD9395417
_publ_section_title
;
Structure prediction by ZEFSAII (Michael W. Deem and Ramdas Pophale) SiO2 
 PCOD9395417
Probable space group: P B A N
;
_chemical_formula_sum "Si O2"
_cell_formula_units_Z 44
_cell_length_a 12.354637
_cell_length_b 18.836118
_cell_length_c 9.475005
_cell_angle_alpha 90.000000
_cell_angle_beta 90.000000
_cell_angle_gamma 90.000000
_cell_volume 2204.960632
_symmetry_space_group_name_H-M "P B A N"
_symmetry_group_IT_number 50
_space_group.IT_coordinate_system_code '2'
_symmetry_cell_setting 'orthorhombic'
loop_
_space_group_symop_operation_xyz
x,y,z
1/2-x,1/2-y,z
x,1/2-y,-z
1/2-x,y,-z
-x,-y,-z
1/2+x,1/2+y,-z
-x,1/2+y,z
1/2+x,-y,z
loop_
_atom_site_type_symbol
_atom_site_label
_atom_site_fract_x
_atom_site_fract_y
_atom_site_fract_z
Si Si1 0.088993 0.590277 0.709393
Si Si2 0.585671 0.399274 0.032585
Si Si3 0.303229 0.826634 0.280191
Si Si4 0.750000 0.526897 0.000000
Si Si5 0.476607 0.169437 0.536834
Si Si6 0.115583 0.425692 0.764677
O O1 0.210793 0.617270 0.676833
O O2 0.004697 0.624243 0.601925
O O3 0.089637 0.505024 0.709091
O O4 0.067040 0.617233 0.869074
O O5 0.659503 0.345373 0.121474
O O6 0.649959 0.474068 0.030544
O O7 0.477015 0.406342 0.121754
O O8 0.250000 0.750000 0.290647
O O9 0.409505 0.829197 0.376779
O O10 0.776734 0.569977 0.140910
O O11 0.447094 0.250000 0.500000
O O12 0.391891 0.129336 0.637329
#
# Coordination Sequence:
#
# PCOD9395417 Si02
#       6
#     8   8   8   4   8   8
#     4  11  19  35  56  83 127 162 201 250 307 378
#     4  10  20  35  58  89 122 155 207 260 311 364
#     4  11  20  34  54  88 132 168 195 249 326 388
#     4  10  16  36  57  84 115 154 210 270 292 354
#     4  11  23  37  54  88 135 163 201 253 319 386
#     4  10  22  37  60  88 121 162 210 259 313 367
#
# _framework density 19.955003999999999
#
# number of rings (size 3 to 8) (size 9 to 14) (size 15 to 20)
#    0.000    1.455    5.455    3.273    0.000    1.455 
#    0.000    0.000    0.000    0.000    0.000   15.273 
#    0.000    0.000    0.000    0.000    0.000    0.000 
#
# Total GULP energy -245810.870998 kJ/mol
# GULP energy per Si atom -5586.610704 kJ/mol
# Density = 1.990959 g / cm^3
# Si number density = 19.955004 Si / 1000 Ang^3
#
#
#
# Elastic Constant Matrix: (Units=GPa)
#
#
# Indices 1 2 3 4 5 6 
#
# 1 13.0706 -5.4301 25.5307 0.0000 0.0000 0.0000
# 2 -5.4301 59.9934 53.7551 0.0000 0.0000 0.0000
# 3 25.5307 53.7551 149.3461 0.0000 0.0000 0.0000
# 4 0.0000 0.0000 0.0000 28.2280 0.0000 0.0000
# 5 0.0000 0.0000 0.0000 0.0000 21.5574 0.0000
# 6 0.0000 0.0000 0.0000 0.0000 0.0000 23.7493
#
#
#
# Elastic Compliance Matrix: (Units=1/GPa)
#
#
# Indices 1 2 3 4 5 6 
#
# 1 0.290050 0.104327 -0.087135 0.000000 0.000000 0.000000
# 2 0.104327 0.062129 -0.040197 0.000000 0.000000 0.000000
# 3 -0.087135 -0.040197 0.036060 0.000000 0.000000 0.000000
# 4 0.000000 0.000000 0.000000 0.035426 0.000000 0.000000
# 5 0.000000 0.000000 0.000000 0.000000 0.046388 0.000000
# 6 0.000000 0.000000 0.000000 0.000000 0.000000 0.042107
#
#
# Mechanical properties :
#
#
# Convention : Reuss Voigt Hill
#
# Bulk Modulus (GPa) = 2.92202 41.12463 22.02332
# Shear Modulus (GPa) = 7.43776 24.61056 16.02416
#
# Velocity S-wave (km/s) = 1.93271 3.51565 2.83683
# Velocity P-wave (km/s) = 2.53928 6.09370 4.66804
#
# Compressibility (1/GPa) = 0.34222855
#
# Stress axis : x y z
#
# Youngs Moduli (GPa) = 3.44768 16.09565 27.73149
#
# Poissons Ratio (x) = -1.67922 2.41639
# Poissons Ratio (y) = -0.35969 1.11473
# Poissons Ratio (z) = 0.30042 0.64700
#
# Static dielectric constant tensor:
#      x y z
#    x 1.542100 0.000000 0.000000 
#    y 0.000000 1.694340 0.000000 
#    z 0.000000 0.000000 1.741320 
# 
# From -- ./inp_files/12892.got.cif
#   From: 2010.05.17/outbox.cif.g08.bks.cpg/sg50_7_cif.got.tgz:12892.got - 2010.06.03 11:33:33.
