data_PCOD9395451
_publ_section_title
;
Structure prediction by ZEFSAII (Michael W. Deem and Ramdas Pophale) SiO2 
 PCOD9395451
Probable space group: P B A N
;
_chemical_formula_sum "Si O2"
_cell_formula_units_Z 64
_cell_length_a 31.731835
_cell_length_b 7.677826
_cell_length_c 12.419845
_cell_angle_alpha 90.000000
_cell_angle_beta 90.000000
_cell_angle_gamma 90.000000
_cell_volume 3025.865564
_symmetry_space_group_name_H-M "P B A N"
_symmetry_group_IT_number 50
_space_group.IT_coordinate_system_code '2'
_symmetry_cell_setting 'orthorhombic'
loop_
_space_group_symop_operation_xyz
x,y,z
1/2-x,1/2-y,z
x,1/2-y,-z
1/2-x,y,-z
-x,-y,-z
1/2+x,1/2+y,-z
-x,1/2+y,z
1/2+x,-y,z
loop_
_atom_site_type_symbol
_atom_site_label
_atom_site_fract_x
_atom_site_fract_y
_atom_site_fract_z
Si Si1 0.333435 0.538785 1.000000
Si Si2 0.297403 0.536862 0.230014
Si Si3 0.297403 0.536862 0.769986
Si Si4 0.546579 0.543047 0.765655
Si Si5 0.046579 0.043048 0.765655
Si Si6 0.626604 0.457339 0.621210
Si Si7 0.373396 0.957340 0.378791
Si Si8 0.568336 0.545543 0.000000
O O1 0.310081 0.484342 0.891041
O O2 0.335297 0.750000 0.000000
O O3 0.310081 0.484343 0.108959
O O4 0.381214 0.472449 0.000000
O O5 0.297776 0.750000 0.231000
O O6 0.250000 0.481494 0.256679
O O7 0.333395 0.474432 0.311670
O O8 0.333395 0.474431 0.688330
O O9 0.500000 0.500000 0.724952
O O10 0.550800 0.750000 0.772543
O O11 0.584112 0.482485 0.689139
O O12 0.551808 0.469373 0.887295
O O13 0.084112 0.982486 0.689139
O O14 0.051808 0.969373 0.887294
O O15 0.632856 0.250000 0.613086
O O16 0.623521 0.528018 0.500000
O O17 0.557057 0.750000 0.000000
#
# Coordination Sequence:
#
# PCOD9395451 Si02
#       8
#     8   8   8   8   8   8   8   8
#     4  10  17  29  55  83 111 147 184 224 274 331
#     4   9  17  30  52  84 116 145 182 229 277 324
#     4   9  17  30  52  84 116 145 182 229 277 324
#     4  11  23  39  60  84 112 144 181 226 279 335
#     4  11  23  39  60  84 112 144 181 226 279 335
#     4  10  21  37  57  82 112 148 191 234 274 320
#     4  10  21  37  57  82 112 148 191 234 274 320
#     4  10  21  36  56  84 114 143 176 222 278 335
#
# _framework density 21.150973
#
# number of rings (size 3 to 8) (size 9 to 14) (size 15 to 20)
#    0.000    2.000    2.500    1.500    0.000    4.000 
#    0.000    2.500    0.000    3.750    0.000    1.750 
#    0.000    0.000    0.000    0.000    0.000    0.000 
#
# Total GULP energy -357563.424156 kJ/mol
# GULP energy per Si atom -5586.928502 kJ/mol
# Density = 2.110283 g / cm^3
# Si number density = 21.150973 Si / 1000 Ang^3
#
#
#
# Elastic Constant Matrix: (Units=GPa)
#
#
# Indices 1 2 3 4 5 6 
#
# 1 189.4024 -12.8532 96.9044 0.0000 0.0000 0.0000
# 2 -12.8532 36.9438 9.9147 0.0000 0.0000 0.0000
# 3 96.9044 9.9147 181.1597 0.0000 0.0000 0.0000
# 4 0.0000 0.0000 0.0000 2.6353 0.0000 0.0000
# 5 0.0000 0.0000 0.0000 0.0000 -0.6411 0.0000
# 6 0.0000 0.0000 0.0000 0.0000 0.0000 18.5306
#
#
#
# Elastic Compliance Matrix: (Units=1/GPa)
#
#
# Indices 1 2 3 4 5 6 
#
# 1 0.007781 0.003881 -0.004375 0.000000 0.000000 0.000000
# 2 0.003881 0.029408 -0.003686 0.000000 0.000000 0.000000
# 3 -0.004375 -0.003686 0.008062 0.000000 0.000000 0.000000
# 4 0.000000 0.000000 0.000000 0.379468 0.000000 0.000000
# 5 0.000000 0.000000 0.000000 0.000000 -1.559728 0.000000
# 6 0.000000 0.000000 0.000000 0.000000 0.000000 0.053965
#
#
# Mechanical properties :
#
#
# Convention : Reuss Voigt Hill
#
# Bulk Modulus (GPa) = 27.10564 66.15977 46.63271
# Shear Modulus (GPa) = -4.71525 25.00762 10.14618
#
# Velocity S-wave (km/s) = -1.49471 3.44225 2.19259
# Velocity P-wave (km/s) = 3.14074 6.86633 5.33904
#
# Compressibility (1/GPa) = 0.03689269
#
# Stress axis : x y z
#
# Youngs Moduli (GPa) = 128.51070 34.00481 124.04119
#
# Poissons Ratio (x) = -0.13198 0.54266
# Poissons Ratio (y) = -0.49879 0.45717
# Poissons Ratio (z) = 0.56221 0.12533
#
# Static dielectric constant tensor:
#      x y z
#    x 1.631000 0.000000 0.000000 
#    y 0.000000 1.800620 0.000000 
#    z 0.000000 0.000000 1.765780 
# 
# From -- ./inp_files/23389.got.cif
#   From: 2010.05.17/outbox.cif.g08.bks.cpg/sg50_12_cif.got.tgz:23389.got - 2010.06.03 11:33:33.
