data_PCOD9395347
_publ_section_title
;
Structure prediction by ZEFSAII (Michael W. Deem and Ramdas Pophale) SiO2 
 PCOD9395347
Probable space group: P B A N
;
_chemical_formula_sum "Si O2"
_cell_formula_units_Z 64
_cell_length_a 5.399691
_cell_length_b 14.473993
_cell_length_c 38.004481
_cell_angle_alpha 90.000000
_cell_angle_beta 90.000000
_cell_angle_gamma 90.000000
_cell_volume 2970.243623
_symmetry_space_group_name_H-M "P B A N"
_symmetry_group_IT_number 50
_space_group.IT_coordinate_system_code '2'
_symmetry_cell_setting 'orthorhombic'
loop_
_space_group_symop_operation_xyz
x,y,z
1/2-x,1/2-y,z
x,1/2-y,-z
1/2-x,y,-z
-x,-y,-z
1/2+x,1/2+y,-z
-x,1/2+y,z
1/2+x,-y,z
loop_
_atom_site_type_symbol
_atom_site_label
_atom_site_fract_x
_atom_site_fract_y
_atom_site_fract_z
Si Si1 0.743520 0.939791 0.038904
Si Si2 0.125478 0.388470 0.329353
Si Si3 0.498666 0.106451 0.484964
Si Si4 0.737682 0.859439 0.885787
Si Si5 0.628575 0.102269 0.699277
Si Si6 0.926021 0.444298 0.780535
Si Si7 0.233807 0.641088 0.148809
Si Si8 0.496584 0.059525 0.404861
O O1 0.784873 0.876853 0.072804
O O2 0.473740 0.988279 0.040732
O O3 0.750000 0.895021 0.000000
O O4 0.393948 0.351424 0.319362
O O5 0.145569 0.498261 0.317968
O O6 0.893147 0.352605 0.307526
O O7 0.054206 0.380873 0.370164
O O8 0.750000 0.147170 0.500000
O O9 0.486412 0.105877 0.442966
O O10 0.250000 0.148394 0.500000
O O11 0.500000 0.000000 0.500000
O O12 0.750000 0.750000 0.879262
O O13 0.500820 0.895691 0.863824
O O14 0.002609 0.897736 0.873280
O O15 0.590367 0.091810 0.740724
O O16 0.709871 0.522096 0.784510
O O17 0.843068 0.374558 0.810881
O O18 0.250000 0.750000 0.142119
O O19 0.268607 0.986503 0.403253
#
# Coordination Sequence:
#
# PCOD9395347 Si02
#       8
#     8   8   8   8   8   8   8   8
#     4  10  21  36  57  85 115 141 169 211 258 294
#     4  10  16  25  36  51  78 100 125 170 228 281
#     4  10  16  22  26  35  53  75 113 164 200 242
#     4  10  21  39  58  76 104 141 176 207 242 291
#     4  10  16  27  38  56  82 101 127 178 225 268
#     4  12  21  32  52  76  95 123 165 201 243 298
#     4  10  23  39  53  75 107 138 167 208 254 293
#     4  12  16  20  31  42  55  89 120 149 214 271
#
# _framework density 21.547052999999998
#
# number of rings (size 3 to 8) (size 9 to 14) (size 15 to 20)
#    0.000    1.500    7.500    1.500    0.000    3.250 
#    0.000    0.000    0.000    4.500    0.000    0.000 
#    0.000    0.000    0.000    0.000    0.000    0.000 
#
# Total GULP energy -357076.842168 kJ/mol
# GULP energy per Si atom -5579.325659 kJ/mol
# Density = 2.149801 g / cm^3
# Si number density = 21.547053 Si / 1000 Ang^3
#
#
#
# Elastic Constant Matrix: (Units=GPa)
#
#
# Indices 1 2 3 4 5 6 
#
# 1 113.7581 9.9302 30.6685 0.0000 0.0000 0.0000
# 2 9.9302 39.4511 -4.7299 0.0000 0.0000 0.0000
# 3 30.6685 -4.7299 113.3262 0.0000 0.0000 0.0000
# 4 0.0000 0.0000 0.0000 -20.1057 0.0000 0.0000
# 5 0.0000 0.0000 0.0000 0.0000 36.5587 0.0000
# 6 0.0000 0.0000 0.0000 0.0000 0.0000 1.0247
#
#
#
# Elastic Compliance Matrix: (Units=1/GPa)
#
#
# Indices 1 2 3 4 5 6 
#
# 1 0.009779 -0.002793 -0.002763 0.000000 0.000000 0.000000
# 2 -0.002793 0.026273 0.001852 0.000000 0.000000 0.000000
# 3 -0.002763 0.001852 0.009649 0.000000 0.000000 0.000000
# 4 0.000000 0.000000 0.000000 -0.049737 0.000000 0.000000
# 5 0.000000 0.000000 0.000000 0.000000 0.027353 0.000000
# 6 0.000000 0.000000 0.000000 0.000000 0.000000 0.975877
#
#
# Mechanical properties :
#
#
# Convention : Reuss Voigt Hill
#
# Bulk Modulus (GPa) = 26.11357 37.58590 31.84973
# Shear Modulus (GPa) = 4.90501 18.87331 11.88916
#
# Velocity S-wave (km/s) = 1.51042 2.96279 2.35154
# Velocity P-wave (km/s) = 3.89711 5.40238 4.71026
#
# Compressibility (1/GPa) = 0.03829427
#
# Stress axis : x y z
#
# Youngs Moduli (GPa) = 102.25715 38.06208 103.63626
#
# Poissons Ratio (x) = 0.10630 0.28635
# Poissons Ratio (y) = 0.28558 -0.19197
# Poissons Ratio (z) = 0.28254 -0.07050
#
# Static dielectric constant tensor:
#      x y z
#    x 1.833580 0.000000 0.000000 
#    y 0.000000 1.786540 0.000000 
#    z 0.000000 0.000000 1.770320 
# 
# From -- ./inp_files/32429.got.cif
#   From: 2010.05.17/outbox.cif.g08.bks.cpg/sg50_17_cif.got.tgz:32429.got - 2010.06.03 11:33:33.
