data_PCOD9395065
_publ_section_title
;
Structure prediction by ZEFSAII (Michael W. Deem and Ramdas Pophale) SiO2 
 PCOD9395065
Probable space group: P C C M
;
_chemical_formula_sum "Si O2"
_cell_formula_units_Z 34
_cell_length_a 7.970300
_cell_length_b 23.031614
_cell_length_c 8.345761
_cell_angle_alpha 90.000000
_cell_angle_beta 90.000000
_cell_angle_gamma 90.000000
_cell_volume 1532.021942
_symmetry_space_group_name_H-M "P C C M"
_symmetry_group_IT_number 49
_symmetry_cell_setting 'orthorhombic'
loop_
_space_group_symop_operation_xyz
x,y,z
-x,-y,z
x,-y,1/2-z
-x,y,1/2-z
-x,-y,-z
x,y,-z
-x,y,1/2+z
x,-y,1/2+z
loop_
_atom_site_type_symbol
_atom_site_label
_atom_site_fract_x
_atom_site_fract_y
_atom_site_fract_z
Si Si1 0.817052 0.193825 0.307534
Si Si2 0.000000 0.000000 0.750000
Si Si3 0.190996 0.560336 0.810970
Si Si4 0.313714 0.078441 0.309379
Si Si5 0.684209 0.316325 0.309112
O O1 0.798395 0.190055 0.500000
O O2 0.697798 0.147167 0.224211
O O3 0.792142 0.260828 0.257446
O O4 0.000000 0.176699 0.250000
O O5 0.847294 0.951529 0.780657
O O6 0.270172 0.500000 0.750000
O O7 0.270090 0.620623 0.756860
O O8 0.000000 0.561524 0.750000
O O9 0.190574 0.557887 0.000000
O O10 0.500000 0.060784 0.250000
O O11 0.293430 0.066205 0.500000
O O12 0.500000 0.301995 0.250000
O O13 0.692473 0.320113 0.500000
#
# Coordination Sequence:
#
# PCOD9395065 Si02
#       5
#     8   2   8   8   8
#     4  11  24  43  70 101 136 177 226 280 342 406
#     4  12  28  48  76 108 142 192 238 284 346 414
#     4  11  22  39  63  91 125 167 216 271 330 398
#     4  12  27  47  74 106 145 186 236 290 348 414
#     4  11  24  41  62  93 130 171 219 273 332 400
#
# _framework density 22.192892000000001
#
# number of rings (size 3 to 8) (size 9 to 14) (size 15 to 20)
#    0.000    0.706    1.176    7.059    0.000   11.765 
#    0.000    2.353    0.000    0.000    0.000    0.000 
#    0.000    0.000    0.000    0.000    0.000    0.000 
#
# Total GULP energy -189581.171961 kJ/mol
# GULP energy per Si atom -5575.916822 kJ/mol
# Density = 2.214238 g / cm^3
# Si number density = 22.192892 Si / 1000 Ang^3
#
#
#
# Elastic Constant Matrix: (Units=GPa)
#
#
# Indices 1 2 3 4 5 6 
#
# 1 124.3985 31.3183 -0.4203 0.0000 0.0000 0.0000
# 2 31.3183 164.0230 39.2032 0.0000 0.0000 0.0000
# 3 -0.4203 39.2032 76.4698 0.0000 0.0000 0.0000
# 4 0.0000 0.0000 0.0000 -172.1306 0.0000 0.0000
# 5 0.0000 0.0000 0.0000 0.0000 28.5905 0.0000
# 6 0.0000 0.0000 0.0000 0.0000 0.0000 30.9716
#
#
#
# Elastic Compliance Matrix: (Units=1/GPa)
#
#
# Indices 1 2 3 4 5 6 
#
# 1 0.008512 -0.001865 0.001003 0.000000 0.000000 0.000000
# 2 -0.001865 0.007357 -0.003782 0.000000 0.000000 0.000000
# 3 0.001003 -0.003782 0.015021 0.000000 0.000000 0.000000
# 4 0.000000 0.000000 0.000000 -0.005810 0.000000 0.000000
# 5 0.000000 0.000000 0.000000 0.000000 0.034977 0.000000
# 6 0.000000 0.000000 0.000000 0.000000 0.000000 0.032288
#
#
# Mechanical properties :
#
#
# Convention : Reuss Voigt Hill
#
# Bulk Modulus (GPa) = 46.29200 56.12152 51.20676
# Shear Modulus (GPa) = 45.94216 -2.86103 21.54057
#
# Velocity S-wave (km/s) = 4.55480 -1.13665 3.11884
# Velocity P-wave (km/s) = 6.96892 4.86008 6.00775
#
# Compressibility (1/GPa) = 0.02160200
#
# Stress axis : x y z
#
# Youngs Moduli (GPa) = 117.48720 135.93141 66.57205
#
# Poissons Ratio (x) = 0.25349 -0.06676
# Poissons Ratio (y) = 0.21910 0.25176
# Poissons Ratio (z) = -0.11782 0.51406
#
# Static dielectric constant tensor:
#      x y z
#    x 1.781670 0.000000 0.000000 
#    y 0.000000 1.876210 0.000000 
#    z 0.000000 0.000000 1.796870 
# 
# From -- ./inp_files/1526.got.cif
#   From: 2010.05.17/outbox.cif.g08.bks.cpg/sg49_1_cif.got.tgz:1526.got - 2010.06.03 21:02:19.
