data_PCOD9395201
_publ_section_title
;
Structure prediction by ZEFSAII (Michael W. Deem and Ramdas Pophale) SiO2 
 PCOD9395201
Probable space group: P C C M
;
_chemical_formula_sum "Si O2"
_cell_formula_units_Z 64
_cell_length_a 15.000000
_cell_length_b 24.000000
_cell_length_c 9.000000
_cell_angle_alpha 90.000000
_cell_angle_beta 90.000000
_cell_angle_gamma 90.000000
_cell_volume 3240.000000
_symmetry_space_group_name_H-M "P C C M"
_symmetry_group_IT_number 49
_symmetry_cell_setting 'orthorhombic'
loop_
_space_group_symop_operation_xyz
x,y,z
-x,-y,z
x,-y,1/2-z
-x,y,1/2-z
-x,-y,-z
x,y,-z
-x,y,1/2+z
x,-y,1/2+z
loop_
_atom_site_type_symbol
_atom_site_label
_atom_site_fract_x
_atom_site_fract_y
_atom_site_fract_z
Si Si1 0.408337 0.793778 0.178843
Si Si2 0.649093 0.443402 0.676853
Si Si3 0.908136 0.939718 0.321397
Si Si4 0.135573 0.672965 0.834466
Si Si5 0.156261 0.550582 0.827652
Si Si6 0.351868 0.330070 0.673029
Si Si7 0.770268 0.153507 0.177620
Si Si8 0.087914 0.773232 0.330156
O O1 0.500000 0.810922 0.250000
O O2 0.385989 0.730112 0.225627
O O3 0.330504 0.836242 0.223802
O O4 0.412984 0.792988 0.000000
O O5 0.610545 0.500000 0.750000
O O6 0.643305 0.446502 0.500000
O O7 0.752200 0.442933 0.733607
O O8 0.615104 0.383718 0.736084
O O9 0.917516 0.942568 0.500000
O O10 0.823279 0.902087 0.282888
O O11 0.000000 0.917694 0.250000
O O12 0.895903 0.000000 0.250000
O O13 0.107717 0.609178 0.825850
O O14 0.243609 0.673158 0.824210
O O15 0.095084 0.707890 0.701729
O O16 0.112446 0.695893 0.000000
O O17 0.107004 0.500000 0.750000
O O18 0.179363 0.539030 0.000000
O O19 0.376440 0.337969 0.500000
O O20 0.826962 0.202412 0.249059
O O21 0.774235 0.158941 0.000000
O O22 0.086846 0.788134 0.500000
O O23 0.000000 0.794007 0.250000
#
# Coordination Sequence:
#
# PCOD9395201 Si02
#       8
#     8   8   8   8   8   8   8   8
#     4  10  21  38  59  83 114 150 192 241 294 345
#     4  10  17  25  41  67  98 129 171 222 275 344
#     4  10  20  35  60  91 128 166 202 238 281 331
#     4   9  17  32  50  69 100 138 175 219 278 337
#     4   9  16  26  42  64  92 127 167 215 270 328
#     4   9  17  32  52  71 101 141 176 224 287 344
#     4  10  21  40  61  84 118 159 195 236 286 334
#     4  12  24  35  53  80 111 147 186 230 278 336
#
# _framework density 19.753086
#
# number of rings (size 3 to 8) (size 9 to 14) (size 15 to 20)
#    0.000    2.125    1.250    5.250    0.000    5.500 
#    0.000    0.000    0.000    1.125    0.000    7.875 
#    0.000    0.000    0.000    0.000    0.000    0.000 
#
# Total GULP energy -356974.776355 kJ/mol
# GULP energy per Si atom -5577.730881 kJ/mol
# Density = 1.970813 g / cm^3
# Si number density = 19.753086 Si / 1000 Ang^3
#
#
#
# Elastic Constant Matrix: (Units=GPa)
#
#
# Indices 1 2 3 4 5 6 
#
# 1 108.9385 52.3152 28.5252 0.0000 0.0000 0.0000
# 2 52.3152 111.6550 49.0150 0.0000 0.0000 0.0000
# 3 28.5252 49.0150 23.4601 0.0000 0.0000 0.0000
# 4 0.0000 0.0000 0.0000 29.0149 0.0000 0.0000
# 5 0.0000 0.0000 0.0000 0.0000 19.4241 0.0000
# 6 0.0000 0.0000 0.0000 0.0000 0.0000 4.7104
#
#
#
# Elastic Compliance Matrix: (Units=1/GPa)
#
#
# Indices 1 2 3 4 5 6 
#
# 1 0.014594 0.011492 -0.041755 0.000000 0.000000 0.000000
# 2 0.011492 0.117177 -0.258790 0.000000 0.000000 0.000000
# 3 -0.041755 -0.258790 0.634085 0.000000 0.000000 0.000000
# 4 0.000000 0.000000 0.000000 0.034465 0.000000 0.000000
# 5 0.000000 0.000000 0.000000 0.000000 0.051483 0.000000
# 6 0.000000 0.000000 0.000000 0.000000 0.000000 0.212296
#
#
# Mechanical properties :
#
#
# Convention : Reuss Voigt Hill
#
# Bulk Modulus (GPa) = 5.32626 55.97381 30.65003
# Shear Modulus (GPa) = 2.93291 18.24309 10.58800
#
# Velocity S-wave (km/s) = 1.21984 3.04230 2.31772
# Velocity P-wave (km/s) = 2.16478 6.38272 4.76578
#
# Compressibility (1/GPa) = 0.18774909
#
# Stress axis : x y z
#
# Youngs Moduli (GPa) = 68.52017 8.53410 1.57708
#
# Poissons Ratio (x) = -0.09807 0.06585
# Poissons Ratio (y) = -0.78743 0.40813
# Poissons Ratio (z) = 2.86108 2.20854
#
# Static dielectric constant tensor:
#      x y z
#    x 1.706690 0.000000 0.000000 
#    y 0.000000 1.781350 0.000000 
#    z 0.000000 0.000000 1.660070 
# 
# From -- ./inp_files/4305.got.cif
#   From: 2010.05.17/outbox.ucp.g08.bks.cvg/sg49_3_cif.got.tgz:4305.got - 2010.06.11 16:40:14.
