data_PCOD9395933
_publ_section_title
;
Structure prediction by ZEFSAII (Michael W. Deem and Ramdas Pophale) SiO2 
 PCOD9395933
Probable space group: P B A N
;
_chemical_formula_sum "Si O2"
_cell_formula_units_Z 38
_cell_length_a 9.513061
_cell_length_b 16.485379
_cell_length_c 13.240646
_cell_angle_alpha 90.000000
_cell_angle_beta 90.000000
_cell_angle_gamma 90.000000
_cell_volume 2076.483058
_symmetry_space_group_name_H-M "P B A N"
_symmetry_group_IT_number 50
_space_group.IT_coordinate_system_code '2'
_symmetry_cell_setting 'orthorhombic'
loop_
_space_group_symop_operation_xyz
x,y,z
1/2-x,1/2-y,z
x,1/2-y,-z
1/2-x,y,-z
-x,-y,-z
1/2+x,1/2+y,-z
-x,1/2+y,z
1/2+x,-y,z
loop_
_atom_site_type_symbol
_atom_site_label
_atom_site_fract_x
_atom_site_fract_y
_atom_site_fract_z
Si Si1 0.899997 0.227182 0.696106
Si Si2 0.516452 0.250000 0.000000
Si Si3 0.792605 0.534168 0.884543
Si Si4 0.091712 0.604981 0.861833
Si Si5 0.250000 0.750000 0.500000
Si Si6 0.366623 0.315578 0.200850
O O1 0.750000 0.250000 0.745429
O O2 0.946805 0.149048 0.757291
O O3 0.856137 0.209121 0.580770
O O4 0.007080 0.300344 0.719660
O O5 0.595090 0.324775 0.946558
O O6 0.425070 0.212092 0.908967
O O7 0.734442 0.445480 0.858570
O O8 0.709598 0.598738 0.814607
O O9 0.959712 0.545733 0.881111
O O10 0.750000 0.551077 0.000000
O O11 0.250000 0.250000 0.230260
#
# Coordination Sequence:
#
# PCOD9395933 Si02
#       6
#     8   4   8   8   2   8
#     4   9  21  39  64  86 110 158 193 262 306 369
#     4  10  19  36  53  82 123 174 203 228 283 350
#     4  12  23  36  54  89 135 172 197 240 284 354
#     4  11  24  35  59  86 125 167 209 241 296 350
#     4   8  20  44  66  86 112 136 208 264 332 354
#     4  11  18  35  60  85 120 165 202 238 291 355
#
# _framework density 18.300173000000001
#
# number of rings (size 3 to 8) (size 9 to 14) (size 15 to 20)
#    0.632    0.842    6.316    0.947    2.947    1.684 
#    0.000    5.263    0.000    5.053    0.000    0.000 
#    0.000    0.000    0.000    0.000    0.000    0.000 
#
# Total GULP energy -211627.963548 kJ/mol
# GULP energy per Si atom -5569.156935 kJ/mol
# Density = 1.825852 g / cm^3
# Si number density = 18.300173 Si / 1000 Ang^3
#
#
#
# Elastic Constant Matrix: (Units=GPa)
#
#
# Indices 1 2 3 4 5 6 
#
# 1 41.2658 17.0973 33.4803 0.0000 0.0000 0.0000
# 2 17.0973 74.2438 4.7673 0.0000 0.0000 0.0000
# 3 33.4803 4.7673 69.9264 0.0000 0.0000 0.0000
# 4 0.0000 0.0000 0.0000 8.6072 0.0000 0.0000
# 5 0.0000 0.0000 0.0000 0.0000 16.3589 0.0000
# 6 0.0000 0.0000 0.0000 0.0000 0.0000 22.6569
#
#
#
# Elastic Compliance Matrix: (Units=1/GPa)
#
#
# Indices 1 2 3 4 5 6 
#
# 1 0.044910 -0.009001 -0.020889 0.000000 0.000000 0.000000
# 2 -0.009001 0.015332 0.003264 0.000000 0.000000 0.000000
# 3 -0.020889 0.003264 0.024080 0.000000 0.000000 0.000000
# 4 0.000000 0.000000 0.000000 0.116182 0.000000 0.000000
# 5 0.000000 0.000000 0.000000 0.000000 0.061129 0.000000
# 6 0.000000 0.000000 0.000000 0.000000 0.000000 0.044137
#
#
# Mechanical properties :
#
#
# Convention : Reuss Voigt Hill
#
# Bulk Modulus (GPa) = 32.18441 32.90287 32.54364
# Shear Modulus (GPa) = 13.53624 18.19734 15.86679
#
# Velocity S-wave (km/s) = 2.72265 3.15680 2.94773
# Velocity P-wave (km/s) = 5.24489 5.59516 5.42285
#
# Compressibility (1/GPa) = 0.03107094
#
# Stress axis : x y z
#
# Youngs Moduli (GPa) = 22.26654 65.22176 41.52856
#
# Poissons Ratio (x) = 0.58705 0.86750
# Poissons Ratio (y) = 0.20042 -0.13556
# Poissons Ratio (z) = 0.46513 -0.21290
#
# Static dielectric constant tensor:
#      x y z
#    x 1.695290 0.000000 0.000000 
#    y 0.000000 1.676230 0.000000 
#    z 0.000000 0.000000 1.626420 
# 
# From -- ./inp_files/24855.got.cif
#   From: 2010.05.17/outbox.cif.g08.bks.cpg/sg50_13_cif.got.tgz:24855.got - 2010.06.03 11:33:33.
