data_PCOD9395443
_publ_section_title
;
Structure prediction by ZEFSAII (Michael W. Deem and Ramdas Pophale) SiO2 
 PCOD9395443
Probable space group: P B A N
;
_chemical_formula_sum "Si O2"
_cell_formula_units_Z 40
_cell_length_a 9.051833
_cell_length_b 29.035087
_cell_length_c 7.774034
_cell_angle_alpha 90.000000
_cell_angle_beta 90.000000
_cell_angle_gamma 90.000000
_cell_volume 2043.177514
_symmetry_space_group_name_H-M "P B A N"
_symmetry_group_IT_number 50
_space_group.IT_coordinate_system_code '2'
_symmetry_cell_setting 'orthorhombic'
loop_
_space_group_symop_operation_xyz
x,y,z
1/2-x,1/2-y,z
x,1/2-y,-z
1/2-x,y,-z
-x,-y,-z
1/2+x,1/2+y,-z
-x,1/2+y,z
1/2+x,-y,z
loop_
_atom_site_type_symbol
_atom_site_label
_atom_site_fract_x
_atom_site_fract_y
_atom_site_fract_z
Si Si1 0.530125 0.443450 0.255949
Si Si2 0.467520 0.607606 0.118023
Si Si3 0.295428 0.035910 0.202311
Si Si4 0.926933 0.301036 0.958469
Si Si5 0.681959 0.140518 0.667969
O O1 0.360528 0.455082 0.290238
O O2 0.625813 0.489398 0.260572
O O3 0.585212 0.403648 0.381162
O O4 0.548389 0.420811 0.062720
O O5 0.590308 0.578180 0.215848
O O6 0.314033 0.617409 0.217261
O O7 0.510776 0.659665 0.066124
O O8 0.250000 0.030576 0.000000
O O9 0.917151 0.322406 0.768208
O O10 0.980849 0.250000 0.000000
O O11 0.750000 0.300916 0.000000
O O12 0.750000 0.162708 0.500000
#
# Coordination Sequence:
#
# PCOD9395443 Si02
#       5
#     8   8   8   8   8
#     4  10  18  30  49  71  98 132 174 214 249 290
#     4   9  17  30  48  69  97 129 167 214 251 292
#     4  10  17  28  50  74  95 131 180 216 247 289
#     4   8  15  30  51  73  97 123 158 209 255 294
#     4  10  19  32  49  72 103 134 163 200 250 306
#
# _framework density 19.577348000000001
#
# number of rings (size 3 to 8) (size 9 to 14) (size 15 to 20)
#    0.000    2.600    0.000    6.600    0.000    0.000 
#    0.000   13.000    0.000   15.000    0.000    0.000 
#    0.000   51.200    0.000    0.000    0.000    0.000 
#
# Total GULP energy -222775.794400 kJ/mol
# GULP energy per Si atom -5569.394860 kJ/mol
# Density = 1.953279 g / cm^3
# Si number density = 19.577348 Si / 1000 Ang^3
#
#
#
# Elastic Constant Matrix: (Units=GPa)
#
#
# Indices 1 2 3 4 5 6 
#
# 1 63.2890 43.2502 9.4311 0.0000 0.0000 0.0000
# 2 43.2502 182.8803 25.2399 0.0000 0.0000 0.0000
# 3 9.4311 25.2399 20.1478 0.0000 0.0000 0.0000
# 4 0.0000 0.0000 0.0000 2.2304 0.0000 0.0000
# 5 0.0000 0.0000 0.0000 0.0000 10.1314 0.0000
# 6 0.0000 0.0000 0.0000 0.0000 0.0000 22.6352
#
#
#
# Elastic Compliance Matrix: (Units=1/GPa)
#
#
# Indices 1 2 3 4 5 6 
#
# 1 0.019105 -0.003971 -0.003969 0.000000 0.000000 0.000000
# 2 -0.003971 0.007436 -0.007457 0.000000 0.000000 0.000000
# 3 -0.003969 -0.007457 0.060833 0.000000 0.000000 0.000000
# 4 0.000000 0.000000 0.000000 0.448355 0.000000 0.000000
# 5 0.000000 0.000000 0.000000 0.000000 0.098703 0.000000
# 6 0.000000 0.000000 0.000000 0.000000 0.000000 0.044179
#
#
# Mechanical properties :
#
#
# Convention : Reuss Voigt Hill
#
# Bulk Modulus (GPa) = 17.67377 46.90663 32.29020
# Shear Modulus (GPa) = 6.86563 19.55912 13.21238
#
# Velocity S-wave (km/s) = 1.87471 3.16423 2.60067
# Velocity P-wave (km/s) = 3.70585 6.11241 5.05444
#
# Compressibility (1/GPa) = 0.05658101
#
# Stress axis : x y z
#
# Youngs Moduli (GPa) = 52.34134 134.47660 16.43849
#
# Poissons Ratio (x) = 0.53394 0.06525
# Poissons Ratio (y) = 0.20782 0.12258
# Poissons Ratio (z) = 0.20775 1.00280
#
# Static dielectric constant tensor:
#      x y z
#    x 1.712110 0.000000 0.000000 
#    y 0.000000 1.683560 0.000000 
#    z 0.000000 0.000000 1.796420 
# 
# From -- ./inp_files/9732.got.cif
#   From: 2010.05.17/outbox.cif.g08.bks.cpg/sg50_5_cif.got.tgz:9732.got - 2010.06.03 11:33:33.
