data_PCOD9395484
_publ_section_title
;
Structure prediction by ZEFSAII (Michael W. Deem and Ramdas Pophale) SiO2 
 PCOD9395484
Probable space group: P B A N
;
_chemical_formula_sum "Si O2"
_cell_formula_units_Z 46
_cell_length_a 23.357487
_cell_length_b 19.405236
_cell_length_c 6.540195
_cell_angle_alpha 90.000000
_cell_angle_beta 90.000000
_cell_angle_gamma 90.000000
_cell_volume 2964.392747
_symmetry_space_group_name_H-M "P B A N"
_symmetry_group_IT_number 50
_space_group.IT_coordinate_system_code '2'
_symmetry_cell_setting 'orthorhombic'
loop_
_space_group_symop_operation_xyz
x,y,z
1/2-x,1/2-y,z
x,1/2-y,-z
1/2-x,y,-z
-x,-y,-z
1/2+x,1/2+y,-z
-x,1/2+y,z
1/2+x,-y,z
loop_
_atom_site_type_symbol
_atom_site_label
_atom_site_fract_x
_atom_site_fract_y
_atom_site_fract_z
Si Si1 0.890630 0.436363 0.419498
Si Si2 0.482377 0.898699 0.924156
Si Si3 0.250000 0.750000 0.500000
Si Si4 0.581323 0.509951 0.193073
Si Si5 0.435234 0.750000 0.000000
Si Si6 0.316535 0.947449 0.961621
Si Si7 0.152118 0.674670 0.258398
O O1 0.942166 0.418847 0.267273
O O2 0.907832 0.499230 0.567177
O O3 0.835936 0.448081 0.273634
O O4 0.876298 0.374322 0.572665
O O5 0.546120 0.922937 0.871061
O O6 0.472038 0.818694 0.967754
O O7 0.458057 0.946055 0.109633
O O8 0.209095 0.705393 0.355367
O O9 0.641726 0.500587 0.078732
O O10 0.392217 0.767111 0.187028
O O11 0.250000 0.959951 0.000000
O O12 0.332787 0.873445 0.063433
#
# Coordination Sequence:
#
# PCOD9395484 Si02
#       7
#     8   8   2   8   4   8   8
#     4  10  17  36  50  69  94 134 177 203 254 293
#     4  10  19  33  51  70  98 130 165 215 251 297
#     4  12  24  30  48  60 106 144 176 202 244 300
#     4   9  19  34  50  71  95 130 171 206 254 297
#     4  12  20  35  48  70 105 130 164 214 256 298
#     4  10  20  34  51  70 101 132 168 211 242 294
#     4  11  23  33  43  72  98 138 174 202 241 293
#
# _framework density 15.517512
#
# number of rings (size 3 to 8) (size 9 to 14) (size 15 to 20)
#    0.000    1.739    5.217    2.609    2.435    2.087 
#    0.000    0.000    0.000    0.000    0.000    0.609 
#    0.000    0.000    0.000    0.000    0.000    0.000 
#
# Total GULP energy -256611.330576 kJ/mol
# GULP energy per Si atom -5578.507186 kJ/mol
# Density = 1.548219 g / cm^3
# Si number density = 15.517512 Si / 1000 Ang^3
#
#
#
# Elastic Constant Matrix: (Units=GPa)
#
#
# Indices 1 2 3 4 5 6 
#
# 1 88.5347 48.7006 24.3299 0.0000 0.0000 0.0000
# 2 48.7006 70.2863 21.5078 0.0000 0.0000 0.0000
# 3 24.3299 21.5078 84.7008 0.0000 0.0000 0.0000
# 4 0.0000 0.0000 0.0000 9.3759 0.0000 0.0000
# 5 0.0000 0.0000 0.0000 0.0000 17.1913 0.0000
# 6 0.0000 0.0000 0.0000 0.0000 0.0000 24.0132
#
#
#
# Elastic Compliance Matrix: (Units=1/GPa)
#
#
# Indices 1 2 3 4 5 6 
#
# 1 0.018638 -0.012226 -0.002249 0.000000 0.000000 0.000000
# 2 -0.012226 0.023446 -0.002442 0.000000 0.000000 0.000000
# 3 -0.002249 -0.002442 0.013072 0.000000 0.000000 0.000000
# 4 0.000000 0.000000 0.000000 0.106656 0.000000 0.000000
# 5 0.000000 0.000000 0.000000 0.000000 0.058169 0.000000
# 6 0.000000 0.000000 0.000000 0.000000 0.000000 0.041644
#
#
# Mechanical properties :
#
#
# Convention : Reuss Voigt Hill
#
# Bulk Modulus (GPa) = 46.89833 48.06649 47.48241
# Shear Modulus (GPa) = 16.52527 20.04834 18.28681
#
# Velocity S-wave (km/s) = 3.26689 3.59831 3.43660
# Velocity P-wave (km/s) = 6.67222 6.95030 6.81268
#
# Compressibility (1/GPa) = 0.02132272
#
# Stress axis : x y z
#
# Youngs Moduli (GPa) = 53.65293 42.65133 76.49730
#
# Poissons Ratio (x) = 0.52145 0.17206
# Poissons Ratio (y) = 0.65596 0.18678
# Poissons Ratio (z) = 0.12068 0.10414
#
# Static dielectric constant tensor:
#      x y z
#    x 1.524980 0.000000 0.000000 
#    y 0.000000 1.515670 0.000000 
#    z 0.000000 0.000000 1.551560 
# 
# From -- ./inp_files/4624.got.cif
#   From: 2010.05.17/outbox.cif.g08.bks.cpg/sg50_3_cif.got.tgz:4624.got - 2010.06.03 11:33:33.
