data_PCOD9395424
_publ_section_title
;
Structure prediction by ZEFSAII (Michael W. Deem and Ramdas Pophale) SiO2 
 PCOD9395424
Probable space group: P B A N
;
_chemical_formula_sum "Si O2"
_cell_formula_units_Z 44
_cell_length_a 31.426881
_cell_length_b 9.391182
_cell_length_c 6.744189
_cell_angle_alpha 90.000000
_cell_angle_beta 90.000000
_cell_angle_gamma 90.000000
_cell_volume 1990.449992
_symmetry_space_group_name_H-M "P B A N"
_symmetry_group_IT_number 50
_space_group.IT_coordinate_system_code '2'
_symmetry_cell_setting 'orthorhombic'
loop_
_space_group_symop_operation_xyz
x,y,z
1/2-x,1/2-y,z
x,1/2-y,-z
1/2-x,y,-z
-x,-y,-z
1/2+x,1/2+y,-z
-x,1/2+y,z
1/2+x,-y,z
loop_
_atom_site_type_symbol
_atom_site_label
_atom_site_fract_x
_atom_site_fract_y
_atom_site_fract_z
Si Si1 0.634457 0.604857 0.585086
Si Si2 0.609873 0.339641 0.313704
Si Si3 0.750000 0.250000 0.500000
Si Si4 0.527277 0.042193 0.806836
Si Si5 0.250000 0.750000 0.000000
Si Si6 0.317040 0.619965 0.192227
Si Si7 0.951866 0.765375 0.761036
O O1 0.653952 0.750000 0.500000
O O2 0.628545 0.483580 0.414739
O O3 0.662098 0.528909 0.753972
O O4 0.589448 0.655978 0.677286
O O5 0.591209 0.250000 0.500000
O O6 0.572291 0.379864 0.163885
O O7 0.645521 0.236128 0.223952
O O8 0.719656 0.337285 0.647292
O O9 0.494292 0.148890 0.708487
O O10 0.540317 0.897422 0.698163
O O11 0.500000 0.000000 0.000000
O O12 0.288668 0.630086 0.995223
O O13 0.946572 0.750000 0.000000
#
# Coordination Sequence:
#
# PCOD9395424 Si02
#       7
#     8   8   2   8   2   8   8
#     4  11  21  40  65  95 128 171 211 267 329 384
#     4  10  21  39  64  96 120 172 223 269 326 393
#     4  10  16  42  70  94 128 146 214 258 332 386
#     4  10  22  39  56  85 130 174 220 273 319 374
#     4  10  24  42  72 104 128 158 220 272 332 402
#     4  10  22  41  71  98 127 164 210 273 323 409
#     4  10  23  38  56  87 128 177 217 272 314 378
#
# _framework density 22.105554000000001
#
# number of rings (size 3 to 8) (size 9 to 14) (size 15 to 20)
#    0.000    1.818    4.545    0.000    5.091    4.364 
#    1.636    0.455    0.000    1.091    0.000    0.000 
#    0.000    0.000    0.000    0.000    0.000    0.000 
#
# Total GULP energy -244941.347703 kJ/mol
# GULP energy per Si atom -5566.848811 kJ/mol
# Density = 2.205524 g / cm^3
# Si number density = 22.105554 Si / 1000 Ang^3
#
#
#
# Elastic Constant Matrix: (Units=GPa)
#
#
# Indices 1 2 3 4 5 6 
#
# 1 158.2643 67.1325 16.4934 0.0000 0.0000 0.0000
# 2 67.1325 162.9233 2.8527 0.0000 0.0000 0.0000
# 3 16.4934 2.8527 53.9598 0.0000 0.0000 0.0000
# 4 0.0000 0.0000 0.0000 -62.1124 0.0000 0.0000
# 5 0.0000 0.0000 0.0000 0.0000 40.2823 0.0000
# 6 0.0000 0.0000 0.0000 0.0000 0.0000 22.0966
#
#
#
# Elastic Compliance Matrix: (Units=1/GPa)
#
#
# Indices 1 2 3 4 5 6 
#
# 1 0.007921 -0.003224 -0.002251 0.000000 0.000000 0.000000
# 2 -0.003224 0.007456 0.000591 0.000000 0.000000 0.000000
# 3 -0.002251 0.000591 0.019189 0.000000 0.000000 0.000000
# 4 0.000000 0.000000 0.000000 -0.016100 0.000000 0.000000
# 5 0.000000 0.000000 0.000000 0.000000 0.024825 0.000000
# 6 0.000000 0.000000 0.000000 0.000000 0.000000 0.045256
#
#
# Mechanical properties :
#
#
# Convention : Reuss Voigt Hill
#
# Bulk Modulus (GPa) = 40.32469 60.90049 50.61259
# Shear Modulus (GPa) = 46.91308 19.29789 33.10548
#
# Velocity S-wave (km/s) = 4.61177 2.95784 3.87409
# Velocity P-wave (km/s) = 6.82930 6.26696 6.55416
#
# Compressibility (1/GPa) = 0.02479870
#
# Stress axis : x y z
#
# Youngs Moduli (GPa) = 126.24989 134.11845 52.11323
#
# Poissons Ratio (x) = 0.43245 0.11729
# Poissons Ratio (y) = 0.40707 -0.03082
# Poissons Ratio (z) = 0.28414 -0.07932
#
# Static dielectric constant tensor:
#      x y z
#    x 0.329080 0.000000 0.000000 
#    y 0.000000 1.919570 0.000000 
#    z 0.000000 0.000000 2.285330 
# 
# From -- ./inp_files/16881.got.cif
#   From: 2010.05.17/outbox.cif.g08.bks.cpg/sg50_9_cif.got.tgz:16881.got - 2010.06.03 11:33:33.
