data_PCOD9395782
_publ_section_title
;
Structure prediction by ZEFSAII (Michael W. Deem and Ramdas Pophale) SiO2 
 PCOD9395782
Probable space group: P B A N
;
_chemical_formula_sum "Si O2"
_cell_formula_units_Z 48
_cell_length_a 17.237066
_cell_length_b 5.358052
_cell_length_c 24.835897
_cell_angle_alpha 90.000000
_cell_angle_beta 90.000000
_cell_angle_gamma 90.000000
_cell_volume 2293.771322
_symmetry_space_group_name_H-M "P B A N"
_symmetry_group_IT_number 50
_space_group.IT_coordinate_system_code '2'
_symmetry_cell_setting 'orthorhombic'
loop_
_space_group_symop_operation_xyz
x,y,z
1/2-x,1/2-y,z
x,1/2-y,-z
1/2-x,y,-z
-x,-y,-z
1/2+x,1/2+y,-z
-x,1/2+y,z
1/2+x,-y,z
loop_
_atom_site_type_symbol
_atom_site_label
_atom_site_fract_x
_atom_site_fract_y
_atom_site_fract_z
Si Si1 0.050861 0.890500 0.790339
Si Si2 0.210681 0.499720 0.922233
Si Si3 0.530996 0.010304 0.061434
Si Si4 0.276976 0.997318 0.197057
Si Si5 0.548825 0.398960 0.333706
Si Si6 0.052113 0.736978 0.558717
O O1 0.077685 0.881756 0.727359
O O2 0.010942 0.617757 0.798348
O O3 0.132347 0.966724 0.818644
O O4 0.250000 0.250000 0.942278
O O5 0.122045 0.498407 0.937553
O O6 0.224975 0.499110 0.857789
O O7 0.250000 0.750000 0.942126
O O8 0.496322 0.765157 0.087879
O O9 0.500000 0.000000 0.000000
O O10 0.250000 0.250000 0.225505
O O11 0.250000 0.750000 0.227157
O O12 0.518798 0.684736 0.337041
O O13 0.597096 0.310991 0.386288
O O14 0.091407 0.750000 0.500000
O O15 0.012984 0.461198 0.559736
#
# Coordination Sequence:
#
# PCOD9395782 Si02
#       6
#     8   8   8   8   8   8
#     4  10  19  33  53  76 101 135 176 217 259 309
#     4  10  21  40  60  83 113 144 173 212 263 311
#     4  10  21  40  62  88 113 141 179 217 255 307
#     4  10  21  38  55  78 108 141 174 215 265 314
#     4   8  14  23  37  59  87 119 158 202 247 293
#     4   8  12  18  29  48  78 116 151 187 240 299
#
# _framework density 20.926235999999999
#
# number of rings (size 3 to 8) (size 9 to 14) (size 15 to 20)
#    0.000    2.667    0.000    2.000    0.000    0.000 
#    0.000   30.000    0.000    0.000    0.000    0.000 
#    0.000    0.667    0.000    6.333    0.000    4.667 
#
# Total GULP energy -267240.290228 kJ/mol
# GULP energy per Si atom -5567.506046 kJ/mol
# Density = 2.087861 g / cm^3
# Si number density = 20.926236 Si / 1000 Ang^3
#
#
#
# Elastic Constant Matrix: (Units=GPa)
#
#
# Indices 1 2 3 4 5 6 
#
# 1 137.6188 57.3868 -3.4258 0.0000 0.0000 0.0000
# 2 57.3868 213.9140 -13.8913 0.0000 0.0000 0.0000
# 3 -3.4258 -13.8913 99.8004 0.0000 0.0000 0.0000
# 4 0.0000 0.0000 0.0000 26.6227 0.0000 0.0000
# 5 0.0000 0.0000 0.0000 0.0000 3.7610 0.0000
# 6 0.0000 0.0000 0.0000 0.0000 0.0000 29.4314
#
#
#
# Elastic Compliance Matrix: (Units=1/GPa)
#
#
# Indices 1 2 3 4 5 6 
#
# 1 0.008182 -0.002197 -0.000025 0.000000 0.000000 0.000000
# 2 -0.002197 0.005307 0.000663 0.000000 0.000000 0.000000
# 3 -0.000025 0.000663 0.010111 0.000000 0.000000 0.000000
# 4 0.000000 0.000000 0.000000 0.037562 0.000000 0.000000
# 5 0.000000 0.000000 0.000000 0.000000 0.265885 0.000000
# 6 0.000000 0.000000 0.000000 0.000000 0.000000 0.033977
#
#
# Mechanical properties :
#
#
# Convention : Reuss Voigt Hill
#
# Bulk Modulus (GPa) = 48.81833 59.05253 53.93543
# Shear Modulus (GPa) = 13.47824 39.38059 26.42941
#
# Velocity S-wave (km/s) = 2.54063 4.34277 3.55770
# Velocity P-wave (km/s) = 5.65560 7.30936 6.53501
#
# Compressibility (1/GPa) = 0.02048411
#
# Stress axis : x y z
#
# Youngs Moduli (GPa) = 122.22272 188.42611 98.89759
#
# Poissons Ratio (x) = 0.41389 0.00246
# Poissons Ratio (y) = 0.26847 -0.06560
# Poissons Ratio (z) = 0.00304 -0.12498
#
# Static dielectric constant tensor:
#      x y z
#    x 1.694520 0.000000 0.000000 
#    y 0.000000 1.877940 0.000000 
#    z 0.000000 0.000000 2.541820 
# 
# From -- ./inp_files/32032.got.cif
#   From: 2010.05.17/outbox.cif.g08.bks.cpg/sg50_17_cif.got.tgz:32032.got - 2010.06.03 11:33:33.
