data_PCOD9395890
_publ_section_title
;
Structure prediction by ZEFSAII (Michael W. Deem and Ramdas Pophale) SiO2 
 PCOD9395890
Probable space group: P B A N
;
_chemical_formula_sum "Si O2"
_cell_formula_units_Z 64
_cell_length_a 9.741054
_cell_length_b 22.921427
_cell_length_c 16.392955
_cell_angle_alpha 90.000000
_cell_angle_beta 90.000000
_cell_angle_gamma 90.000000
_cell_volume 3660.200274
_symmetry_space_group_name_H-M "P B A N"
_symmetry_group_IT_number 50
_space_group.IT_coordinate_system_code '2'
_symmetry_cell_setting 'orthorhombic'
loop_
_space_group_symop_operation_xyz
x,y,z
1/2-x,1/2-y,z
x,1/2-y,-z
1/2-x,y,-z
-x,-y,-z
1/2+x,1/2+y,-z
-x,1/2+y,z
1/2+x,-y,z
loop_
_atom_site_type_symbol
_atom_site_label
_atom_site_fract_x
_atom_site_fract_y
_atom_site_fract_z
Si Si1 0.585509 0.819590 0.158015
Si Si2 0.406867 0.248427 0.403095
Si Si3 0.225797 0.063042 0.594714
Si Si4 0.530097 0.868786 0.329844
Si Si5 0.769678 0.074223 0.403816
Si Si6 0.513283 0.370537 0.669539
Si Si7 0.091272 0.679468 0.998584
Si Si8 0.413513 0.179336 0.160983
O O1 0.528071 0.856257 0.233958
O O2 0.568696 0.749620 0.174867
O O3 0.749726 0.829479 0.148395
O O4 0.498985 0.835719 0.077875
O O5 0.250000 0.250000 0.370105
O O6 0.400095 0.250000 0.500000
O O7 0.481957 0.305591 0.371337
O O8 0.478290 0.189544 0.375848
O O9 0.250000 0.078616 0.500000
O O10 0.323735 0.103884 0.647561
O O11 0.074739 0.079088 0.625160
O O12 0.256075 0.994843 0.604140
O O13 0.419982 0.910842 0.371045
O O14 0.750000 0.089018 0.500000
O O15 0.668323 0.111219 0.346897
O O16 0.467500 0.357502 0.761932
O O17 0.004914 0.663673 0.917866
O O18 0.098065 0.750000 0.000000
O O19 0.250000 0.658369 0.000000
#
# Coordination Sequence:
#
# PCOD9395890 Si02
#       8
#     8   8   8   8   8   8   8   8
#     4  10  19  35  56  85 116 150 191 233 281 349
#     4  11  20  33  55  82 113 152 194 232 286 355
#     4  11  22  41  63  80 109 157 210 251 282 334
#     4  12  22  37  59  86 116 153 194 243 295 348
#     4  11  26  41  55  82 117 157 204 253 296 332
#     4  12  22  37  59  86 116 153 194 243 295 348
#     4   9  19  33  55  83 120 155 180 220 286 353
#     4  10  19  35  56  85 116 150 191 233 281 349
#
# _framework density 17.485382999999999
#
# number of rings (size 3 to 8) (size 9 to 14) (size 15 to 20)
#    0.000    1.250    3.750    3.375    1.750    4.000 
#    0.000    1.250    0.000    0.000    0.000    5.250 
#    0.000    0.000    0.000    0.000    0.000    0.000 
#
# Total GULP energy -357256.218114 kJ/mol
# GULP energy per Si atom -5582.128408 kJ/mol
# Density = 1.744559 g / cm^3
# Si number density = 17.485383 Si / 1000 Ang^3
#
#
#
# Elastic Constant Matrix: (Units=GPa)
#
#
# Indices 1 2 3 4 5 6 
#
# 1 38.1509 -0.2388 19.8537 0.0000 0.0000 0.0000
# 2 -0.2388 49.1557 24.8171 0.0000 0.0000 0.0000
# 3 19.8537 24.8171 129.8492 0.0000 0.0000 0.0000
# 4 0.0000 0.0000 0.0000 -13.6259 0.0000 0.0000
# 5 0.0000 0.0000 0.0000 0.0000 26.3534 0.0000
# 6 0.0000 0.0000 0.0000 0.0000 0.0000 -12.3171
#
#
#
# Elastic Compliance Matrix: (Units=1/GPa)
#
#
# Indices 1 2 3 4 5 6 
#
# 1 0.028778 0.002613 -0.004900 0.000000 0.000000 0.000000
# 2 0.002613 0.022753 -0.004748 0.000000 0.000000 0.000000
# 3 -0.004900 -0.004748 0.009358 0.000000 0.000000 0.000000
# 4 0.000000 0.000000 0.000000 -0.073389 0.000000 0.000000
# 5 0.000000 0.000000 0.000000 0.000000 0.037946 0.000000
# 6 0.000000 0.000000 0.000000 0.000000 0.000000 -0.081188
#
#
# Mechanical properties :
#
#
# Convention : Reuss Voigt Hill
#
# Bulk Modulus (GPa) = 21.35828 34.00222 27.68025
# Shear Modulus (GPa) = -191.81668 11.59698 -90.10985
#
# Velocity S-wave (km/s) = -10.48519 2.57814 -7.18653
# Velocity P-wave (km/s) = 11.59070 5.32454 7.27989
#
# Compressibility (1/GPa) = 0.04682026
#
# Stress axis : x y z
#
# Youngs Moduli (GPa) = 34.74906 43.94936 106.86187
#
# Poissons Ratio (x) = -0.11486 0.52357
# Poissons Ratio (y) = -0.09081 0.50741
# Poissons Ratio (z) = 0.17025 0.20868
#
# Static dielectric constant tensor:
#      x y z
#    x 1.762460 0.000000 0.000000 
#    y 0.000000 1.563140 0.000000 
#    z 0.000000 0.000000 1.595110 
# 
# From -- ./inp_files/25417.got.cif
#   From: 2010.05.17/outbox.cif.g08.bks.cpg/sg50_13_cif.got.tgz:25417.got - 2010.06.03 11:33:33.
