data_PCOD9395885
_publ_section_title
;
Structure prediction by ZEFSAII (Michael W. Deem and Ramdas Pophale) SiO2 
 PCOD9395885
Probable space group: P B A N
;
_chemical_formula_sum "Si O2"
_cell_formula_units_Z 64
_cell_length_a 18.734522
_cell_length_b 9.187675
_cell_length_c 18.515373
_cell_angle_alpha 90.000000
_cell_angle_beta 90.000000
_cell_angle_gamma 90.000000
_cell_volume 3186.990043
_symmetry_space_group_name_H-M "P B A N"
_symmetry_group_IT_number 50
_space_group.IT_coordinate_system_code '2'
_symmetry_cell_setting 'orthorhombic'
loop_
_space_group_symop_operation_xyz
x,y,z
1/2-x,1/2-y,z
x,1/2-y,-z
1/2-x,y,-z
-x,-y,-z
1/2+x,1/2+y,-z
-x,1/2+y,z
1/2+x,-y,z
loop_
_atom_site_type_symbol
_atom_site_label
_atom_site_fract_x
_atom_site_fract_y
_atom_site_fract_z
Si Si1 0.288278 0.408571 0.616704
Si Si2 0.039119 0.750224 0.664975
Si Si3 0.308653 0.631756 0.323885
Si Si4 0.866727 0.568353 0.191777
Si Si5 0.442201 0.394096 0.543604
Si Si6 0.738680 0.925290 0.080313
Si Si7 0.487951 0.493364 0.757521
Si Si8 0.334178 0.094162 0.215306
O O1 0.250000 0.250000 0.602585
O O2 0.226434 0.531454 0.613655
O O3 0.363074 0.442116 0.574342
O O4 0.307644 0.420811 0.702392
O O5 0.121323 0.717822 0.649596
O O6 0.020074 0.914969 0.683184
O O7 0.989425 0.680586 0.605632
O O8 0.017452 0.664666 0.737401
O O9 0.250000 0.750000 0.300320
O O10 0.336012 0.531959 0.256881
O O11 0.837803 0.532731 0.112695
O O12 0.841258 0.732237 0.206925
O O13 0.951268 0.563529 0.194914
O O14 0.421290 0.250000 0.500000
O O15 0.500000 0.500000 0.500000
O O16 0.750000 0.750000 0.074938
O O17 0.788179 0.966040 0.148894
O O18 0.750000 0.984365 0.000000
O O19 0.410535 0.480990 0.789805
#
# Coordination Sequence:
#
# PCOD9395885 Si02
#       8
#     8   8   8   8   8   8   8   8
#     4  12  23  44  71  96 124 164 227 274 319 393
#     4  11  24  40  66  90 128 158 213 264 328 388
#     4  11  24  38  65  99 125 156 212 281 316 374
#     4  10  19  35  55  97 126 162 211 263 318 374
#     4  12  29  47  68  91 129 175 211 268 347 411
#     4   9  18  33  58  90 128 168 211 264 324 383
#     4  11  20  36  64  94 120 163 211 269 309 379
#     4  11  18  35  64  93 125 161 213 267 314 375
#
# _framework density 20.081644000000001
#
# number of rings (size 3 to 8) (size 9 to 14) (size 15 to 20)
#    0.000    1.125    5.000    1.875    5.250    0.250 
#    0.000    0.625    0.000    0.375    0.000    0.000 
#    0.000    0.000    0.000    0.000    0.000    0.000 
#
# Total GULP energy -356529.108229 kJ/mol
# GULP energy per Si atom -5570.767316 kJ/mol
# Density = 2.003594 g / cm^3
# Si number density = 20.081644 Si / 1000 Ang^3
#
#
#
# Elastic Constant Matrix: (Units=GPa)
#
#
# Indices 1 2 3 4 5 6 
#
# 1 143.7154 24.6573 44.5926 0.0000 0.0000 0.0000
# 2 24.6573 71.0730 18.1238 0.0000 0.0000 0.0000
# 3 44.5926 18.1238 71.4515 0.0000 0.0000 0.0000
# 4 0.0000 0.0000 0.0000 11.0552 0.0000 0.0000
# 5 0.0000 0.0000 0.0000 0.0000 24.3655 0.0000
# 6 0.0000 0.0000 0.0000 0.0000 0.0000 28.1696
#
#
#
# Elastic Compliance Matrix: (Units=1/GPa)
#
#
# Indices 1 2 3 4 5 6 
#
# 1 0.008833 -0.001773 -0.005063 0.000000 0.000000 0.000000
# 2 -0.001773 0.015399 -0.002799 0.000000 0.000000 0.000000
# 3 -0.005063 -0.002799 0.017865 0.000000 0.000000 0.000000
# 4 0.000000 0.000000 0.000000 0.090455 0.000000 0.000000
# 5 0.000000 0.000000 0.000000 0.000000 0.041042 0.000000
# 6 0.000000 0.000000 0.000000 0.000000 0.000000 0.035499
#
#
# Mechanical properties :
#
#
# Convention : Reuss Voigt Hill
#
# Bulk Modulus (GPa) = 43.80886 51.22083 47.51485
# Shear Modulus (GPa) = 21.18876 25.97581 23.58228
#
# Velocity S-wave (km/s) = 3.25180 3.60044 3.43055
# Velocity P-wave (km/s) = 5.99681 6.54568 6.27724
#
# Compressibility (1/GPa) = 0.02282643
#
# Stress axis : x y z
#
# Youngs Moduli (GPa) = 113.20585 64.93880 55.97416
#
# Poissons Ratio (x) = 0.11517 0.28340
# Poissons Ratio (y) = 0.20077 0.15668
# Poissons Ratio (z) = 0.57317 0.18178
#
# Static dielectric constant tensor:
#      x y z
#    x 1.763490 0.000000 0.000000 
#    y 0.000000 1.793500 0.000000 
#    z 0.000000 0.000000 1.880330 
# 
# From -- ./inp_files/31105.got.cif
#   From: 2010.05.17/outbox.cif.g08.bks.cpg/sg50_16_cif.got.tgz:31105.got - 2010.06.03 11:33:33.
