data_PCOD9395470
_publ_section_title
;
Structure prediction by ZEFSAII (Michael W. Deem and Ramdas Pophale) SiO2 
 PCOD9395470
Probable space group: P B A N
;
_chemical_formula_sum "Si O2"
_cell_formula_units_Z 44
_cell_length_a 9.203556
_cell_length_b 14.963395
_cell_length_c 14.917605
_cell_angle_alpha 90.000000
_cell_angle_beta 90.000000
_cell_angle_gamma 90.000000
_cell_volume 2054.399511
_symmetry_space_group_name_H-M "P B A N"
_symmetry_group_IT_number 50
_space_group.IT_coordinate_system_code '2'
_symmetry_cell_setting 'orthorhombic'
loop_
_space_group_symop_operation_xyz
x,y,z
1/2-x,1/2-y,z
x,1/2-y,-z
1/2-x,y,-z
-x,-y,-z
1/2+x,1/2+y,-z
-x,1/2+y,z
1/2+x,-y,z
loop_
_atom_site_type_symbol
_atom_site_label
_atom_site_fract_x
_atom_site_fract_y
_atom_site_fract_z
Si Si1 0.799226 0.447512 0.901672
Si Si2 0.587022 0.162876 0.306399
Si Si3 0.891042 0.076068 0.379703
Si Si4 0.056321 0.016861 0.210345
Si Si5 0.598974 0.624768 0.459276
Si Si6 0.250000 0.750000 0.835558
O O1 0.720517 0.506369 0.824236
O O2 0.759761 0.342612 0.888108
O O3 0.966504 0.458231 0.877740
O O4 0.750000 0.474653 0.000000
O O5 0.737309 0.123082 0.352500
O O6 0.526597 0.082501 0.246445
O O7 0.473166 0.184705 0.382753
O O8 0.619278 0.239605 0.235431
O O9 0.977009 0.116448 0.463774
O O10 0.869250 0.973088 0.413385
O O11 0.999744 0.074462 0.294097
O O12 0.750000 0.653740 0.500000
#
# Coordination Sequence:
#
# PCOD9395470 Si02
#       6
#     8   8   8   8   8   4
#     4  11  22  38  62  90 115 147 195 250 307 359
#     4  10  20  35  57  84 118 159 198 233 289 347
#     4  10  17  32  52  85 120 154 193 235 289 343
#     4  10  19  34  58  88 116 145 192 247 289 349
#     4  10  19  28  54  89 117 152 197 247 282 334
#     4  10  21  40  59  82 116 162 192 235 301 364
#
# _framework density 21.417451
#
# number of rings (size 3 to 8) (size 9 to 14) (size 15 to 20)
#    0.000    1.818    3.636    4.636    2.545    0.000 
#    0.000    1.818    0.000   10.909    0.000   10.182 
#    0.000    0.000    0.000    0.000    0.000    0.000 
#
# Total GULP energy -245310.214349 kJ/mol
# GULP energy per Si atom -5575.232144 kJ/mol
# Density = 2.136870 g / cm^3
# Si number density = 21.417451 Si / 1000 Ang^3
#
#
#
# Elastic Constant Matrix: (Units=GPa)
#
#
# Indices 1 2 3 4 5 6 
#
# 1 64.7781 8.5678 16.8940 0.0000 0.0000 0.0000
# 2 8.5678 35.3402 2.2628 0.0000 0.0000 0.0000
# 3 16.8940 2.2628 101.5912 0.0000 0.0000 0.0000
# 4 0.0000 0.0000 0.0000 -23.8171 0.0000 0.0000
# 5 0.0000 0.0000 0.0000 0.0000 25.2976 0.0000
# 6 0.0000 0.0000 0.0000 0.0000 0.0000 15.1864
#
#
#
# Elastic Compliance Matrix: (Units=1/GPa)
#
#
# Indices 1 2 3 4 5 6 
#
# 1 0.016648 -0.003864 -0.002682 0.000000 0.000000 0.000000
# 2 -0.003864 0.029234 -0.000009 0.000000 0.000000 0.000000
# 3 -0.002682 -0.000009 0.010290 0.000000 0.000000 0.000000
# 4 0.000000 0.000000 0.000000 -0.041987 0.000000 0.000000
# 5 0.000000 0.000000 0.000000 0.000000 0.039529 0.000000
# 6 0.000000 0.000000 0.000000 0.000000 0.000000 0.065848
#
#
# Mechanical properties :
#
#
# Convention : Reuss Voigt Hill
#
# Bulk Modulus (GPa) = 23.22292 28.57319 25.89805
# Shear Modulus (GPa) = 34.00744 14.93239 24.46991
#
# Velocity S-wave (km/s) = 3.98909 2.64333 3.38379
# Velocity P-wave (km/s) = 5.66424 4.76301 5.23307
#
# Compressibility (1/GPa) = 0.04306090
#
# Stress axis : x y z
#
# Youngs Moduli (GPa) = 60.06736 34.20696 97.18531
#
# Poissons Ratio (x) = 0.13219 0.26069
# Poissons Ratio (y) = 0.23212 0.00083
# Poissons Ratio (z) = 0.16112 0.00029
#
# Static dielectric constant tensor:
#      x y z
#    x 1.809530 0.000000 0.000000 
#    y 0.000000 1.814930 0.000000 
#    z 0.000000 0.000000 1.793040 
# 
# From -- ./inp_files/24884.got.cif
#   From: 2010.05.17/outbox.cif.g08.bks.cpg/sg50_13_cif.got.tgz:24884.got - 2010.06.03 11:33:33.
