data_PCOD9395073
_publ_section_title
;
Structure prediction by ZEFSAII (Michael W. Deem and Ramdas Pophale) SiO2 
 PCOD9395073
Probable space group: P C C M
;
_chemical_formula_sum "Si O2"
_cell_formula_units_Z 48
_cell_length_a 7.980471
_cell_length_b 16.776240
_cell_length_c 16.165495
_cell_angle_alpha 90.000000
_cell_angle_beta 90.000000
_cell_angle_gamma 90.000000
_cell_volume 2164.273600
_symmetry_space_group_name_H-M "P C C M"
_symmetry_group_IT_number 49
_symmetry_cell_setting 'orthorhombic'
loop_
_space_group_symop_operation_xyz
x,y,z
-x,-y,z
x,-y,1/2-z
-x,y,1/2-z
-x,-y,-z
x,y,-z
-x,y,1/2+z
x,-y,1/2+z
loop_
_atom_site_type_symbol
_atom_site_label
_atom_site_fract_x
_atom_site_fract_y
_atom_site_fract_z
Si Si1 0.699383 0.590027 0.248895
Si Si2 0.211067 0.311745 0.406519
Si Si3 0.811182 0.697611 0.909836
Si Si4 0.236496 0.948440 0.094546
Si Si5 0.333241 0.168629 0.294539
Si Si6 0.864620 0.875867 0.135084
O O1 0.768981 0.500000 0.250000
O O2 0.500000 0.586300 0.250000
O O3 0.746059 0.623780 0.338181
O O4 0.750099 0.647963 0.171269
O O5 0.276430 0.321238 0.500000
O O6 0.276091 0.231714 0.362828
O O7 0.011081 0.311737 0.410632
O O8 0.798325 0.794181 0.905977
O O9 0.743135 0.670218 0.000000
O O10 0.370818 0.911495 0.155858
O O11 0.057883 0.902702 0.115527
O O12 0.222320 0.042309 0.108206
O O13 0.273558 0.931346 0.000000
O O14 0.500000 0.198758 0.250000
O O15 0.188851 0.145687 0.228919
#
# Coordination Sequence:
#
# PCOD9395073 Si02
#       6
#     8   8   8   8   8   8
#     4  11  26  48  71 103 145 182 218 272 343 421
#     4  11  24  44  70 101 135 176 228 288 340 397
#     4  11  23  42  72 106 137 176 232 287 338 403
#     4  11  23  42  65  95 133 181 238 292 338 397
#     4  12  25  42  62  95 137 181 227 279 345 416
#     4  11  22  40  67  97 133 181 233 283 341 399
#
# _framework density 22.178343000000002
#
# number of rings (size 3 to 8) (size 9 to 14) (size 15 to 20)
#    0.000    0.833    3.333    4.500    0.000    5.333 
#    0.000    8.333    0.000    0.000    0.000    0.000 
#    0.000    0.000    0.000    0.000    0.000    0.000 
#
# Total GULP energy -267798.405931 kJ/mol
# GULP energy per Si atom -5579.133457 kJ/mol
# Density = 2.212786 g / cm^3
# Si number density = 22.178343 Si / 1000 Ang^3
#
#
#
# Elastic Constant Matrix: (Units=GPa)
#
#
# Indices 1 2 3 4 5 6 
#
# 1 52.8137 24.2521 30.9514 0.0000 0.0000 0.0000
# 2 24.2521 134.4639 70.6131 0.0000 0.0000 0.0000
# 3 30.9514 70.6131 216.0884 0.0000 0.0000 0.0000
# 4 0.0000 0.0000 0.0000 6.1933 0.0000 0.0000
# 5 0.0000 0.0000 0.0000 0.0000 20.0083 0.0000
# 6 0.0000 0.0000 0.0000 0.0000 0.0000 23.1977
#
#
#
# Elastic Compliance Matrix: (Units=1/GPa)
#
#
# Indices 1 2 3 4 5 6 
#
# 1 0.021466 -0.002724 -0.002184 0.000000 0.000000 0.000000
# 2 -0.002724 0.009323 -0.002656 0.000000 0.000000 0.000000
# 3 -0.002184 -0.002656 0.005809 0.000000 0.000000 0.000000
# 4 0.000000 0.000000 0.000000 0.161465 0.000000 0.000000
# 5 0.000000 0.000000 0.000000 0.000000 0.049979 0.000000
# 6 0.000000 0.000000 0.000000 0.000000 0.000000 0.043108
#
#
# Mechanical properties :
#
#
# Convention : Reuss Voigt Hill
#
# Bulk Modulus (GPa) = 46.58264 72.77768 59.68016
# Shear Modulus (GPa) = 15.95220 28.38315 22.16768
#
# Velocity S-wave (km/s) = 2.68483 3.58127 3.16495
# Velocity P-wave (km/s) = 5.53718 7.07012 6.35008
#
# Compressibility (1/GPa) = 0.02146722
#
# Stress axis : x y z
#
# Youngs Moduli (GPa) = 46.58593 107.25770 172.15638
#
# Poissons Ratio (x) = 0.29222 0.37605
# Poissons Ratio (y) = 0.12692 0.45732
# Poissons Ratio (z) = 0.10176 0.28492
#
# Static dielectric constant tensor:
#      x y z
#    x 2.067860 0.000000 0.000000 
#    y 0.000000 1.930440 0.000000 
#    z 0.000000 0.000000 1.859570 
# 
# From -- ./inp_files/11860.got.cif
#   From: 2010.05.17/outbox.cif.g08.bks.cpg/sg49_6_cif.got.tgz:11860.got - 2010.06.03 21:02:19.
