data_PCOD9395208
_publ_section_title
;
Structure prediction by ZEFSAII (Michael W. Deem and Ramdas Pophale) SiO2 
 PCOD9395208
Probable space group: P C C M
;
_chemical_formula_sum "Si O2"
_cell_formula_units_Z 40
_cell_length_a 15.000000
_cell_length_b 15.000000
_cell_length_c 9.000000
_cell_angle_alpha 90.000000
_cell_angle_beta 90.000000
_cell_angle_gamma 90.000000
_cell_volume 2025.000000
_symmetry_space_group_name_H-M "P C C M"
_symmetry_group_IT_number 49
_symmetry_cell_setting 'orthorhombic'
loop_
_space_group_symop_operation_xyz
x,y,z
-x,-y,z
x,-y,1/2-z
-x,y,1/2-z
-x,-y,-z
x,y,-z
-x,y,1/2+z
x,-y,1/2+z
loop_
_atom_site_type_symbol
_atom_site_label
_atom_site_fract_x
_atom_site_fract_y
_atom_site_fract_z
Si Si1 0.903742 0.717201 0.676670
Si Si2 0.098887 0.913653 0.822183
Si Si3 0.598683 0.269557 0.320291
Si Si4 0.399753 0.088945 0.680167
Si Si5 0.263326 0.596708 0.820377
O O1 0.918009 0.716544 0.500000
O O2 0.865038 0.815631 0.712751
O O3 0.830586 0.644368 0.713882
O O4 0.000000 0.704341 0.750000
O O5 0.000000 0.910290 0.750000
O O6 0.143689 0.000000 0.750000
O O7 0.093925 0.924878 0.000000
O O8 0.500000 0.280389 0.250000
O O9 0.594159 0.263144 0.500000
O O10 0.638876 0.179695 0.246265
O O11 0.659216 0.349010 0.261597
O O12 0.500000 0.090287 0.750000
O O13 0.401616 0.087447 0.500000
O O14 0.358196 0.000000 0.750000
O O15 0.261982 0.500000 0.750000
O O16 0.275686 0.596714 0.000000
#
# Coordination Sequence:
#
# PCOD9395208 Si02
#       5
#     8   8   8   8   8
#     4   9  20  37  59  84 116 152 190 233 284 339
#     4   9  15  26  46  76 109 146 183 222 268 322
#     4  11  22  39  62  89 118 154 194 238 290 348
#     4  10  17  29  51  82 118 156 194 235 280 336
#     4  11  24  43  62  85 114 148 190 244 298 351
#
# _framework density 19.753086
#
# number of rings (size 3 to 8) (size 9 to 14) (size 15 to 20)
#    0.000    2.000    0.000    7.200    0.000    3.200 
#    0.000    5.000    0.000    2.400    0.000    0.000 
#    0.000    0.000    0.000    0.000    0.000    0.000 
#
# Total GULP energy -223153.887958 kJ/mol
# GULP energy per Si atom -5578.847199 kJ/mol
# Density = 1.970813 g / cm^3
# Si number density = 19.753086 Si / 1000 Ang^3
#
#
#
# Elastic Constant Matrix: (Units=GPa)
#
#
# Indices 1 2 3 4 5 6 
#
# 1 92.6976 72.6326 46.7709 0.0000 0.0000 0.0000
# 2 72.6326 215.7378 85.6321 0.0000 0.0000 0.0000
# 3 46.7709 85.6321 161.0331 0.0000 0.0000 0.0000
# 4 0.0000 0.0000 0.0000 37.8282 0.0000 0.0000
# 5 0.0000 0.0000 0.0000 0.0000 10.8065 0.0000
# 6 0.0000 0.0000 0.0000 0.0000 0.0000 28.1161
#
#
#
# Elastic Compliance Matrix: (Units=1/GPa)
#
#
# Indices 1 2 3 4 5 6 
#
# 1 0.015218 -0.004270 -0.002149 0.000000 0.000000 0.000000
# 2 -0.004270 0.007074 -0.002521 0.000000 0.000000 0.000000
# 3 -0.002149 -0.002521 0.008175 0.000000 0.000000 0.000000
# 4 0.000000 0.000000 0.000000 0.026435 0.000000 0.000000
# 5 0.000000 0.000000 0.000000 0.000000 0.092537 0.000000
# 6 0.000000 0.000000 0.000000 0.000000 0.000000 0.035567
#
#
# Mechanical properties :
#
#
# Convention : Reuss Voigt Hill
#
# Bulk Modulus (GPa) = 79.45920 97.72660 88.59290
# Shear Modulus (GPa) = 24.14498 32.97903 28.56200
#
# Velocity S-wave (km/s) = 3.49999 4.09046 3.80669
# Velocity P-wave (km/s) = 7.52641 8.47884 8.01678
#
# Compressibility (1/GPa) = 0.01258507
#
# Stress axis : x y z
#
# Youngs Moduli (GPa) = 65.71075 141.36758 122.32685
#
# Poissons Ratio (x) = 0.60371 0.26289
# Poissons Ratio (y) = 0.28062 0.30842
# Poissons Ratio (z) = 0.14122 0.35642
#
# Static dielectric constant tensor:
#      x y z
#    x 1.738800 0.000000 0.000000 
#    y 0.000000 1.826170 0.000000 
#    z 0.000000 0.000000 1.647200 
# 
# From -- ./inp_files/3429.got.cif
#   From: 2010.05.17/outbox.ucp.g08.bks.cvg/sg49_2_cif.got.tgz:3429.got - 2010.06.11 16:40:14.
