data_PCOD9395702
_publ_section_title
;
Structure prediction by ZEFSAII (Michael W. Deem and Ramdas Pophale) SiO2 
 PCOD9395702
Probable space group: P B A N
;
_chemical_formula_sum "Si O2"
_cell_formula_units_Z 64
_cell_length_a 8.483577
_cell_length_b 24.043768
_cell_length_c 18.930842
_cell_angle_alpha 90.000000
_cell_angle_beta 90.000000
_cell_angle_gamma 90.000000
_cell_volume 3861.459335
_symmetry_space_group_name_H-M "P B A N"
_symmetry_group_IT_number 50
_space_group.IT_coordinate_system_code '2'
_symmetry_cell_setting 'orthorhombic'
loop_
_space_group_symop_operation_xyz
x,y,z
1/2-x,1/2-y,z
x,1/2-y,-z
1/2-x,y,-z
-x,-y,-z
1/2+x,1/2+y,-z
-x,1/2+y,z
1/2+x,-y,z
loop_
_atom_site_type_symbol
_atom_site_label
_atom_site_fract_x
_atom_site_fract_y
_atom_site_fract_z
Si Si1 0.937954 0.937358 0.500000
Si Si2 0.939423 0.936452 0.231199
Si Si3 0.060769 0.869903 0.365135
Si Si4 0.560577 0.936452 0.231199
Si Si5 0.057943 0.750000 0.417742
Si Si6 0.559685 0.936463 0.924188
Si Si7 0.439231 0.630097 0.634865
Si Si8 0.940315 0.563537 0.075812
O O1 0.750000 0.937340 0.500000
O O2 0.000172 0.905988 0.430861
O O3 0.000172 0.905988 0.569139
O O4 0.000000 0.000000 0.500000
O O5 0.750000 0.938133 0.233817
O O6 0.990068 0.915021 0.152953
O O7 0.001251 0.897456 0.293199
O O8 1.000000 0.000000 0.240012
O O9 0.007719 0.806454 0.378998
O O10 0.250000 0.870863 0.365512
O O11 0.498749 0.897456 0.293199
O O12 0.509932 0.915021 0.152953
O O13 0.250000 0.750000 0.418929
O O14 0.006886 0.750000 0.500000
O O15 0.007719 0.693546 0.378998
O O16 0.750000 0.936441 0.924209
O O17 0.500000 0.000000 0.924814
O O18 0.507898 0.911275 1.000000
#
# Coordination Sequence:
#
# PCOD9395702 Si02
#       8
#     8   8   8   8   8   8   8   8
#     4  12  24  37  52  73  99 128 160 194 237 286
#     4  10  19  31  47  72 104 133 163 199 240 287
#     4  11  21  36  55  73  95 125 161 200 243 291
#     4  10  19  31  47  72 104 133 163 199 240 287
#     4   9  18  36  58  74  89 118 161 203 246 292
#     4   8  14  25  42  64  93 129 163 194 231 278
#     4  11  21  36  55  73  95 125 161 200 243 291
#     4   8  14  25  42  64  93 129 163 194 231 278
#
# _framework density 16.574045000000002
#
# number of rings (size 3 to 8) (size 9 to 14) (size 15 to 20)
#    0.000    2.125    1.250    3.375    0.000    1.000 
#    0.000    3.125    0.000    0.000    0.000    0.875 
#    0.000    7.000    0.000    0.000    0.000    0.000 
#
# Total GULP energy -356677.380216 kJ/mol
# GULP energy per Si atom -5573.084066 kJ/mol
# Density = 1.653632 g / cm^3
# Si number density = 16.574045 Si / 1000 Ang^3
#
#
#
# Elastic Constant Matrix: (Units=GPa)
#
#
# Indices 1 2 3 4 5 6 
#
# 1 47.5920 26.6144 36.6265 0.0000 0.0000 0.0000
# 2 26.6144 114.6857 84.9647 0.0000 0.0000 0.0000
# 3 36.6265 84.9647 210.4752 0.0000 0.0000 0.0000
# 4 0.0000 0.0000 0.0000 -3.4634 0.0000 0.0000
# 5 0.0000 0.0000 0.0000 0.0000 1.1906 0.0000
# 6 0.0000 0.0000 0.0000 0.0000 0.0000 16.5203
#
#
#
# Elastic Compliance Matrix: (Units=1/GPa)
#
#
# Indices 1 2 3 4 5 6 
#
# 1 0.025331 -0.003727 -0.002903 0.000000 0.000000 0.000000
# 2 -0.003727 0.012988 -0.004594 0.000000 0.000000 0.000000
# 3 -0.002903 -0.004594 0.007111 0.000000 0.000000 0.000000
# 4 0.000000 0.000000 0.000000 -0.288732 0.000000 0.000000
# 5 0.000000 0.000000 0.000000 0.000000 0.839916 0.000000
# 6 0.000000 0.000000 0.000000 0.000000 0.000000 0.060532
#
#
# Mechanical properties :
#
#
# Convention : Reuss Voigt Hill
#
# Bulk Modulus (GPa) = 43.51674 74.35157 58.93415
# Shear Modulus (GPa) = 7.27530 17.81931 12.54731
#
# Velocity S-wave (km/s) = 2.09740 3.28248 2.75443
# Velocity P-wave (km/s) = 5.67260 7.70220 6.76396
#
# Compressibility (1/GPa) = 0.02297967
#
# Stress axis : x y z
#
# Youngs Moduli (GPa) = 39.47774 76.99231 140.62542
#
# Poissons Ratio (x) = 0.28698 0.40828
# Poissons Ratio (y) = 0.14715 0.64610
# Poissons Ratio (z) = 0.11462 0.35374
#
# Static dielectric constant tensor:
#      x y z
#    x 1.566810 0.000000 0.000000 
#    y 0.000000 1.529450 0.000000 
#    z 0.000000 0.000000 1.603180 
# 
# From -- ./inp_files/28993.got.cif
#   From: 2010.05.17/outbox.cif.g08.bks.cpg/sg50_15_cif.got.tgz:28993.got - 2010.06.03 11:33:33.
