data_PCOD9395029
_publ_section_title
;
Structure prediction by ZEFSAII (Michael W. Deem and Ramdas Pophale) SiO2 
 PCOD9395029
Probable space group: P C C M
;
_chemical_formula_sum "Si O2"
_cell_formula_units_Z 30
_cell_length_a 8.632393
_cell_length_b 10.065953
_cell_length_c 16.785164
_cell_angle_alpha 90.000000
_cell_angle_beta 90.000000
_cell_angle_gamma 90.000000
_cell_volume 1458.517657
_symmetry_space_group_name_H-M "P C C M"
_symmetry_group_IT_number 49
_symmetry_cell_setting 'orthorhombic'
loop_
_space_group_symop_operation_xyz
x,y,z
-x,-y,z
x,-y,1/2-z
-x,y,1/2-z
-x,-y,-z
x,y,-z
-x,y,1/2+z
x,-y,1/2+z
loop_
_atom_site_type_symbol
_atom_site_label
_atom_site_fract_x
_atom_site_fract_y
_atom_site_fract_z
Si Si1 0.852776 0.208434 0.130673
Si Si2 0.384553 0.256732 0.000000
Si Si3 0.550107 0.653980 0.338095
Si Si4 0.000000 0.000000 0.750000
Si Si5 0.058065 0.351235 0.000000
Si Si6 0.191355 0.985638 0.000000
O O1 0.734338 0.321304 0.157624
O O2 0.907786 0.105698 0.196936
O O3 0.765231 0.105952 0.073369
O O4 0.989534 0.274230 0.077608
O O5 0.476435 0.279010 0.082618
O O6 0.288000 0.119328 0.000000
O O7 0.242191 0.359761 0.000000
O O8 0.500000 0.500000 0.341518
O O9 0.500000 0.705360 0.250000
O O10 0.000000 0.500000 0.000000
O O11 0.000000 0.000000 0.000000
#
# Coordination Sequence:
#
# PCOD9395029 Si02
#       6
#     8   4   8   2   4   4
#     4  11  24  44  67  98 141 177 226 296 346 414
#     4  12  22  43  72  97 136 187 223 284 355 413
#     4  11  27  46  67 100 142 179 231 283 347 422
#     4  12  24  42  72 100 140 182 234 290 356 418
#     4  11  22  41  74 102 129 184 245 286 350 414
#     4  11  21  43  64  96 136 169 233 283 333 415
#
# _framework density 20.568829999999998
#
# number of rings (size 3 to 8) (size 9 to 14) (size 15 to 20)
#    0.000    0.800    4.000    3.600    7.467    2.133 
#    0.000    0.000    0.000    0.000    0.000    0.000 
#    0.000    0.000    0.000    0.000    0.000    0.000 
#
# Total GULP energy -167248.900794 kJ/mol
# GULP energy per Si atom -5574.963360 kJ/mol
# Density = 2.052201 g / cm^3
# Si number density = 20.568830 Si / 1000 Ang^3
#
#
#
# Elastic Constant Matrix: (Units=GPa)
#
#
# Indices 1 2 3 4 5 6 
#
# 1 105.9784 24.4923 55.1762 0.0000 0.0000 0.0000
# 2 24.4923 107.8964 35.0651 0.0000 0.0000 0.0000
# 3 55.1762 35.0651 163.6228 0.0000 0.0000 0.0000
# 4 0.0000 0.0000 0.0000 -12.4298 0.0000 0.0000
# 5 0.0000 0.0000 0.0000 0.0000 2.4260 0.0000
# 6 0.0000 0.0000 0.0000 0.0000 0.0000 43.8738
#
#
#
# Elastic Compliance Matrix: (Units=1/GPa)
#
#
# Indices 1 2 3 4 5 6 
#
# 1 0.011659 -0.001471 -0.003616 0.000000 0.000000 0.000000
# 2 -0.001471 0.010148 -0.001679 0.000000 0.000000 0.000000
# 3 -0.003616 -0.001679 0.007691 0.000000 0.000000 0.000000
# 4 0.000000 0.000000 0.000000 -0.080452 0.000000 0.000000
# 5 0.000000 0.000000 0.000000 0.000000 0.412203 0.000000
# 6 0.000000 0.000000 0.000000 0.000000 0.000000 0.022793
#
#
# Mechanical properties :
#
#
# Convention : Reuss Voigt Hill
#
# Bulk Modulus (GPa) = 62.63688 67.44055 65.03872
# Shear Modulus (GPa) = 12.41018 24.29158 18.35088
#
# Velocity S-wave (km/s) = 2.45898 3.44028 2.99016
# Velocity P-wave (km/s) = 6.21132 6.97421 6.60379
#
# Compressibility (1/GPa) = 0.01596504
#
# Stress axis : x y z
#
# Youngs Moduli (GPa) = 85.77345 98.54510 130.02601
#
# Poissons Ratio (x) = 0.14499 0.47020
# Poissons Ratio (y) = 0.12620 0.21825
# Poissons Ratio (z) = 0.31017 0.16541
#
# Static dielectric constant tensor:
#      x y z
#    x 1.853630 0.000000 0.000000 
#    y 0.000000 1.745160 0.000000 
#    z 0.000000 0.000000 1.669680 
# 
# From -- ./inp_files/11263.got.cif
#   From: 2010.05.17/outbox.cif.g08.bks.cpg/sg49_6_cif.got.tgz:11263.got - 2010.06.03 21:02:19.
