data_PCOD9395460
_publ_section_title
;
Structure prediction by ZEFSAII (Michael W. Deem and Ramdas Pophale) SiO2 
 PCOD9395460
Probable space group: P B A N
;
_chemical_formula_sum "Si O2"
_cell_formula_units_Z 48
_cell_length_a 16.714380
_cell_length_b 13.570475
_cell_length_c 9.791497
_cell_angle_alpha 90.000000
_cell_angle_beta 90.000000
_cell_angle_gamma 90.000000
_cell_volume 2220.927676
_symmetry_space_group_name_H-M "P B A N"
_symmetry_group_IT_number 50
_space_group.IT_coordinate_system_code '2'
_symmetry_cell_setting 'orthorhombic'
loop_
_space_group_symop_operation_xyz
x,y,z
1/2-x,1/2-y,z
x,1/2-y,-z
1/2-x,y,-z
-x,-y,-z
1/2+x,1/2+y,-z
-x,1/2+y,z
1/2+x,-y,z
loop_
_atom_site_type_symbol
_atom_site_label
_atom_site_fract_x
_atom_site_fract_y
_atom_site_fract_z
Si Si1 0.541630 0.835010 0.749390
Si Si2 0.630781 0.449781 0.239125
Si Si3 0.816746 0.478592 0.299573
Si Si4 0.167951 0.205076 0.348338
Si Si5 0.054560 0.901005 0.495861
Si Si6 0.429759 0.574281 0.048458
O O1 0.594761 0.937175 0.754936
O O2 0.598173 0.741374 0.749828
O O3 0.497049 0.833294 0.603481
O O4 0.477474 0.841797 0.869751
O O5 0.724305 0.453694 0.276024
O O6 0.580376 0.386498 0.348688
O O7 0.617995 0.405593 0.089342
O O8 0.824161 0.589326 0.354681
O O9 0.862983 0.415665 0.413012
O O10 0.868935 0.470274 0.160843
O O11 0.250000 0.250000 0.293689
O O12 0.157354 0.250000 0.500000
O O13 0.000000 0.000000 0.500000
O O14 0.500000 0.500000 0.000000
#
# Coordination Sequence:
#
# PCOD9395460 Si02
#       6
#     8   8   8   8   8   8
#     4   9  18  35  49  75 111 153 193 226 274 343
#     4  10  17  31  52  79 105 145 193 244 281 325
#     4  11  20  32  53  83 114 146 189 237 293 346
#     4  11  21  31  52  83 122 156 178 228 296 358
#     4   9  18  30  52  76 109 148 195 235 269 336
#     4   9  20  35  53  69 107 155 197 239 273 336
#
# _framework density 21.612590999999998
#
# number of rings (size 3 to 8) (size 9 to 14) (size 15 to 20)
#    0.000    2.167    1.667    4.000    2.333    0.000 
#    0.000    3.333    0.000    2.000    0.000    0.000 
#    0.000  349.333    0.000    0.000    0.000    0.000 
#
# Total GULP energy -268035.638905 kJ/mol
# GULP energy per Si atom -5584.075811 kJ/mol
# Density = 2.156340 g / cm^3
# Si number density = 21.612591 Si / 1000 Ang^3
#
#
#
# Elastic Constant Matrix: (Units=GPa)
#
#
# Indices 1 2 3 4 5 6 
#
# 1 129.6686 19.6437 36.9002 0.0000 0.0000 0.0000
# 2 19.6437 19.8191 6.3442 0.0000 0.0000 0.0000
# 3 36.9002 6.3442 137.3159 0.0000 0.0000 0.0000
# 4 0.0000 0.0000 0.0000 15.0379 0.0000 0.0000
# 5 0.0000 0.0000 0.0000 0.0000 13.5602 0.0000
# 6 0.0000 0.0000 0.0000 0.0000 0.0000 19.6092
#
#
#
# Elastic Compliance Matrix: (Units=1/GPa)
#
#
# Indices 1 2 3 4 5 6 
#
# 1 0.009683 -0.008896 -0.002191 0.000000 0.000000 0.000000
# 2 -0.008896 0.059387 -0.000353 0.000000 0.000000 0.000000
# 3 -0.002191 -0.000353 0.007888 0.000000 0.000000 0.000000
# 4 0.000000 0.000000 0.000000 0.066498 0.000000 0.000000
# 5 0.000000 0.000000 0.000000 0.000000 0.073745 0.000000
# 6 0.000000 0.000000 0.000000 0.000000 0.000000 0.050997
#
#
# Mechanical properties :
#
#
# Convention : Reuss Voigt Hill
#
# Bulk Modulus (GPa) = 18.49220 45.84220 32.16720
# Shear Modulus (GPa) = 16.17578 24.56916 20.37247
#
# Velocity S-wave (km/s) = 2.73874 3.37530 3.07354
# Velocity P-wave (km/s) = 4.30995 6.03715 5.24513
#
# Compressibility (1/GPa) = 0.05407686
#
# Stress axis : x y z
#
# Youngs Moduli (GPa) = 103.27187 16.83876 126.78135
#
# Poissons Ratio (x) = 0.14980 0.27779
# Poissons Ratio (y) = 0.91872 0.04477
# Poissons Ratio (z) = 0.22628 0.00595
#
# Static dielectric constant tensor:
#      x y z
#    x 1.800250 0.000000 0.000000 
#    y 0.000000 1.816280 0.000000 
#    z 0.000000 0.000000 1.796350 
# 
# From -- ./inp_files/13142.got.cif
#   From: 2010.05.17/outbox.cif.g08.bks.cpg/sg50_7_cif.got.tgz:13142.got - 2010.06.03 11:33:33.
