data_PCOD9395721
_publ_section_title
;
Structure prediction by ZEFSAII (Michael W. Deem and Ramdas Pophale) SiO2 
 PCOD9395721
Probable space group: P B A N
;
_chemical_formula_sum "Si O2"
_cell_formula_units_Z 48
_cell_length_a 18.856973
_cell_length_b 11.319509
_cell_length_c 10.924794
_cell_angle_alpha 90.000000
_cell_angle_beta 90.000000
_cell_angle_gamma 90.000000
_cell_volume 2331.915585
_symmetry_space_group_name_H-M "P B A N"
_symmetry_group_IT_number 50
_space_group.IT_coordinate_system_code '2'
_symmetry_cell_setting 'orthorhombic'
loop_
_space_group_symop_operation_xyz
x,y,z
1/2-x,1/2-y,z
x,1/2-y,-z
1/2-x,y,-z
-x,-y,-z
1/2+x,1/2+y,-z
-x,1/2+y,z
1/2+x,-y,z
loop_
_atom_site_type_symbol
_atom_site_label
_atom_site_fract_x
_atom_site_fract_y
_atom_site_fract_z
Si Si1 0.022163 0.484816 0.862500
Si Si2 0.175321 0.686839 0.129746
Si Si3 0.630450 0.965955 0.751977
Si Si4 0.574093 0.315066 0.700922
Si Si5 0.580759 0.714512 0.712513
Si Si6 0.913413 0.508037 0.482183
O O1 0.068742 0.590397 0.811124
O O2 0.060484 0.363720 0.830280
O O3 0.949651 0.498140 0.788207
O O4 0.000000 0.500000 0.000000
O O5 0.250000 0.750000 0.151124
O O6 0.177554 0.543748 0.152281
O O7 0.123620 0.718080 0.241349
O O8 0.151704 0.750000 0.000000
O O9 0.631365 0.822028 0.752531
O O10 0.631144 0.988462 0.606236
O O11 0.495128 0.269721 0.671485
O O12 0.604222 0.387877 0.588576
O O13 0.601528 0.621884 0.605299
O O14 0.000000 0.500000 0.500000
#
# Coordination Sequence:
#
# PCOD9395721 Si02
#       6
#     8   8   8   8   8   8
#     4  10  19  31  51  82 121 155 187 250 311 369
#     4  11  24  43  61  79 114 165 217 266 303 359
#     4  11  21  33  56  84 117 159 201 245 311 368
#     4  10  20  32  54  84 119 152 199 237 300 368
#     4  10  19  31  54  89 127 152 189 245 310 387
#     4  11  18  32  53  89 126 161 184 235 311 380
#
# _framework density 20.583935
#
# number of rings (size 3 to 8) (size 9 to 14) (size 15 to 20)
#    0.000    1.500    6.667    1.500    0.000    4.000 
#    0.000    1.667    0.000    4.000    0.000   14.000 
#    0.000    0.000    0.000    0.000    0.000    0.000 
#
# Total GULP energy -267254.773505 kJ/mol
# GULP energy per Si atom -5567.807781 kJ/mol
# Density = 2.053709 g / cm^3
# Si number density = 20.583935 Si / 1000 Ang^3
#
#
#
# Elastic Constant Matrix: (Units=GPa)
#
#
# Indices 1 2 3 4 5 6 
#
# 1 14.3636 8.1362 -6.2112 0.0000 0.0000 0.0000
# 2 8.1362 132.5818 52.1893 0.0000 0.0000 0.0000
# 3 -6.2112 52.1893 122.3469 0.0000 0.0000 0.0000
# 4 0.0000 0.0000 0.0000 24.2279 0.0000 0.0000
# 5 0.0000 0.0000 0.0000 0.0000 7.5537 0.0000
# 6 0.0000 0.0000 0.0000 0.0000 0.0000 14.2852
#
#
#
# Elastic Compliance Matrix: (Units=1/GPa)
#
#
# Indices 1 2 3 4 5 6 
#
# 1 0.076960 -0.007524 0.007117 0.000000 0.000000 0.000000
# 2 -0.007524 0.009800 -0.004562 0.000000 0.000000 0.000000
# 3 0.007117 -0.004562 0.010481 0.000000 0.000000 0.000000
# 4 0.000000 0.000000 0.000000 0.041275 0.000000 0.000000
# 5 0.000000 0.000000 0.000000 0.000000 0.132385 0.000000
# 6 0.000000 0.000000 0.000000 0.000000 0.000000 0.070003
#
#
# Mechanical properties :
#
#
# Convention : Reuss Voigt Hill
#
# Bulk Modulus (GPa) = 11.45466 41.94678 26.70072
# Shear Modulus (GPa) = 13.15986 23.55857 18.35922
#
# Velocity S-wave (km/s) = 2.53123 3.38673 2.98974
# Velocity P-wave (km/s) = 3.75763 5.97628 4.99178
#
# Compressibility (1/GPa) = 0.08730070
#
# Stress axis : x y z
#
# Youngs Moduli (GPa) = 12.99383 102.03875 95.41115
#
# Poissons Ratio (x) = 0.76776 -0.67900
# Poissons Ratio (y) = 0.09777 0.43531
# Poissons Ratio (z) = -0.09247 0.46554
#
# Static dielectric constant tensor:
#      x y z
#    x 1.710870 0.000000 0.000000 
#    y 0.000000 1.921570 0.000000 
#    z 0.000000 0.000000 1.740090 
# 
# From -- ./inp_files/22331.got.cif
#   From: 2010.05.17/outbox.cif.g08.bks.cpg/sg50_12_cif.got.tgz:22331.got - 2010.06.03 11:33:33.
