data_PCOD9395458
_publ_section_title
;
Structure prediction by ZEFSAII (Michael W. Deem and Ramdas Pophale) SiO2 
 PCOD9395458
Probable space group: P B A N
;
_chemical_formula_sum "Si O2"
_cell_formula_units_Z 40
_cell_length_a 15.169692
_cell_length_b 11.403015
_cell_length_c 9.587169
_cell_angle_alpha 90.000000
_cell_angle_beta 90.000000
_cell_angle_gamma 90.000000
_cell_volume 1658.390655
_symmetry_space_group_name_H-M "P B A N"
_symmetry_group_IT_number 50
_space_group.IT_coordinate_system_code '2'
_symmetry_cell_setting 'orthorhombic'
loop_
_space_group_symop_operation_xyz
x,y,z
1/2-x,1/2-y,z
x,1/2-y,-z
1/2-x,y,-z
-x,-y,-z
1/2+x,1/2+y,-z
-x,1/2+y,z
1/2+x,-y,z
loop_
_atom_site_type_symbol
_atom_site_label
_atom_site_fract_x
_atom_site_fract_y
_atom_site_fract_z
Si Si1 0.850182 0.872422 0.546349
Si Si2 0.398554 0.972042 0.307273
Si Si3 0.100245 0.768507 0.159599
Si Si4 0.399543 0.350846 0.909447
Si Si5 0.096650 0.478938 0.807008
O O1 0.894787 0.750000 0.500000
O O2 0.750000 0.869036 0.500000
O O3 0.854415 0.885772 0.711552
O O4 0.888675 0.985756 0.465476
O O5 0.375268 0.841100 0.256990
O O6 0.499787 0.979676 0.259691
O O7 0.355483 0.077151 0.215167
O O8 0.992899 0.792717 0.144111
O O9 0.137344 0.892496 0.209944
O O10 0.129170 0.750000 0.000000
O O11 0.353538 0.250000 0.000000
O O12 0.412711 0.447643 0.031360
#
# Coordination Sequence:
#
# PCOD9395458 Si02
#       5
#     8   8   8   8   8
#     4  11  27  46  59  81 126 172 213 254 301 367
#     4  11  20  37  63  93 125 158 201 260 311 363
#     4  10  17  32  59  99 126 145 187 257 321 352
#     4  10  17  30  59  94 127 150 192 256 312 355
#     4  11  20  36  63  94 124 160 203 251 307 370
#
# _framework density 24.119769999999999
#
# number of rings (size 3 to 8) (size 9 to 14) (size 15 to 20)
#    0.000    1.400    6.000    3.000    2.800    0.800 
#    0.000    3.000    0.000    4.800    0.000    0.000 
#    0.000    0.000    0.000    0.000    0.000    0.000 
#
# Total GULP energy -223226.689325 kJ/mol
# GULP energy per Si atom -5580.667233 kJ/mol
# Density = 2.406487 g / cm^3
# Si number density = 24.119770 Si / 1000 Ang^3
#
#
#
# Elastic Constant Matrix: (Units=GPa)
#
#
# Indices 1 2 3 4 5 6 
#
# 1 31.9783 -11.7381 0.4736 0.0000 0.0000 0.0000
# 2 -11.7381 153.7466 22.8948 0.0000 0.0000 0.0000
# 3 0.4736 22.8948 103.7661 0.0000 0.0000 0.0000
# 4 0.0000 0.0000 0.0000 41.8746 0.0000 0.0000
# 5 0.0000 0.0000 0.0000 0.0000 6.8691 0.0000
# 6 0.0000 0.0000 0.0000 0.0000 0.0000 -0.1939
#
#
#
# Elastic Compliance Matrix: (Units=1/GPa)
#
#
# Indices 1 2 3 4 5 6 
#
# 1 0.032224 0.002566 -0.000713 0.000000 0.000000 0.000000
# 2 0.002566 0.006930 -0.001541 0.000000 0.000000 0.000000
# 3 -0.000713 -0.001541 0.009980 0.000000 0.000000 0.000000
# 4 0.000000 0.000000 0.000000 0.023881 0.000000 0.000000
# 5 0.000000 0.000000 0.000000 0.000000 0.145580 0.000000
# 6 0.000000 0.000000 0.000000 0.000000 0.000000 -5.156195
#
#
# Mechanical properties :
#
#
# Convention : Reuss Voigt Hill
#
# Bulk Modulus (GPa) = 20.09703 34.75016 27.42360
# Shear Modulus (GPa) = -1.01592 28.23401 13.60904
#
# Velocity S-wave (km/s) = -0.64970 3.42508 2.37792
# Velocity P-wave (km/s) = 2.79060 5.48454 4.35130
#
# Compressibility (1/GPa) = 0.04975859
#
# Stress axis : x y z
#
# Youngs Moduli (GPa) = 31.03290 144.30916 100.19800
#
# Poissons Ratio (x) = -0.37036 0.07147
# Poissons Ratio (y) = -0.07964 0.15437
# Poissons Ratio (z) = 0.02214 0.22233
#
# Static dielectric constant tensor:
#      x y z
#    x 2.025240 0.000000 0.000000 
#    y 0.000000 2.066380 0.000000 
#    z 0.000000 0.000000 1.996540 
# 
# From -- ./inp_files/13909.got.cif
#   From: 2010.05.17/outbox.cif.g08.bks.cpg/sg50_7_cif.got.tgz:13909.got - 2010.06.03 11:33:33.
