data_PCOD9395381
_publ_section_title
;
Structure prediction by ZEFSAII (Michael W. Deem and Ramdas Pophale) SiO2 
 PCOD9395381
Probable space group: P B A N
;
_chemical_formula_sum "Si O2"
_cell_formula_units_Z 36
_cell_length_a 24.148860
_cell_length_b 5.229371
_cell_length_c 16.682988
_cell_angle_alpha 90.000000
_cell_angle_beta 90.000000
_cell_angle_gamma 90.000000
_cell_volume 2106.783582
_symmetry_space_group_name_H-M "P B A N"
_symmetry_group_IT_number 50
_space_group.IT_coordinate_system_code '2'
_symmetry_cell_setting 'orthorhombic'
loop_
_space_group_symop_operation_xyz
x,y,z
1/2-x,1/2-y,z
x,1/2-y,-z
1/2-x,y,-z
-x,-y,-z
1/2+x,1/2+y,-z
-x,1/2+y,z
1/2+x,-y,z
loop_
_atom_site_type_symbol
_atom_site_label
_atom_site_fract_x
_atom_site_fract_y
_atom_site_fract_z
Si Si1 0.037644 0.250000 0.000000
Si Si2 0.937672 0.504772 0.463532
Si Si3 0.683933 0.265833 0.904819
Si Si4 0.378141 0.262637 0.852521
Si Si5 0.036446 0.428428 0.723742
O O1 0.075943 0.240670 0.922215
O O2 0.000000 0.500000 0.000000
O O3 0.911371 0.250000 0.500000
O O4 0.946060 0.544580 0.369335
O O5 0.000000 0.500000 0.500000
O O6 0.908261 0.750000 0.500000
O O7 0.750000 0.250000 0.897279
O O8 0.664930 0.540526 0.873822
O O9 0.652097 0.037435 0.858210
O O10 0.669815 0.250000 0.000000
O O11 0.411028 0.170539 0.773804
O O12 0.010024 0.708517 0.740625
#
# Coordination Sequence:
#
# PCOD9395381 Si02
#       5
#     4   8   8   8   8
#     4  12  22  36  49  70 113 154 176 208 254 322
#     4  10  16  30  49  70 103 147 185 216 245 295
#     4  11  22  41  62  77  97 136 188 252 294 316
#     4  12  23  37  54  81 108 139 193 225 270 343
#     4  12  21  33  51  78 114 155 178 213 260 320
#
# _framework density 17.08766
#
# number of rings (size 3 to 8) (size 9 to 14) (size 15 to 20)
#    0.000    0.667    6.667    4.667    0.000    1.778 
#    0.000    0.000    0.000    0.000    0.000    0.000 
#    0.000   13.333    0.000    0.000    0.000    0.000 
#
# Total GULP energy -200779.616871 kJ/mol
# GULP energy per Si atom -5577.211580 kJ/mol
# Density = 1.704877 g / cm^3
# Si number density = 17.087660 Si / 1000 Ang^3
#
#
#
# Elastic Constant Matrix: (Units=GPa)
#
#
# Indices 1 2 3 4 5 6 
#
# 1 54.2761 18.6141 22.4084 0.0000 0.0000 0.0000
# 2 18.6141 132.7198 0.5532 0.0000 0.0000 0.0000
# 3 22.4084 0.5532 91.1744 0.0000 0.0000 0.0000
# 4 0.0000 0.0000 0.0000 24.1004 0.0000 0.0000
# 5 0.0000 0.0000 0.0000 0.0000 -85.4406 0.0000
# 6 0.0000 0.0000 0.0000 0.0000 0.0000 45.3105
#
#
#
# Elastic Compliance Matrix: (Units=1/GPa)
#
#
# Indices 1 2 3 4 5 6 
#
# 1 0.021647 -0.003014 -0.005302 0.000000 0.000000 0.000000
# 2 -0.003014 0.007954 0.000692 0.000000 0.000000 0.000000
# 3 -0.005302 0.000692 0.012267 0.000000 0.000000 0.000000
# 4 0.000000 0.000000 0.000000 0.041493 0.000000 0.000000
# 5 0.000000 0.000000 0.000000 0.000000 -0.011704 0.000000
# 6 0.000000 0.000000 0.000000 0.000000 0.000000 0.022070
#
#
# Mechanical properties :
#
#
# Convention : Reuss Voigt Hill
#
# Bulk Modulus (GPa) = 37.56366 40.14684 38.85525
# Shear Modulus (GPa) = 42.42750 12.56701 27.49725
#
# Velocity S-wave (km/s) = 4.98831 2.71485 4.01582
# Velocity P-wave (km/s) = 7.43023 5.77692 6.65512
#
# Compressibility (1/GPa) = 0.02662147
#
# Stress axis : x y z
#
# Youngs Moduli (GPa) = 46.19590 125.71515 81.52019
#
# Poissons Ratio (x) = 0.37889 0.43222
# Poissons Ratio (y) = 0.13923 -0.05645
# Poissons Ratio (z) = 0.24493 -0.08706
#
# Static dielectric constant tensor:
#      x y z
#    x 1.543150 0.000000 0.000000 
#    y 0.000000 1.529950 0.000000 
#    z 0.000000 0.000000 1.567430 
# 
# From -- ./inp_files/27381.got.cif
#   From: 2010.05.17/outbox.cif.g08.bks.cpg/sg50_14_cif.got.tgz:27381.got - 2010.06.03 11:33:33.
