data_PCOD9395058
_publ_section_title
;
Structure prediction by ZEFSAII (Michael W. Deem and Ramdas Pophale) SiO2 
 PCOD9395058
Probable space group: P C C M
;
_chemical_formula_sum "Si O2"
_cell_formula_units_Z 48
_cell_length_a 9.320004
_cell_length_b 29.587034
_cell_length_c 8.946660
_cell_angle_alpha 90.000000
_cell_angle_beta 90.000000
_cell_angle_gamma 90.000000
_cell_volume 2467.052904
_symmetry_space_group_name_H-M "P C C M"
_symmetry_group_IT_number 49
_symmetry_cell_setting 'orthorhombic'
loop_
_space_group_symop_operation_xyz
x,y,z
-x,-y,z
x,-y,1/2-z
-x,y,1/2-z
-x,-y,-z
x,y,-z
-x,y,1/2+z
x,-y,1/2+z
loop_
_atom_site_type_symbol
_atom_site_label
_atom_site_fract_x
_atom_site_fract_y
_atom_site_fract_z
Si Si1 0.654185 0.701725 0.828843
Si Si2 0.157846 0.777147 0.820403
Si Si3 0.160328 0.870343 0.318443
Si Si4 0.190569 0.538502 0.500000
Si Si5 0.864485 0.431608 0.000000
Si Si6 0.659923 0.047452 0.818006
Si Si7 0.672587 0.400857 0.732120
O O1 0.500000 0.703022 0.750000
O O2 0.755542 0.733437 0.731366
O O3 0.700076 0.649209 0.831062
O O4 0.647515 0.717949 0.000000
O O5 0.220259 0.822668 0.744359
O O6 0.000000 0.772731 0.750000
O O7 0.152166 0.781664 0.000000
O O8 0.158230 0.871041 0.500000
O O9 0.248729 0.911460 0.248165
O O10 0.000000 0.873386 0.250000
O O11 0.171337 0.485156 0.500000
O O12 0.282886 0.556277 0.635974
O O13 0.037569 0.565332 0.500000
O O14 0.784281 0.406861 0.134085
O O15 0.500000 0.052037 0.750000
O O16 0.716105 0.000000 0.750000
O O17 0.657915 0.046676 0.000000
O O18 0.500000 0.402966 0.750000
#
# Coordination Sequence:
#
# PCOD9395058 Si02
#       7
#     8   8   8   4   4   8   8
#     4  11  24  43  65  91 125 161 204 257 313 372
#     4  11  23  41  65  94 127 164 208 256 311 374
#     4  11  22  40  63  91 127 166 211 263 317 375
#     4  11  23  45  59  95 125 165 205 261 308 379
#     4  11  25  39  67  89 129 163 207 255 318 371
#     4  11  22  39  61  90 125 166 214 265 321 380
#     4  11  24  41  65  91 125 163 209 257 314 377
#
# _framework density 19.456412
#
# number of rings (size 3 to 8) (size 9 to 14) (size 15 to 20)
#    0.000    1.000    0.833    8.000    4.667    5.667 
#    0.000    5.000    0.000    0.000    0.000    0.000 
#    0.000    0.000    0.000    0.000    0.000    0.000 
#
# Total GULP energy -267793.140458 kJ/mol
# GULP energy per Si atom -5579.023760 kJ/mol
# Density = 1.941213 g / cm^3
# Si number density = 19.456412 Si / 1000 Ang^3
#
#
#
# Elastic Constant Matrix: (Units=GPa)
#
#
# Indices 1 2 3 4 5 6 
#
# 1 72.3447 59.7256 28.4652 0.0000 0.0000 0.0000
# 2 59.7256 117.5302 40.6104 0.0000 0.0000 0.0000
# 3 28.4652 40.6104 178.9897 0.0000 0.0000 0.0000
# 4 0.0000 0.0000 0.0000 38.9118 0.0000 0.0000
# 5 0.0000 0.0000 0.0000 0.0000 26.2514 0.0000
# 6 0.0000 0.0000 0.0000 0.0000 0.0000 12.2472
#
#
#
# Elastic Compliance Matrix: (Units=1/GPa)
#
#
# Indices 1 2 3 4 5 6 
#
# 1 0.024026 -0.011815 -0.001140 0.000000 0.000000 0.000000
# 2 -0.011815 0.015043 -0.001534 0.000000 0.000000 0.000000
# 3 -0.001140 -0.001534 0.006116 0.000000 0.000000 0.000000
# 4 0.000000 0.000000 0.000000 0.025699 0.000000 0.000000
# 5 0.000000 0.000000 0.000000 0.000000 0.038093 0.000000
# 6 0.000000 0.000000 0.000000 0.000000 0.000000 0.081651
#
#
# Mechanical properties :
#
#
# Convention : Reuss Voigt Hill
#
# Bulk Modulus (GPa) = 61.70594 69.60744 65.65669
# Shear Modulus (GPa) = 22.22137 31.48630 26.85384
#
# Velocity S-wave (km/s) = 3.38318 4.02717 3.71914
# Velocity P-wave (km/s) = 6.85894 7.58142 7.22921
#
# Compressibility (1/GPa) = 0.01620590
#
# Stress axis : x y z
#
# Youngs Moduli (GPa) = 41.62223 66.47758 163.49829
#
# Poissons Ratio (x) = 0.78545 0.18641
# Poissons Ratio (y) = 0.49178 0.25080
# Poissons Ratio (z) = 0.04745 0.10198
#
# Static dielectric constant tensor:
#      x y z
#    x 1.711370 0.000000 0.000000 
#    y 0.000000 1.674120 0.000000 
#    z 0.000000 0.000000 1.679790 
# 
# From -- ./inp_files/2138.got.cif
#   From: 2010.05.17/outbox.cif.g08.bks.cpg/sg49_2_cif.got.tgz:2138.got - 2010.06.03 21:02:19.
