data_PCOD9395592
_publ_section_title
;
Structure prediction by ZEFSAII (Michael W. Deem and Ramdas Pophale) SiO2 
 PCOD9395592
Probable space group: P B A N
;
_chemical_formula_sum "Si O2"
_cell_formula_units_Z 32
_cell_length_a 12.266351
_cell_length_b 13.373886
_cell_length_c 8.222891
_cell_angle_alpha 90.000000
_cell_angle_beta 90.000000
_cell_angle_gamma 90.000000
_cell_volume 1348.955236
_symmetry_space_group_name_H-M "P B A N"
_symmetry_group_IT_number 50
_space_group.IT_coordinate_system_code '2'
_symmetry_cell_setting 'orthorhombic'
loop_
_space_group_symop_operation_xyz
x,y,z
1/2-x,1/2-y,z
x,1/2-y,-z
1/2-x,y,-z
-x,-y,-z
1/2+x,1/2+y,-z
-x,1/2+y,z
1/2+x,-y,z
loop_
_atom_site_type_symbol
_atom_site_label
_atom_site_fract_x
_atom_site_fract_y
_atom_site_fract_z
Si Si1 0.750000 0.576283 0.000000
Si Si2 0.105273 0.908867 0.629996
Si Si3 0.438697 0.250000 0.500000
Si Si4 0.932859 0.879548 0.214556
Si Si5 0.167367 0.917359 0.263045
O O1 0.852718 0.636108 0.933347
O O2 0.700175 0.506926 0.856630
O O3 0.131015 0.947895 0.446460
O O4 0.216801 0.864449 0.703723
O O5 0.014811 0.825873 0.602067
O O6 0.070900 0.002282 0.739767
O O7 0.383171 0.318650 0.633684
O O8 0.061796 0.859871 0.194187
#
# Coordination Sequence:
#
# PCOD9395592 Si02
#       5
#     4   8   4   8   8
#     4  10  20  34  56  86 120 160 194 232 300 370
#     4   9  19  33  57  85 112 153 205 251 296 349
#     4  10  18  33  60  89 120 156 202 260 300 350
#     4  10  20  35  59  85 117 159 201 245 295 355
#     4   9  17  32  56  84 114 151 194 246 298 351
#
# _framework density 23.722062000000001
#
# number of rings (size 3 to 8) (size 9 to 14) (size 15 to 20)
#    0.000    2.500    0.000    3.750    0.000    8.000 
#    0.000    0.000    0.000  132.000    0.000    0.000 
#    0.000    0.000    0.000    2.000    0.000    0.000 
#
# Total GULP energy -178574.451021 kJ/mol
# GULP energy per Si atom -5580.451594 kJ/mol
# Density = 2.366807 g / cm^3
# Si number density = 23.722062 Si / 1000 Ang^3
#
#
#
# Elastic Constant Matrix: (Units=GPa)
#
#
# Indices 1 2 3 4 5 6 
#
# 1 83.3186 -7.6553 46.0130 0.0000 0.0000 0.0000
# 2 -7.6553 76.3752 21.1554 0.0000 0.0000 0.0000
# 3 46.0130 21.1554 50.5301 0.0000 0.0000 0.0000
# 4 0.0000 0.0000 0.0000 20.2611 0.0000 0.0000
# 5 0.0000 0.0000 0.0000 0.0000 54.6527 0.0000
# 6 0.0000 0.0000 0.0000 0.0000 0.0000 -5.1331
#
#
#
# Elastic Compliance Matrix: (Units=1/GPa)
#
#
# Indices 1 2 3 4 5 6 
#
# 1 0.032588 0.012993 -0.035114 0.000000 0.000000 0.000000
# 2 0.012993 0.019991 -0.020201 0.000000 0.000000 0.000000
# 3 -0.035114 -0.020201 0.060223 0.000000 0.000000 0.000000
# 4 0.000000 0.000000 0.000000 0.049356 0.000000 0.000000
# 5 0.000000 0.000000 0.000000 0.000000 0.018297 0.000000
# 6 0.000000 0.000000 0.000000 0.000000 0.000000 -0.194815
#
#
# Mechanical properties :
#
#
# Convention : Reuss Voigt Hill
#
# Bulk Modulus (GPa) = 35.51525 36.58336 36.04931
# Shear Modulus (GPa) = 62.75804 24.00353 43.38079
#
# Velocity S-wave (km/s) = 5.14908 3.18443 4.28098
# Velocity P-wave (km/s) = 7.09609 5.38293 6.29804
#
# Compressibility (1/GPa) = 0.02815692
#
# Stress axis : x y z
#
# Youngs Moduli (GPa) = 30.68624 50.02231 16.60495
#
# Poissons Ratio (x) = -0.64993 0.58307
# Poissons Ratio (y) = -0.39870 0.33544
# Poissons Ratio (z) = 1.07753 1.01050
#
# Static dielectric constant tensor:
#      x y z
#    x 1.986480 0.000000 0.000000 
#    y 0.000000 1.866360 0.000000 
#    z 0.000000 0.000000 1.977690 
# 
# From -- ./inp_files/10725.got.cif
#   From: 2010.05.17/outbox.cif.g08.bks.cpg/sg50_6_cif.got.tgz:10725.got - 2010.06.03 11:33:33.
