data_PCOD9395469
_publ_section_title
;
Structure prediction by ZEFSAII (Michael W. Deem and Ramdas Pophale) SiO2 
 PCOD9395469
Probable space group: P B A N
;
_chemical_formula_sum "Si O2"
_cell_formula_units_Z 34
_cell_length_a 9.118239
_cell_length_b 17.363507
_cell_length_c 8.991544
_cell_angle_alpha 90.000000
_cell_angle_beta 90.000000
_cell_angle_gamma 90.000000
_cell_volume 1423.582667
_symmetry_space_group_name_H-M "P B A N"
_symmetry_group_IT_number 50
_space_group.IT_coordinate_system_code '2'
_symmetry_cell_setting 'orthorhombic'
loop_
_space_group_symop_operation_xyz
x,y,z
1/2-x,1/2-y,z
x,1/2-y,-z
1/2-x,y,-z
-x,-y,-z
1/2+x,1/2+y,-z
-x,1/2+y,z
1/2+x,-y,z
loop_
_atom_site_type_symbol
_atom_site_label
_atom_site_fract_x
_atom_site_fract_y
_atom_site_fract_z
Si Si1 0.000512 0.640496 0.199198
Si Si2 0.750000 0.132700 0.000000
Si Si3 0.750000 0.750000 0.500000
Si Si4 0.750000 0.629847 0.000000
Si Si5 0.502251 0.456502 0.819132
Si Si6 0.591574 0.611400 0.471552
O O1 0.999093 0.548037 0.166110
O O2 0.984139 0.638476 0.376260
O O3 0.143682 0.673958 0.118860
O O4 0.861068 0.672641 0.110366
O O5 0.641549 0.081993 0.102783
O O6 0.649727 0.692652 0.404960
O O7 0.854922 0.579312 0.891177
O O8 0.501522 0.435229 0.644969
O O9 0.750000 0.570474 0.500000
#
# Coordination Sequence:
#
# PCOD9395469 Si02
#       6
#     8   4   2   4   8   8
#     4  11  19  33  53  85 119 149 179 222 280 337
#     4  10  23  30  52  85 118 151 170 212 299 352
#     4   8  20  40  60  84  92 148 208 238 264 292
#     4  10  17  32  52  75 120 159 184 212 261 346
#     4  11  19  33  53  85 119 149 179 222 280 337
#     4  10  21  36  59  81 102 142 198 243 257 309
#
# _framework density 23.883406000000001
#
# number of rings (size 3 to 8) (size 9 to 14) (size 15 to 20)
#    0.706    0.941    2.353    6.353    0.000    0.941 
#    0.000    0.000    0.000   29.647    0.000    0.000 
#    0.000    0.000    0.000    0.000    0.000    0.000 
#
# Total GULP energy -189742.730832 kJ/mol
# GULP energy per Si atom -5580.668554 kJ/mol
# Density = 2.382905 g / cm^3
# Si number density = 23.883406 Si / 1000 Ang^3
#
#
#
# Elastic Constant Matrix: (Units=GPa)
#
#
# Indices 1 2 3 4 5 6 
#
# 1 143.7567 12.0189 65.7332 0.0000 0.0000 0.0000
# 2 12.0189 24.8459 5.2727 0.0000 0.0000 0.0000
# 3 65.7332 5.2727 193.5360 0.0000 0.0000 0.0000
# 4 0.0000 0.0000 0.0000 20.4105 0.0000 0.0000
# 5 0.0000 0.0000 0.0000 0.0000 43.1218 0.0000
# 6 0.0000 0.0000 0.0000 0.0000 0.0000 11.1028
#
#
#
# Elastic Compliance Matrix: (Units=1/GPa)
#
#
# Indices 1 2 3 4 5 6 
#
# 1 0.008533 -0.003533 -0.002802 0.000000 0.000000 0.000000
# 2 -0.003533 0.041945 0.000057 0.000000 0.000000 0.000000
# 3 -0.002802 0.000057 0.006117 0.000000 0.000000 0.000000
# 4 0.000000 0.000000 0.000000 0.048994 0.000000 0.000000
# 5 0.000000 0.000000 0.000000 0.000000 0.023190 0.000000
# 6 0.000000 0.000000 0.000000 0.000000 0.000000 0.090068
#
#
# Mechanical properties :
#
#
# Convention : Reuss Voigt Hill
#
# Bulk Modulus (GPa) = 22.70686 58.68758 40.69722
# Shear Modulus (GPa) = 20.31843 33.53460 26.92652
#
# Velocity S-wave (km/s) = 2.91990 3.75119 3.36134
# Velocity P-wave (km/s) = 4.57119 6.58694 5.66937
#
# Compressibility (1/GPa) = 0.04403955
#
# Stress axis : x y z
#
# Youngs Moduli (GPa) = 117.19579 23.84073 163.47717
#
# Poissons Ratio (x) = 0.08423 0.45804
# Poissons Ratio (y) = 0.41406 -0.00936
# Poissons Ratio (z) = 0.32836 -0.00136
#
# Static dielectric constant tensor:
#      x y z
#    x 1.956390 0.000000 0.000000 
#    y 0.000000 1.958220 0.000000 
#    z 0.000000 0.000000 1.974920 
# 
# From -- ./inp_files/9686.got.cif
#   From: 2010.05.17/outbox.cif.g08.bks.cpg/sg50_5_cif.got.tgz:9686.got - 2010.06.03 11:33:33.
