data_PCOD9395654
_publ_section_title
;
Structure prediction by ZEFSAII (Michael W. Deem and Ramdas Pophale) SiO2 
 PCOD9395654
Probable space group: P B A N
;
_chemical_formula_sum "Si O2"
_cell_formula_units_Z 46
_cell_length_a 26.265382
_cell_length_b 15.923233
_cell_length_c 5.215611
_cell_angle_alpha 90.000000
_cell_angle_beta 90.000000
_cell_angle_gamma 90.000000
_cell_volume 2181.323932
_symmetry_space_group_name_H-M "P B A N"
_symmetry_group_IT_number 50
_space_group.IT_coordinate_system_code '2'
_symmetry_cell_setting 'orthorhombic'
loop_
_space_group_symop_operation_xyz
x,y,z
1/2-x,1/2-y,z
x,1/2-y,-z
1/2-x,y,-z
-x,-y,-z
1/2+x,1/2+y,-z
-x,1/2+y,z
1/2+x,-y,z
loop_
_atom_site_type_symbol
_atom_site_label
_atom_site_fract_x
_atom_site_fract_y
_atom_site_fract_z
Si Si1 0.750000 0.975177 0.500000
Si Si2 0.933056 0.896624 0.959111
Si Si3 0.155485 0.040323 0.771685
Si Si4 0.509880 0.657285 0.476959
Si Si5 0.250000 0.750000 0.000000
Si Si6 0.319038 0.899085 0.834757
Si Si7 0.581410 0.453781 0.621598
O O1 0.792083 0.925362 0.340467
O O2 0.715313 0.035816 0.325277
O O3 0.949516 0.846789 0.706973
O O4 0.939554 0.993621 0.864620
O O5 0.965313 0.864663 0.201698
O O6 0.873525 0.898491 0.033985
O O7 0.112841 0.017269 0.559941
O O8 0.170602 0.950978 0.903208
O O9 0.487396 0.750000 0.500000
O O10 0.465122 0.590100 0.517618
O O11 0.287612 0.813793 0.853992
O O12 0.374919 0.889698 0.713358
#
# Coordination Sequence:
#
# PCOD9395654 Si02
#       7
#     4   8   8   8   2   8   8
#     4  10  18  39  56  90 123 152 214 278 306 370
#     4  11  23  43  66  93 125 174 215 269 324 390
#     4  10  20  38  63  91 121 160 223 265 311 376
#     4  12  26  42  63  95 134 169 214 275 338 389
#     4  12  20  38  52  80 138 180 206 262 332 378
#     4  10  22  35  56  85 126 170 219 261 311 380
#     4  10  23  40  66  89 126 171 228 264 315 392
#
# _framework density 21.08811
#
# number of rings (size 3 to 8) (size 9 to 14) (size 15 to 20)
#    0.000    1.391    3.478    1.565    4.870    1.739 
#    0.000    0.000    0.000    0.000    0.000    0.609 
#   10.435    0.000    0.000    0.000    0.000    0.000 
#
# Total GULP energy -256527.542160 kJ/mol
# GULP energy per Si atom -5576.685699 kJ/mol
# Density = 2.104011 g / cm^3
# Si number density = 21.088110 Si / 1000 Ang^3
#
#
#
# Elastic Constant Matrix: (Units=GPa)
#
#
# Indices 1 2 3 4 5 6 
#
# 1 66.6062 20.8309 34.4582 0.0000 0.0000 0.0000
# 2 20.8309 25.0034 3.7333 0.0000 0.0000 0.0000
# 3 34.4582 3.7333 102.8322 0.0000 0.0000 0.0000
# 4 0.0000 0.0000 0.0000 6.3425 0.0000 0.0000
# 5 0.0000 0.0000 0.0000 0.0000 34.9874 0.0000
# 6 0.0000 0.0000 0.0000 0.0000 0.0000 25.7183
#
#
#
# Elastic Compliance Matrix: (Units=1/GPa)
#
#
# Indices 1 2 3 4 5 6 
#
# 1 0.025225 -0.019861 -0.007732 0.000000 0.000000 0.000000
# 2 -0.019861 0.055850 0.004628 0.000000 0.000000 0.000000
# 3 -0.007732 0.004628 0.012147 0.000000 0.000000 0.000000
# 4 0.000000 0.000000 0.000000 0.157666 0.000000 0.000000
# 5 0.000000 0.000000 0.000000 0.000000 0.028582 0.000000
# 6 0.000000 0.000000 0.000000 0.000000 0.000000 0.038883
#
#
# Mechanical properties :
#
#
# Convention : Reuss Voigt Hill
#
# Bulk Modulus (GPa) = 21.14500 34.72074 27.93287
# Shear Modulus (GPa) = 13.15627 22.43760 17.79694
#
# Velocity S-wave (km/s) = 2.50045 3.26543 2.90820
# Velocity P-wave (km/s) = 4.28778 5.54236 4.95494
#
# Compressibility (1/GPa) = 0.04729250
#
# Stress axis : x y z
#
# Youngs Moduli (GPa) = 39.64318 17.90504 82.32223
#
# Poissons Ratio (x) = 0.35561 0.63649
# Poissons Ratio (y) = 0.78736 -0.38096
# Poissons Ratio (z) = 0.30651 -0.08286
#
# Static dielectric constant tensor:
#      x y z
#    x 1.789750 0.000000 0.000000 
#    y 0.000000 1.740570 0.000000 
#    z 0.000000 0.000000 1.875730 
# 
# From -- ./inp_files/6032.got.cif
#   From: 2010.05.17/outbox.cif.g08.bks.cpg/sg50_4_cif.got.tgz:6032.got - 2010.06.03 11:33:33.
