data_PCOD9395145
_publ_section_title
;
Structure prediction by ZEFSAII (Michael W. Deem and Ramdas Pophale) SiO2 
 PCOD9395145
Probable space group: P C C M
;
_chemical_formula_sum "Si O2"
_cell_formula_units_Z 18
_cell_length_a 6.864560
_cell_length_b 11.217782
_cell_length_c 10.867703
_cell_angle_alpha 90.000000
_cell_angle_beta 90.000000
_cell_angle_gamma 90.000000
_cell_volume 836.868965
_symmetry_space_group_name_H-M "P C C M"
_symmetry_group_IT_number 49
_symmetry_cell_setting 'orthorhombic'
loop_
_space_group_symop_operation_xyz
x,y,z
-x,-y,z
x,-y,1/2-z
-x,y,1/2-z
-x,-y,-z
x,y,-z
-x,y,1/2+z
x,-y,1/2+z
loop_
_atom_site_type_symbol
_atom_site_label
_atom_site_fract_x
_atom_site_fract_y
_atom_site_fract_z
Si Si1 0.656854 0.155048 0.357834
Si Si2 0.000000 0.000000 0.250000
Si Si3 0.712963 0.562042 0.867056
O O1 0.500000 0.128161 0.250000
O O2 0.592027 0.132311 0.500000
O O3 0.694645 0.296710 0.348604
O O4 0.854275 0.082453 0.329722
O O5 0.500000 0.500000 0.874266
O O6 0.804267 0.500000 0.750000
O O7 0.803927 0.542288 0.000000
#
# Coordination Sequence:
#
# PCOD9395145 Si02
#       3
#     8   2   8
#     4  11  24  44  71  99 133 178 223 276 334 392
#     4  12  28  44  62  96 142 180 226 268 322 406
#     4   9  16  32  63  97 124 158 210 267 328 388
#
# _framework density 21.508745000000001
#
# number of rings (size 3 to 8) (size 9 to 14) (size 15 to 20)
#    0.000    1.778    4.444    1.333    0.000    5.333 
#    0.000    1.111    0.000    5.333    0.000    0.000 
#    0.000    0.000    0.000    0.000    0.000    0.000 
#
# Total GULP energy -100401.844838 kJ/mol
# GULP energy per Si atom -5577.880269 kJ/mol
# Density = 2.145979 g / cm^3
# Si number density = 21.508745 Si / 1000 Ang^3
#
#
#
# Elastic Constant Matrix: (Units=GPa)
#
#
# Indices 1 2 3 4 5 6 
#
# 1 143.8590 68.2212 67.6025 0.0000 0.0000 0.0000
# 2 68.2212 177.0695 76.6208 0.0000 0.0000 0.0000
# 3 67.6025 76.6208 268.6911 0.0000 0.0000 0.0000
# 4 0.0000 0.0000 0.0000 -49.5310 0.0000 0.0000
# 5 0.0000 0.0000 0.0000 0.0000 -9.6563 0.0000
# 6 0.0000 0.0000 0.0000 0.0000 0.0000 -27.5322
#
#
#
# Elastic Compliance Matrix: (Units=1/GPa)
#
#
# Indices 1 2 3 4 5 6 
#
# 1 0.008975 -0.002830 -0.001451 0.000000 0.000000 0.000000
# 2 -0.002830 0.007335 -0.001380 0.000000 0.000000 0.000000
# 3 -0.001451 -0.001380 0.004480 0.000000 0.000000 0.000000
# 4 0.000000 0.000000 0.000000 -0.020189 0.000000 0.000000
# 5 0.000000 0.000000 0.000000 0.000000 -0.103559 0.000000
# 6 0.000000 0.000000 0.000000 0.000000 0.000000 -0.036321
#
#
# Mechanical properties :
#
#
# Convention : Reuss Voigt Hill
#
# Bulk Modulus (GPa) = 105.61012 112.72319 109.16666
# Shear Modulus (GPa) = -40.06364 7.80109 -16.13127
#
# Velocity S-wave (km/s) = -4.32055 1.90652 -2.74156
# Velocity P-wave (km/s) = 4.93134 7.57418 6.39087
#
# Compressibility (1/GPa) = 0.00946879
#
# Stress axis : x y z
#
# Youngs Moduli (GPa) = 111.41756 136.33594 223.20141
#
# Poissons Ratio (x) = 0.38584 0.32390
# Poissons Ratio (y) = 0.31532 0.30793
# Poissons Ratio (z) = 0.16168 0.18809
#
# Static dielectric constant tensor:
#      x y z
#    x 1.734840 0.000000 0.000000 
#    y 0.000000 1.758820 0.000000 
#    z 0.000000 0.000000 1.921940 
# 
# From -- ./inp_files/7169.got.cif
#   From: 2010.05.17/outbox.cif.g08.bks.cpg/sg49_4_cif.got.tgz:7169.got - 2010.06.03 21:02:19.
