data_PCOD9395259
_publ_section_title
;
Structure prediction by ZEFSAII (Michael W. Deem and Ramdas Pophale) SiO2 
 PCOD9395259
Probable space group: P C C M
;
_chemical_formula_sum "Si O2"
_cell_formula_units_Z 58
_cell_length_a 24.000000
_cell_length_b 15.000000
_cell_length_c 9.000000
_cell_angle_alpha 90.000000
_cell_angle_beta 90.000000
_cell_angle_gamma 90.000000
_cell_volume 3240.000000
_symmetry_space_group_name_H-M "P C C M"
_symmetry_group_IT_number 49
_symmetry_cell_setting 'orthorhombic'
loop_
_space_group_symop_operation_xyz
x,y,z
-x,-y,z
x,-y,1/2-z
-x,y,1/2-z
-x,-y,-z
x,y,-z
-x,y,1/2+z
x,-y,1/2+z
loop_
_atom_site_type_symbol
_atom_site_label
_atom_site_fract_x
_atom_site_fract_y
_atom_site_fract_z
Si Si1 0.720149 0.904520 0.176043
Si Si2 0.767974 0.405863 0.179004
Si Si3 0.673679 0.267027 0.819948
Si Si4 0.500000 0.500000 0.250000
Si Si5 0.149554 0.096329 0.176789
Si Si6 0.057204 0.218693 0.321818
Si Si7 0.553378 0.324604 0.833664
Si Si8 0.103026 0.407108 0.677851
O O1 0.683431 0.829394 0.252265
O O2 0.785444 0.881198 0.200950
O O3 0.710457 0.000000 0.250000
O O4 0.710925 0.908909 0.000000
O O5 0.752091 0.500000 0.250000
O O6 0.724712 0.330490 0.226787
O O7 0.832370 0.388248 0.221040
O O8 0.765961 0.412322 0.000000
O O9 0.614127 0.305944 0.769988
O O10 0.674735 0.263658 0.000000
O O11 0.460366 0.569502 0.165453
O O12 0.109010 0.165096 0.256127
O O13 0.140068 0.000000 0.250000
O O14 0.139442 0.093221 0.000000
O O15 0.055914 0.210989 0.500000
O O16 0.066574 0.322180 0.280692
O O17 0.000000 0.185799 0.250000
O O18 0.500000 0.285241 0.750000
O O19 0.553150 0.290255 0.000000
O O20 0.085722 0.500000 0.750000
O O21 0.101670 0.416499 0.500000
#
# Coordination Sequence:
#
# PCOD9395259 Si02
#       8
#     8   8   8   2   8   8   8   8
#     4  10  21  37  59  86 111 141 176 218 269 322
#     4   9  18  31  49  74 105 138 173 215 266 318
#     4  10  20  34  52  79 112 145 182 226 272 321
#     4   8  18  32  50  72 108 148 198 228 272 312
#     4  10  21  38  60  85 112 140 174 213 263 324
#     4  11  23  38  56  79 106 139 179 222 270 317
#     4   9  19  32  50  74 105 146 187 227 268 311
#     4   9  19  35  53  73 100 137 176 218 266 317
#
# _framework density 17.901235
#
# number of rings (size 3 to 8) (size 9 to 14) (size 15 to 20)
#    0.414    1.931    0.000    2.276    0.966    5.517 
#    0.000    5.517    0.000    0.414    0.000    2.897 
#    0.000    0.000    0.000    0.000    0.000    0.000 
#
# Total GULP energy -323255.263121 kJ/mol
# GULP energy per Si atom -5573.366606 kJ/mol
# Density = 1.786049 g / cm^3
# Si number density = 17.901235 Si / 1000 Ang^3
#
#
#
# Elastic Constant Matrix: (Units=GPa)
#
#
# Indices 1 2 3 4 5 6 
#
# 1 51.4456 51.7521 28.4645 0.0000 0.0000 0.0000
# 2 51.7521 76.3149 24.2953 0.0000 0.0000 0.0000
# 3 28.4645 24.2953 26.6911 0.0000 0.0000 0.0000
# 4 0.0000 0.0000 0.0000 29.5311 0.0000 0.0000
# 5 0.0000 0.0000 0.0000 0.0000 23.5306 0.0000
# 6 0.0000 0.0000 0.0000 0.0000 0.0000 -105.4272
#
#
#
# Elastic Compliance Matrix: (Units=1/GPa)
#
#
# Indices 1 2 3 4 5 6 
#
# 1 0.114048 -0.054378 -0.072129 0.000000 0.000000 0.000000
# 2 -0.054378 0.044377 0.017597 0.000000 0.000000 0.000000
# 3 -0.072129 0.017597 0.098370 0.000000 0.000000 0.000000
# 4 0.000000 0.000000 0.000000 0.033863 0.000000 0.000000
# 5 0.000000 0.000000 0.000000 0.000000 0.042498 0.000000
# 6 0.000000 0.000000 0.000000 0.000000 0.000000 -0.009485
#
#
# Mechanical properties :
#
#
# Convention : Reuss Voigt Hill
#
# Bulk Modulus (GPa) = 25.65734 40.38616 33.02175
# Shear Modulus (GPa) = 9.01742 -7.14379 0.93682
#
# Velocity S-wave (km/s) = 2.24683 -1.99983 0.72420
# Velocity P-wave (km/s) = 4.59291 4.15657 4.38018
#
# Compressibility (1/GPa) = 0.03897520
#
# Stress axis : x y z
#
# Youngs Moduli (GPa) = 8.76821 22.53406 10.16575
#
# Poissons Ratio (x) = 1.22535 0.73324
# Poissons Ratio (y) = 0.47680 -0.17889
# Poissons Ratio (z) = 0.63244 -0.39653
#
# Static dielectric constant tensor:
#      x y z
#    x 1.618530 0.000000 0.000000 
#    y 0.000000 1.590980 0.000000 
#    z 0.000000 0.000000 1.614910 
# 
# From -- ./inp_files/4272.got.cif
#   From: 2010.05.17/outbox.ucp.g08.bks.cvg/sg49_3_cif.got.tgz:4272.got - 2010.06.11 16:40:14.
