data_PCOD9395541
_publ_section_title
;
Structure prediction by ZEFSAII (Michael W. Deem and Ramdas Pophale) SiO2 
 PCOD9395541
Probable space group: P B A N
;
_chemical_formula_sum "Si O2"
_cell_formula_units_Z 56
_cell_length_a 14.588912
_cell_length_b 10.411344
_cell_length_c 15.852048
_cell_angle_alpha 90.000000
_cell_angle_beta 90.000000
_cell_angle_gamma 90.000000
_cell_volume 2407.770447
_symmetry_space_group_name_H-M "P B A N"
_symmetry_group_IT_number 50
_space_group.IT_coordinate_system_code '2'
_symmetry_cell_setting 'orthorhombic'
loop_
_space_group_symop_operation_xyz
x,y,z
1/2-x,1/2-y,z
x,1/2-y,-z
1/2-x,y,-z
-x,-y,-z
1/2+x,1/2+y,-z
-x,1/2+y,z
1/2+x,-y,z
loop_
_atom_site_type_symbol
_atom_site_label
_atom_site_fract_x
_atom_site_fract_y
_atom_site_fract_z
Si Si1 0.641636 0.261245 0.757936
Si Si2 0.854872 0.979722 0.689987
Si Si3 0.868480 0.498243 0.672178
Si Si4 0.884682 0.883779 0.049666
Si Si5 0.861549 0.603222 0.494914
Si Si6 0.097795 0.873857 0.059442
Si Si7 0.149266 0.230024 0.772797
O O1 0.750000 0.250000 0.744335
O O2 0.606587 0.380038 0.704779
O O3 0.632313 0.315548 0.852849
O O4 0.601313 0.126427 0.725509
O O5 0.743347 0.996024 0.684494
O O6 0.886983 0.937276 0.598712
O O7 0.883815 0.877150 0.763396
O O8 0.889317 0.511740 0.572957
O O9 0.902482 0.629546 0.714989
O O10 0.838622 0.844572 0.138394
O O11 0.991031 0.909695 0.071968
O O12 0.878783 0.750000 0.000000
O O13 0.857242 0.003596 0.989288
O O14 0.893379 0.750000 0.500000
O O15 0.750000 0.605227 0.500000
O O16 0.102356 0.750000 0.000000
O O17 0.250000 0.250000 0.734920
#
# Coordination Sequence:
#
# PCOD9395541 Si02
#       7
#     8   8   8   8   8   8   8
#     4  10  20  33  48  74 104 133 168 214 264 309
#     4   9  17  28  46  72 105 133 164 210 253 301
#     4   9  17  28  46  72 103 135 167 202 253 310
#     4  10  21  36  55  76  98 133 178 220 260 309
#     4   9  14  25  45  71 102 137 167 200 250 305
#     4  10  21  38  55  72 100 137 178 218 258 315
#     4  10  18  31  50  76 104 129 164 215 262 306
#
# _framework density 23.258030000000002
#
# number of rings (size 3 to 8) (size 9 to 14) (size 15 to 20)
#    0.000    2.429    1.429    1.714    0.000    1.143 
#    0.000    4.286    0.000    0.000    0.000    6.000 
#    0.000    0.000    0.000    0.000    0.000    0.000 
#
# Total GULP energy -311998.613288 kJ/mol
# GULP energy per Si atom -5571.403809 kJ/mol
# Density = 2.320509 g / cm^3
# Si number density = 23.258030 Si / 1000 Ang^3
#
#
#
# Elastic Constant Matrix: (Units=GPa)
#
#
# Indices 1 2 3 4 5 6 
#
# 1 56.3090 19.6964 -10.9321 0.0000 0.0000 0.0000
# 2 19.6964 187.7459 75.7019 0.0000 0.0000 0.0000
# 3 -10.9321 75.7019 109.5214 0.0000 0.0000 0.0000
# 4 0.0000 0.0000 0.0000 47.2570 0.0000 0.0000
# 5 0.0000 0.0000 0.0000 0.0000 -112.9271 0.0000
# 6 0.0000 0.0000 0.0000 0.0000 0.0000 -24.7797
#
#
#
# Elastic Compliance Matrix: (Units=1/GPa)
#
#
# Indices 1 2 3 4 5 6 
#
# 1 0.020107 -0.004047 0.004804 0.000000 0.000000 0.000000
# 2 -0.004047 0.008199 -0.006071 0.000000 0.000000 0.000000
# 3 0.004804 -0.006071 0.013806 0.000000 0.000000 0.000000
# 4 0.000000 0.000000 0.000000 0.021161 0.000000 0.000000
# 5 0.000000 0.000000 0.000000 0.000000 -0.008855 0.000000
# 6 0.000000 0.000000 0.000000 0.000000 0.000000 -0.040356
#
#
# Mechanical properties :
#
#
# Convention : Reuss Voigt Hill
#
# Bulk Modulus (GPa) = 31.76056 58.05653 44.90854
# Shear Modulus (GPa) = 142.10783 -0.14930 70.97926
#
# Velocity S-wave (km/s) = 7.82516 -0.25364 5.53032
# Velocity P-wave (km/s) = 9.76369 4.99303 7.75435
#
# Compressibility (1/GPa) = 0.03148559
#
# Stress axis : x y z
#
# Youngs Moduli (GPa) = 49.73325 121.96966 72.43001
#
# Poissons Ratio (x) = 0.49355 -0.34795
# Poissons Ratio (y) = 0.20125 0.43972
# Poissons Ratio (z) = -0.23892 0.74047
#
# Static dielectric constant tensor:
#      x y z
#    x 1.937660 0.000000 0.000000 
#    y 0.000000 1.778210 0.000000 
#    z 0.000000 0.000000 2.418440 
# 
# From -- ./inp_files/27239.got.cif
#   From: 2010.05.17/outbox.cif.g08.bks.cpg/sg50_14_cif.got.tgz:27239.got - 2010.06.03 11:33:33.
