data_PCOD9395379
_publ_section_title
;
Structure prediction by ZEFSAII (Michael W. Deem and Ramdas Pophale) SiO2 
 PCOD9395379
Probable space group: P B A N
;
_chemical_formula_sum "Si O2"
_cell_formula_units_Z 56
_cell_length_a 17.694174
_cell_length_b 5.276310
_cell_length_c 29.455115
_cell_angle_alpha 90.000000
_cell_angle_beta 90.000000
_cell_angle_gamma 90.000000
_cell_volume 2749.927982
_symmetry_space_group_name_H-M "P B A N"
_symmetry_group_IT_number 50
_space_group.IT_coordinate_system_code '2'
_symmetry_cell_setting 'orthorhombic'
loop_
_space_group_symop_operation_xyz
x,y,z
1/2-x,1/2-y,z
x,1/2-y,-z
1/2-x,y,-z
-x,-y,-z
1/2+x,1/2+y,-z
-x,1/2+y,z
1/2+x,-y,z
loop_
_atom_site_type_symbol
_atom_site_label
_atom_site_fract_x
_atom_site_fract_y
_atom_site_fract_z
Si Si1 0.159881 0.757224 0.757195
Si Si2 0.159186 0.240586 0.296962
Si Si3 0.283128 0.999253 0.050875
Si Si4 0.049328 0.051657 0.374077
Si Si5 0.456229 0.912875 0.061985
Si Si6 0.414171 0.496120 0.479807
Si Si7 0.043711 0.584948 0.171322
O O1 0.250000 0.750000 0.761954
O O2 0.139096 0.477089 0.739862
O O3 0.119780 0.836733 0.803524
O O4 0.138109 0.979003 0.721086
O O5 0.250000 0.250000 0.303281
O O6 0.116826 0.141118 0.341544
O O7 0.250000 0.250000 0.073757
O O8 0.250000 0.750000 0.074256
O O9 0.372639 0.983657 0.046237
O O10 0.250000 0.000164 0.000000
O O11 0.077022 0.036421 0.426181
O O12 0.986702 0.273201 0.366647
O O13 0.485475 0.634830 0.048526
O O14 0.450353 0.910792 0.116860
O O15 0.375103 0.250000 0.500000
O O16 0.500000 0.500000 0.500000
O O17 0.378614 0.750000 0.500000
O O18 0.015666 0.305521 0.184312
#
# Coordination Sequence:
#
# PCOD9395379 Si02
#       7
#     8   8   8   8   8   8   8
#     4  10  21  39  57  77 108 152 189 222 277 343
#     4  10  23  39  53  76 116 151 181 225 280 340
#     4  10  21  39  59  86 120 155 200 251 294 342
#     4  12  21  32  55  85 103 137 188 226 272 328
#     4  10  21  39  60  87 120 158 196 244 306 367
#     4  10  16  30  48  74 109 131 160 224 271 310
#     4  10  21  36  59  86 115 146 186 241 295 333
#
# _framework density 20.364167999999999
#
# number of rings (size 3 to 8) (size 9 to 14) (size 15 to 20)
#    0.000    1.714    2.857    2.571    0.000    4.000 
#    0.000   10.714    0.000    0.429    0.000    2.000 
#    0.000    0.000    0.000    0.000    0.000    0.000 
#
# Total GULP energy -312512.453770 kJ/mol
# GULP energy per Si atom -5580.579532 kJ/mol
# Density = 2.031782 g / cm^3
# Si number density = 20.364168 Si / 1000 Ang^3
#
#
#
# Elastic Constant Matrix: (Units=GPa)
#
#
# Indices 1 2 3 4 5 6 
#
# 1 69.7097 40.0219 30.3264 0.0000 0.0000 0.0000
# 2 40.0219 167.9812 26.8744 0.0000 0.0000 0.0000
# 3 30.3264 26.8744 66.4846 0.0000 0.0000 0.0000
# 4 0.0000 0.0000 0.0000 22.2937 0.0000 0.0000
# 5 0.0000 0.0000 0.0000 0.0000 -14.1425 0.0000
# 6 0.0000 0.0000 0.0000 0.0000 0.0000 25.8666
#
#
#
# Elastic Compliance Matrix: (Units=1/GPa)
#
#
# Indices 1 2 3 4 5 6 
#
# 1 0.019619 -0.003467 -0.007548 0.000000 0.000000 0.000000
# 2 -0.003467 0.006977 -0.001239 0.000000 0.000000 0.000000
# 3 -0.007548 -0.001239 0.018985 0.000000 0.000000 0.000000
# 4 0.000000 0.000000 0.000000 0.044856 0.000000 0.000000
# 5 0.000000 0.000000 0.000000 0.000000 -0.070709 0.000000
# 6 0.000000 0.000000 0.000000 0.000000 0.000000 0.038660
#
#
# Mechanical properties :
#
#
# Convention : Reuss Voigt Hill
#
# Bulk Modulus (GPa) = 47.45175 55.40233 51.42704
# Shear Modulus (GPa) = 55.60503 20.60040 38.10271
#
# Velocity S-wave (km/s) = 5.23112 3.18402 4.33028
# Velocity P-wave (km/s) = 7.73552 6.38609 7.09297
#
# Compressibility (1/GPa) = 0.02107404
#
# Stress axis : x y z
#
# Youngs Moduli (GPa) = 50.97063 143.32323 52.67383
#
# Poissons Ratio (x) = 0.49687 0.39757
# Poissons Ratio (y) = 0.17670 0.06526
# Poissons Ratio (z) = 0.38471 0.17758
#
# Static dielectric constant tensor:
#      x y z
#    x 1.688690 0.000000 0.000000 
#    y 0.000000 1.704240 0.000000 
#    z 0.000000 0.000000 1.689850 
# 
# From -- ./inp_files/32377.got.cif
#   From: 2010.05.17/outbox.cif.g08.bks.cpg/sg50_17_cif.got.tgz:32377.got - 2010.06.03 11:33:33.
