data_PCOD9395576
_publ_section_title
;
Structure prediction by ZEFSAII (Michael W. Deem and Ramdas Pophale) SiO2 
 PCOD9395576
Probable space group: P B A N
;
_chemical_formula_sum "Si O2"
_cell_formula_units_Z 64
_cell_length_a 11.783677
_cell_length_b 14.016614
_cell_length_c 17.505006
_cell_angle_alpha 90.000000
_cell_angle_beta 90.000000
_cell_angle_gamma 90.000000
_cell_volume 2891.253737
_symmetry_space_group_name_H-M "P B A N"
_symmetry_group_IT_number 50
_space_group.IT_coordinate_system_code '2'
_symmetry_cell_setting 'orthorhombic'
loop_
_space_group_symop_operation_xyz
x,y,z
1/2-x,1/2-y,z
x,1/2-y,-z
1/2-x,y,-z
-x,-y,-z
1/2+x,1/2+y,-z
-x,1/2+y,z
1/2+x,-y,z
loop_
_atom_site_type_symbol
_atom_site_label
_atom_site_fract_x
_atom_site_fract_y
_atom_site_fract_z
Si Si1 0.026050 0.189142 0.067489
Si Si2 0.660377 0.035923 0.946299
Si Si3 0.917975 0.113440 0.711461
Si Si4 0.674354 0.845449 0.217930
Si Si5 0.049871 0.659333 0.301784
Si Si6 0.735398 0.365492 0.413720
Si Si7 0.125516 0.485598 0.218563
Si Si8 0.833374 0.173052 0.861994
O O1 0.106506 0.156552 0.137047
O O2 0.951264 0.100222 0.033898
O O3 0.935341 0.265551 0.102439
O O4 0.083674 0.250000 0.000000
O O5 0.754872 0.114302 0.919401
O O6 0.613736 0.976926 0.873455
O O7 0.750000 0.977396 0.000000
O O8 0.934423 0.227511 0.704681
O O9 0.829180 0.091275 0.644341
O O10 0.873480 0.101689 0.797524
O O11 0.037250 0.060624 0.721268
O O12 0.750000 0.750000 0.221442
O O13 0.581625 0.853444 0.284591
O O14 0.757636 0.932640 0.230073
O O15 0.110063 0.622470 0.378438
O O16 0.113131 0.597226 0.236733
O O17 0.750000 0.250000 0.414113
O O18 0.750000 0.399914 0.500000
O O19 0.750000 0.250000 0.825171
#
# Coordination Sequence:
#
# PCOD9395576 Si02
#       8
#     8   8   8   8   8   8   8   8
#     4  11  21  39  64  93 126 177 228 288 358 402
#     4  11  22  37  58  93 132 171 228 298 345 396
#     4  11  21  41  68  99 132 176 226 284 340 404
#     4  12  25  47  66  97 138 181 233 285 345 416
#     4  11  22  42  71  99 136 180 222 283 339 406
#     4   9  20  39  71 110 136 167 223 286 344 408
#     4  12  26  42  67  98 138 185 237 283 335 415
#     4  10  18  32  61  89 118 160 224 275 331 398
#
# _framework density 22.135725999999998
#
# number of rings (size 3 to 8) (size 9 to 14) (size 15 to 20)
#    0.000    1.125    5.000    2.625    3.500    0.250 
#    4.500    1.875    0.000    0.000    0.000    0.000 
#    0.000    0.000    0.000    0.000    0.000    0.000 
#
# Total GULP energy -357065.902693 kJ/mol
# GULP energy per Si atom -5579.154730 kJ/mol
# Density = 2.208534 g / cm^3
# Si number density = 22.135726 Si / 1000 Ang^3
#
#
#
# Elastic Constant Matrix: (Units=GPa)
#
#
# Indices 1 2 3 4 5 6 
#
# 1 120.6581 41.9163 52.7194 0.0000 0.0000 0.0000
# 2 41.9163 81.7386 20.2586 0.0000 0.0000 0.0000
# 3 52.7194 20.2586 118.2927 0.0000 0.0000 0.0000
# 4 0.0000 0.0000 0.0000 20.2237 0.0000 0.0000
# 5 0.0000 0.0000 0.0000 0.0000 24.2898 0.0000
# 6 0.0000 0.0000 0.0000 0.0000 0.0000 28.1208
#
#
#
# Elastic Compliance Matrix: (Units=1/GPa)
#
#
# Indices 1 2 3 4 5 6 
#
# 1 0.011998 -0.005042 -0.004484 0.000000 0.000000 0.000000
# 2 -0.005042 0.014895 -0.000304 0.000000 0.000000 0.000000
# 3 -0.004484 -0.000304 0.010504 0.000000 0.000000 0.000000
# 4 0.000000 0.000000 0.000000 0.049447 0.000000 0.000000
# 5 0.000000 0.000000 0.000000 0.000000 0.041170 0.000000
# 6 0.000000 0.000000 0.000000 0.000000 0.000000 0.035561
#
#
# Mechanical properties :
#
#
# Convention : Reuss Voigt Hill
#
# Bulk Modulus (GPa) = 56.37515 61.16421 58.76968
# Shear Modulus (GPa) = 26.43452 28.24653 27.34053
#
# Velocity S-wave (km/s) = 3.45947 3.57607 3.51826
# Velocity P-wave (km/s) = 6.44054 6.68898 6.56593
#
# Compressibility (1/GPa) = 0.01773831
#
# Stress axis : x y z
#
# Youngs Moduli (GPa) = 83.34376 67.13735 95.20167
#
# Poissons Ratio (x) = 0.33848 0.42688
# Poissons Ratio (y) = 0.42019 0.02894
# Poissons Ratio (z) = 0.37371 0.02041
#
# Static dielectric constant tensor:
#      x y z
#    x 1.904170 0.000000 0.000000 
#    y 0.000000 1.846990 0.000000 
#    z 0.000000 0.000000 1.871670 
# 
# From -- ./inp_files/29251.got.cif
#   From: 2010.05.17/outbox.cif.g08.bks.cpg/sg50_15_cif.got.tgz:29251.got - 2010.06.03 11:33:33.
