data_PCOD9395178
_publ_section_title
;
Structure prediction by ZEFSAII (Michael W. Deem and Ramdas Pophale) SiO2 
 PCOD9395178
Probable space group: P C C M
;
_chemical_formula_sum "Si O2"
_cell_formula_units_Z 20
_cell_length_a 4.898363
_cell_length_b 11.053085
_cell_length_c 15.063507
_cell_angle_alpha 90.000000
_cell_angle_beta 90.000000
_cell_angle_gamma 90.000000
_cell_volume 815.568736
_symmetry_space_group_name_H-M "P C C M"
_symmetry_group_IT_number 49
_symmetry_cell_setting 'orthorhombic'
loop_
_space_group_symop_operation_xyz
x,y,z
-x,-y,z
x,-y,1/2-z
-x,y,1/2-z
-x,-y,-z
x,y,-z
-x,y,1/2+z
x,-y,1/2+z
loop_
_atom_site_type_symbol
_atom_site_label
_atom_site_fract_x
_atom_site_fract_y
_atom_site_fract_z
Si Si1 0.500000 0.000000 0.750000
Si Si2 0.351259 0.329765 0.596946
Si Si3 0.876455 0.194774 0.656265
Si Si4 0.500000 0.500000 0.750000
O O1 0.701272 0.077770 0.686519
O O2 0.313946 0.386360 0.500000
O O3 0.657164 0.281516 0.611252
O O4 0.323421 0.420724 0.680120
O O5 0.151928 0.212318 0.600490
O O6 0.000000 0.234521 0.750000
#
# Coordination Sequence:
#
# PCOD9395178 Si02
#       4
#     2   8   8   2
#     4  12  24  44  88 102 142 214 244 296 380 442
#     4  12  27  46  74 112 151 192 248 309 367 440
#     4  12  23  47  74 107 149 194 244 303 368 437
#     4  12  24  50  80 106 148 206 244 302 376 446
#
# _framework density 24.522763999999999
#
# number of rings (size 3 to 8) (size 9 to 14) (size 15 to 20)
#    0.000    0.000    8.000    2.400    0.000    3.200 
#    0.000   10.000    0.000    0.000    0.000    0.000 
#    0.000    0.000    0.000    0.000    0.000    0.000 
#
# Total GULP energy -111363.833232 kJ/mol
# GULP energy per Si atom -5568.191662 kJ/mol
# Density = 2.446695 g / cm^3
# Si number density = 24.522764 Si / 1000 Ang^3
#
#
#
# Elastic Constant Matrix: (Units=GPa)
#
#
# Indices 1 2 3 4 5 6 
#
# 1 153.0015 37.2818 30.0841 0.0000 0.0000 0.0000
# 2 37.2818 98.9031 52.6727 0.0000 0.0000 0.0000
# 3 30.0841 52.6727 207.0328 0.0000 0.0000 0.0000
# 4 0.0000 0.0000 0.0000 11.4530 0.0000 0.0000
# 5 0.0000 0.0000 0.0000 0.0000 24.5424 0.0000
# 6 0.0000 0.0000 0.0000 0.0000 0.0000 25.4373
#
#
#
# Elastic Compliance Matrix: (Units=1/GPa)
#
#
# Indices 1 2 3 4 5 6 
#
# 1 0.007227 -0.002504 -0.000413 0.000000 0.000000 0.000000
# 2 -0.002504 0.012563 -0.002832 0.000000 0.000000 0.000000
# 3 -0.000413 -0.002832 0.005611 0.000000 0.000000 0.000000
# 4 0.000000 0.000000 0.000000 0.087314 0.000000 0.000000
# 5 0.000000 0.000000 0.000000 0.000000 0.040746 0.000000
# 6 0.000000 0.000000 0.000000 0.000000 0.000000 0.039312
#
#
# Mechanical properties :
#
#
# Convention : Reuss Voigt Hill
#
# Bulk Modulus (GPa) = 71.93313 77.66829 74.80071
# Shear Modulus (GPa) = 23.93411 34.87981 29.40696
#
# Velocity S-wave (km/s) = 3.12748 3.77549 3.46666
# Velocity P-wave (km/s) = 6.51448 7.12365 6.82586
#
# Compressibility (1/GPa) = 0.01390180
#
# Stress axis : x y z
#
# Youngs Moduli (GPa) = 138.36349 79.59628 178.22799
#
# Poissons Ratio (x) = 0.19934 0.07362
# Poissons Ratio (y) = 0.34652 0.50482
# Poissons Ratio (z) = 0.05715 0.22545
#
# Static dielectric constant tensor:
#      x y z
#    x 1.937000 0.000000 0.000000 
#    y 0.000000 2.044530 0.000000 
#    z 0.000000 0.000000 1.886190 
# 
# From -- ./inp_files/10285.got.cif
#   From: 2010.05.17/outbox.cif.g08.bks.cpg/sg49_6_cif.got.tgz:10285.got - 2010.06.03 21:02:19.
