data_PCOD9395269
_publ_section_title
;
Structure prediction by ZEFSAII (Michael W. Deem and Ramdas Pophale) SiO2 
 PCOD9395269
Probable space group: P C C M
;
_chemical_formula_sum "Si O2"
_cell_formula_units_Z 48
_cell_length_a 30.000000
_cell_length_b 9.000000
_cell_length_c 9.000000
_cell_angle_alpha 90.000000
_cell_angle_beta 90.000000
_cell_angle_gamma 90.000000
_cell_volume 2430.000000
_symmetry_space_group_name_H-M "P C C M"
_symmetry_group_IT_number 49
_symmetry_cell_setting 'orthorhombic'
loop_
_space_group_symop_operation_xyz
x,y,z
-x,-y,z
x,-y,1/2-z
-x,y,1/2-z
-x,-y,-z
x,y,-z
-x,y,1/2+z
x,-y,1/2+z
loop_
_atom_site_type_symbol
_atom_site_label
_atom_site_fract_x
_atom_site_fract_y
_atom_site_fract_z
Si Si1 0.544077 0.837195 0.178940
Si Si2 0.632038 0.661147 0.177689
Si Si3 0.931796 0.633197 0.000000
Si Si4 0.902203 0.177096 0.770432
Si Si5 0.271436 0.339120 0.176800
Si Si6 0.036094 0.699372 0.000000
Si Si7 0.803645 0.844565 0.333597
O O1 0.500000 0.764550 0.250000
O O2 0.589178 0.754137 0.221222
O O3 0.546633 0.000000 0.250000
O O4 0.540124 0.844911 0.000000
O O5 0.629745 0.500000 0.250000
O O6 0.680259 0.731528 0.214077
O O7 0.630906 0.643567 0.000000
O O8 0.907394 0.710826 0.864661
O O9 0.936435 0.455955 0.000000
O O10 0.983899 0.677476 0.000000
O O11 0.946269 0.210027 0.862201
O O12 0.854237 0.213542 0.839191
O O13 0.901729 0.000000 0.750000
O O14 0.272417 0.500000 0.250000
O O15 0.229586 0.256457 0.243038
O O16 0.267576 0.350129 0.000000
O O17 0.786850 0.864041 0.500000
O O18 0.805325 0.000000 0.250000
#
# Coordination Sequence:
#
# PCOD9395269 Si02
#       7
#     8   8   4   8   8   4   8
#     4  10  20  35  54  80 113 150 196 243 295 351
#     4   9  20  37  57  83 116 153 194 243 292 349
#     4  11  25  39  67  89 125 161 197 251 302 353
#     4  11  24  41  64  90 122 159 203 247 301 362
#     4  10  21  39  62  89 121 156 199 245 296 356
#     4  11  23  45  59  93 125 159 201 247 300 363
#     4  11  24  42  63  88 121 156 196 247 301 356
#
# _framework density 19.753086
#
# number of rings (size 3 to 8) (size 9 to 14) (size 15 to 20)
#    0.000    1.667    0.833    3.500    4.667    7.667 
#    0.000    3.333    0.000    0.000    0.000    0.000 
#    0.000    0.000    0.000    0.000    0.000    0.000 
#
# Total GULP energy -267432.404477 kJ/mol
# GULP energy per Si atom -5571.508427 kJ/mol
# Density = 1.970813 g / cm^3
# Si number density = 19.753086 Si / 1000 Ang^3
#
#
#
# Elastic Constant Matrix: (Units=GPa)
#
#
# Indices 1 2 3 4 5 6 
#
# 1 122.4783 66.8123 42.3059 0.0000 0.0000 0.0000
# 2 66.8123 60.1815 24.7307 0.0000 0.0000 0.0000
# 3 42.3059 24.7307 74.8787 0.0000 0.0000 0.0000
# 4 0.0000 0.0000 0.0000 20.6074 0.0000 0.0000
# 5 0.0000 0.0000 0.0000 0.0000 31.4438 0.0000
# 6 0.0000 0.0000 0.0000 0.0000 0.0000 27.4035
#
#
#
# Elastic Compliance Matrix: (Units=1/GPa)
#
#
# Indices 1 2 3 4 5 6 
#
# 1 0.022273 -0.022627 -0.005111 0.000000 0.000000 0.000000
# 2 -0.022627 0.042212 -0.001158 0.000000 0.000000 0.000000
# 3 -0.005111 -0.001158 0.016625 0.000000 0.000000 0.000000
# 4 0.000000 0.000000 0.000000 0.048526 0.000000 0.000000
# 5 0.000000 0.000000 0.000000 0.000000 0.031803 0.000000
# 6 0.000000 0.000000 0.000000 0.000000 0.000000 0.036492
#
#
# Mechanical properties :
#
#
# Convention : Reuss Voigt Hill
#
# Bulk Modulus (GPa) = 42.88339 58.35961 50.62150
# Shear Modulus (GPa) = 18.97565 24.13690 21.55627
#
# Velocity S-wave (km/s) = 3.10279 3.49940 3.30705
# Velocity P-wave (km/s) = 5.88160 6.77764 6.34546
#
# Compressibility (1/GPa) = 0.02331905
#
# Stress axis : x y z
#
# Youngs Moduli (GPa) = 44.89686 23.68986 60.15051
#
# Poissons Ratio (x) = 0.53603 0.30743
# Poissons Ratio (y) = 1.01588 0.06963
# Poissons Ratio (z) = 0.22947 0.02742
#
# Static dielectric constant tensor:
#      x y z
#    x 1.701930 0.000000 0.000000 
#    y 0.000000 1.659910 0.000000 
#    z 0.000000 0.000000 1.629930 
# 
# From -- ./inp_files/6919.got.cif
#   From: 2010.05.17/outbox.ucp.g08.bks.cvg/sg49_4_cif.got.tgz:6919.got - 2010.06.11 16:40:14.
