data_PCOD9395936
_publ_section_title
;
Structure prediction by ZEFSAII (Michael W. Deem and Ramdas Pophale) SiO2 
 PCOD9395936
Probable space group: P B A N
;
_chemical_formula_sum "Si O2"
_cell_formula_units_Z 44
_cell_length_a 13.200235
_cell_length_b 13.622162
_cell_length_c 9.450123
_cell_angle_alpha 90.000000
_cell_angle_beta 90.000000
_cell_angle_gamma 90.000000
_cell_volume 1699.280857
_symmetry_space_group_name_H-M "P B A N"
_symmetry_group_IT_number 50
_space_group.IT_coordinate_system_code '2'
_symmetry_cell_setting 'orthorhombic'
loop_
_space_group_symop_operation_xyz
x,y,z
1/2-x,1/2-y,z
x,1/2-y,-z
1/2-x,y,-z
-x,-y,-z
1/2+x,1/2+y,-z
-x,1/2+y,z
1/2+x,-y,z
loop_
_atom_site_type_symbol
_atom_site_label
_atom_site_fract_x
_atom_site_fract_y
_atom_site_fract_z
Si Si1 0.750000 0.480122 0.000000
Si Si2 0.611301 0.182682 0.630692
Si Si3 0.075135 0.407148 0.497967
Si Si4 0.498712 0.588332 0.206588
Si Si5 0.550558 0.125847 0.913523
Si Si6 0.213295 0.522023 0.694552
O O1 0.846734 0.411752 0.984480
O O2 0.739898 0.527518 0.845803
O O3 0.647080 0.250000 0.500000
O O4 0.495156 0.165327 0.584434
O O5 0.589149 0.203818 0.797430
O O6 0.692506 0.091280 0.644380
O O7 0.171219 0.440809 0.587290
O O8 0.000000 0.500000 0.500000
O O9 0.077260 0.383396 0.331059
O O10 0.509798 0.471399 0.168113
O O11 0.385559 0.591700 0.276439
O O12 0.516269 0.640665 0.054593
#
# Coordination Sequence:
#
# PCOD9395936 Si02
#       6
#     4   8   8   8   8   8
#     4   8  16  28  52  92 123 159 218 288 336 392
#     4  11  22  37  60  96 135 172 215 284 365 420
#     4  10  19  36  55  85 121 171 224 275 328 407
#     4   9  17  32  58  80 116 172 227 267 323 400
#     4   9  16  33  55  86 119 167 218 276 332 410
#     4   9  18  34  56  88 129 171 224 280 340 421
#
# _framework density 25.893305000000002
#
# number of rings (size 3 to 8) (size 9 to 14) (size 15 to 20)
#    0.000    2.545    3.636    0.000    0.000    2.909 
#    3.273    8.182    0.000    0.000   37.818    3.818 
#    0.000    1.455    0.000    0.000    0.000    0.000 
#
# Total GULP energy -244976.551646 kJ/mol
# GULP energy per Si atom -5567.648901 kJ/mol
# Density = 2.583437 g / cm^3
# Si number density = 25.893305 Si / 1000 Ang^3
#
#
#
# Elastic Constant Matrix: (Units=GPa)
#
#
# Indices 1 2 3 4 5 6 
#
# 1 101.5007 42.8609 104.5106 0.0000 0.0000 0.0000
# 2 42.8609 59.2071 39.0620 0.0000 0.0000 0.0000
# 3 104.5106 39.0620 275.2371 0.0000 0.0000 0.0000
# 4 0.0000 0.0000 0.0000 37.7303 0.0000 0.0000
# 5 0.0000 0.0000 0.0000 0.0000 58.6337 0.0000
# 6 0.0000 0.0000 0.0000 0.0000 0.0000 20.8059
#
#
#
# Elastic Compliance Matrix: (Units=1/GPa)
#
#
# Indices 1 2 3 4 5 6 
#
# 1 0.021197 -0.011071 -0.006477 0.000000 0.000000 0.000000
# 2 -0.011071 0.024417 0.000739 0.000000 0.000000 0.000000
# 3 -0.006477 0.000739 0.005988 0.000000 0.000000 0.000000
# 4 0.000000 0.000000 0.000000 0.026504 0.000000 0.000000
# 5 0.000000 0.000000 0.000000 0.000000 0.017055 0.000000
# 6 0.000000 0.000000 0.000000 0.000000 0.000000 0.048063
#
#
# Mechanical properties :
#
#
# Convention : Reuss Voigt Hill
#
# Bulk Modulus (GPa) = 55.61171 89.86798 72.73985
# Shear Modulus (GPa) = 27.34663 40.06806 33.70735
#
# Velocity S-wave (km/s) = 3.25334 3.93801 3.61193
# Velocity P-wave (km/s) = 5.96960 7.44712 6.74892
#
# Compressibility (1/GPa) = 0.01798182
#
# Stress axis : x y z
#
# Youngs Moduli (GPa) = 47.17732 40.95472 167.00199
#
# Poissons Ratio (x) = 0.45341 1.08173
# Poissons Ratio (y) = 0.52231 -0.12333
# Poissons Ratio (z) = 0.30559 -0.03025
#
# Static dielectric constant tensor:
#      x y z
#    x 2.080300 0.000000 0.000000 
#    y 0.000000 2.284000 0.000000 
#    z 0.000000 0.000000 2.222760 
# 
# From -- ./inp_files/14136.got.cif
#   From: 2010.05.17/outbox.cif.g08.bks.cpg/sg50_8_cif.got.tgz:14136.got - 2010.06.03 11:33:33.
