data_PCOD9395494
_publ_section_title
;
Structure prediction by ZEFSAII (Michael W. Deem and Ramdas Pophale) SiO2 
 PCOD9395494
Probable space group: P B A N
;
_chemical_formula_sum "Si O2"
_cell_formula_units_Z 52
_cell_length_a 9.584504
_cell_length_b 21.383852
_cell_length_c 11.048454
_cell_angle_alpha 90.000000
_cell_angle_beta 90.000000
_cell_angle_gamma 90.000000
_cell_volume 2264.420588
_symmetry_space_group_name_H-M "P B A N"
_symmetry_group_IT_number 50
_space_group.IT_coordinate_system_code '2'
_symmetry_cell_setting 'orthorhombic'
loop_
_space_group_symop_operation_xyz
x,y,z
1/2-x,1/2-y,z
x,1/2-y,-z
1/2-x,y,-z
-x,-y,-z
1/2+x,1/2+y,-z
-x,1/2+y,z
1/2+x,-y,z
loop_
_atom_site_type_symbol
_atom_site_label
_atom_site_fract_x
_atom_site_fract_y
_atom_site_fract_z
Si Si1 0.250000 0.250000 0.684624
Si Si2 0.553357 0.117884 0.818944
Si Si3 0.231097 0.353794 0.131760
Si Si4 0.457526 0.698579 0.594379
Si Si5 0.476194 0.994317 0.703106
Si Si6 0.967506 0.434897 0.065124
Si Si7 0.100746 0.415500 0.495706
O O1 0.187143 0.195892 0.769689
O O2 0.386261 0.223745 0.620176
O O3 0.383270 0.122626 0.827644
O O4 0.599452 0.174111 0.727395
O O5 0.569960 0.050058 0.758315
O O6 0.595496 0.110468 0.960798
O O7 0.114239 0.405398 0.107894
O O8 0.250000 0.323190 0.000000
O O9 0.397108 0.750000 0.500000
O O10 0.479345 0.633105 0.525510
O O11 0.395955 0.957260 0.809899
O O12 0.570225 0.945158 0.632436
O O13 0.392477 0.029815 0.596820
O O14 0.000000 0.500000 0.000000
O O15 0.250000 0.383055 0.500000
#
# Coordination Sequence:
#
# PCOD9395494 Si02
#       7
#     4   8   8   8   8   8   8
#     4  10  18  26  40  68  92 135 179 186 228 306
#     4   8  17  32  44  67  93 127 171 202 249 297
#     4   9  17  28  46  66  99 136 162 198 246 296
#     4  10  19  28  43  66  98 134 172 192 235 305
#     4   9  19  30  47  68  90 131 171 207 252 303
#     4   9  17  30  47  66  93 132 169 215 247 291
#     4  10  20  32  46  67 100 135 166 204 252 303
#
# _framework density 22.963932
#
# number of rings (size 3 to 8) (size 9 to 14) (size 15 to 20)
#    0.000    2.769    0.000    1.385    8.615    0.000 
#    0.000    0.000    0.000    0.000    0.000    0.000 
#    0.000   49.846    0.000   11.077    6.154    0.000 
#
# Total GULP energy -289577.779610 kJ/mol
# GULP energy per Si atom -5568.803454 kJ/mol
# Density = 2.291167 g / cm^3
# Si number density = 22.963932 Si / 1000 Ang^3
#
#
#
# Elastic Constant Matrix: (Units=GPa)
#
#
# Indices 1 2 3 4 5 6 
#
# 1 43.7459 19.0127 16.9200 0.0000 0.0000 0.0000
# 2 19.0127 102.1944 60.0612 0.0000 0.0000 0.0000
# 3 16.9200 60.0612 182.9656 0.0000 0.0000 0.0000
# 4 0.0000 0.0000 0.0000 13.5341 0.0000 0.0000
# 5 0.0000 0.0000 0.0000 0.0000 7.2995 0.0000
# 6 0.0000 0.0000 0.0000 0.0000 0.0000 11.3203
#
#
#
# Elastic Compliance Matrix: (Units=1/GPa)
#
#
# Indices 1 2 3 4 5 6 
#
# 1 0.025009 -0.004081 -0.000973 0.000000 0.000000 0.000000
# 2 -0.004081 0.012790 -0.003821 0.000000 0.000000 0.000000
# 3 -0.000973 -0.003821 0.006810 0.000000 0.000000 0.000000
# 4 0.000000 0.000000 0.000000 0.073888 0.000000 0.000000
# 5 0.000000 0.000000 0.000000 0.000000 0.136996 0.000000
# 6 0.000000 0.000000 0.000000 0.000000 0.000000 0.088337
#
#
# Mechanical properties :
#
#
# Convention : Reuss Voigt Hill
#
# Bulk Modulus (GPa) = 37.23161 57.87710 47.55435
# Shear Modulus (GPa) = 13.49407 21.95825 17.72616
#
# Velocity S-wave (km/s) = 2.42672 3.09561 2.78135
# Velocity P-wave (km/s) = 4.90920 6.16728 5.57385
#
# Compressibility (1/GPa) = 0.02685890
#
# Stress axis : x y z
#
# Youngs Moduli (GPa) = 39.98516 78.18433 146.84556
#
# Poissons Ratio (x) = 0.31906 0.14290
# Poissons Ratio (y) = 0.16318 0.56113
# Poissons Ratio (z) = 0.03891 0.29876
#
# Static dielectric constant tensor:
#      x y z
#    x 1.880990 0.000000 0.000000 
#    y 0.000000 1.883040 0.000000 
#    z 0.000000 0.000000 1.967370 
# 
# From -- ./inp_files/21401.got.cif
#   From: 2010.05.17/outbox.cif.g08.bks.cpg/sg50_11_cif.got.tgz:21401.got - 2010.06.03 11:33:33.
