data_PCOD9395376
_publ_section_title
;
Structure prediction by ZEFSAII (Michael W. Deem and Ramdas Pophale) SiO2 
 PCOD9395376
Probable space group: P B A N
;
_chemical_formula_sum "Si O2"
_cell_formula_units_Z 26
_cell_length_a 5.370480
_cell_length_b 20.770178
_cell_length_c 14.179668
_cell_angle_alpha 90.000000
_cell_angle_beta 90.000000
_cell_angle_gamma 90.000000
_cell_volume 1581.682773
_symmetry_space_group_name_H-M "P B A N"
_symmetry_group_IT_number 50
_space_group.IT_coordinate_system_code '2'
_symmetry_cell_setting 'orthorhombic'
loop_
_space_group_symop_operation_xyz
x,y,z
1/2-x,1/2-y,z
x,1/2-y,-z
1/2-x,y,-z
-x,-y,-z
1/2+x,1/2+y,-z
-x,1/2+y,z
1/2+x,-y,z
loop_
_atom_site_type_symbol
_atom_site_label
_atom_site_fract_x
_atom_site_fract_y
_atom_site_fract_z
Si Si1 0.488140 0.457680 0.258529
Si Si2 0.999552 0.573853 0.040602
Si Si3 0.250000 0.750000 0.500000
Si Si4 0.008168 0.874880 0.556242
O O1 0.734683 0.501433 0.267566
O O2 0.495216 0.429388 0.152963
O O3 0.491449 0.405719 0.341471
O O4 0.750000 0.604499 0.000000
O O5 0.250000 0.604124 0.000000
O O6 0.000000 0.500000 0.000000
O O7 0.422294 0.701030 0.558732
O O8 0.750000 0.884443 0.500000
O O9 0.250000 0.903197 0.500000
#
# Coordination Sequence:
#
# PCOD9395376 Si02
#       4
#     8   8   2   8
#     4  12  21  31  52  82 113 139 171 199 266 324
#     4  10  16  30  46  68 108 148 161 197 234 308
#     4   8  22  44  54  68 100 132 190 226 258 288
#     4  10  22  38  56  73 104 140 172 222 256 308
#
# _framework density 16.438189000000001
#
# number of rings (size 3 to 8) (size 9 to 14) (size 15 to 20)
#    0.923    0.615    6.154    2.308    0.000    3.692 
#    0.000    0.000    0.000    0.000    0.000    1.077 
#    0.000    0.000    0.000    0.000    0.000    0.000 
#
# Total GULP energy -144745.236715 kJ/mol
# GULP energy per Si atom -5567.124489 kJ/mol
# Density = 1.640077 g / cm^3
# Si number density = 16.438189 Si / 1000 Ang^3
#
#
#
# Elastic Constant Matrix: (Units=GPa)
#
#
# Indices 1 2 3 4 5 6 
#
# 1 177.0601 37.6574 68.5428 0.0000 0.0000 0.0000
# 2 37.6574 43.3406 67.3472 0.0000 0.0000 0.0000
# 3 68.5428 67.3472 186.6458 0.0000 0.0000 0.0000
# 4 0.0000 0.0000 0.0000 -2.5344 0.0000 0.0000
# 5 0.0000 0.0000 0.0000 0.0000 16.3974 0.0000
# 6 0.0000 0.0000 0.0000 0.0000 0.0000 0.1498
#
#
#
# Elastic Compliance Matrix: (Units=1/GPa)
#
#
# Indices 1 2 3 4 5 6 
#
# 1 0.006987 -0.004743 -0.000854 0.000000 0.000000 0.000000
# 2 -0.004743 0.055742 -0.018371 0.000000 0.000000 0.000000
# 3 -0.000854 -0.018371 0.012300 0.000000 0.000000 0.000000
# 4 0.000000 0.000000 0.000000 -0.394575 0.000000 0.000000
# 5 0.000000 0.000000 0.000000 0.000000 0.060985 0.000000
# 6 0.000000 0.000000 0.000000 0.000000 0.000000 6.676467
#
#
# Mechanical properties :
#
#
# Convention : Reuss Voigt Hill
#
# Bulk Modulus (GPa) = 36.91227 83.79347 60.35287
# Shear Modulus (GPa) = 0.77222 18.36918 9.57070
#
# Velocity S-wave (km/s) = 0.68614 3.34648 2.41555
# Velocity P-wave (km/s) = 4.80954 8.12511 6.67642
#
# Compressibility (1/GPa) = 0.02709126
#
# Stress axis : x y z
#
# Youngs Moduli (GPa) = 143.11458 17.93988 81.29811
#
# Poissons Ratio (x) = 0.08510 0.06947
# Poissons Ratio (y) = 0.67885 1.49355
# Poissons Ratio (z) = 0.12229 0.32958
#
# Static dielectric constant tensor:
#      x y z
#    x 1.554470 0.000000 0.000000 
#    y 0.000000 -0.159210 0.000000 
#    z 0.000000 0.000000 1.531010 
# 
# From -- ./inp_files/17441.got.cif
#   From: 2010.05.17/outbox.cif.g08.bks.cpg/sg50_9_cif.got.tgz:17441.got - 2010.06.03 11:33:33.
