data_PCOD9395354
_publ_section_title
;
Structure prediction by ZEFSAII (Michael W. Deem and Ramdas Pophale) SiO2 
 PCOD9395354
Probable space group: P B A N
;
_chemical_formula_sum "Si O2"
_cell_formula_units_Z 64
_cell_length_a 5.677137
_cell_length_b 26.260818
_cell_length_c 22.460856
_cell_angle_alpha 90.000000
_cell_angle_beta 90.000000
_cell_angle_gamma 90.000000
_cell_volume 3348.605052
_symmetry_space_group_name_H-M "P B A N"
_symmetry_group_IT_number 50
_space_group.IT_coordinate_system_code '2'
_symmetry_cell_setting 'orthorhombic'
loop_
_space_group_symop_operation_xyz
x,y,z
1/2-x,1/2-y,z
x,1/2-y,-z
1/2-x,y,-z
-x,-y,-z
1/2+x,1/2+y,-z
-x,1/2+y,z
1/2+x,-y,z
loop_
_atom_site_type_symbol
_atom_site_label
_atom_site_fract_x
_atom_site_fract_y
_atom_site_fract_z
Si Si1 0.622629 0.985398 0.820281
Si Si2 0.842196 0.445824 0.937334
Si Si3 0.482427 0.691421 0.334364
Si Si4 0.863064 0.304646 0.835695
Si Si5 0.993752 0.618181 0.857640
Si Si6 0.974107 0.808513 0.711127
Si Si7 0.998119 0.191523 0.523156
Si Si8 0.629324 0.656821 0.940218
O O1 0.655147 0.925028 0.825544
O O2 0.362667 0.992927 0.792915
O O3 0.594168 0.014104 0.885365
O O4 0.631760 0.413293 0.908483
O O5 0.038595 0.401847 0.948382
O O6 0.750000 0.468154 0.000000
O O7 0.733112 0.667681 0.314114
O O8 0.504584 0.749730 0.310763
O O9 0.485162 0.692048 0.405657
O O10 0.230451 0.670587 0.310489
O O11 0.750000 0.250000 0.828376
O O12 0.684174 0.350686 0.821810
O O13 0.049576 0.308934 0.782621
O O14 0.930146 0.312439 0.905072
O O15 0.830405 0.657135 0.890982
O O16 0.998486 0.250000 0.500000
O O17 0.750000 0.168520 0.500000
O O18 0.250000 0.169856 0.500000
O O19 0.750000 0.675585 0.000000
#
# Coordination Sequence:
#
# PCOD9395354 Si02
#       8
#     8   8   8   8   8   8   8   8
#     4  10  20  34  55  85 108 132 145 180 242 328
#     4  10  19  33  56  81 106 123 145 179 247 340
#     4  10  18  30  50  72  97 124 173 221 256 305
#     4  11  25  41  57  72  94 133 180 235 279 313
#     4  10  22  36  54  77 104 122 161 197 261 328
#     4  10  19  33  51  70  89 120 176 228 261 289
#     4  10  16  24  40  68 104 135 151 189 267 322
#     4  11  22  39  60  74  97 125 158 212 271 351
#
# _framework density 19.112435999999999
#
# number of rings (size 3 to 8) (size 9 to 14) (size 15 to 20)
#    0.000    1.750    3.750    3.750    1.750    3.000 
#    0.000    1.875    0.000    0.000    0.000    0.000 
#    0.000    0.000    0.000    0.000    0.000    0.000 
#
# Total GULP energy -356453.802444 kJ/mol
# GULP energy per Si atom -5569.590663 kJ/mol
# Density = 1.906893 g / cm^3
# Si number density = 19.112436 Si / 1000 Ang^3
#
#
#
# Elastic Constant Matrix: (Units=GPa)
#
#
# Indices 1 2 3 4 5 6 
#
# 1 130.7350 3.2661 32.8580 0.0000 0.0000 0.0000
# 2 3.2661 19.6193 18.8194 0.0000 0.0000 0.0000
# 3 32.8580 18.8194 95.1899 0.0000 0.0000 0.0000
# 4 0.0000 0.0000 0.0000 16.9318 0.0000 0.0000
# 5 0.0000 0.0000 0.0000 0.0000 27.3045 0.0000
# 6 0.0000 0.0000 0.0000 0.0000 0.0000 -9.7759
#
#
#
# Elastic Compliance Matrix: (Units=1/GPa)
#
#
# Indices 1 2 3 4 5 6 
#
# 1 0.008422 0.001711 -0.003245 0.000000 0.000000 0.000000
# 2 0.001711 0.063246 -0.013095 0.000000 0.000000 0.000000
# 3 -0.003245 -0.013095 0.014214 0.000000 0.000000 0.000000
# 4 0.000000 0.000000 0.000000 0.059060 0.000000 0.000000
# 5 0.000000 0.000000 0.000000 0.000000 0.036624 0.000000
# 6 0.000000 0.000000 0.000000 0.000000 0.000000 -0.102293
#
#
# Mechanical properties :
#
#
# Convention : Reuss Voigt Hill
#
# Bulk Modulus (GPa) = 17.66015 39.49234 28.57625
# Shear Modulus (GPa) = 39.24428 19.59880 29.42154
#
# Velocity S-wave (km/s) = 4.53629 3.20573 3.92777
# Velocity P-wave (km/s) = 6.05784 5.86603 5.96271
#
# Compressibility (1/GPa) = 0.05662467
#
# Stress axis : x y z
#
# Youngs Moduli (GPa) = 118.73666 15.81124 70.35105
#
# Poissons Ratio (x) = -0.02705 0.22832
# Poissons Ratio (y) = -0.20317 0.92122
# Poissons Ratio (z) = 0.38535 0.20704
#
# Static dielectric constant tensor:
#      x y z
#    x 1.811400 0.000000 0.000000 
#    y 0.000000 1.629100 0.000000 
#    z 0.000000 0.000000 1.662630 
# 
# From -- ./inp_files/30495.got.cif
#   From: 2010.05.17/outbox.cif.g08.bks.cpg/sg50_16_cif.got.tgz:30495.got - 2010.06.03 11:33:33.
