data_PCOD9395271
_publ_section_title
;
Structure prediction by ZEFSAII (Michael W. Deem and Ramdas Pophale) SiO2 
 PCOD9395271
Probable space group: P C C M
;
_chemical_formula_sum "Si O2"
_cell_formula_units_Z 56
_cell_length_a 12.000000
_cell_length_b 15.000000
_cell_length_c 15.000000
_cell_angle_alpha 90.000000
_cell_angle_beta 90.000000
_cell_angle_gamma 90.000000
_cell_volume 2700.000000
_symmetry_space_group_name_H-M "P C C M"
_symmetry_group_IT_number 49
_symmetry_cell_setting 'orthorhombic'
loop_
_space_group_symop_operation_xyz
x,y,z
-x,-y,z
x,-y,1/2-z
-x,y,1/2-z
-x,-y,-z
x,y,-z
-x,y,1/2+z
x,-y,1/2+z
loop_
_atom_site_type_symbol
_atom_site_label
_atom_site_fract_x
_atom_site_fract_y
_atom_site_fract_z
Si Si1 0.091760 0.684629 0.896409
Si Si2 0.589228 0.560184 0.100040
Si Si3 0.140827 0.293676 0.894254
Si Si4 0.493338 0.898120 0.396570
Si Si5 0.666131 0.243805 0.100150
Si Si6 0.359958 0.258185 0.199954
Si Si7 0.186096 0.502229 0.351882
O O1 0.202947 0.741669 0.890654
O O2 0.112654 0.585444 0.860380
O O3 0.982076 0.733879 0.864472
O O4 0.068531 0.668558 0.000000
O O5 0.500000 0.500000 0.147351
O O6 0.608307 0.653458 0.146206
O O7 0.699560 0.499960 0.095022
O O8 0.552923 0.580968 0.000000
O O9 0.231016 0.250916 0.829249
O O10 0.138987 0.401479 0.879205
O O11 0.165839 0.277506 0.000000
O O12 0.452167 0.895831 0.500000
O O13 0.616765 0.855459 0.398425
O O14 0.421366 0.830138 0.336418
O O15 0.500000 0.000000 0.366666
O O16 0.622872 0.279383 0.195627
O O17 0.635879 0.278762 0.000000
O O18 0.221367 0.500000 0.250000
#
# Coordination Sequence:
#
# PCOD9395271 Si02
#       7
#     8   8   8   8   8   8   8
#     4  10  20  35  56  79 112 156 200 247 296 345
#     4  10  22  38  56  80 116 158 200 247 297 351
#     4  10  21  37  56  82 114 153 201 249 298 351
#     4  10  22  42  69  97 122 150 190 241 298 361
#     4  10  23  39  58  87 121 154 195 245 297 351
#     4  11  21  38  63  88 119 159 197 243 297 358
#     4  11  21  32  48  76 109 153 205 249 288 343
#
# _framework density 20.740741
#
# number of rings (size 3 to 8) (size 9 to 14) (size 15 to 20)
#    0.000    1.714    0.000    6.000    2.000    5.429 
#    5.143    0.000    0.000    1.286    0.000    7.000 
#    0.000    0.000    0.000    0.000    0.000    0.000 
#
# Total GULP energy -312022.661163 kJ/mol
# GULP energy per Si atom -5571.833235 kJ/mol
# Density = 2.069353 g / cm^3
# Si number density = 20.740741 Si / 1000 Ang^3
#
#
#
# Elastic Constant Matrix: (Units=GPa)
#
#
# Indices 1 2 3 4 5 6 
#
# 1 51.1235 6.2801 18.3077 0.0000 0.0000 0.0000
# 2 6.2801 40.2915 28.4738 0.0000 0.0000 0.0000
# 3 18.3077 28.4738 139.1483 0.0000 0.0000 0.0000
# 4 0.0000 0.0000 0.0000 -70.6805 0.0000 0.0000
# 5 0.0000 0.0000 0.0000 0.0000 18.8254 0.0000
# 6 0.0000 0.0000 0.0000 0.0000 0.0000 4.9417
#
#
#
# Elastic Compliance Matrix: (Units=1/GPa)
#
#
# Indices 1 2 3 4 5 6 
#
# 1 0.020606 -0.001515 -0.002401 0.000000 0.000000 0.000000
# 2 -0.001515 0.029126 -0.005761 0.000000 0.000000 0.000000
# 3 -0.002401 -0.005761 0.008681 0.000000 0.000000 0.000000
# 4 0.000000 0.000000 0.000000 -0.014148 0.000000 0.000000
# 5 0.000000 0.000000 0.000000 0.000000 0.053120 0.000000
# 6 0.000000 0.000000 0.000000 0.000000 0.000000 0.202358
#
#
# Mechanical properties :
#
#
# Convention : Reuss Voigt Hill
#
# Bulk Modulus (GPa) = 25.60143 37.40963 31.50553
# Shear Modulus (GPa) = 15.05492 2.45077 8.75285
#
# Velocity S-wave (km/s) = 2.69711 1.08820 2.05652
# Velocity P-wave (km/s) = 4.69782 4.43338 4.56751
#
# Compressibility (1/GPa) = 0.03906032
#
# Stress axis : x y z
#
# Youngs Moduli (GPa) = 48.52850 34.33310 115.18976
#
# Poissons Ratio (x) = 0.05201 0.27659
# Poissons Ratio (y) = 0.07352 0.66358
# Poissons Ratio (z) = 0.11653 0.19779
#
# Static dielectric constant tensor:
#      x y z
#    x 2.006000 0.000000 0.000000 
#    y 0.000000 1.680840 0.000000 
#    z 0.000000 0.000000 1.805340 
# 
# From -- ./inp_files/12921.got.cif
#   From: 2010.05.17/outbox.ucp.g08.bks.cvg/sg49_7_cif.got.tgz:12921.got - 2010.06.11 16:40:14.
