data_PCOD9395952
_publ_section_title
;
Structure prediction by ZEFSAII (Michael W. Deem and Ramdas Pophale) SiO2 
 PCOD9395952
Probable space group: P B A N
;
_chemical_formula_sum "Si O2"
_cell_formula_units_Z 28
_cell_length_a 15.144413
_cell_length_b 4.885439
_cell_length_c 17.344035
_cell_angle_alpha 90.000000
_cell_angle_beta 90.000000
_cell_angle_gamma 90.000000
_cell_volume 1283.234954
_symmetry_space_group_name_H-M "P B A N"
_symmetry_group_IT_number 50
_space_group.IT_coordinate_system_code '2'
_symmetry_cell_setting 'orthorhombic'
loop_
_space_group_symop_operation_xyz
x,y,z
1/2-x,1/2-y,z
x,1/2-y,-z
1/2-x,y,-z
-x,-y,-z
1/2+x,1/2+y,-z
-x,1/2+y,z
1/2+x,-y,z
loop_
_atom_site_type_symbol
_atom_site_label
_atom_site_fract_x
_atom_site_fract_y
_atom_site_fract_z
Si Si1 0.557579 0.777135 0.590749
Si Si2 0.063884 0.743613 0.168629
Si Si3 0.433102 0.750000 0.000000
Si Si4 0.192472 0.499267 0.705728
O O1 0.577563 0.750000 0.500000
O O2 0.471884 0.586152 0.606891
O O3 0.634986 0.657836 0.641985
O O4 0.130677 0.849933 0.232361
O O5 0.022193 0.442008 0.175308
O O6 0.110119 0.760282 0.084138
O O7 0.500000 0.500000 0.000000
O O8 0.250000 0.750000 0.672149
O O9 0.250000 0.250000 0.741418
#
# Coordination Sequence:
#
# PCOD9395952 Si02
#       4
#     8   8   4   8
#     4  10  21  40  63  84 109 150 202 246 288 345
#     4  10  19  36  60  83 112 153 201 244 286 343
#     4   8  16  30  55  84 105 140 196 246 280 326
#     4  12  24  37  56  88 125 157 191 238 302 360
#
# _framework density 21.819853999999999
#
# number of rings (size 3 to 8) (size 9 to 14) (size 15 to 20)
#    0.000    1.714    0.000    5.143    0.000    0.571 
#    0.000    2.143    0.000    1.714    0.000    0.000 
#    0.000    0.000    0.000    0.000    0.000    0.000 
#
# Total GULP energy -156385.020908 kJ/mol
# GULP energy per Si atom -5585.179318 kJ/mol
# Density = 2.177019 g / cm^3
# Si number density = 21.819854 Si / 1000 Ang^3
#
#
#
# Elastic Constant Matrix: (Units=GPa)
#
#
# Indices 1 2 3 4 5 6 
#
# 1 47.7682 -3.8664 47.9290 0.0000 0.0000 0.0000
# 2 -3.8664 97.3182 14.5840 0.0000 0.0000 0.0000
# 3 47.9290 14.5840 121.5059 0.0000 0.0000 0.0000
# 4 0.0000 0.0000 0.0000 31.8139 0.0000 0.0000
# 5 0.0000 0.0000 0.0000 0.0000 -16.0524 0.0000
# 6 0.0000 0.0000 0.0000 0.0000 0.0000 10.0331
#
#
#
# Elastic Compliance Matrix: (Units=1/GPa)
#
#
# Indices 1 2 3 4 5 6 
#
# 1 0.035850 0.003608 -0.014574 0.000000 0.000000 0.000000
# 2 0.003608 0.010827 -0.002723 0.000000 0.000000 0.000000
# 3 -0.014574 -0.002723 0.014306 0.000000 0.000000 0.000000
# 4 0.000000 0.000000 0.000000 0.031433 0.000000 0.000000
# 5 0.000000 0.000000 0.000000 0.000000 -0.062296 0.000000
# 6 0.000000 0.000000 0.000000 0.000000 0.000000 0.099670
#
#
# Mechanical properties :
#
#
# Convention : Reuss Voigt Hill
#
# Bulk Modulus (GPa) = 29.75749 42.65395 36.20572
# Shear Modulus (GPa) = 29.69672 19.02199 24.35935
#
# Velocity S-wave (km/s) = 3.69317 2.95579 3.34486
# Velocity P-wave (km/s) = 5.64388 5.58924 5.61663
#
# Compressibility (1/GPa) = 0.03360498
#
# Stress axis : x y z
#
# Youngs Moduli (GPa) = 27.89410 92.36186 69.90152
#
# Poissons Ratio (x) = -0.33328 1.01877
# Poissons Ratio (y) = -0.10065 0.19033
# Poissons Ratio (z) = 0.40654 0.25149
#
# Static dielectric constant tensor:
#      x y z
#    x 1.800810 0.000000 0.000000 
#    y 0.000000 1.762320 0.000000 
#    z 0.000000 0.000000 1.851140 
# 
# From -- ./inp_files/29278.got.cif
#   From: 2010.05.17/outbox.cif.g08.bks.cpg/sg50_15_cif.got.tgz:29278.got - 2010.06.03 11:33:33.
