data_PCOD9395253
_publ_section_title
;
Structure prediction by ZEFSAII (Michael W. Deem and Ramdas Pophale) SiO2 
 PCOD9395253
Probable space group: P C C M
;
_chemical_formula_sum "Si O2"
_cell_formula_units_Z 40
_cell_length_a 27.000000
_cell_length_b 9.000000
_cell_length_c 9.000000
_cell_angle_alpha 90.000000
_cell_angle_beta 90.000000
_cell_angle_gamma 90.000000
_cell_volume 2187.000000
_symmetry_space_group_name_H-M "P C C M"
_symmetry_group_IT_number 49
_symmetry_cell_setting 'orthorhombic'
loop_
_space_group_symop_operation_xyz
x,y,z
-x,-y,z
x,-y,1/2-z
-x,y,1/2-z
-x,-y,-z
x,y,-z
-x,y,1/2+z
x,-y,1/2+z
loop_
_atom_site_type_symbol
_atom_site_label
_atom_site_fract_x
_atom_site_fract_y
_atom_site_fract_z
Si Si1 0.745356 0.837662 0.822125
Si Si2 0.951055 0.662788 0.821063
Si Si3 0.146567 0.839212 0.322553
Si Si4 0.547803 0.335357 0.176916
Si Si5 0.656348 0.662018 0.677212
O O1 0.799666 0.770537 0.786968
O O2 0.700605 0.750309 0.750393
O O3 0.745466 0.000000 0.750000
O O4 0.739941 0.846266 0.000000
O O5 0.948296 0.500000 0.750000
O O6 0.900863 0.745400 0.778748
O O7 0.000000 0.735662 0.750000
O O8 0.955459 0.655147 0.000000
O O9 0.145112 0.857151 0.500000
O O10 0.143869 0.000000 0.250000
O O11 0.550025 0.500000 0.250000
O O12 0.500000 0.259887 0.250000
O O13 0.601925 0.267912 0.205314
O O14 0.541079 0.349336 0.000000
O O15 0.656361 0.500000 0.750000
O O16 0.662435 0.650289 0.500000
#
# Coordination Sequence:
#
# PCOD9395253 Si02
#       5
#     8   8   8   8   8
#     4  10  20  36  55  75 101 135 171 209 254 305
#     4  10  20  35  53  76 104 134 167 203 246 296
#     4   9  20  36  54  76 101 130 168 208 248 295
#     4   9  16  26  43  67  97 129 163 202 248 296
#     4  10  20  33  50  76 105 134 169 211 254 300
#
# _framework density 18.289895000000001
#
# number of rings (size 3 to 8) (size 9 to 14) (size 15 to 20)
#    0.000    2.400    0.000    3.600    0.000    6.000 
#    0.000    4.000    0.000    0.600    0.000    4.200 
#    0.000    0.000    0.000    0.000    0.000    0.000 
#
# Total GULP energy -222828.560937 kJ/mol
# GULP energy per Si atom -5570.714023 kJ/mol
# Density = 1.824827 g / cm^3
# Si number density = 18.289895 Si / 1000 Ang^3
#
#
#
# Elastic Constant Matrix: (Units=GPa)
#
#
# Indices 1 2 3 4 5 6 
#
# 1 234.9960 65.4296 86.0907 0.0000 0.0000 0.0000
# 2 65.4296 27.7590 21.1855 0.0000 0.0000 0.0000
# 3 86.0907 21.1855 75.7834 0.0000 0.0000 0.0000
# 4 0.0000 0.0000 0.0000 19.7552 0.0000 0.0000
# 5 0.0000 0.0000 0.0000 0.0000 31.4678 0.0000
# 6 0.0000 0.0000 0.0000 0.0000 0.0000 24.7371
#
#
#
# Elastic Compliance Matrix: (Units=1/GPa)
#
#
# Indices 1 2 3 4 5 6 
#
# 1 0.016993 -0.032188 -0.010306 0.000000 0.000000 0.000000
# 2 -0.032188 0.106766 0.006719 0.000000 0.000000 0.000000
# 3 -0.010306 0.006719 0.023025 0.000000 0.000000 0.000000
# 4 0.000000 0.000000 0.000000 0.050620 0.000000 0.000000
# 5 0.000000 0.000000 0.000000 0.000000 0.031779 0.000000
# 6 0.000000 0.000000 0.000000 0.000000 0.000000 0.040425
#
#
# Mechanical properties :
#
#
# Convention : Reuss Voigt Hill
#
# Bulk Modulus (GPa) = 13.29181 75.99444 44.64313
# Shear Modulus (GPa) = 13.65241 26.24751 19.94996
#
# Velocity S-wave (km/s) = 2.73508 3.79236 3.30625
# Velocity P-wave (km/s) = 4.15419 7.79847 6.24794
#
# Compressibility (1/GPa) = 0.07523428
#
# Stress axis : x y z
#
# Youngs Moduli (GPa) = 58.84716 9.36625 43.43153
#
# Poissons Ratio (x) = 0.30149 0.44761
# Poissons Ratio (y) = 1.89420 -0.29184
# Poissons Ratio (z) = 0.60648 -0.06294
#
# Static dielectric constant tensor:
#      x y z
#    x 1.713240 0.000000 0.000000 
#    y 0.000000 1.593470 0.000000 
#    z 0.000000 0.000000 1.603370 
# 
# From -- ./inp_files/1713.got.cif
#   From: 2010.05.17/outbox.ucp.g08.bks.cvg/sg49_1_cif.got.tgz:1713.got - 2010.06.11 16:40:14.
