data_PCOD9395016
_publ_section_title
;
Structure prediction by ZEFSAII (Michael W. Deem and Ramdas Pophale) SiO2 
 PCOD9395016
Probable space group: P C C M
;
_chemical_formula_sum "Si O2"
_cell_formula_units_Z 48
_cell_length_a 14.817049
_cell_length_b 20.880740
_cell_length_c 8.597551
_cell_angle_alpha 90.000000
_cell_angle_beta 90.000000
_cell_angle_gamma 90.000000
_cell_volume 2660.004452
_symmetry_space_group_name_H-M "P C C M"
_symmetry_group_IT_number 49
_symmetry_cell_setting 'orthorhombic'
loop_
_space_group_symop_operation_xyz
x,y,z
-x,-y,z
x,-y,1/2-z
-x,y,1/2-z
-x,-y,-z
x,y,-z
-x,y,1/2+z
x,-y,1/2+z
loop_
_atom_site_type_symbol
_atom_site_label
_atom_site_fract_x
_atom_site_fract_y
_atom_site_fract_z
Si Si1 0.099568 0.070736 0.185849
Si Si2 0.404739 0.762060 0.186977
Si Si3 0.791551 0.431847 0.812704
Si Si4 0.212141 0.187663 0.312567
Si Si5 0.404605 0.387141 0.686933
Si Si6 0.101576 0.309273 0.813702
O O1 0.169712 0.123356 0.244483
O O2 0.000000 0.087846 0.250000
O O3 0.120820 0.000000 0.250000
O O4 0.096246 0.069162 0.000000
O O5 0.500000 0.786545 0.250000
O O6 0.315941 0.800436 0.235406
O O7 0.395652 0.687500 0.236971
O O8 0.407656 0.761998 0.000000
O O9 0.824115 0.500000 0.750000
O O10 0.686648 0.422400 0.763843
O O11 0.848361 0.373158 0.744872
O O12 0.795776 0.429808 0.000000
O O13 0.207848 0.186218 0.500000
O O14 0.154838 0.248072 0.252556
O O15 0.500000 0.412027 0.750000
O O16 0.408235 0.388492 0.500000
O O17 0.000000 0.308416 0.750000
O O18 0.101160 0.307071 0.000000
#
# Coordination Sequence:
#
# PCOD9395016 Si02
#       6
#     8   8   8   8   8   8
#     4  11  22  38  59  88 122 160 198 237 285 339
#     4   9  18  33  55  83 115 150 186 231 283 335
#     4  11  23  41  59  81 112 147 189 236 289 345
#     4  11  21  38  61  88 121 155 191 237 285 335
#     4   9  18  34  55  80 111 146 183 230 283 339
#     4  12  25  41  61  85 111 146 189 238 288 341
#
# _framework density 18.045082000000001
#
# number of rings (size 3 to 8) (size 9 to 14) (size 15 to 20)
#    0.000    1.500    1.667    5.000    0.000    3.333 
#    0.000    3.333    0.000    0.500    0.000    3.500 
#    0.000    0.000    0.000    0.000    0.000    0.000 
#
# Total GULP energy -268250.198671 kJ/mol
# GULP energy per Si atom -5588.545806 kJ/mol
# Density = 1.800401 g / cm^3
# Si number density = 18.045082 Si / 1000 Ang^3
#
#
#
# Elastic Constant Matrix: (Units=GPa)
#
#
# Indices 1 2 3 4 5 6 
#
# 1 145.1967 70.8909 44.3733 0.0000 0.0000 0.0000
# 2 70.8909 95.3986 35.8212 0.0000 0.0000 0.0000
# 3 44.3733 35.8212 94.1844 0.0000 0.0000 0.0000
# 4 0.0000 0.0000 0.0000 29.2972 0.0000 0.0000
# 5 0.0000 0.0000 0.0000 0.0000 31.1861 0.0000
# 6 0.0000 0.0000 0.0000 0.0000 0.0000 180.5668
#
#
#
# Elastic Compliance Matrix: (Units=1/GPa)
#
#
# Indices 1 2 3 4 5 6 
#
# 1 0.011285 -0.007454 -0.002482 0.000000 0.000000 0.000000
# 2 -0.007454 0.017152 -0.003012 0.000000 0.000000 0.000000
# 3 -0.002482 -0.003012 0.012932 0.000000 0.000000 0.000000
# 4 0.000000 0.000000 0.000000 0.034133 0.000000 0.000000
# 5 0.000000 0.000000 0.000000 0.000000 0.032066 0.000000
# 6 0.000000 0.000000 0.000000 0.000000 0.000000 0.005538
#
#
# Mechanical properties :
#
#
# Convention : Reuss Voigt Hill
#
# Bulk Modulus (GPa) = 64.62250 70.77230 67.69740
# Shear Modulus (GPa) = 34.68386 60.45631 47.57009
#
# Velocity S-wave (km/s) = 4.38890 5.79445 5.13994
# Velocity P-wave (km/s) = 7.84682 9.16910 8.53361
#
# Compressibility (1/GPa) = 0.01547449
#
# Stress axis : x y z
#
# Youngs Moduli (GPa) = 88.61307 58.30114 77.32677
#
# Poissons Ratio (x) = 0.43458 0.19190
# Poissons Ratio (y) = 0.66053 0.23289
# Poissons Ratio (z) = 0.21991 0.17559
#
# Static dielectric constant tensor:
#      x y z
#    x 1.615330 0.000000 0.000000 
#    y 0.000000 1.596640 0.000000 
#    z 0.000000 0.000000 1.607750 
# 
# From -- ./inp_files/3708.got.cif
#   From: 2010.05.17/outbox.cif.g08.bks.cpg/sg49_2_cif.got.tgz:3708.got - 2010.06.03 21:02:19.
