data_PCOD9395685
_publ_section_title
;
Structure prediction by ZEFSAII (Michael W. Deem and Ramdas Pophale) SiO2 
 PCOD9395685
Probable space group: P B A N
;
_chemical_formula_sum "Si O2"
_cell_formula_units_Z 54
_cell_length_a 5.238594
_cell_length_b 15.484664
_cell_length_c 34.025454
_cell_angle_alpha 90.000000
_cell_angle_beta 90.000000
_cell_angle_gamma 90.000000
_cell_volume 2760.072284
_symmetry_space_group_name_H-M "P B A N"
_symmetry_group_IT_number 50
_space_group.IT_coordinate_system_code '2'
_symmetry_cell_setting 'orthorhombic'
loop_
_space_group_symop_operation_xyz
x,y,z
1/2-x,1/2-y,z
x,1/2-y,-z
1/2-x,y,-z
-x,-y,-z
1/2+x,1/2+y,-z
-x,1/2+y,z
1/2+x,-y,z
loop_
_atom_site_type_symbol
_atom_site_label
_atom_site_fract_x
_atom_site_fract_y
_atom_site_fract_z
Si Si1 0.750000 0.750000 0.500000
Si Si2 0.249500 0.854302 0.297821
Si Si3 0.274565 0.553730 0.619711
Si Si4 0.812073 0.942626 0.832417
Si Si5 0.299958 0.441140 0.915671
Si Si6 0.750000 0.939109 0.000000
Si Si7 0.642017 0.347664 0.540574
Si Si8 0.749591 0.645882 0.250651
O O1 0.645600 0.678354 0.468862
O O2 0.250000 0.750000 0.299052
O O3 0.228168 0.889278 0.341719
O O4 0.509554 0.883033 0.276675
O O5 0.010165 0.883194 0.271581
O O6 0.567179 0.523086 0.620799
O O7 0.211167 0.602651 0.579352
O O8 0.771601 0.887557 0.793509
O O9 0.597030 0.018183 0.831902
O O10 0.756454 0.895651 0.874144
O O11 0.584330 0.482225 0.915416
O O12 0.259191 0.393487 0.957416
O O13 0.500000 0.000000 0.000000
O O14 0.750000 0.250000 0.542281
O O15 0.750000 0.387794 0.500000
O O16 0.750000 0.750000 0.250136
#
# Coordination Sequence:
#
# PCOD9395685 Si02
#       8
#     2   8   8   8   8   4   8   8
#     4   8  18  40  68  86 108 152 204 216 250 308
#     4  10  22  42  59  77 104 144 183 215 254 317
#     4  12  27  40  59  91 122 145 176 225 278 316
#     4  10  19  30  48  74 101 131 164 210 264 315
#     4   8  14  23  36  59  89 121 160 198 247 300
#     4   8  12  20  34  52  83 122 155 198 240 290
#     4   9  21  41  65  88 113 154 194 220 255 315
#     4  10  21  37  57  77 101 135 178 218 260 308
#
# _framework density 19.564703000000002
#
# number of rings (size 3 to 8) (size 9 to 14) (size 15 to 20)
#    0.000    2.519    0.000    2.222    4.148    4.148 
#    4.000    0.000    0.000    0.000    0.000    0.519 
#    0.000    0.000    0.000   39.852    0.000    1.481 
#
# Total GULP energy -300617.215024 kJ/mol
# GULP energy per Si atom -5566.985463 kJ/mol
# Density = 1.952017 g / cm^3
# Si number density = 19.564703 Si / 1000 Ang^3
#
#
#
# Elastic Constant Matrix: (Units=GPa)
#
#
# Indices 1 2 3 4 5 6 
#
# 1 85.6505 1.2858 20.8986 0.0000 0.0000 0.0000
# 2 1.2858 12.0339 24.7627 0.0000 0.0000 0.0000
# 3 20.8986 24.7627 204.1497 0.0000 0.0000 0.0000
# 4 0.0000 0.0000 0.0000 -34.4890 0.0000 0.0000
# 5 0.0000 0.0000 0.0000 0.0000 41.0650 0.0000
# 6 0.0000 0.0000 0.0000 0.0000 0.0000 20.4546
#
#
#
# Elastic Compliance Matrix: (Units=1/GPa)
#
#
# Indices 1 2 3 4 5 6 
#
# 1 0.011999 0.001660 -0.001430 0.000000 0.000000 0.000000
# 2 0.001660 0.110969 -0.013630 0.000000 0.000000 0.000000
# 3 -0.001430 -0.013630 0.006698 0.000000 0.000000 0.000000
# 4 0.000000 0.000000 0.000000 -0.028995 0.000000 0.000000
# 5 0.000000 0.000000 0.000000 0.000000 0.024352 0.000000
# 6 0.000000 0.000000 0.000000 0.000000 0.000000 0.048889
#
#
# Mechanical properties :
#
#
# Convention : Reuss Voigt Hill
#
# Bulk Modulus (GPa) = 9.72138 43.96980 26.84559
# Shear Modulus (GPa) = 21.27659 22.39858 21.83758
#
# Velocity S-wave (km/s) = 3.30130 3.38723 3.34454
# Velocity P-wave (km/s) = 4.41714 6.14984 5.35405
#
# Compressibility (1/GPa) = 0.10286604
#
# Stress axis : x y z
#
# Youngs Moduli (GPa) = 83.33833 9.01156 149.29839
#
# Poissons Ratio (x) = -0.01496 0.21345
# Poissons Ratio (y) = -0.13832 2.03494
# Poissons Ratio (z) = 0.11915 0.12283
#
# Static dielectric constant tensor:
#      x y z
#    x -7.596550 0.000000 0.000000 
#    y 0.000000 1.630610 0.000000 
#    z 0.000000 0.000000 1.707430 
# 
# From -- ./inp_files/32405.got.cif
#   From: 2010.05.17/outbox.cif.g08.bks.cpg/sg50_17_cif.got.tgz:32405.got - 2010.06.03 11:33:33.
