data_PCOD9395551
_publ_section_title
;
Structure prediction by ZEFSAII (Michael W. Deem and Ramdas Pophale) SiO2 
 PCOD9395551
Probable space group: P B A N
;
_chemical_formula_sum "Si O2"
_cell_formula_units_Z 58
_cell_length_a 5.561175
_cell_length_b 33.303204
_cell_length_c 16.669690
_cell_angle_alpha 90.000000
_cell_angle_beta 90.000000
_cell_angle_gamma 90.000000
_cell_volume 3087.309028
_symmetry_space_group_name_H-M "P B A N"
_symmetry_group_IT_number 50
_space_group.IT_coordinate_system_code '2'
_symmetry_cell_setting 'orthorhombic'
loop_
_space_group_symop_operation_xyz
x,y,z
1/2-x,1/2-y,z
x,1/2-y,-z
1/2-x,y,-z
-x,-y,-z
1/2+x,1/2+y,-z
-x,1/2+y,z
1/2+x,-y,z
loop_
_atom_site_type_symbol
_atom_site_label
_atom_site_fract_x
_atom_site_fract_y
_atom_site_fract_z
Si Si1 0.498118 0.045030 0.467296
Si Si2 0.579986 0.488461 0.127747
Si Si3 0.423268 0.585798 0.770480
Si Si4 0.919637 0.549967 0.719365
Si Si5 0.516255 0.692226 0.125452
Si Si6 0.999344 0.879108 0.005307
Si Si7 0.514901 0.171484 0.841350
Si Si8 0.250000 0.250000 0.000000
O O1 0.750000 0.063596 0.500000
O O2 0.478186 0.039082 0.371858
O O3 0.250000 0.064568 0.500000
O O4 0.500000 0.000000 0.500000
O O5 0.335434 0.503139 0.088607
O O6 0.555579 0.441915 0.150324
O O7 0.588970 0.514280 0.213581
O O8 0.656482 0.570678 0.720907
O O9 0.453680 0.632231 0.788115
O O10 0.151875 0.576899 0.742090
O O11 0.500973 0.647213 0.086693
O O12 0.254364 0.698125 0.162624
O O13 0.578234 0.723181 0.055227
O O14 0.760668 0.692173 0.176764
O O15 0.750000 0.902255 0.000000
O O16 0.250000 0.901443 0.000000
O O17 0.997648 0.846010 0.933240
#
# Coordination Sequence:
#
# PCOD9395551 Si02
#       8
#     8   8   8   8   8   8   8   2
#     4  10  21  27  43  62  86 122 146 194 250 285
#     4   8  16  25  41  55  79 103 138 190 230 269
#     4  10  19  28  47  57  85 123 145 199 241 270
#     4  10  19  31  42  64  87 112 162 196 245 283
#     4  10  20  30  48  66  97 115 154 183 223 280
#     4   8  14  27  40  58  82 110 125 189 202 257
#     4  10  18  32  41  66  89 118 153 191 223 274
#     4  12  20  34  52  78  92 146 132 186 258 250
#
# _framework density 18.786588999999999
#
# number of rings (size 3 to 8) (size 9 to 14) (size 15 to 20)
#    0.000    2.483    2.069    1.655   11.586    1.103 
#    0.000    0.000    0.000    0.000    0.000    0.000 
#    0.000  268.138    0.000    0.000    0.000    0.000 
#
# Total GULP energy -323192.837597 kJ/mol
# GULP energy per Si atom -5572.290303 kJ/mol
# Density = 1.874383 g / cm^3
# Si number density = 18.786589 Si / 1000 Ang^3
#
#
#
# Elastic Constant Matrix: (Units=GPa)
#
#
# Indices 1 2 3 4 5 6 
#
# 1 198.0371 16.6595 -1.0807 0.0000 0.0000 0.0000
# 2 16.6595 48.0225 5.4469 0.0000 0.0000 0.0000
# 3 -1.0807 5.4469 34.7525 0.0000 0.0000 0.0000
# 4 0.0000 0.0000 0.0000 5.4040 0.0000 0.0000
# 5 0.0000 0.0000 0.0000 0.0000 16.9119 0.0000
# 6 0.0000 0.0000 0.0000 0.0000 0.0000 13.7461
#
#
#
# Elastic Compliance Matrix: (Units=1/GPa)
#
#
# Indices 1 2 3 4 5 6 
#
# 1 0.005208 -0.001858 0.000453 0.000000 0.000000 0.000000
# 2 -0.001858 0.021863 -0.003485 0.000000 0.000000 0.000000
# 3 0.000453 -0.003485 0.029335 0.000000 0.000000 0.000000
# 4 0.000000 0.000000 0.000000 0.185049 0.000000 0.000000
# 5 0.000000 0.000000 0.000000 0.000000 0.059130 0.000000
# 6 0.000000 0.000000 0.000000 0.000000 0.000000 0.072748
#
#
# Mechanical properties :
#
#
# Convention : Reuss Voigt Hill
#
# Bulk Modulus (GPa) = 21.44640 35.87372 28.66006
# Shear Modulus (GPa) = 12.54217 24.53150 18.53684
#
# Velocity S-wave (km/s) = 2.58662 3.61750 3.14460
# Velocity P-wave (km/s) = 4.51236 6.04858 5.33604
#
# Compressibility (1/GPa) = 0.04662788
#
# Stress axis : x y z
#
# Youngs Moduli (GPa) = 191.99926 45.73842 34.08881
#
# Poissons Ratio (x) = 0.08499 -0.01545
# Poissons Ratio (y) = 0.35678 0.11878
# Poissons Ratio (z) = -0.08702 0.15938
#
# Static dielectric constant tensor:
#      x y z
#    x 1.846810 0.000000 0.000000 
#    y 0.000000 1.640570 0.000000 
#    z 0.000000 0.000000 1.674380 
# 
# From -- ./inp_files/28385.got.cif
#   From: 2010.05.17/outbox.cif.g08.bks.cpg/sg50_15_cif.got.tgz:28385.got - 2010.06.03 11:33:33.
