data_PCOD9395584
_publ_section_title
;
Structure prediction by ZEFSAII (Michael W. Deem and Ramdas Pophale) SiO2 
 PCOD9395584
Probable space group: P B A N
;
_chemical_formula_sum "Si O2"
_cell_formula_units_Z 56
_cell_length_a 19.464299
_cell_length_b 16.489818
_cell_length_c 9.385640
_cell_angle_alpha 90.000000
_cell_angle_beta 90.000000
_cell_angle_gamma 90.000000
_cell_volume 3012.440806
_symmetry_space_group_name_H-M "P B A N"
_symmetry_group_IT_number 50
_space_group.IT_coordinate_system_code '2'
_symmetry_cell_setting 'orthorhombic'
loop_
_space_group_symop_operation_xyz
x,y,z
1/2-x,1/2-y,z
x,1/2-y,-z
1/2-x,y,-z
-x,-y,-z
1/2+x,1/2+y,-z
-x,1/2+y,z
1/2+x,-y,z
loop_
_atom_site_type_symbol
_atom_site_label
_atom_site_fract_x
_atom_site_fract_y
_atom_site_fract_z
Si Si1 0.692790 0.370313 0.891852
Si Si2 0.072451 0.843907 0.541985
Si Si3 0.995759 0.432878 0.803394
Si Si4 0.050091 0.612824 0.777998
Si Si5 0.785124 0.084813 0.355213
Si Si6 0.350005 0.004978 0.102044
Si Si7 0.075269 0.161754 0.954850
O O1 0.613923 0.345393 0.862369
O O2 0.729260 0.368060 0.739305
O O3 0.750000 0.334201 0.000000
O O4 0.680501 0.458614 0.965529
O O5 0.061670 0.750000 0.500000
O O6 0.020851 0.886246 0.655677
O O7 0.065092 0.885021 0.388969
O O8 0.148503 0.861032 0.605747
O O9 0.922922 0.461454 0.867149
O O10 0.038861 0.516559 0.802915
O O11 0.032608 0.373616 0.912211
O O12 0.979948 0.657167 0.825600
O O13 0.750000 0.056097 0.500000
O O14 0.808280 0.014856 0.245619
O O15 0.364379 0.098659 0.077801
O O16 0.098636 0.250000 0.000000
#
# Coordination Sequence:
#
# PCOD9395584 Si02
#       7
#     8   8   8   8   8   8   8
#     4  10  18  33  56  77  99 140 197 224 256 309
#     4  11  23  36  51  80 119 144 176 229 278 320
#     4  10  19  35  57  79 106 145 183 217 270 329
#     4  11  19  36  56  79 109 147 187 220 264 331
#     4  10  20  34  56  77 102 147 190 221 258 321
#     4   9  18  35  56  80 106 136 183 232 261 323
#     4  11  20  33  57  86 113 136 170 228 295 328
#
# _framework density 18.589576000000001
#
# number of rings (size 3 to 8) (size 9 to 14) (size 15 to 20)
#    0.000    1.714    4.286    2.143    0.000    0.286 
#    0.000    0.000    0.000    3.857    0.000    3.000 
#    0.000    0.000    0.000    0.000    0.000    0.000 
#
# Total GULP energy -311908.565342 kJ/mol
# GULP energy per Si atom -5569.795810 kJ/mol
# Density = 1.854727 g / cm^3
# Si number density = 18.589576 Si / 1000 Ang^3
#
#
#
# Elastic Constant Matrix: (Units=GPa)
#
#
# Indices 1 2 3 4 5 6 
#
# 1 42.1953 0.3545 10.2416 0.0000 0.0000 0.0000
# 2 0.3545 75.9311 3.2973 0.0000 0.0000 0.0000
# 3 10.2416 3.2973 96.2382 0.0000 0.0000 0.0000
# 4 0.0000 0.0000 0.0000 -7.2454 0.0000 0.0000
# 5 0.0000 0.0000 0.0000 0.0000 29.2371 0.0000
# 6 0.0000 0.0000 0.0000 0.0000 0.0000 -23.8162
#
#
#
# Elastic Compliance Matrix: (Units=1/GPa)
#
#
# Indices 1 2 3 4 5 6 
#
# 1 0.024328 -0.000001 -0.002589 0.000000 0.000000 0.000000
# 2 -0.000001 0.013189 -0.000452 0.000000 0.000000 0.000000
# 3 -0.002589 -0.000452 0.010682 0.000000 0.000000 0.000000
# 4 0.000000 0.000000 0.000000 -0.138019 0.000000 0.000000
# 5 0.000000 0.000000 0.000000 0.000000 0.034203 0.000000
# 6 0.000000 0.000000 0.000000 0.000000 0.000000 -0.041988
#
#
# Mechanical properties :
#
#
# Convention : Reuss Voigt Hill
#
# Bulk Modulus (GPa) = 23.74432 26.90573 25.32502
# Shear Modulus (GPa) = -64.53027 12.99986 -25.76521
#
# Velocity S-wave (km/s) = -5.89818 2.64731 -3.72694
# Velocity P-wave (km/s) = 5.79517 4.88358 2.20621
#
# Compressibility (1/GPa) = 0.04211534
#
# Stress axis : x y z
#
# Youngs Moduli (GPa) = 41.10544 75.81815 93.61654
#
# Poissons Ratio (x) = 0.00009 0.24236
# Poissons Ratio (y) = 0.00005 0.04229
# Poissons Ratio (z) = 0.10642 0.03425
#
# Static dielectric constant tensor:
#      x y z
#    x 1.717380 0.000000 0.000000 
#    y 0.000000 1.669420 0.000000 
#    z 0.000000 0.000000 1.692640 
# 
# From -- ./inp_files/15345.got.cif
#   From: 2010.05.17/outbox.cif.g08.bks.cpg/sg50_8_cif.got.tgz:15345.got - 2010.06.03 11:33:33.
