data_PCOD9395436
_publ_section_title
;
Structure prediction by ZEFSAII (Michael W. Deem and Ramdas Pophale) SiO2 
 PCOD9395436
Probable space group: P B A N
;
_chemical_formula_sum "Si O2"
_cell_formula_units_Z 46
_cell_length_a 12.441218
_cell_length_b 18.363678
_cell_length_c 11.291854
_cell_angle_alpha 90.000000
_cell_angle_beta 90.000000
_cell_angle_gamma 90.000000
_cell_volume 2579.810602
_symmetry_space_group_name_H-M "P B A N"
_symmetry_group_IT_number 50
_space_group.IT_coordinate_system_code '2'
_symmetry_cell_setting 'orthorhombic'
loop_
_space_group_symop_operation_xyz
x,y,z
1/2-x,1/2-y,z
x,1/2-y,-z
1/2-x,y,-z
-x,-y,-z
1/2+x,1/2+y,-z
-x,1/2+y,z
1/2+x,-y,z
loop_
_atom_site_type_symbol
_atom_site_label
_atom_site_fract_x
_atom_site_fract_y
_atom_site_fract_z
Si Si1 0.598184 0.078133 0.813047
Si Si2 0.250000 0.004906 0.000000
Si Si3 0.250000 0.250000 0.000000
Si Si4 0.507720 0.958983 0.631457
Si Si5 0.767976 0.596367 0.630401
Si Si6 0.227922 0.920720 0.367884
Si Si7 0.129821 0.370321 0.853082
O O1 0.688867 0.111230 0.726159
O O2 0.499182 0.127531 0.853774
O O3 0.534658 0.019623 0.729953
O O4 0.667414 0.040896 0.918089
O O5 0.322272 0.057416 0.917326
O O6 0.175520 0.198328 0.078078
O O7 0.604423 0.901931 0.646468
O O8 0.397544 0.917840 0.657179
O O9 0.500000 0.000000 0.500000
O O10 0.750000 0.625624 0.500000
O O11 0.747630 0.508651 0.631321
O O12 0.687056 0.629152 0.724914
O O13 0.250000 0.893653 0.500000
#
# Coordination Sequence:
#
# PCOD9395436 Si02
#       7
#     8   4   2   8   8   8   8
#     4  11  19  30  52  80 116 145 177 230 280 340
#     4  11  20  33  50  89 114 141 180 226 292 345
#     4  10  28  44  58  70 100 158 208 232 278 318
#     4  11  15  26  45  79 126 152 164 203 279 363
#     4  10  17  27  50  81 111 147 175 218 278 334
#     4  10  17  26  44  83 124 150 166 201 285 357
#     4  11  21  39  56  77 110 150 192 237 276 328
#
# _framework density 17.830766000000001
#
# number of rings (size 3 to 8) (size 9 to 14) (size 15 to 20)
#    0.000    1.391   10.435    0.522    0.000    0.000 
#    0.000    0.435    0.000    0.522    0.000    0.000 
#    0.000    1.391    0.000    0.000    0.000    0.000 
#
# Total GULP energy -256168.743837 kJ/mol
# GULP energy per Si atom -5568.885736 kJ/mol
# Density = 1.779018 g / cm^3
# Si number density = 17.830766 Si / 1000 Ang^3
#
#
#
# Elastic Constant Matrix: (Units=GPa)
#
#
# Indices 1 2 3 4 5 6 
#
# 1 183.4254 31.9860 48.3829 0.0000 0.0000 0.0000
# 2 31.9860 31.9795 30.5934 0.0000 0.0000 0.0000
# 3 48.3829 30.5934 115.0583 0.0000 0.0000 0.0000
# 4 0.0000 0.0000 0.0000 1.7800 0.0000 0.0000
# 5 0.0000 0.0000 0.0000 0.0000 34.6890 0.0000
# 6 0.0000 0.0000 0.0000 0.0000 0.0000 1.9267
#
#
#
# Elastic Compliance Matrix: (Units=1/GPa)
#
#
# Indices 1 2 3 4 5 6 
#
# 1 0.006768 -0.005428 -0.001403 0.000000 0.000000 0.000000
# 2 -0.005428 0.046290 -0.010026 0.000000 0.000000 0.000000
# 3 -0.001403 -0.010026 0.011947 0.000000 0.000000 0.000000
# 4 0.000000 0.000000 0.000000 0.561786 0.000000 0.000000
# 5 0.000000 0.000000 0.000000 0.000000 0.028828 0.000000
# 6 0.000000 0.000000 0.000000 0.000000 0.000000 0.519030
#
#
# Mechanical properties :
#
#
# Convention : Reuss Voigt Hill
#
# Bulk Modulus (GPa) = 31.95656 61.37640 46.66648
# Shear Modulus (GPa) = 4.10242 22.31254 13.20748
#
# Velocity S-wave (km/s) = 1.51847 3.54128 2.72456
# Velocity P-wave (km/s) = 4.58643 7.15662 6.01052
#
# Compressibility (1/GPa) = 0.03129248
#
# Stress axis : x y z
#
# Youngs Moduli (GPa) = 147.74676 21.60294 83.70263
#
# Poissons Ratio (x) = 0.11725 0.11743
# Poissons Ratio (y) = 0.80190 0.83920
# Poissons Ratio (z) = 0.20729 0.21659
#
# Static dielectric constant tensor:
#      x y z
#    x 1.173810 0.000000 0.000000 
#    y 0.000000 1.571990 0.000000 
#    z 0.000000 0.000000 1.661040 
# 
# From -- ./inp_files/20238.got.cif
#   From: 2010.05.17/outbox.cif.g08.bks.cpg/sg50_11_cif.got.tgz:20238.got - 2010.06.03 11:33:33.
