data_PCOD9395649
_publ_section_title
;
Structure prediction by ZEFSAII (Michael W. Deem and Ramdas Pophale) SiO2 
 PCOD9395649
Probable space group: P B A N
;
_chemical_formula_sum "Si O2"
_cell_formula_units_Z 34
_cell_length_a 22.574989
_cell_length_b 8.101049
_cell_length_c 8.195184
_cell_angle_alpha 90.000000
_cell_angle_beta 90.000000
_cell_angle_gamma 90.000000
_cell_volume 1498.744200
_symmetry_space_group_name_H-M "P B A N"
_symmetry_group_IT_number 50
_space_group.IT_coordinate_system_code '2'
_symmetry_cell_setting 'orthorhombic'
loop_
_space_group_symop_operation_xyz
x,y,z
1/2-x,1/2-y,z
x,1/2-y,-z
1/2-x,y,-z
-x,-y,-z
1/2+x,1/2+y,-z
-x,1/2+y,z
1/2+x,-y,z
loop_
_atom_site_type_symbol
_atom_site_label
_atom_site_fract_x
_atom_site_fract_y
_atom_site_fract_z
Si Si1 0.654808 0.750000 0.500000
Si Si2 0.937584 0.300484 0.806727
Si Si3 0.680274 0.502906 0.241004
Si Si4 0.431708 0.433586 0.250699
Si Si5 0.860312 0.750000 0.000000
Si Si6 0.250000 0.750000 0.000000
O O1 0.689437 0.594426 0.416259
O O2 0.609513 0.667859 0.628190
O O3 0.885289 0.423093 0.756336
O O4 0.000705 0.376176 0.759344
O O5 0.928721 0.126686 0.716310
O O6 0.937166 0.250000 0.000000
O O7 0.680245 0.663593 0.129470
O O8 0.716273 0.368935 0.131592
O O9 0.402586 0.388695 0.076505
#
# Coordination Sequence:
#
# PCOD9395649 Si02
#       6
#     4   8   8   8   4   2
#     4  10  26  44  64 111 146 187 212 302 364 438
#     4  12  21  37  64 105 139 190 239 288 319 433
#     4  11  24  43  73 101 137 174 246 292 359 408
#     4  11  21  35  64  97 150 184 228 267 360 412
#     4  10  18  38  64  96 130 178 220 290 328 428
#     4  12  24  48  80 106 120 194 248 308 348 434
#
# _framework density 22.685658
#
# number of rings (size 3 to 8) (size 9 to 14) (size 15 to 20)
#    0.000    0.941    4.706    3.529    0.000    5.176 
#    0.000    0.000    0.000   40.941    0.000    0.000 
#    0.000    0.000    0.000    0.000    0.000    0.000 
#
# Total GULP energy -189622.012740 kJ/mol
# GULP energy per Si atom -5577.118022 kJ/mol
# Density = 2.263402 g / cm^3
# Si number density = 22.685658 Si / 1000 Ang^3
#
#
#
# Elastic Constant Matrix: (Units=GPa)
#
#
# Indices 1 2 3 4 5 6 
#
# 1 94.4810 38.3240 53.2849 0.0000 0.0000 0.0000
# 2 38.3240 119.9285 47.9037 0.0000 0.0000 0.0000
# 3 53.2849 47.9037 82.0342 0.0000 0.0000 0.0000
# 4 0.0000 0.0000 0.0000 39.9894 0.0000 0.0000
# 5 0.0000 0.0000 0.0000 0.0000 12.7634 0.0000
# 6 0.0000 0.0000 0.0000 0.0000 0.0000 -6.1737
#
#
#
# Elastic Compliance Matrix: (Units=1/GPa)
#
#
# Indices 1 2 3 4 5 6 
#
# 1 0.016862 -0.001322 -0.010181 0.000000 0.000000 0.000000
# 2 -0.001322 0.010978 -0.005552 0.000000 0.000000 0.000000
# 3 -0.010181 -0.005552 0.022045 0.000000 0.000000 0.000000
# 4 0.000000 0.000000 0.000000 0.025007 0.000000 0.000000
# 5 0.000000 0.000000 0.000000 0.000000 0.078349 0.000000
# 6 0.000000 0.000000 0.000000 0.000000 0.000000 -0.161977
#
#
# Mechanical properties :
#
#
# Convention : Reuss Voigt Hill
#
# Bulk Modulus (GPa) = 63.38782 63.94102 63.66442
# Shear Modulus (GPa) = 163.22456 19.77789 91.50122
#
# Velocity S-wave (km/s) = 8.49157 2.95587 6.35783
# Velocity P-wave (km/s) = 11.14203 6.31636 9.05652
#
# Compressibility (1/GPa) = 0.01577590
#
# Stress axis : x y z
#
# Youngs Moduli (GPa) = 59.30498 91.08731 45.36149
#
# Poissons Ratio (x) = 0.12040 0.46181
# Poissons Ratio (y) = 0.07839 0.25186
# Poissons Ratio (z) = 0.60377 0.50574
#
# Static dielectric constant tensor:
#      x y z
#    x 1.882110 0.000000 0.000000 
#    y 0.000000 1.846970 0.000000 
#    z 0.000000 0.000000 2.087330 
# 
# From -- ./inp_files/9288.got.cif
#   From: 2010.05.17/outbox.cif.g08.bks.cpg/sg50_5_cif.got.tgz:9288.got - 2010.06.03 11:33:33.
