data_PCOD9395137
_publ_section_title
;
Structure prediction by ZEFSAII (Michael W. Deem and Ramdas Pophale) SiO2 
 PCOD9395137
Probable space group: P C C M
;
_chemical_formula_sum "Si O2"
_cell_formula_units_Z 48
_cell_length_a 17.741286
_cell_length_b 9.697354
_cell_length_c 15.066190
_cell_angle_alpha 90.000000
_cell_angle_beta 90.000000
_cell_angle_gamma 90.000000
_cell_volume 2592.040523
_symmetry_space_group_name_H-M "P C C M"
_symmetry_group_IT_number 49
_symmetry_cell_setting 'orthorhombic'
loop_
_space_group_symop_operation_xyz
x,y,z
-x,-y,z
x,-y,1/2-z
-x,y,1/2-z
-x,-y,-z
x,y,-z
-x,y,1/2+z
x,-y,1/2+z
loop_
_atom_site_type_symbol
_atom_site_label
_atom_site_fract_x
_atom_site_fract_y
_atom_site_fract_z
Si Si1 0.088202 0.333115 0.751122
Si Si2 0.306042 0.521553 0.645541
Si Si3 0.207208 0.228301 0.103460
Si Si4 0.198872 0.718329 0.103031
Si Si5 0.422143 0.916935 0.000000
Si Si6 0.698470 0.965733 0.349653
Si Si7 0.577800 0.582704 0.500000
O O1 0.095407 0.500000 0.750000
O O2 0.138872 0.272801 0.831676
O O3 0.124691 0.274937 0.661271
O O4 0.000000 0.299432 0.750000
O O5 0.318922 0.500000 0.750000
O O6 0.279933 0.676519 0.625916
O O7 0.233746 0.432910 0.614807
O O8 0.374048 0.466668 0.585458
O O9 0.237492 0.074581 0.120709
O O10 0.187377 0.245743 0.000000
O O11 0.261427 0.818157 0.144357
O O12 0.188886 0.750568 0.000000
O O13 0.371707 0.960975 0.084274
O O14 0.430852 0.749421 0.000000
O O15 0.500000 0.000000 0.000000
O O16 0.675390 0.000000 0.250000
O O17 0.500000 0.500000 0.500000
#
# Coordination Sequence:
#
# PCOD9395137 Si02
#       7
#     8   8   8   8   4   8   4
#     4  11  24  40  62 101 140 167 211 279 334 376
#     4  12  21  40  68  94 124 171 224 263 308 384
#     4  12  22  37  67 100 126 166 225 267 311 383
#     4  12  20  41  67  94 125 177 221 262 314 391
#     4  12  28  48  64  98 137 166 210 274 334 381
#     4  12  23  42  70  96 124 171 219 263 319 390
#     4  12  28  46  66  98 135 171 209 273 331 378
#
# _framework density 18.518229999999999
#
# number of rings (size 3 to 8) (size 9 to 14) (size 15 to 20)
#    0.000    0.167   10.000    0.000    2.333    1.333 
#    0.000    5.000    0.000    2.000    0.000    0.000 
#    0.000    0.000    0.000    0.000    0.000    0.000 
#
# Total GULP energy -268202.748594 kJ/mol
# GULP energy per Si atom -5587.557262 kJ/mol
# Density = 1.847608 g / cm^3
# Si number density = 18.518230 Si / 1000 Ang^3
#
#
#
# Elastic Constant Matrix: (Units=GPa)
#
#
# Indices 1 2 3 4 5 6 
#
# 1 136.1579 9.1521 59.4655 0.0000 0.0000 0.0000
# 2 9.1521 33.7000 9.2352 0.0000 0.0000 0.0000
# 3 59.4655 9.2352 172.1941 0.0000 0.0000 0.0000
# 4 0.0000 0.0000 0.0000 24.9228 0.0000 0.0000
# 5 0.0000 0.0000 0.0000 0.0000 31.6618 0.0000
# 6 0.0000 0.0000 0.0000 0.0000 0.0000 25.2140
#
#
#
# Elastic Compliance Matrix: (Units=1/GPa)
#
#
# Indices 1 2 3 4 5 6 
#
# 1 0.008730 -0.001568 -0.002931 0.000000 0.000000 0.000000
# 2 -0.001568 0.030398 -0.001089 0.000000 0.000000 0.000000
# 3 -0.002931 -0.001089 0.006878 0.000000 0.000000 0.000000
# 4 0.000000 0.000000 0.000000 0.040124 0.000000 0.000000
# 5 0.000000 0.000000 0.000000 0.000000 0.031584 0.000000
# 6 0.000000 0.000000 0.000000 0.000000 0.000000 0.039661
#
#
# Mechanical properties :
#
#
# Convention : Reuss Voigt Hill
#
# Bulk Modulus (GPa) = 28.71019 55.30640 42.00830
# Shear Modulus (GPa) = 27.75339 33.97301 30.86320
#
# Velocity S-wave (km/s) = 3.87551 4.28784 4.08688
# Velocity P-wave (km/s) = 5.96352 7.37867 6.70852
#
# Compressibility (1/GPa) = 0.03483083
#
# Stress axis : x y z
#
# Youngs Moduli (GPa) = 114.55130 32.89722 145.39388
#
# Poissons Ratio (x) = 0.05157 0.42610
# Poissons Ratio (y) = 0.17958 0.15832
# Poissons Ratio (z) = 0.33571 0.03582
#
# Static dielectric constant tensor:
#      x y z
#    x 1.608860 0.000000 0.000000 
#    y 0.000000 1.631570 0.000000 
#    z 0.000000 0.000000 1.650540 
# 
# From -- ./inp_files/11881.got.cif
#   From: 2010.05.17/outbox.cif.g08.bks.cpg/sg49_6_cif.got.tgz:11881.got - 2010.06.03 21:02:19.
