data_PCOD9395461
_publ_section_title
;
Structure prediction by ZEFSAII (Michael W. Deem and Ramdas Pophale) SiO2 
 PCOD9395461
Probable space group: P B A N
;
_chemical_formula_sum "Si O2"
_cell_formula_units_Z 48
_cell_length_a 22.143169
_cell_length_b 7.867141
_cell_length_c 15.214018
_cell_angle_alpha 90.000000
_cell_angle_beta 90.000000
_cell_angle_gamma 90.000000
_cell_volume 2650.334161
_symmetry_space_group_name_H-M "P B A N"
_symmetry_group_IT_number 50
_space_group.IT_coordinate_system_code '2'
_symmetry_cell_setting 'orthorhombic'
loop_
_space_group_symop_operation_xyz
x,y,z
1/2-x,1/2-y,z
x,1/2-y,-z
1/2-x,y,-z
-x,-y,-z
1/2+x,1/2+y,-z
-x,1/2+y,z
1/2+x,-y,z
loop_
_atom_site_type_symbol
_atom_site_label
_atom_site_fract_x
_atom_site_fract_y
_atom_site_fract_z
Si Si1 0.678934 0.237094 0.785724
Si Si2 0.116182 0.083917 0.702401
Si Si3 0.930263 0.952238 0.488353
Si Si4 0.000509 0.027267 0.206748
Si Si5 0.571640 0.199873 0.099421
Si Si6 0.884497 0.528359 0.327952
O O1 0.750000 0.250000 0.796947
O O2 0.641052 0.272447 0.874713
O O3 0.654014 0.386094 0.721683
O O4 0.660681 0.052041 0.747036
O O5 0.094974 0.009280 0.608078
O O6 0.138556 0.277459 0.686946
O O7 0.055741 0.089684 0.762363
O O8 0.927294 0.750000 0.500000
O O9 0.891639 0.020528 0.570075
O O10 0.000000 0.000000 0.500000
O O11 0.964011 0.190371 0.172919
O O12 0.047543 0.033293 0.287125
O O13 0.042983 0.980534 0.123677
O O14 0.560082 0.250000 0.000000
#
# Coordination Sequence:
#
# PCOD9395461 Si02
#       6
#     8   8   8   8   8   8
#     4  10  24  40  58  76 103 156 200 225 270 321
#     4  10  20  35  54  83 116 146 182 224 272 328
#     4  10  20  28  52  85 117 146 172 220 278 325
#     4  10  17  31  54  82 114 144 168 211 295 342
#     4  10  20  33  55  83 111 136 175 232 284 340
#     4  10  20  35  54  83 116 146 182 224 272 328
#
# _framework density 18.110924000000001
#
# number of rings (size 3 to 8) (size 9 to 14) (size 15 to 20)
#    0.000    2.000    3.333    0.500    2.333    1.000 
#    0.000    1.667    0.000    3.000    0.000    4.667 
#    0.000    0.000    0.000    0.000    0.000    0.000 
#
# Total GULP energy -267285.222456 kJ/mol
# GULP energy per Si atom -5568.442134 kJ/mol
# Density = 1.806970 g / cm^3
# Si number density = 18.110924 Si / 1000 Ang^3
#
#
#
# Elastic Constant Matrix: (Units=GPa)
#
#
# Indices 1 2 3 4 5 6 
#
# 1 99.6586 21.4934 10.7359 0.0000 0.0000 0.0000
# 2 21.4934 47.5642 -2.5929 0.0000 0.0000 0.0000
# 3 10.7359 -2.5929 69.7536 0.0000 0.0000 0.0000
# 4 0.0000 0.0000 0.0000 15.3231 0.0000 0.0000
# 5 0.0000 0.0000 0.0000 0.0000 10.6355 0.0000
# 6 0.0000 0.0000 0.0000 0.0000 0.0000 19.9678
#
#
#
# Elastic Compliance Matrix: (Units=1/GPa)
#
#
# Indices 1 2 3 4 5 6 
#
# 1 0.011375 -0.005246 -0.001946 0.000000 0.000000 0.000000
# 2 -0.005246 0.023487 0.001681 0.000000 0.000000 0.000000
# 3 -0.001946 0.001681 0.014698 0.000000 0.000000 0.000000
# 4 0.000000 0.000000 0.000000 0.065261 0.000000 0.000000
# 5 0.000000 0.000000 0.000000 0.000000 0.094025 0.000000
# 6 0.000000 0.000000 0.000000 0.000000 0.000000 0.050081
#
#
# Mechanical properties :
#
#
# Convention : Reuss Voigt Hill
#
# Bulk Modulus (GPa) = 25.94931 30.69436 28.32183
# Shear Modulus (GPa) = 17.68061 21.67461 19.67761
#
# Velocity S-wave (km/s) = 3.12787 3.46319 3.29979
# Velocity P-wave (km/s) = 5.23487 5.74250 5.49455
#
# Compressibility (1/GPa) = 0.03853667
#
# Stress axis : x y z
#
# Youngs Moduli (GPa) = 87.90926 42.57754 68.03590
#
# Poissons Ratio (x) = 0.22338 0.13239
# Poissons Ratio (y) = 0.46121 -0.11434
# Poissons Ratio (z) = 0.17106 -0.07155
#
# Static dielectric constant tensor:
#      x y z
#    x 1.604190 0.000000 0.000000 
#    y 0.000000 1.751930 0.000000 
#    z 0.000000 0.000000 1.642780 
# 
# From -- ./inp_files/25117.got.cif
#   From: 2010.05.17/outbox.cif.g08.bks.cpg/sg50_13_cif.got.tgz:25117.got - 2010.06.03 11:33:33.
