data_PCOD9395196
_publ_section_title
;
Structure prediction by ZEFSAII (Michael W. Deem and Ramdas Pophale) SiO2 
 PCOD9395196
Probable space group: P C C M
;
_chemical_formula_sum "Si O2"
_cell_formula_units_Z 56
_cell_length_a 10.598791
_cell_length_b 19.375470
_cell_length_c 14.663134
_cell_angle_alpha 90.000000
_cell_angle_beta 90.000000
_cell_angle_gamma 90.000000
_cell_volume 3011.170714
_symmetry_space_group_name_H-M "P C C M"
_symmetry_group_IT_number 49
_symmetry_cell_setting 'orthorhombic'
loop_
_space_group_symop_operation_xyz
x,y,z
-x,-y,z
x,-y,1/2-z
-x,y,1/2-z
-x,-y,-z
x,y,-z
-x,y,1/2+z
x,-y,1/2+z
loop_
_atom_site_type_symbol
_atom_site_label
_atom_site_fract_x
_atom_site_fract_y
_atom_site_fract_z
Si Si1 0.500000 0.920903 0.111275
Si Si2 0.652784 0.421901 0.250000
Si Si3 0.649746 0.693077 0.108338
Si Si4 0.250882 0.160392 0.888916
Si Si5 0.250882 0.160392 0.611084
Si Si6 0.000000 0.080168 0.388641
Si Si7 0.350255 0.693077 0.891662
O O1 0.625921 0.881855 0.140335
O O2 0.374080 0.881855 0.140335
O O3 0.500000 0.000000 0.140063
O O4 0.500000 0.920109 0.000000
O O5 0.701804 0.500000 0.250000
O O6 0.500000 0.426330 0.250000
O O7 0.686628 0.375323 0.337144
O O8 0.686628 0.375323 0.162856
O O9 0.728822 0.760123 0.137637
O O10 0.500000 0.707138 0.125556
O O11 0.663337 0.683706 0.000000
O O12 0.124534 0.121628 0.859625
O O13 0.250472 0.160250 0.000000
O O14 0.250472 0.160250 0.500000
O O15 0.124534 0.121628 0.640375
O O16 0.271178 0.239877 0.637638
O O17 0.000001 0.079281 0.500000
O O18 0.000000 0.000000 0.359998
O O19 0.336664 0.683706 0.000000
#
# Coordination Sequence:
#
# PCOD9395196 Si02
#       7
#     8   8   8   8   8   8   8
#     4   9  14  20  34  57  85 118 159 201 240 284
#     4   9  18  30  46  73 102 125 153 191 243 299
#     4   9  16  28  46  68  96 128 161 198 237 284
#     4   9  15  24  38  60  90 126 163 198 240 286
#     4   9  15  24  38  60  90 126 163 198 240 286
#     4   9  16  24  36  61  97 128 161 209 248 278
#     4   9  16  28  46  68  96 128 161 198 237 284
#
# _framework density 18.597417
#
# number of rings (size 3 to 8) (size 9 to 14) (size 15 to 20)
#    0.000    3.000    1.429    0.857    0.000    4.000 
#    0.000    2.857    0.000    0.857    0.000    8.000 
#    0.000    5.714    0.000    0.000    0.000    0.000 
#
# Total GULP energy -312435.640143 kJ/mol
# GULP energy per Si atom -5579.207860 kJ/mol
# Density = 1.855509 g / cm^3
# Si number density = 18.597417 Si / 1000 Ang^3
#
#
#
# Elastic Constant Matrix: (Units=GPa)
#
#
# Indices 1 2 3 4 5 6 
#
# 1 119.5604 85.5866 21.6483 0.0000 0.0000 0.0000
# 2 85.5866 221.5260 46.2203 0.0000 0.0000 0.0000
# 3 21.6483 46.2203 75.6082 0.0000 0.0000 0.0000
# 4 0.0000 0.0000 0.0000 49.2198 0.0000 0.0000
# 5 0.0000 0.0000 0.0000 0.0000 -5.9637 0.0000
# 6 0.0000 0.0000 0.0000 0.0000 0.0000 21.1134
#
#
#
# Elastic Compliance Matrix: (Units=1/GPa)
#
#
# Indices 1 2 3 4 5 6 
#
# 1 0.011591 -0.004339 -0.000666 0.000000 0.000000 0.000000
# 2 -0.004339 0.006798 -0.002914 0.000000 0.000000 0.000000
# 3 -0.000666 -0.002914 0.015198 0.000000 0.000000 0.000000
# 4 0.000000 0.000000 0.000000 0.020317 0.000000 0.000000
# 5 0.000000 0.000000 0.000000 0.000000 -0.167683 0.000000
# 6 0.000000 0.000000 0.000000 0.000000 0.000000 0.047363
#
#
# Mechanical properties :
#
#
# Convention : Reuss Voigt Hill
#
# Bulk Modulus (GPa) = 56.33980 80.40055 68.37017
# Shear Modulus (GPa) = -111.95466 30.42321 -40.76572
#
# Velocity S-wave (km/s) = -7.76722 4.04899 -4.68697
# Velocity P-wave (km/s) = 7.07668 8.07373 2.74824
#
# Compressibility (1/GPa) = 0.01774944
#
# Stress axis : x y z
#
# Youngs Moduli (GPa) = 86.27609 147.09218 65.79840
#
# Poissons Ratio (x) = 0.63825 0.04383
# Poissons Ratio (y) = 0.37436 0.19171
# Poissons Ratio (z) = 0.05747 0.42857
#
# Static dielectric constant tensor:
#      x y z
#    x 1.612640 0.000000 0.000000 
#    y 0.000000 1.618410 0.000000 
#    z 0.000000 0.000000 1.709870 
# 
# From -- ./inp_files/12035.got.cif
#   From: 2010.05.17/outbox.cif.g08.bks.cpg/sg49_7_cif.got.tgz:12035.got - 2010.06.03 21:02:19.
