data_PCOD9395270
_publ_section_title
;
Structure prediction by ZEFSAII (Michael W. Deem and Ramdas Pophale) SiO2 
 PCOD9395270
Probable space group: P C C M
;
_chemical_formula_sum "Si O2"
_cell_formula_units_Z 48
_cell_length_a 9.000000
_cell_length_b 30.000000
_cell_length_c 9.000000
_cell_angle_alpha 90.000000
_cell_angle_beta 90.000000
_cell_angle_gamma 90.000000
_cell_volume 2430.000000
_symmetry_space_group_name_H-M "P C C M"
_symmetry_group_IT_number 49
_symmetry_cell_setting 'orthorhombic'
loop_
_space_group_symop_operation_xyz
x,y,z
-x,-y,z
x,-y,1/2-z
-x,y,1/2-z
-x,-y,-z
x,y,-z
-x,y,1/2+z
x,-y,1/2+z
loop_
_atom_site_type_symbol
_atom_site_label
_atom_site_fract_x
_atom_site_fract_y
_atom_site_fract_z
Si Si1 0.338186 0.543273 0.677562
Si Si2 0.342174 0.283828 0.179114
Si Si3 0.149252 0.951489 0.177288
Si Si4 0.647356 0.884151 0.827899
Si Si5 0.844701 0.201852 0.328925
Si Si6 0.157198 0.630886 0.322842
O O1 0.263198 0.500000 0.750000
O O2 0.500000 0.546225 0.750000
O O3 0.348764 0.538287 0.500000
O O4 0.254683 0.588277 0.715019
O O5 0.500000 0.290932 0.250000
O O6 0.270760 0.237749 0.231864
O O7 0.235452 0.323796 0.224462
O O8 0.356548 0.283412 0.000000
O O9 0.291288 0.924512 0.230635
O O10 0.000000 0.930909 0.250000
O O11 0.159934 0.000000 0.250000
O O12 0.135211 0.953468 0.000000
O O13 0.500000 0.866629 0.750000
O O14 0.770800 0.846167 0.822962
O O15 0.622273 0.896514 0.000000
O O16 0.870254 0.213890 0.500000
O O17 0.000000 0.203045 0.250000
O O18 0.142476 0.632310 0.500000
O O19 0.000000 0.626652 0.250000
#
# Coordination Sequence:
#
# PCOD9395270 Si02
#       6
#     8   8   8   8   8   8
#     4  10  20  35  55  80 107 141 182 227 275 330
#     4  10  21  38  58  84 113 145 184 228 275 329
#     4  11  22  39  62  88 117 152 192 237 285 338
#     4  11  23  39  58  85 117 152 192 235 282 336
#     4  10  22  38  59  85 115 148 187 230 277 331
#     4  10  22  37  55  80 111 144 184 227 274 328
#
# _framework density 19.753086
#
# number of rings (size 3 to 8) (size 9 to 14) (size 15 to 20)
#    0.000    1.667    0.000    5.500    0.000    6.000 
#    0.000    3.333    0.000    0.000    0.000    0.000 
#    0.000    0.000    0.000    0.000    0.000    0.000 
#
# Total GULP energy -267908.511066 kJ/mol
# GULP energy per Si atom -5581.427314 kJ/mol
# Density = 1.970813 g / cm^3
# Si number density = 19.753086 Si / 1000 Ang^3
#
#
#
# Elastic Constant Matrix: (Units=GPa)
#
#
# Indices 1 2 3 4 5 6 
#
# 1 -50.6398 26.9119 -42.2177 0.0000 0.0000 0.0000
# 2 26.9119 62.6166 46.6444 0.0000 0.0000 0.0000
# 3 -42.2177 46.6444 20.2086 0.0000 0.0000 0.0000
# 4 0.0000 0.0000 0.0000 12.8449 0.0000 0.0000
# 5 0.0000 0.0000 0.0000 0.0000 33.2529 0.0000
# 6 0.0000 0.0000 0.0000 0.0000 0.0000 19.7478
#
#
#
# Elastic Compliance Matrix: (Units=1/GPa)
#
#
# Indices 1 2 3 4 5 6 
#
# 1 0.004891 0.013501 -0.020946 0.000000 0.000000 0.000000
# 2 0.013501 0.015074 -0.006586 0.000000 0.000000 0.000000
# 3 -0.020946 -0.006586 0.020927 0.000000 0.000000 0.000000
# 4 0.000000 0.000000 0.000000 0.077852 0.000000 0.000000
# 5 0.000000 0.000000 0.000000 0.000000 0.030073 0.000000
# 6 0.000000 0.000000 0.000000 0.000000 0.000000 0.050639
#
#
# Mechanical properties :
#
#
# Convention : Reuss Voigt Hill
#
# Bulk Modulus (GPa) = 77.95043 10.54029 44.24536
# Shear Modulus (GPa) = 21.57103 13.22557 17.39830
#
# Velocity S-wave (km/s) = 3.30818 2.59036 2.97103
# Velocity P-wave (km/s) = 7.35800 3.78077 5.84955
#
# Compressibility (1/GPa) = 0.01282867
#
# Stress axis : x y z
#
# Youngs Moduli (GPa) = 204.47451 66.34122 47.78600
#
# Poissons Ratio (x) = -0.89570 1.00094
# Poissons Ratio (y) = -2.76070 0.31473
# Poissons Ratio (z) = 4.28300 0.43693
#
# Static dielectric constant tensor:
#      x y z
#    x 1.707600 0.000000 0.000000 
#    y 0.000000 1.741370 0.000000 
#    z 0.000000 0.000000 1.652450 
# 
# From -- ./inp_files/2043.got.cif
#   From: 2010.05.17/outbox.ucp.g08.bks.cvg/sg49_2_cif.got.tgz:2043.got - 2010.06.11 16:40:14.
