data_PCOD9395865
_publ_section_title
;
Structure prediction by ZEFSAII (Michael W. Deem and Ramdas Pophale) SiO2 
 PCOD9395865
Probable space group: P B A N
;
_chemical_formula_sum "Si O2"
_cell_formula_units_Z 48
_cell_length_a 13.690166
_cell_length_b 8.659936
_cell_length_c 17.717886
_cell_angle_alpha 90.000000
_cell_angle_beta 90.000000
_cell_angle_gamma 90.000000
_cell_volume 2100.561009
_symmetry_space_group_name_H-M "P B A N"
_symmetry_group_IT_number 50
_space_group.IT_coordinate_system_code '2'
_symmetry_cell_setting 'orthorhombic'
loop_
_space_group_symop_operation_xyz
x,y,z
1/2-x,1/2-y,z
x,1/2-y,-z
1/2-x,y,-z
-x,-y,-z
1/2+x,1/2+y,-z
-x,1/2+y,z
1/2+x,-y,z
loop_
_atom_site_type_symbol
_atom_site_label
_atom_site_fract_x
_atom_site_fract_y
_atom_site_fract_z
Si Si1 0.402452 0.161792 0.815340
Si Si2 0.857876 0.423035 0.669761
Si Si3 0.293438 0.407669 0.416537
Si Si4 0.561284 0.388296 0.054348
Si Si5 0.536902 0.755288 0.351513
Si Si6 0.295432 0.491389 0.831252
O O1 0.488932 0.150286 0.875655
O O2 0.439522 0.165532 0.729618
O O3 0.346268 0.323552 0.824456
O O4 0.320776 0.030645 0.827996
O O5 0.754925 0.454731 0.629297
O O6 0.923063 0.579744 0.652378
O O7 0.833587 0.415940 0.758364
O O8 0.921703 0.280672 0.640356
O O9 0.250000 0.250000 0.378740
O O10 0.250000 0.416965 0.500000
O O11 0.406287 0.362167 0.412391
O O12 0.660820 0.446332 0.091629
O O13 0.585034 0.250000 0.000000
O O14 0.500000 0.500000 0.000000
#
# Coordination Sequence:
#
# PCOD9395865 Si02
#       6
#     8   8   8   8   8   8
#     4  10  20  38  63  84 111 156 201 237 289 355
#     4  10  19  34  60  86 114 155 199 239 288 349
#     4   9  18  34  57  88 120 153 200 247 284 345
#     4  12  24  40  60  86 120 149 187 250 304 345
#     4  10  19  34  60  86 114 154 200 238 289 351
#     4  10  20  38  63  85 111 155 203 237 285 359
#
# _framework density 22.851037999999999
#
# number of rings (size 3 to 8) (size 9 to 14) (size 15 to 20)
#    0.000    1.833    5.000    0.000    0.000    1.333 
#    0.000    2.500    0.000    1.000    0.000    0.000 
#    0.000    0.000    0.000    0.000    0.000    0.000 
#
# Total GULP energy -268078.729079 kJ/mol
# GULP energy per Si atom -5584.973522 kJ/mol
# Density = 2.279903 g / cm^3
# Si number density = 22.851038 Si / 1000 Ang^3
#
#
#
# Elastic Constant Matrix: (Units=GPa)
#
#
# Indices 1 2 3 4 5 6 
#
# 1 80.2856 19.9717 7.5025 0.0000 0.0000 0.0000
# 2 19.9717 32.0608 10.9815 0.0000 0.0000 0.0000
# 3 7.5025 10.9815 87.5725 0.0000 0.0000 0.0000
# 4 0.0000 0.0000 0.0000 12.8416 0.0000 0.0000
# 5 0.0000 0.0000 0.0000 0.0000 17.6586 0.0000
# 6 0.0000 0.0000 0.0000 0.0000 0.0000 38.4321
#
#
#
# Elastic Compliance Matrix: (Units=1/GPa)
#
#
# Indices 1 2 3 4 5 6 
#
# 1 0.014741 -0.009143 -0.000116 0.000000 0.000000 0.000000
# 2 -0.009143 0.038261 -0.004015 0.000000 0.000000 0.000000
# 3 -0.000116 -0.004015 0.011933 0.000000 0.000000 0.000000
# 4 0.000000 0.000000 0.000000 0.077872 0.000000 0.000000
# 5 0.000000 0.000000 0.000000 0.000000 0.056630 0.000000
# 6 0.000000 0.000000 0.000000 0.000000 0.000000 0.026020
#
#
# Mechanical properties :
#
#
# Convention : Reuss Voigt Hill
#
# Bulk Modulus (GPa) = 26.05049 30.75893 28.40471
# Shear Modulus (GPa) = 18.88227 24.55067 21.71647
#
# Velocity S-wave (km/s) = 2.87770 3.28133 3.08612
# Velocity P-wave (km/s) = 4.73987 5.27693 5.01560
#
# Compressibility (1/GPa) = 0.03838700
#
# Stress axis : x y z
#
# Youngs Moduli (GPa) = 67.83942 26.13628 83.80468
#
# Poissons Ratio (x) = 0.23895 0.00975
# Poissons Ratio (y) = 0.62023 0.33645
# Poissons Ratio (z) = 0.00790 0.10493
#
# Static dielectric constant tensor:
#      x y z
#    x 1.913570 0.000000 0.000000 
#    y 0.000000 1.904460 0.000000 
#    z 0.000000 0.000000 1.830990 
# 
# From -- ./inp_files/28692.got.cif
#   From: 2010.05.17/outbox.cif.g08.bks.cpg/sg50_15_cif.got.tgz:28692.got - 2010.06.03 11:33:33.
