data_PCOD9395216
_publ_section_title
;
Structure prediction by ZEFSAII (Michael W. Deem and Ramdas Pophale) SiO2 
 PCOD9395216
Probable space group: P C C M
;
_chemical_formula_sum "Si O2"
_cell_formula_units_Z 64
_cell_length_a 24.000000
_cell_length_b 18.000000
_cell_length_c 9.000000
_cell_angle_alpha 90.000000
_cell_angle_beta 90.000000
_cell_angle_gamma 90.000000
_cell_volume 3888.000000
_symmetry_space_group_name_H-M "P C C M"
_symmetry_group_IT_number 49
_symmetry_cell_setting 'orthorhombic'
loop_
_space_group_symop_operation_xyz
x,y,z
-x,-y,z
x,-y,1/2-z
-x,y,1/2-z
-x,-y,-z
x,y,-z
-x,y,1/2+z
x,-y,1/2+z
loop_
_atom_site_type_symbol
_atom_site_label
_atom_site_fract_x
_atom_site_fract_y
_atom_site_fract_z
Si Si1 0.274910 0.421154 0.174176
Si Si2 0.855094 0.817271 0.171594
Si Si3 0.748687 0.073965 0.668429
Si Si4 0.444515 0.736188 0.679059
Si Si5 0.060915 0.075773 0.677740
Si Si6 0.594660 0.579196 0.826123
Si Si7 0.222794 0.709714 0.824184
Si Si8 0.324667 0.200744 0.819683
O O1 0.274337 0.500000 0.250000
O O2 0.340087 0.398214 0.185167
O O3 0.233045 0.372616 0.269129
O O4 0.261022 0.420395 0.000000
O O5 0.801129 0.871090 0.173884
O O6 0.901884 0.856030 0.269529
O O7 0.831149 0.743493 0.245250
O O8 0.872273 0.808416 0.000000
O O9 0.737691 0.054019 0.500000
O O10 0.694481 0.118066 0.723200
O O11 0.762843 0.000000 0.750000
O O12 0.500000 0.768626 0.750000
O O13 0.448455 0.735312 0.500000
O O14 0.437755 0.650726 0.732529
O O15 0.387382 0.778117 0.717651
O O16 0.057941 0.068936 0.500000
O O17 0.000000 0.083664 0.750000
O O18 0.084865 0.000000 0.750000
O O19 0.585167 0.500000 0.750000
O O20 0.582176 0.569783 0.000000
O O21 0.278499 0.749390 0.760734
O O22 0.219726 0.718535 0.000000
O O23 0.317289 0.209300 0.000000
#
# Coordination Sequence:
#
# PCOD9395216 Si02
#       8
#     8   8   8   8   8   8   8   8
#     4  10  18  31  48  68  95 128 161 194 239 291
#     4  10  20  34  50  71 101 137 169 205 249 288
#     4   9  18  30  49  71  93 120 149 188 238 287
#     4  10  20  34  49  65  86 115 151 191 235 283
#     4  11  21  34  51  73 103 142 183 218 251 292
#     4   9  18  31  47  64  87 118 149 186 227 275
#     4  11  20  30  48  74  98 125 161 202 244 291
#     4   9  18  35  50  63  90 124 151 184 238 294
#
# _framework density 16.460905
#
# number of rings (size 3 to 8) (size 9 to 14) (size 15 to 20)
#    0.000    2.125    1.250    4.500    0.000    5.250 
#    0.000    1.250    0.000    0.375    0.000    2.625 
#    0.000    0.500    0.000    5.000    0.000    3.000 
#
# Total GULP energy -356511.840106 kJ/mol
# GULP energy per Si atom -5570.497502 kJ/mol
# Density = 1.642344 g / cm^3
# Si number density = 16.460905 Si / 1000 Ang^3
#
#
#
# Elastic Constant Matrix: (Units=GPa)
#
#
# Indices 1 2 3 4 5 6 
#
# 1 52.6274 11.0219 25.7961 0.0000 0.0000 0.0000
# 2 11.0219 13.5878 14.6660 0.0000 0.0000 0.0000
# 3 25.7961 14.6660 59.7221 0.0000 0.0000 0.0000
# 4 0.0000 0.0000 0.0000 14.5013 0.0000 0.0000
# 5 0.0000 0.0000 0.0000 0.0000 23.0792 0.0000
# 6 0.0000 0.0000 0.0000 0.0000 0.0000 20.1677
#
#
#
# Elastic Compliance Matrix: (Units=1/GPa)
#
#
# Indices 1 2 3 4 5 6 
#
# 1 0.025455 -0.011948 -0.008061 0.000000 0.000000 0.000000
# 2 -0.011948 0.105745 -0.020807 0.000000 0.000000 0.000000
# 3 -0.008061 -0.020807 0.025336 0.000000 0.000000 0.000000
# 4 0.000000 0.000000 0.000000 0.068959 0.000000 0.000000
# 5 0.000000 0.000000 0.000000 0.000000 0.043329 0.000000
# 6 0.000000 0.000000 0.000000 0.000000 0.000000 0.049584
#
#
# Mechanical properties :
#
#
# Convention : Reuss Voigt Hill
#
# Bulk Modulus (GPa) = 13.35038 25.43393 19.39215
# Shear Modulus (GPa) = 11.76449 16.51320 14.13884
#
# Velocity S-wave (km/s) = 2.67627 3.17073 2.93394
# Velocity P-wave (km/s) = 4.20451 5.37488 4.82531
#
# Compressibility (1/GPa) = 0.07490424
#
# Stress axis : x y z
#
# Youngs Moduli (GPa) = 39.28519 9.45669 39.47012
#
# Poissons Ratio (x) = 0.11298 0.31816
# Poissons Ratio (y) = 0.46936 0.82126
# Poissons Ratio (z) = 0.31667 0.19677
#
# Static dielectric constant tensor:
#      x y z
#    x 1.564050 0.000000 0.000000 
#    y 0.000000 1.625920 0.000000 
#    z 0.000000 0.000000 1.548580 
# 
# From -- ./inp_files/5400.got.cif
#   From: 2010.05.17/outbox.ucp.g08.bks.cvg/sg49_3_cif.got.tgz:5400.got - 2010.06.11 16:40:14.
