data_PCOD9395001
_publ_section_title
;
Structure prediction by ZEFSAII (Michael W. Deem and Ramdas Pophale) SiO2 
 PCOD9395001
Probable space group: P C C M
;
_chemical_formula_sum "Si O2"
_cell_formula_units_Z 52
_cell_length_a 15.081662
_cell_length_b 9.706171
_cell_length_c 16.294125
_cell_angle_alpha 90.000000
_cell_angle_beta 90.000000
_cell_angle_gamma 90.000000
_cell_volume 2385.218589
_symmetry_space_group_name_H-M "P C C M"
_symmetry_group_IT_number 49
_symmetry_cell_setting 'orthorhombic'
loop_
_space_group_symop_operation_xyz
x,y,z
-x,-y,z
x,-y,1/2-z
-x,y,1/2-z
-x,-y,-z
x,y,-z
-x,y,1/2+z
x,-y,1/2+z
loop_
_atom_site_type_symbol
_atom_site_label
_atom_site_fract_x
_atom_site_fract_y
_atom_site_fract_z
Si Si1 0.343852 0.796191 0.883155
Si Si2 0.990819 0.344506 0.350289
Si Si3 0.640822 0.212754 0.687411
Si Si4 0.836580 0.156994 0.662358
Si Si5 0.605129 0.481659 0.409418
Si Si6 0.854395 0.142096 0.861433
Si Si7 0.500000 0.000000 0.881301
O O1 0.352598 0.802478 0.784551
O O2 0.357712 0.635951 0.904289
O O3 0.241758 0.832807 0.900872
O O4 0.419918 0.900723 0.915621
O O5 0.894156 0.283746 0.368777
O O6 0.000000 0.500000 0.378429
O O7 0.000000 0.343314 0.250000
O O8 0.068576 0.247426 0.384437
O O9 0.732025 0.160631 0.646717
O O10 0.631391 0.370925 0.659119
O O11 0.559091 0.117518 0.661775
O O12 0.843791 0.156631 0.761938
O O13 0.878051 0.017302 0.627652
O O14 0.500000 0.500000 0.403554
O O15 0.626502 0.423161 0.500000
#
# Coordination Sequence:
#
# PCOD9395001 Si02
#       7
#     8   8   8   8   8   8   4
#     4  11  21  35  58  84 109 143 185 229 275 326
#     4   9  17  27  41  69 111 148 177 214 264 322
#     4  11  21  35  58  84 109 143 185 229 275 326
#     4   9  17  29  47  74 107 142 177 218 272 326
#     4  11  25  41  53  74 111 152 188 225 273 330
#     4   9  17  29  47  74 107 142 177 218 272 326
#     4  12  21  34  57  88 117 138 181 238 281 320
#
# _framework density 21.800936
#
# number of rings (size 3 to 8) (size 9 to 14) (size 15 to 20)
#    0.000    1.846    3.077    2.308    2.154    2.462 
#    0.000    1.538    0.000    0.000    0.000    2.154 
#    0.000    2.462    0.000    0.000    0.000    0.000 
#
# Total GULP energy -290095.559205 kJ/mol
# GULP energy per Si atom -5578.760754 kJ/mol
# Density = 2.175132 g / cm^3
# Si number density = 21.800936 Si / 1000 Ang^3
#
#
#
# Elastic Constant Matrix: (Units=GPa)
#
#
# Indices 1 2 3 4 5 6 
#
# 1 131.7281 53.4673 21.7323 0.0000 0.0000 0.0000
# 2 53.4673 139.9664 19.3974 0.0000 0.0000 0.0000
# 3 21.7323 19.3974 43.9014 0.0000 0.0000 0.0000
# 4 0.0000 0.0000 0.0000 13.9800 0.0000 0.0000
# 5 0.0000 0.0000 0.0000 0.0000 11.8130 0.0000
# 6 0.0000 0.0000 0.0000 0.0000 0.0000 38.3707
#
#
#
# Elastic Compliance Matrix: (Units=1/GPa)
#
#
# Indices 1 2 3 4 5 6 
#
# 1 0.009405 -0.003140 -0.003268 0.000000 0.000000 0.000000
# 2 -0.003140 0.008659 -0.002272 0.000000 0.000000 0.000000
# 3 -0.003268 -0.002272 0.025400 0.000000 0.000000 0.000000
# 4 0.000000 0.000000 0.000000 0.071531 0.000000 0.000000
# 5 0.000000 0.000000 0.000000 0.000000 0.084652 0.000000
# 6 0.000000 0.000000 0.000000 0.000000 0.000000 0.026062
#
#
# Mechanical properties :
#
#
# Convention : Reuss Voigt Hill
#
# Bulk Modulus (GPa) = 38.30794 56.08776 47.19785
# Shear Modulus (GPa) = 19.85947 27.56600 23.71273
#
# Velocity S-wave (km/s) = 3.02146 3.55976 3.30160
# Velocity P-wave (km/s) = 5.45730 6.53291 6.01918
#
# Compressibility (1/GPa) = 0.02610425
#
# Stress axis : x y z
#
# Youngs Moduli (GPa) = 106.32618 115.48983 39.37014
#
# Poissons Ratio (x) = 0.36261 0.12868
# Poissons Ratio (y) = 0.33384 0.08943
# Poissons Ratio (z) = 0.34752 0.26234
#
# Static dielectric constant tensor:
#      x y z
#    x 1.775210 0.000000 0.000000 
#    y 0.000000 1.878460 0.000000 
#    z 0.000000 0.000000 1.853150 
# 
# From -- ./inp_files/17202.got.cif
#   From: 2010.05.17/outbox.cif.g08.bks.cpg/sg49_9_cif.got.tgz:17202.got - 2010.06.03 21:02:19.
