data_PCOD9395768
_publ_section_title
;
Structure prediction by ZEFSAII (Michael W. Deem and Ramdas Pophale) SiO2 
 PCOD9395768
Probable space group: P B A N
;
_chemical_formula_sum "Si O2"
_cell_formula_units_Z 58
_cell_length_a 10.134514
_cell_length_b 24.129046
_cell_length_c 13.156439
_cell_angle_alpha 90.000000
_cell_angle_beta 90.000000
_cell_angle_gamma 90.000000
_cell_volume 3217.225000
_symmetry_space_group_name_H-M "P B A N"
_symmetry_group_IT_number 50
_space_group.IT_coordinate_system_code '2'
_symmetry_cell_setting 'orthorhombic'
loop_
_space_group_symop_operation_xyz
x,y,z
1/2-x,1/2-y,z
x,1/2-y,-z
1/2-x,y,-z
-x,-y,-z
1/2+x,1/2+y,-z
-x,1/2+y,z
1/2+x,-y,z
loop_
_atom_site_type_symbol
_atom_site_label
_atom_site_fract_x
_atom_site_fract_y
_atom_site_fract_z
Si Si1 0.601122 0.144107 0.992943
Si Si2 0.873493 0.648895 0.372666
Si Si3 0.250000 0.250000 0.500000
Si Si4 0.107358 0.044897 0.524280
Si Si5 0.902766 0.312760 0.213561
Si Si6 0.894824 0.315066 0.765269
Si Si7 0.399746 0.452170 0.959380
Si Si8 0.623929 0.902309 0.738344
O O1 0.585105 0.171818 0.883994
O O2 0.750000 0.117800 0.000000
O O3 0.599766 0.184615 0.090274
O O4 0.479539 0.102343 0.004845
O O5 0.831445 0.706606 0.428284
O O6 0.893837 0.601391 0.457626
O O7 0.760393 0.628102 0.293812
O O8 0.006064 0.654411 0.308521
O O9 0.250000 0.019832 0.500000
O O10 0.092982 0.061057 0.640906
O O11 0.000000 0.000000 0.500000
O O12 0.920916 0.250115 0.248208
O O13 0.758081 0.329580 0.253095
O O14 0.014809 0.354619 0.248258
O O15 0.380720 0.440818 0.838555
O O16 0.250000 0.458657 0.000000
O O17 0.500000 0.500000 0.000000
#
# Coordination Sequence:
#
# PCOD9395768 Si02
#       8
#     8   8   2   8   8   8   8   8
#     4   9  18  35  55  79 116 156 195 240 295 374
#     4  11  22  38  63  89 114 162 206 259 318 379
#     4  12  20  40  68  86 130 156 216 268 328 388
#     4  10  23  42  61  85 113 154 211 252 308 364
#     4   9  19  34  54  85 120 154 190 243 312 369
#     4  10  19  32  57  86 117 152 198 242 305 372
#     4  11  23  37  57  86 118 153 198 252 307 373
#     4  10  21  41  60  82 120 154 203 251 311 375
#
# _framework density 18.02796
#
# number of rings (size 3 to 8) (size 9 to 14) (size 15 to 20)
#    0.000    1.931    2.069    2.483    0.000    6.069 
#    0.000    0.000    0.000    2.483    0.000    0.000 
#    0.000    0.000    0.000    0.000    0.000    0.000 
#
# Total GULP energy -323167.590588 kJ/mol
# GULP energy per Si atom -5571.855010 kJ/mol
# Density = 1.798693 g / cm^3
# Si number density = 18.027960 Si / 1000 Ang^3
#
#
#
# Elastic Constant Matrix: (Units=GPa)
#
#
# Indices 1 2 3 4 5 6 
#
# 1 135.9994 66.6827 85.3864 0.0000 0.0000 0.0000
# 2 66.6827 74.3294 44.7291 0.0000 0.0000 0.0000
# 3 85.3864 44.7291 120.0661 0.0000 0.0000 0.0000
# 4 0.0000 0.0000 0.0000 120.8131 0.0000 0.0000
# 5 0.0000 0.0000 0.0000 0.0000 29.8230 0.0000
# 6 0.0000 0.0000 0.0000 0.0000 0.0000 42.0075
#
#
#
# Elastic Compliance Matrix: (Units=1/GPa)
#
#
# Indices 1 2 3 4 5 6 
#
# 1 0.018455 -0.011160 -0.008967 0.000000 0.000000 0.000000
# 2 -0.011160 0.024090 -0.001038 0.000000 0.000000 0.000000
# 3 -0.008967 -0.001038 0.015092 0.000000 0.000000 0.000000
# 4 0.000000 0.000000 0.000000 0.008277 0.000000 0.000000
# 5 0.000000 0.000000 0.000000 0.000000 0.033531 0.000000
# 6 0.000000 0.000000 0.000000 0.000000 0.000000 0.023805
#
#
# Mechanical properties :
#
#
# Convention : Reuss Voigt Hill
#
# Bulk Modulus (GPa) = 65.32676 80.44348 72.88512
# Shear Modulus (GPa) = 29.29411 47.43517 38.36464
#
# Velocity S-wave (km/s) = 4.03541 5.13509 4.61810
# Velocity P-wave (km/s) = 7.61759 8.93741 8.30376
#
# Compressibility (1/GPa) = 0.01530766
#
# Stress axis : x y z
#
# Youngs Moduli (GPa) = 54.18669 41.51045 66.25998
#
# Poissons Ratio (x) = 0.46327 0.59413
# Poissons Ratio (y) = 0.60474 0.06876
# Poissons Ratio (z) = 0.48587 0.04308
#
# Static dielectric constant tensor:
#      x y z
#    x 1.644050 0.000000 0.000000 
#    y 0.000000 1.624660 0.000000 
#    z 0.000000 0.000000 1.611740 
# 
# From -- ./inp_files/19433.got.cif
#   From: 2010.05.17/outbox.cif.g08.bks.cpg/sg50_10_cif.got.tgz:19433.got - 2010.06.03 11:33:33.
