data_PCOD9395368
_publ_section_title
;
Structure prediction by ZEFSAII (Michael W. Deem and Ramdas Pophale) SiO2 
 PCOD9395368
Probable space group: P B A N
;
_chemical_formula_sum "Si O2"
_cell_formula_units_Z 38
_cell_length_a 14.306476
_cell_length_b 13.716106
_cell_length_c 8.406356
_cell_angle_alpha 90.000000
_cell_angle_beta 90.000000
_cell_angle_gamma 90.000000
_cell_volume 1649.572019
_symmetry_space_group_name_H-M "P B A N"
_symmetry_group_IT_number 50
_space_group.IT_coordinate_system_code '2'
_symmetry_cell_setting 'orthorhombic'
loop_
_space_group_symop_operation_xyz
x,y,z
1/2-x,1/2-y,z
x,1/2-y,-z
1/2-x,y,-z
-x,-y,-z
1/2+x,1/2+y,-z
-x,1/2+y,z
1/2+x,-y,z
loop_
_atom_site_type_symbol
_atom_site_label
_atom_site_fract_x
_atom_site_fract_y
_atom_site_fract_z
Si Si1 0.614587 0.437176 0.830282
Si Si2 0.750000 0.250000 0.500000
Si Si3 0.609875 0.966115 0.497444
Si Si4 0.400221 0.774172 0.254754
Si Si5 0.438452 0.250000 0.500000
Si Si6 0.595631 0.011642 0.843596
O O1 0.645958 0.478017 0.658663
O O2 0.636583 0.321956 0.833846
O O3 0.501999 0.453411 0.841395
O O4 0.646407 0.495936 0.986828
O O5 0.678330 0.195889 0.616040
O O6 0.615482 0.850190 0.473982
O O7 0.500000 0.000000 0.500000
O O8 0.644067 0.985756 0.676752
O O9 0.491192 0.739111 0.351169
O O10 0.425644 0.872166 0.164585
#
# Coordination Sequence:
#
# PCOD9395368 Si02
#       6
#     8   2   8   8   4   8
#     4  10  19  30  50  75  99 134 170 213 271 316
#     4  10  24  32  54  72 100 164 198 194 250 298
#     4  10  16  28  43  67  99 129 161 201 257 320
#     4  11  18  34  49  73 110 140 177 214 243 311
#     4  11  16  27  46  68 100 137 159 202 254 295
#     4  10  19  30  50  75  99 134 170 213 271 316
#
# _framework density 23.036279
#
# number of rings (size 3 to 8) (size 9 to 14) (size 15 to 20)
#    0.000    1.684    8.421    1.895    0.000    0.000 
#    0.000    3.158    0.000    0.000    0.000    0.000 
#    0.000   30.316    0.000   43.158    0.000    0.000 
#
# Total GULP energy -211905.791631 kJ/mol
# GULP energy per Si atom -5576.468201 kJ/mol
# Density = 2.298385 g / cm^3
# Si number density = 23.036279 Si / 1000 Ang^3
#
#
#
# Elastic Constant Matrix: (Units=GPa)
#
#
# Indices 1 2 3 4 5 6 
#
# 1 70.9215 9.2100 11.9746 0.0000 0.0000 0.0000
# 2 9.2100 140.9384 25.5422 0.0000 0.0000 0.0000
# 3 11.9746 25.5422 179.3325 0.0000 0.0000 0.0000
# 4 0.0000 0.0000 0.0000 33.5912 0.0000 0.0000
# 5 0.0000 0.0000 0.0000 0.0000 -5.3769 0.0000
# 6 0.0000 0.0000 0.0000 0.0000 0.0000 -0.2535
#
#
#
# Elastic Compliance Matrix: (Units=1/GPa)
#
#
# Indices 1 2 3 4 5 6 
#
# 1 0.014345 -0.000784 -0.000846 0.000000 0.000000 0.000000
# 2 -0.000784 0.007326 -0.000991 0.000000 0.000000 0.000000
# 3 -0.000846 -0.000991 0.005774 0.000000 0.000000 0.000000
# 4 0.000000 0.000000 0.000000 0.029770 0.000000 0.000000
# 5 0.000000 0.000000 0.000000 0.000000 -0.185980 0.000000
# 6 0.000000 0.000000 0.000000 0.000000 0.000000 -3.944574
#
#
# Mechanical properties :
#
#
# Convention : Reuss Voigt Hill
#
# Bulk Modulus (GPa) = 45.04061 53.84955 49.44508
# Shear Modulus (GPa) = -1.23132 28.55652 13.66260
#
# Velocity S-wave (km/s) = -0.73190 3.52466 2.43799
# Velocity P-wave (km/s) = 4.34514 6.32385 5.42546
#
# Compressibility (1/GPa) = 0.02220219
#
# Stress axis : x y z
#
# Youngs Moduli (GPa) = 69.71171 136.49729 173.19315
#
# Poissons Ratio (x) = 0.10702 0.14655
# Poissons Ratio (y) = 0.05466 0.17165
# Poissons Ratio (z) = 0.05899 0.13528
#
# Static dielectric constant tensor:
#      x y z
#    x 1.889740 0.000000 0.000000 
#    y 0.000000 0.534220 0.000000 
#    z 0.000000 0.000000 1.992360 
# 
# From -- ./inp_files/14088.got.cif
#   From: 2010.05.17/outbox.cif.g08.bks.cpg/sg50_8_cif.got.tgz:14088.got - 2010.06.03 11:33:33.
