data_PCOD9395946
_publ_section_title
;
Structure prediction by ZEFSAII (Michael W. Deem and Ramdas Pophale) SiO2 
 PCOD9395946
Probable space group: P B A N
;
_chemical_formula_sum "Si O2"
_cell_formula_units_Z 58
_cell_length_a 15.621377
_cell_length_b 8.595464
_cell_length_c 17.919850
_cell_angle_alpha 90.000000
_cell_angle_beta 90.000000
_cell_angle_gamma 90.000000
_cell_volume 2406.151726
_symmetry_space_group_name_H-M "P B A N"
_symmetry_group_IT_number 50
_space_group.IT_coordinate_system_code '2'
_symmetry_cell_setting 'orthorhombic'
loop_
_space_group_symop_operation_xyz
x,y,z
1/2-x,1/2-y,z
x,1/2-y,-z
1/2-x,y,-z
-x,-y,-z
1/2+x,1/2+y,-z
-x,1/2+y,z
1/2+x,-y,z
loop_
_atom_site_type_symbol
_atom_site_label
_atom_site_fract_x
_atom_site_fract_y
_atom_site_fract_z
Si Si1 0.750000 0.750000 0.000000
Si Si2 0.440565 0.310745 0.670749
Si Si3 0.364176 0.743648 0.680506
Si Si4 0.655127 0.238158 0.851581
Si Si5 0.141133 0.422644 0.185706
Si Si6 0.635206 0.510428 0.443113
Si Si7 0.818110 0.552403 0.389188
Si Si8 0.336462 0.412997 0.134553
O O1 0.693585 0.638129 0.947802
O O2 0.535135 0.271949 0.693617
O O3 0.397399 0.424752 0.730914
O O4 0.443387 0.395017 0.590489
O O5 0.378309 0.165903 0.657616
O O6 0.334209 0.704621 0.763462
O O7 0.361709 0.647659 0.603094
O O8 0.313563 0.899155 0.659920
O O9 0.750000 0.250000 0.887282
O O10 0.620629 0.415512 0.860653
O O11 0.613388 0.067619 0.868125
O O12 0.245462 0.423232 0.180001
O O13 0.116057 0.244175 0.162204
O O14 0.721502 0.595756 0.412631
O O15 0.639117 0.511634 0.531169
#
# Coordination Sequence:
#
# PCOD9395946 Si02
#       8
#     2   8   8   8   8   8   8   8
#     4   8  16  36  58 100 144 150 206 252 304 356
#     4  12  24  37  57  84 115 151 199 268 321 375
#     4  12  24  37  58  83 115 151 200 264 325 373
#     4  10  19  36  59  86 119 161 203 245 308 372
#     4   9  19  34  55  84 122 153 198 245 306 364
#     4  11  24  42  56  79 108 152 207 260 321 401
#     4  11  25  39  59  77 106 156 207 257 328 397
#     4   9  19  34  62  94 122 169 192 248 303 359
#
# _framework density 24.104880999999999
#
# number of rings (size 3 to 8) (size 9 to 14) (size 15 to 20)
#    0.000    1.655    1.379    4.138    5.793    5.517 
#    0.000    8.621    0.000    0.000    0.000    3.862 
#    0.000    0.000    0.000    0.000    0.000    0.000 
#
# Total GULP energy -323339.325335 kJ/mol
# GULP energy per Si atom -5574.815954 kJ/mol
# Density = 2.405002 g / cm^3
# Si number density = 24.104881 Si / 1000 Ang^3
#
#
#
# Elastic Constant Matrix: (Units=GPa)
#
#
# Indices 1 2 3 4 5 6 
#
# 1 57.4609 -9.1014 9.0364 0.0000 0.0000 0.0000
# 2 -9.1014 153.8803 8.0223 0.0000 0.0000 0.0000
# 3 9.0364 8.0223 75.2879 0.0000 0.0000 0.0000
# 4 0.0000 0.0000 0.0000 -35.1617 0.0000 0.0000
# 5 0.0000 0.0000 0.0000 0.0000 -1.7585 0.0000
# 6 0.0000 0.0000 0.0000 0.0000 0.0000 20.8248
#
#
#
# Elastic Compliance Matrix: (Units=1/GPa)
#
#
# Indices 1 2 3 4 5 6 
#
# 1 0.017949 0.001180 -0.002280 0.000000 0.000000 0.000000
# 2 0.001180 0.006612 -0.000846 0.000000 0.000000 0.000000
# 3 -0.002280 -0.000846 0.013646 0.000000 0.000000 0.000000
# 4 0.000000 0.000000 0.000000 -0.028440 0.000000 0.000000
# 5 0.000000 0.000000 0.000000 0.000000 -0.568653 0.000000
# 6 0.000000 0.000000 0.000000 0.000000 0.000000 0.048020
#
#
# Mechanical properties :
#
#
# Convention : Reuss Voigt Hill
#
# Bulk Modulus (GPa) = 29.14124 33.61594 31.37859
# Shear Modulus (GPa) = -10.09009 15.35903 2.63447
#
# Velocity S-wave (km/s) = -2.04817 2.52697 1.04656
# Velocity P-wave (km/s) = 2.55387 4.74237 3.80870
#
# Compressibility (1/GPa) = 0.03431563
#
# Stress axis : x y z
#
# Youngs Moduli (GPa) = 55.71436 151.22877 73.28053
#
# Poissons Ratio (x) = -0.17852 0.16708
# Poissons Ratio (y) = -0.06577 0.06202
# Poissons Ratio (z) = 0.12703 0.12798
#
# Static dielectric constant tensor:
#      x y z
#    x 1.941890 0.000000 0.000000 
#    y 0.000000 2.185740 0.000000 
#    z 0.000000 0.000000 1.871430 
# 
# From -- ./inp_files/29701.got.cif
#   From: 2010.05.17/outbox.cif.g08.bks.cpg/sg50_15_cif.got.tgz:29701.got - 2010.06.03 11:33:33.
