data_PCOD9395452
_publ_section_title
;
Structure prediction by ZEFSAII (Michael W. Deem and Ramdas Pophale) SiO2 
 PCOD9395452
Probable space group: P B A N
;
_chemical_formula_sum "Si O2"
_cell_formula_units_Z 32
_cell_length_a 5.905075
_cell_length_b 28.468039
_cell_length_c 9.046817
_cell_angle_alpha 90.000000
_cell_angle_beta 90.000000
_cell_angle_gamma 90.000000
_cell_volume 1520.823363
_symmetry_space_group_name_H-M "P B A N"
_symmetry_group_IT_number 50
_space_group.IT_coordinate_system_code '2'
_symmetry_cell_setting 'orthorhombic'
loop_
_space_group_symop_operation_xyz
x,y,z
1/2-x,1/2-y,z
x,1/2-y,-z
1/2-x,y,-z
-x,-y,-z
1/2+x,1/2+y,-z
-x,1/2+y,z
1/2+x,-y,z
loop_
_atom_site_type_symbol
_atom_site_label
_atom_site_fract_x
_atom_site_fract_y
_atom_site_fract_z
Si Si1 0.826169 0.511157 0.784833
Si Si2 0.370200 0.107783 0.343500
Si Si3 0.250000 0.750000 0.000000
Si Si4 0.557630 0.709973 0.248904
Si Si5 0.750000 0.450247 0.500000
Si Si6 0.750000 0.250000 0.500000
O O1 0.585105 0.492111 0.849433
O O2 0.772419 0.565783 0.754771
O O3 0.855838 0.484713 0.624923
O O4 0.250000 0.115021 0.500000
O O5 0.363516 0.156650 0.258534
O O6 0.605394 0.085134 0.398422
O O7 0.405611 0.718829 0.105705
O O8 0.750000 0.750000 0.249610
O O9 0.405343 0.718877 0.393873
#
# Coordination Sequence:
#
# PCOD9395452 Si02
#       6
#     8   8   2   8   4   2
#     4  10  17  30  47  79 131 171 195 235 306 388
#     4  11  18  29  52  86 119 158 196 246 316 377
#     4  10  26  50  60  76 116 174 226 274 316 380
#     4  11  23  40  63  86 123 162 213 269 323 381
#     4  10  17  30  46  83 133 168 188 233 310 392
#     4  10  20  38  56  96 124 146 190 268 332 376
#
# _framework density 21.041232999999998
#
# number of rings (size 3 to 8) (size 9 to 14) (size 15 to 20)
#    0.000    1.500    3.750    4.500    0.000    2.000 
#    0.000    0.000    0.000    0.000    0.000    7.000 
#    0.000    0.000    0.000    0.000    0.000    0.000 
#
# Total GULP energy -178332.380608 kJ/mol
# GULP energy per Si atom -5572.886894 kJ/mol
# Density = 2.099334 g / cm^3
# Si number density = 21.041233 Si / 1000 Ang^3
#
#
#
# Elastic Constant Matrix: (Units=GPa)
#
#
# Indices 1 2 3 4 5 6 
#
# 1 110.3092 48.2450 38.3342 0.0000 0.0000 0.0000
# 2 48.2450 197.3288 33.3322 0.0000 0.0000 0.0000
# 3 38.3342 33.3322 67.6421 0.0000 0.0000 0.0000
# 4 0.0000 0.0000 0.0000 -0.2698 0.0000 0.0000
# 5 0.0000 0.0000 0.0000 0.0000 -67.9813 0.0000
# 6 0.0000 0.0000 0.0000 0.0000 0.0000 23.7738
#
#
#
# Elastic Compliance Matrix: (Units=1/GPa)
#
#
# Indices 1 2 3 4 5 6 
#
# 1 0.011930 -0.001936 -0.005807 0.000000 0.000000 0.000000
# 2 -0.001936 0.005842 -0.001782 0.000000 0.000000 0.000000
# 3 -0.005807 -0.001782 0.018953 0.000000 0.000000 0.000000
# 4 0.000000 0.000000 0.000000 -3.706231 0.000000 0.000000
# 5 0.000000 0.000000 0.000000 0.000000 -0.014710 0.000000
# 6 0.000000 0.000000 0.000000 0.000000 0.000000 0.042063
#
#
# Mechanical properties :
#
#
# Convention : Reuss Voigt Hill
#
# Bulk Modulus (GPa) = 56.57563 68.34476 62.46019
# Shear Modulus (GPa) = -1.38228 8.12914 3.37343
#
# Velocity S-wave (km/s) = -0.81140 1.96769 1.26757
# Velocity P-wave (km/s) = 5.10574 6.14120 5.64725
#
# Compressibility (1/GPa) = 0.01767546
#
# Stress axis : x y z
#
# Youngs Moduli (GPa) = 83.82107 171.17605 52.76312
#
# Poissons Ratio (x) = 0.33138 0.30640
# Poissons Ratio (y) = 0.16227 0.09400
# Poissons Ratio (z) = 0.48676 0.30497
#
# Static dielectric constant tensor:
#      x y z
#    x 1.906460 0.000000 0.000000 
#    y 0.000000 1.741330 0.000000 
#    z 0.000000 0.000000 1.755430 
# 
# From -- ./inp_files/7964.got.cif
#   From: 2010.05.17/outbox.cif.g08.bks.cpg/sg50_4_cif.got.tgz:7964.got - 2010.06.03 11:33:33.
