data_PCOD9395416
_publ_section_title
;
Structure prediction by ZEFSAII (Michael W. Deem and Ramdas Pophale) SiO2 
 PCOD9395416
Probable space group: P B A N
;
_chemical_formula_sum "Si O2"
_cell_formula_units_Z 52
_cell_length_a 15.353135
_cell_length_b 19.625371
_cell_length_c 8.727524
_cell_angle_alpha 90.000000
_cell_angle_beta 90.000000
_cell_angle_gamma 90.000000
_cell_volume 2629.698726
_symmetry_space_group_name_H-M "P B A N"
_symmetry_group_IT_number 50
_space_group.IT_coordinate_system_code '2'
_symmetry_cell_setting 'orthorhombic'
loop_
_space_group_symop_operation_xyz
x,y,z
1/2-x,1/2-y,z
x,1/2-y,-z
1/2-x,y,-z
-x,-y,-z
1/2+x,1/2+y,-z
-x,1/2+y,z
1/2+x,-y,z
loop_
_atom_site_type_symbol
_atom_site_label
_atom_site_fract_x
_atom_site_fract_y
_atom_site_fract_z
Si Si1 0.984411 0.867896 0.866274
Si Si2 0.750000 0.092149 0.500000
Si Si3 0.119516 0.978949 0.731331
Si Si4 0.847055 0.146029 0.778248
Si Si5 0.108870 0.750000 0.000000
Si Si6 0.750000 0.043562 0.000000
Si Si7 0.047592 0.119093 0.786699
Si Si8 0.350743 0.243780 0.814040
O O1 0.043372 0.924440 0.779351
O O2 0.049117 0.807877 0.923395
O O3 0.905552 0.826158 0.782877
O O4 0.949216 0.896660 0.029065
O O5 0.822889 0.048508 0.409728
O O6 0.793965 0.138597 0.626236
O O7 0.186630 0.990213 0.874721
O O8 0.079582 0.052597 0.699524
O O9 0.947990 0.133605 0.747596
O O10 0.837988 0.216289 0.865678
O O11 0.813173 0.089703 0.897122
O O12 0.099820 0.188638 0.757272
O O13 0.250000 0.250000 0.764592
O O14 0.351379 0.250000 0.000000
#
# Coordination Sequence:
#
# PCOD9395416 Si02
#       8
#     8   4   8   8   4   4   8   8
#     4  10  17  34  59  92 124 154 204 261 325 376
#     4  10  26  44  53  94 131 160 220 258 322 392
#     4  11  22  38  59  91 127 168 211 269 316 388
#     4  10  20  39  61  84 121 162 202 259 314 388
#     4  10  16  35  63  82 116 166 196 248 317 377
#     4  10  20  33  56  86 123 146 206 266 304 368
#     4  10  19  35  64  89 121 167 212 257 329 374
#     4   9  17  32  56  92 124 151 194 263 322 377
#
# _framework density 19.774128000000001
#
# number of rings (size 3 to 8) (size 9 to 14) (size 15 to 20)
#    0.000    2.000    6.923    0.462    0.000    3.385 
#    2.769    1.538    0.000    0.000    0.000    0.000 
#    0.000    0.000    0.000    0.000    0.000    0.000 
#
# Total GULP energy -289910.363402 kJ/mol
# GULP energy per Si atom -5575.199296 kJ/mol
# Density = 1.972912 g / cm^3
# Si number density = 19.774128 Si / 1000 Ang^3
#
#
#
# Elastic Constant Matrix: (Units=GPa)
#
#
# Indices 1 2 3 4 5 6 
#
# 1 131.8508 57.9734 20.9183 0.0000 0.0000 0.0000
# 2 57.9734 85.5558 25.5156 0.0000 0.0000 0.0000
# 3 20.9183 25.5156 67.1002 0.0000 0.0000 0.0000
# 4 0.0000 0.0000 0.0000 5.9115 0.0000 0.0000
# 5 0.0000 0.0000 0.0000 0.0000 11.6752 0.0000
# 6 0.0000 0.0000 0.0000 0.0000 0.0000 10.7416
#
#
#
# Elastic Compliance Matrix: (Units=1/GPa)
#
#
# Indices 1 2 3 4 5 6 
#
# 1 0.010829 -0.007141 -0.000661 0.000000 0.000000 0.000000
# 2 -0.007141 0.017892 -0.004578 0.000000 0.000000 0.000000
# 3 -0.000661 -0.004578 0.016850 0.000000 0.000000 0.000000
# 4 0.000000 0.000000 0.000000 0.169162 0.000000 0.000000
# 5 0.000000 0.000000 0.000000 0.000000 0.085652 0.000000
# 6 0.000000 0.000000 0.000000 0.000000 0.000000 0.093096
#
#
# Mechanical properties :
#
#
# Convention : Reuss Voigt Hill
#
# Bulk Modulus (GPa) = 48.04696 54.81348 51.43022
# Shear Modulus (GPa) = 11.75986 17.67230 14.71608
#
# Velocity S-wave (km/s) = 2.44131 2.99274 2.73098
# Velocity P-wave (km/s) = 5.68307 6.30253 6.00080
#
# Compressibility (1/GPa) = 0.02081297
#
# Stress axis : x y z
#
# Youngs Moduli (GPa) = 92.34606 55.89060 59.34840
#
# Poissons Ratio (x) = 0.39910 0.03920
# Poissons Ratio (y) = 0.65942 0.27167
# Poissons Ratio (z) = 0.06100 0.25584
#
# Static dielectric constant tensor:
#      x y z
#    x 1.746170 0.000000 0.000000 
#    y 0.000000 1.698250 0.000000 
#    z 0.000000 0.000000 1.668800 
# 
# From -- ./inp_files/13260.got.cif
#   From: 2010.05.17/outbox.cif.g08.bks.cpg/sg50_7_cif.got.tgz:13260.got - 2010.06.03 11:33:33.
