data_PCOD9395822
_publ_section_title
;
Structure prediction by ZEFSAII (Michael W. Deem and Ramdas Pophale) SiO2 
 PCOD9395822
Probable space group: P B A N
;
_chemical_formula_sum "Si O2"
_cell_formula_units_Z 48
_cell_length_a 14.073164
_cell_length_b 13.672765
_cell_length_c 12.540448
_cell_angle_alpha 90.000000
_cell_angle_beta 90.000000
_cell_angle_gamma 90.000000
_cell_volume 2413.021269
_symmetry_space_group_name_H-M "P B A N"
_symmetry_group_IT_number 50
_space_group.IT_coordinate_system_code '2'
_symmetry_cell_setting 'orthorhombic'
loop_
_space_group_symop_operation_xyz
x,y,z
1/2-x,1/2-y,z
x,1/2-y,-z
1/2-x,y,-z
-x,-y,-z
1/2+x,1/2+y,-z
-x,1/2+y,z
1/2+x,-y,z
loop_
_atom_site_type_symbol
_atom_site_label
_atom_site_fract_x
_atom_site_fract_y
_atom_site_fract_z
Si Si1 0.267458 0.497831 0.105417
Si Si2 0.890176 0.980226 0.282678
Si Si3 0.066084 0.885570 0.177127
Si Si4 0.063544 0.361968 0.970269
Si Si5 0.852224 0.781358 0.377406
Si Si6 0.472744 0.678567 0.747581
O O1 0.177509 0.470668 0.177634
O O2 0.336563 0.557735 0.180617
O O3 0.337000 0.416886 0.050465
O O4 0.250000 0.563202 0.000000
O O5 0.854117 0.899365 0.366272
O O6 0.992845 0.936117 0.256091
O O7 0.909623 0.094305 0.307685
O O8 0.081923 0.774121 0.211050
O O9 0.011002 0.893606 0.062578
O O10 0.011602 0.368561 0.856935
O O11 0.085561 0.250000 0.000000
O O12 0.750000 0.750000 0.330746
O O13 0.856774 0.750000 0.500000
O O14 0.937367 0.723835 0.316860
#
# Coordination Sequence:
#
# PCOD9395822 Si02
#       6
#     8   8   8   8   8   8
#     4  12  21  32  56  84 127 171 213 248 301 365
#     4  11  22  38  61  90 120 165 200 254 319 363
#     4  10  21  37  52  84 127 160 209 253 288 373
#     4  10  19  34  53  82 123 166 206 257 302 356
#     4  10  23  43  66  94 119 148 209 269 318 382
#     4  10  21  38  61  85 120 160 201 253 319 371
#
# _framework density 19.892074000000001
#
# number of rings (size 3 to 8) (size 9 to 14) (size 15 to 20)
#    0.000    1.500    3.333    2.500    0.000    1.667 
#    0.000    0.833    0.000    0.000    0.000    0.000 
#    0.000    0.000    0.000    0.000    0.000    0.000 
#
# Total GULP energy -267344.259332 kJ/mol
# GULP energy per Si atom -5569.672069 kJ/mol
# Density = 1.984680 g / cm^3
# Si number density = 19.892074 Si / 1000 Ang^3
#
#
#
# Elastic Constant Matrix: (Units=GPa)
#
#
# Indices 1 2 3 4 5 6 
#
# 1 57.2579 26.3986 2.4195 0.0000 0.0000 0.0000
# 2 26.3986 115.6348 14.3107 0.0000 0.0000 0.0000
# 3 2.4195 14.3107 45.1664 0.0000 0.0000 0.0000
# 4 0.0000 0.0000 0.0000 19.6296 0.0000 0.0000
# 5 0.0000 0.0000 0.0000 0.0000 12.1045 0.0000
# 6 0.0000 0.0000 0.0000 0.0000 0.0000 6.8712
#
#
#
# Elastic Compliance Matrix: (Units=1/GPa)
#
#
# Indices 1 2 3 4 5 6 
#
# 1 0.019526 -0.004505 0.000381 0.000000 0.000000 0.000000
# 2 -0.004505 0.010040 -0.002940 0.000000 0.000000 0.000000
# 3 0.000381 -0.002940 0.023051 0.000000 0.000000 0.000000
# 4 0.000000 0.000000 0.000000 0.050944 0.000000 0.000000
# 5 0.000000 0.000000 0.000000 0.000000 0.082614 0.000000
# 6 0.000000 0.000000 0.000000 0.000000 0.000000 0.145534
#
#
# Mechanical properties :
#
#
# Convention : Reuss Voigt Hill
#
# Bulk Modulus (GPa) = 25.98031 33.81297 29.89664
# Shear Modulus (GPa) = 13.94056 19.38308 16.66182
#
# Velocity S-wave (km/s) = 2.65015 3.12494 2.89729
# Velocity P-wave (km/s) = 4.73850 5.48229 5.12391
#
# Compressibility (1/GPa) = 0.03849068
#
# Stress axis : x y z
#
# Youngs Moduli (GPa) = 51.21470 99.60004 43.38131
#
# Poissons Ratio (x) = 0.44868 -0.01654
# Poissons Ratio (y) = 0.23071 0.12753
# Poissons Ratio (z) = -0.01953 0.29281
#
# Static dielectric constant tensor:
#      x y z
#    x 1.766370 0.000000 0.000000 
#    y 0.000000 1.788870 0.000000 
#    z 0.000000 0.000000 1.758750 
# 
# From -- ./inp_files/21075.got.cif
#   From: 2010.05.17/outbox.cif.g08.bks.cpg/sg50_11_cif.got.tgz:21075.got - 2010.06.03 11:33:33.
