data_PCOD9395650
_publ_section_title
;
Structure prediction by ZEFSAII (Michael W. Deem and Ramdas Pophale) SiO2 
 PCOD9395650
Probable space group: P B A N
;
_chemical_formula_sum "Si O2"
_cell_formula_units_Z 54
_cell_length_a 15.549417
_cell_length_b 10.868386
_cell_length_c 14.925591
_cell_angle_alpha 90.000000
_cell_angle_beta 90.000000
_cell_angle_gamma 90.000000
_cell_volume 2522.381088
_symmetry_space_group_name_H-M "P B A N"
_symmetry_group_IT_number 50
_space_group.IT_coordinate_system_code '2'
_symmetry_cell_setting 'orthorhombic'
loop_
_space_group_symop_operation_xyz
x,y,z
1/2-x,1/2-y,z
x,1/2-y,-z
1/2-x,y,-z
-x,-y,-z
1/2+x,1/2+y,-z
-x,1/2+y,z
1/2+x,-y,z
loop_
_atom_site_type_symbol
_atom_site_label
_atom_site_fract_x
_atom_site_fract_y
_atom_site_fract_z
Si Si1 0.464227 0.650510 0.239680
Si Si2 0.373225 0.055945 0.645806
Si Si3 0.174218 0.824879 0.841514
Si Si4 0.536548 0.331322 0.413014
Si Si5 0.219196 0.883082 0.635648
Si Si6 0.854781 0.596067 0.856621
Si Si7 0.250000 0.250000 0.720266
Si Si8 0.750000 0.750000 0.000000
O O1 0.416750 0.525347 0.273784
O O2 0.402208 0.730390 0.176657
O O3 0.473810 0.738153 0.327726
O O4 0.552191 0.625301 0.186604
O O5 0.452789 0.084475 0.582210
O O6 0.328944 0.185775 0.670008
O O7 0.293917 0.976045 0.610513
O O8 0.250000 0.750000 0.887932
O O9 0.210431 0.867492 0.743347
O O10 0.146521 0.953192 0.882780
O O11 0.547024 0.250000 0.500000
O O12 0.623210 0.408655 0.396740
O O13 0.250000 0.750000 0.602861
O O14 0.788542 0.639025 0.779034
O O15 0.815404 0.671130 0.939265
#
# Coordination Sequence:
#
# PCOD9395650 Si02
#       8
#     8   8   8   8   8   8   4   2
#     4  11  21  40  69  99 129 184 238 286 350 412
#     4  12  22  40  67  99 136 183 245 300 348 417
#     4  10  18  38  70 101 128 173 236 280 324 415
#     4  11  25  41  62 100 141 182 246 296 355 421
#     4  10  19  41  64  96 132 184 238 290 353 417
#     4  11  22  42  70  97 140 179 221 278 345 429
#     4  11  22  35  65  95 128 178 225 282 345 411
#     4  10  28  48  66 110 148 184 214 274 372 420
#
# _framework density 21.408344
#
# number of rings (size 3 to 8) (size 9 to 14) (size 15 to 20)
#    0.000    1.185    7.407    1.778    0.000    0.889 
#    0.000    2.963    3.259    0.000    0.000    0.000 
#    0.000    0.000    0.000    0.000    0.000    0.000 
#
# Total GULP energy -301551.284627 kJ/mol
# GULP energy per Si atom -5584.283049 kJ/mol
# Density = 2.135962 g / cm^3
# Si number density = 21.408344 Si / 1000 Ang^3
#
#
#
# Elastic Constant Matrix: (Units=GPa)
#
#
# Indices 1 2 3 4 5 6 
#
# 1 175.0605 41.9145 40.8473 0.0000 0.0000 0.0000
# 2 41.9145 89.1891 20.2060 0.0000 0.0000 0.0000
# 3 40.8473 20.2060 53.1958 0.0000 0.0000 0.0000
# 4 0.0000 0.0000 0.0000 5.2886 0.0000 0.0000
# 5 0.0000 0.0000 0.0000 0.0000-2082.4899 0.0000
# 6 0.0000 0.0000 0.0000 0.0000 0.0000 40.0810
#
#
#
# Elastic Compliance Matrix: (Units=1/GPa)
#
#
# Indices 1 2 3 4 5 6 
#
# 1 0.007399 -0.002396 -0.004772 0.000000 0.000000 0.000000
# 2 -0.002396 0.013044 -0.003115 0.000000 0.000000 0.000000
# 3 -0.004772 -0.003115 0.023645 0.000000 0.000000 0.000000
# 4 0.000000 0.000000 0.000000 0.189087 0.000000 0.000000
# 5 0.000000 0.000000 0.000000 0.000000 -0.000480 0.000000
# 6 0.000000 0.000000 0.000000 0.000000 0.000000 0.024949
#
#
# Mechanical properties :
#
#
# Convention : Reuss Voigt Hill
#
# Bulk Modulus (GPa) = 42.51001 58.15345 50.33173
# Shear Modulus (GPa) = 17.47937 -393.12555 -187.82309
#
# Velocity S-wave (km/s) = 2.86050 -13.56579 -9.37678
# Velocity P-wave (km/s) = 5.55066 14.76994 9.67836
#
# Compressibility (1/GPa) = 0.02352387
#
# Stress axis : x y z
#
# Youngs Moduli (GPa) = 135.14578 76.66413 42.29154
#
# Poissons Ratio (x) = 0.18372 0.20179
# Poissons Ratio (y) = 0.32386 0.13172
# Poissons Ratio (z) = 0.64485 0.23877
#
# Static dielectric constant tensor:
#      x y z
#    x 1.783730 0.000000 0.000000 
#    y 0.000000 1.826430 0.000000 
#    z 0.000000 0.000000 1.771000 
# 
# From -- ./inp_files/26524.got.cif
#   From: 2010.05.17/outbox.cif.g08.bks.cpg/sg50_14_cif.got.tgz:26524.got - 2010.06.03 11:33:33.
