data_PCOD9395263
_publ_section_title
;
Structure prediction by ZEFSAII (Michael W. Deem and Ramdas Pophale) SiO2 
 PCOD9395263
Probable space group: P C C M
;
_chemical_formula_sum "Si O2"
_cell_formula_units_Z 58
_cell_length_a 24.000000
_cell_length_b 15.000000
_cell_length_c 9.000000
_cell_angle_alpha 90.000000
_cell_angle_beta 90.000000
_cell_angle_gamma 90.000000
_cell_volume 3240.000000
_symmetry_space_group_name_H-M "P C C M"
_symmetry_group_IT_number 49
_symmetry_cell_setting 'orthorhombic'
loop_
_space_group_symop_operation_xyz
x,y,z
-x,-y,z
x,-y,1/2-z
-x,y,1/2-z
-x,-y,-z
x,y,-z
-x,y,1/2+z
x,-y,1/2+z
loop_
_atom_site_type_symbol
_atom_site_label
_atom_site_fract_x
_atom_site_fract_y
_atom_site_fract_z
Si Si1 0.792859 0.909103 0.670715
Si Si2 0.440018 0.585635 0.174601
Si Si3 0.629599 0.272905 0.328851
Si Si4 0.341820 0.090688 0.328444
Si Si5 0.266467 0.407080 0.828198
Si Si6 0.000000 0.500000 0.750000
Si Si7 0.052254 0.676820 0.333762
Si Si8 0.172816 0.275202 0.818845
O O1 0.811787 0.905998 0.500000
O O2 0.725497 0.910673 0.669719
O O3 0.810522 0.820844 0.757889
O O4 0.811814 0.000000 0.750000
O O5 0.410638 0.500000 0.250000
O O6 0.500000 0.589270 0.250000
O O7 0.411278 0.676728 0.218271
O O8 0.443175 0.571654 0.000000
O O9 0.609833 0.272768 0.500000
O O10 0.640924 0.174926 0.269375
O O11 0.684441 0.334537 0.323227
O O12 0.360478 0.097278 0.500000
O O13 0.361106 0.000000 0.250000
O O14 0.278191 0.500000 0.750000
O O15 0.213861 0.353180 0.765712
O O16 0.255858 0.428409 0.000000
O O17 0.039418 0.570459 0.666292
O O18 0.052648 0.710035 0.500000
O O19 0.111284 0.699387 0.266739
O O20 0.000000 0.717311 0.250000
O O21 0.175812 0.273885 0.000000
#
# Coordination Sequence:
#
# PCOD9395263 Si02
#       8
#     8   8   8   8   8   2   8   8
#     4  10  20  34  55  81 107 141 178 222 270 324
#     4  11  22  38  59  84 112 147 193 238 280 327
#     4  11  21  36  56  80 112 149 185 227 277 327
#     4  10  20  34  54  81 111 144 184 227 273 327
#     4  10  22  34  49  73 108 146 180 216 266 321
#     4   8  18  32  50  72 100 132 186 220 272 308
#     4   9  19  32  51  72  99 133 175 221 265 312
#     4  10  20  36  52  76 108 142 178 222 271 324
#
# _framework density 17.901235
#
# number of rings (size 3 to 8) (size 9 to 14) (size 15 to 20)
#    0.414    1.517    1.379    3.517    0.966    4.414 
#    0.000    0.000    0.000    0.828    0.000    5.793 
#    0.000    0.000    0.000    0.000    0.000    0.000 
#
# Total GULP energy -323009.512198 kJ/mol
# GULP energy per Si atom -5569.129521 kJ/mol
# Density = 1.786049 g / cm^3
# Si number density = 17.901235 Si / 1000 Ang^3
#
#
#
# Elastic Constant Matrix: (Units=GPa)
#
#
# Indices 1 2 3 4 5 6 
#
# 1 45.4799 19.5962 22.4965 0.0000 0.0000 0.0000
# 2 19.5962 128.3252 44.1377 0.0000 0.0000 0.0000
# 3 22.4965 44.1377 91.5828 0.0000 0.0000 0.0000
# 4 0.0000 0.0000 0.0000 27.9552 0.0000 0.0000
# 5 0.0000 0.0000 0.0000 0.0000 13.0140 0.0000
# 6 0.0000 0.0000 0.0000 0.0000 0.0000 12.6919
#
#
#
# Elastic Compliance Matrix: (Units=1/GPa)
#
#
# Indices 1 2 3 4 5 6 
#
# 1 0.025485 -0.002084 -0.005256 0.000000 0.000000 0.000000
# 2 -0.002084 0.009512 -0.004072 0.000000 0.000000 0.000000
# 3 -0.005256 -0.004072 0.014173 0.000000 0.000000 0.000000
# 4 0.000000 0.000000 0.000000 0.035772 0.000000 0.000000
# 5 0.000000 0.000000 0.000000 0.000000 0.076840 0.000000
# 6 0.000000 0.000000 0.000000 0.000000 0.000000 0.078790
#
#
# Mechanical properties :
#
#
# Convention : Reuss Voigt Hill
#
# Bulk Modulus (GPa) = 37.95696 48.64986 43.30341
# Shear Modulus (GPa) = 18.37035 22.67606 20.52320
#
# Velocity S-wave (km/s) = 3.20692 3.56298 3.38963
# Velocity P-wave (km/s) = 5.91287 6.64547 6.28984
#
# Compressibility (1/GPa) = 0.02634563
#
# Stress axis : x y z
#
# Youngs Moduli (GPa) = 39.23801 105.13525 70.55840
#
# Poissons Ratio (x) = 0.21911 0.37085
# Poissons Ratio (y) = 0.08177 0.28732
# Poissons Ratio (z) = 0.20623 0.42812
#
# Static dielectric constant tensor:
#      x y z
#    x 1.718860 0.000000 0.000000 
#    y 0.000000 1.618580 0.000000 
#    z 0.000000 0.000000 1.617730 
# 
# From -- ./inp_files/6439.got.cif
#   From: 2010.05.17/outbox.ucp.g08.bks.cvg/sg49_4_cif.got.tgz:6439.got - 2010.06.11 16:40:14.
