data_PCOD9395041
_publ_section_title
;
Structure prediction by ZEFSAII (Michael W. Deem and Ramdas Pophale) SiO2 
 PCOD9395041
Probable space group: P C C M
;
_chemical_formula_sum "Si O2"
_cell_formula_units_Z 48
_cell_length_a 11.442369
_cell_length_b 11.445444
_cell_length_c 20.257616
_cell_angle_alpha 90.000000
_cell_angle_beta 90.000000
_cell_angle_gamma 90.000000
_cell_volume 2652.998035
_symmetry_space_group_name_H-M "P C C M"
_symmetry_group_IT_number 49
_symmetry_cell_setting 'orthorhombic'
loop_
_space_group_symop_operation_xyz
x,y,z
-x,-y,z
x,-y,1/2-z
-x,y,1/2-z
-x,-y,-z
x,y,-z
-x,y,1/2+z
x,-y,1/2+z
loop_
_atom_site_type_symbol
_atom_site_label
_atom_site_fract_x
_atom_site_fract_y
_atom_site_fract_z
Si Si1 0.138832 0.001101 0.171289
Si Si2 0.261953 0.239625 0.872776
Si Si3 0.506637 0.870833 0.076154
Si Si4 0.736160 0.768771 0.617339
Si Si5 0.361359 0.360012 0.253841
Si Si6 0.146728 0.637079 0.500000
Si Si7 0.131876 0.359884 0.500000
O O1 0.193143 0.119381 0.141505
O O2 0.159774 0.000000 0.250000
O O3 0.196960 0.885021 0.141439
O O4 0.000000 0.000000 0.159675
O O5 0.393297 0.204750 0.891667
O O6 0.281320 0.312606 0.806028
O O7 0.203271 0.307532 0.933920
O O8 0.381979 0.811268 0.082140
O O9 0.500000 0.000000 0.107085
O O10 0.540895 0.884932 0.000000
O O11 0.694835 0.690776 0.679268
O O12 0.813703 0.698676 0.565126
O O13 0.359727 0.500000 0.250000
O O14 0.500000 0.324185 0.250000
O O15 0.161922 0.497292 0.500000
O O16 0.007510 0.657665 0.500000
#
# Coordination Sequence:
#
# PCOD9395041 Si02
#       7
#     8   8   8   8   8   4   4
#     4  11  24  40  63  94 128 163 205 260 312 369
#     4  12  22  42  66  93 128 163 209 256 317 375
#     4  11  22  37  60  95 131 161 191 250 324 383
#     4  12  22  42  66  93 128 163 209 256 317 375
#     4  11  24  39  61  94 130 167 206 254 312 377
#     4  11  26  46  65  88 124 172 220 261 302 361
#     4  11  26  46  65  88 124 172 220 261 302 361
#
# _framework density 18.092739000000002
#
# number of rings (size 3 to 8) (size 9 to 14) (size 15 to 20)
#    0.000    0.667    6.667    2.000    0.000    0.667 
#    0.000    5.000    0.000    4.000    0.000    0.000 
#    0.000    0.000    0.000    0.000    0.000    0.000 
#
# Total GULP energy -268131.515617 kJ/mol
# GULP energy per Si atom -5586.073242 kJ/mol
# Density = 1.805156 g / cm^3
# Si number density = 18.092739 Si / 1000 Ang^3
#
#
#
# Elastic Constant Matrix: (Units=GPa)
#
#
# Indices 1 2 3 4 5 6 
#
# 1 109.2571 66.2539 49.0022 0.0000 0.0000 0.0000
# 2 66.2539 129.6854 63.2008 0.0000 0.0000 0.0000
# 3 49.0022 63.2008 115.8840 0.0000 0.0000 0.0000
# 4 0.0000 0.0000 0.0000 8.1928 0.0000 0.0000
# 5 0.0000 0.0000 0.0000 0.0000 -3.0286 0.0000
# 6 0.0000 0.0000 0.0000 0.0000 0.0000 29.3757
#
#
#
# Elastic Compliance Matrix: (Units=1/GPa)
#
#
# Indices 1 2 3 4 5 6 
#
# 1 0.013865 -0.005756 -0.002724 0.000000 0.000000 0.000000
# 2 -0.005756 0.012892 -0.004597 0.000000 0.000000 0.000000
# 3 -0.002724 -0.004597 0.012288 0.000000 0.000000 0.000000
# 4 0.000000 0.000000 0.000000 0.122059 0.000000 0.000000
# 5 0.000000 0.000000 0.000000 0.000000 -0.330182 0.000000
# 6 0.000000 0.000000 0.000000 0.000000 0.000000 0.034042
#
#
# Mechanical properties :
#
#
# Convention : Reuss Voigt Hill
#
# Bulk Modulus (GPa) = 77.56997 79.08227 78.32612
# Shear Modulus (GPa) = -47.80755 18.66594 -14.57080
#
# Velocity S-wave (km/s) = -5.14597 3.21546 -2.84093
# Velocity P-wave (km/s) = 2.76743 7.58880 5.71177
#
# Compressibility (1/GPa) = 0.01289159
#
# Stress axis : x y z
#
# Youngs Moduli (GPa) = 72.12590 77.56832 81.37918
#
# Poissons Ratio (x) = 0.44647 0.22165
# Poissons Ratio (y) = 0.41515 0.37411
# Poissons Ratio (z) = 0.19644 0.35659
#
# Static dielectric constant tensor:
#      x y z
#    x 1.591820 0.000000 0.000000 
#    y 0.000000 1.627210 0.000000 
#    z 0.000000 0.000000 1.607600 
# 
# From -- ./inp_files/17145.got.cif
#   From: 2010.05.17/outbox.cif.g08.bks.cpg/sg49_9_cif.got.tgz:17145.got - 2010.06.03 21:02:19.
