data_PCOD9395011
_publ_section_title
;
Structure prediction by ZEFSAII (Michael W. Deem and Ramdas Pophale) SiO2 
 PCOD9395011
Probable space group: P C C M
;
_chemical_formula_sum "Si O2"
_cell_formula_units_Z 64
_cell_length_a 9.942197
_cell_length_b 18.963359
_cell_length_c 18.195167
_cell_angle_alpha 90.000000
_cell_angle_beta 90.000000
_cell_angle_gamma 90.000000
_cell_volume 3430.470406
_symmetry_space_group_name_H-M "P C C M"
_symmetry_group_IT_number 49
_symmetry_cell_setting 'orthorhombic'
loop_
_space_group_symop_operation_xyz
x,y,z
-x,-y,z
x,-y,1/2-z
-x,y,1/2-z
-x,-y,-z
x,y,-z
-x,y,1/2+z
x,-y,1/2+z
loop_
_atom_site_type_symbol
_atom_site_label
_atom_site_fract_x
_atom_site_fract_y
_atom_site_fract_z
Si Si1 0.139912 0.580775 0.655767
Si Si2 0.406016 0.311876 0.676101
Si Si3 0.754765 0.846769 0.859837
Si Si4 0.297978 0.154513 0.310995
Si Si5 0.837926 0.582867 0.332815
Si Si6 0.671055 0.696420 0.913000
Si Si7 0.023020 0.080897 0.661797
Si Si8 0.502961 0.916303 0.081138
O O1 0.169360 0.498316 0.640850
O O2 0.150880 0.585341 0.744085
O O3 0.248500 0.629212 0.616828
O O4 0.986404 0.604618 0.637698
O O5 0.500000 0.324176 0.750000
O O6 0.323715 0.238602 0.684939
O O7 0.295619 0.371010 0.655116
O O8 0.516597 0.305455 0.612519
O O9 0.712764 0.862552 0.775438
O O10 0.735642 0.764780 0.875060
O O11 0.654175 0.889163 0.911428
O O12 0.905867 0.871502 0.871088
O O13 0.165860 0.119344 0.347746
O O14 0.421034 0.119538 0.353622
O O15 0.681668 0.702012 0.000000
O O16 0.000000 0.079593 0.750000
O O17 0.000000 0.000000 0.636691
O O18 0.500000 0.000000 0.088751
O O19 0.449577 0.897126 0.000000
#
# Coordination Sequence:
#
# PCOD9395011 Si02
#       8
#     8   8   8   8   8   8   8   8
#     4   9  19  39  63  96 121 161 201 255 305 359
#     4  12  21  38  60  95 123 162 209 253 303 359
#     4  11  21  38  61  88 115 157 204 248 304 361
#     4  11  21  37  62  90 118 154 204 253 299 362
#     4   9  19  37  67  94 124 152 211 258 296 352
#     4  12  25  41  60  89 131 166 201 254 319 377
#     4   9  20  36  58  91 122 148 193 258 312 354
#     4  11  23  38  58  84 119 160 196 242 306 368
#
# _framework density 18.656334000000001
#
# number of rings (size 3 to 8) (size 9 to 14) (size 15 to 20)
#    0.000    1.500    3.750    2.250    1.750    2.500 
#    0.000    4.375    0.000    3.375    0.000    0.000 
#    0.000    0.000    0.000    0.000    0.000    0.000 
#
# Total GULP energy -356867.746773 kJ/mol
# GULP energy per Si atom -5576.058543 kJ/mol
# Density = 1.861387 g / cm^3
# Si number density = 18.656334 Si / 1000 Ang^3
#
#
#
# Elastic Constant Matrix: (Units=GPa)
#
#
# Indices 1 2 3 4 5 6 
#
# 1 132.0733 62.0511 12.3246 0.0000 0.0000 0.0000
# 2 62.0511 86.5514 16.1164 0.0000 0.0000 0.0000
# 3 12.3246 16.1164 57.2160 0.0000 0.0000 0.0000
# 4 0.0000 0.0000 0.0000 16.2366 0.0000 0.0000
# 5 0.0000 0.0000 0.0000 0.0000 7.1712 0.0000
# 6 0.0000 0.0000 0.0000 0.0000 0.0000 45.1504
#
#
#
# Elastic Compliance Matrix: (Units=1/GPa)
#
#
# Indices 1 2 3 4 5 6 
#
# 1 0.011419 -0.008156 -0.000162 0.000000 0.000000 0.000000
# 2 -0.008156 0.018019 -0.003319 0.000000 0.000000 0.000000
# 3 -0.000162 -0.003319 0.018447 0.000000 0.000000 0.000000
# 4 0.000000 0.000000 0.000000 0.061589 0.000000 0.000000
# 5 0.000000 0.000000 0.000000 0.000000 0.139447 0.000000
# 6 0.000000 0.000000 0.000000 0.000000 0.000000 0.022148
#
#
# Mechanical properties :
#
#
# Convention : Reuss Voigt Hill
#
# Bulk Modulus (GPa) = 40.63223 50.75833 45.69528
# Shear Modulus (GPa) = 16.52631 26.06821 21.29726
#
# Velocity S-wave (km/s) = 2.97952 3.74208 3.38236
# Velocity P-wave (km/s) = 5.80201 6.77768 6.30874
#
# Compressibility (1/GPa) = 0.02461101
#
# Stress axis : x y z
#
# Youngs Moduli (GPa) = 87.57626 55.49654 54.20828
#
# Poissons Ratio (x) = 0.45264 0.00879
# Poissons Ratio (y) = 0.71428 0.17990
# Poissons Ratio (z) = 0.01421 0.18418
#
# Static dielectric constant tensor:
#      x y z
#    x 1.650040 0.000000 0.000000 
#    y 0.000000 1.537260 0.000000 
#    z 0.000000 0.000000 1.654780 
# 
# From -- ./inp_files/16533.got.cif
#   From: 2010.05.17/outbox.cif.g08.bks.cpg/sg49_9_cif.got.tgz:16533.got - 2010.06.03 21:02:19.
