data_PCOD9395532
_publ_section_title
;
Structure prediction by ZEFSAII (Michael W. Deem and Ramdas Pophale) SiO2 
 PCOD9395532
Probable space group: P B A N
;
_chemical_formula_sum "Si O2"
_cell_formula_units_Z 64
_cell_length_a 15.831523
_cell_length_b 25.682005
_cell_length_c 7.623651
_cell_angle_alpha 90.000000
_cell_angle_beta 90.000000
_cell_angle_gamma 90.000000
_cell_volume 3099.664069
_symmetry_space_group_name_H-M "P B A N"
_symmetry_group_IT_number 50
_space_group.IT_coordinate_system_code '2'
_symmetry_cell_setting 'orthorhombic'
loop_
_space_group_symop_operation_xyz
x,y,z
1/2-x,1/2-y,z
x,1/2-y,-z
1/2-x,y,-z
-x,-y,-z
1/2+x,1/2+y,-z
-x,1/2+y,z
1/2+x,-y,z
loop_
_atom_site_type_symbol
_atom_site_label
_atom_site_fract_x
_atom_site_fract_y
_atom_site_fract_z
Si Si1 0.937925 0.892179 0.706212
Si Si2 0.249480 0.411450 0.714794
Si Si3 0.424068 0.688679 0.206463
Si Si4 0.424186 0.806639 0.215514
Si Si5 0.475961 0.505313 0.294834
Si Si6 0.431494 0.393741 0.715511
Si Si7 0.778085 0.027769 0.702164
Si Si8 0.247661 0.642928 0.204454
O O1 0.841051 0.888953 0.770925
O O2 0.931243 0.897833 0.495908
O O3 0.997590 0.843674 0.740823
O O4 0.978291 0.946333 0.776244
O O5 0.250000 0.411471 0.500000
O O6 0.335456 0.384178 0.773734
O O7 0.254105 0.472117 0.770245
O O8 0.434723 0.747261 0.275477
O O9 0.502451 0.651036 0.241306
O O10 0.337076 0.663326 0.276864
O O11 0.418309 0.693034 0.995825
O O12 0.336117 0.831175 0.282915
O O13 0.500000 0.500000 0.500000
O O14 0.535375 0.550114 0.217539
O O15 0.379476 0.524929 0.284488
O O16 0.750000 0.030340 0.500000
O O17 0.743997 0.080569 0.784875
O O18 0.250000 0.657576 0.000000
#
# Coordination Sequence:
#
# PCOD9395532 Si02
#       8
#     8   8   8   8   8   8   8   8
#     4   9  19  34  54  83 104 136 179 218 261 314
#     4   8  17  33  53  78 111 143 169 205 265 325
#     4  10  21  40  53  77 101 144 183 217 270 320
#     4  10  22  37  58  71 106 142 181 224 265 314
#     4   9  17  29  51  79 112 136 169 211 266 315
#     4  10  18  33  57  78 108 139 175 218 261 314
#     4  10  18  30  52  81 110 139 177 209 254 321
#     4  10  21  35  52  76 107 142 177 216 264 319
#
# _framework density 20.647397999999999
#
# number of rings (size 3 to 8) (size 9 to 14) (size 15 to 20)
#    0.000    2.500    1.250    2.625    5.250    2.000 
#    0.000    4.375    0.000    6.000    0.000    0.000 
#    0.000    0.000    0.000    0.000    0.000    0.000 
#
# Total GULP energy -357112.194111 kJ/mol
# GULP energy per Si atom -5579.878033 kJ/mol
# Density = 2.060040 g / cm^3
# Si number density = 20.647398 Si / 1000 Ang^3
#
#
#
# Elastic Constant Matrix: (Units=GPa)
#
#
# Indices 1 2 3 4 5 6 
#
# 1 178.0136 97.8429 1.8149 0.0000 0.0000 0.0000
# 2 97.8429 119.0414 -4.9916 0.0000 0.0000 0.0000
# 3 1.8149 -4.9916 36.5106 0.0000 0.0000 0.0000
# 4 0.0000 0.0000 0.0000 22.6035 0.0000 0.0000
# 5 0.0000 0.0000 0.0000 0.0000 16.1091 0.0000
# 6 0.0000 0.0000 0.0000 0.0000 0.0000 13.9274
#
#
#
# Elastic Compliance Matrix: (Units=1/GPa)
#
#
# Indices 1 2 3 4 5 6 
#
# 1 0.010349 -0.008577 -0.001687 0.000000 0.000000 0.000000
# 2 -0.008577 0.015557 0.002553 0.000000 0.000000 0.000000
# 3 -0.001687 0.002553 0.027822 0.000000 0.000000 0.000000
# 4 0.000000 0.000000 0.000000 0.044241 0.000000 0.000000
# 5 0.000000 0.000000 0.000000 0.000000 0.062077 0.000000
# 6 0.000000 0.000000 0.000000 0.000000 0.000000 0.071801
#
#
# Mechanical properties :
#
#
# Convention : Reuss Voigt Hill
#
# Bulk Modulus (GPa) = 26.10488 58.09977 42.10233
# Shear Modulus (GPa) = 19.22809 26.45463 22.84136
#
# Velocity S-wave (km/s) = 3.05497 3.58335 3.32965
# Velocity P-wave (km/s) = 5.01143 6.73206 5.93443
#
# Compressibility (1/GPa) = 0.03830701
#
# Stress axis : x y z
#
# Youngs Moduli (GPa) = 96.62952 64.28030 35.94249
#
# Poissons Ratio (x) = 0.55131 0.06064
# Poissons Ratio (y) = 0.82876 -0.09177
# Poissons Ratio (z) = 0.16302 -0.16412
#
# Static dielectric constant tensor:
#      x y z
#    x 1.737010 0.000000 0.000000 
#    y 0.000000 1.719720 0.000000 
#    z 0.000000 0.000000 1.782550 
# 
# From -- ./inp_files/13461.got.cif
#   From: 2010.05.17/outbox.cif.g08.bks.cpg/sg50_7_cif.got.tgz:13461.got - 2010.06.03 11:33:33.
