data_PCOD9395307
_publ_section_title
;
Structure prediction by ZEFSAII (Michael W. Deem and Ramdas Pophale) SiO2 
 PCOD9395307
Probable space group: P C C M
;
_chemical_formula_sum "Si O2"
_cell_formula_units_Z 56
_cell_length_a 9.000000
_cell_length_b 21.000000
_cell_length_c 15.000000
_cell_angle_alpha 90.000000
_cell_angle_beta 90.000000
_cell_angle_gamma 90.000000
_cell_volume 2835.000000
_symmetry_space_group_name_H-M "P C C M"
_symmetry_group_IT_number 49
_symmetry_cell_setting 'orthorhombic'
loop_
_space_group_symop_operation_xyz
x,y,z
-x,-y,z
x,-y,1/2-z
-x,y,1/2-z
-x,-y,-z
x,y,-z
-x,y,1/2+z
x,-y,1/2+z
loop_
_atom_site_type_symbol
_atom_site_label
_atom_site_fract_x
_atom_site_fract_y
_atom_site_fract_z
Si Si1 0.412310 0.902290 0.000000
Si Si2 0.202467 0.644400 0.399848
Si Si3 0.162508 0.063731 0.796752
Si Si4 0.142820 0.392279 0.400942
Si Si5 0.645049 0.834747 0.308268
Si Si6 0.666426 0.488636 0.355901
Si Si7 0.255571 0.960959 0.500000
Si Si8 0.175667 0.715817 0.233555
O O1 0.385248 0.865088 0.906081
O O2 0.584767 0.925012 0.000000
O O3 0.303067 0.964293 0.000000
O O4 0.219457 0.666820 0.500000
O O5 0.300207 0.583516 0.379477
O O6 0.234936 0.700686 0.331691
O O7 0.034470 0.616321 0.389589
O O8 0.264297 0.118913 0.757950
O O9 0.000000 0.071959 0.750000
O O10 0.223821 0.000000 0.750000
O O11 0.171776 0.055806 0.905280
O O12 0.179089 0.368101 0.500000
O O13 0.209988 0.462706 0.393265
O O14 0.204027 0.347992 0.323062
O O15 0.500000 0.818617 0.250000
O O16 0.747168 0.772821 0.316877
O O17 0.500000 0.500000 0.389011
O O18 0.669420 0.500000 0.250000
O O19 0.000000 0.726940 0.250000
#
# Coordination Sequence:
#
# PCOD9395307 Si02
#       8
#     4   8   8   8   8   8   4   8
#     4  11  24  41  74 103 136 181 221 268 327 408
#     4  10  21  40  63  87 116 161 214 260 320 394
#     4  11  24  42  69 101 141 172 218 280 328 383
#     4  10  21  38  63  89 113 156 209 258 319 387
#     4  12  25  44  66  97 133 177 223 264 329 394
#     4  11  22  35  57  88 125 156 200 259 329 384
#     4  11  22  44  73 104 139 182 222 266 342 394
#     4  10  23  43  64  87 126 166 211 272 323 381
#
# _framework density 19.753086
#
# number of rings (size 3 to 8) (size 9 to 14) (size 15 to 20)
#    0.000    1.286    4.286    1.286    1.000    6.000 
#    2.571    0.000    0.000    0.000    0.000    0.000 
#    0.000    0.000    0.000    0.000    0.000    0.000 
#
# Total GULP energy -312360.653847 kJ/mol
# GULP energy per Si atom -5577.868819 kJ/mol
# Density = 1.970813 g / cm^3
# Si number density = 19.753086 Si / 1000 Ang^3
#
#
#
# Elastic Constant Matrix: (Units=GPa)
#
#
# Indices 1 2 3 4 5 6 
#
# 1 36.8974 13.3380 32.3866 0.0000 0.0000 0.0000
# 2 13.3380 54.5221 21.6104 0.0000 0.0000 0.0000
# 3 32.3866 21.6104 155.3452 0.0000 0.0000 0.0000
# 4 0.0000 0.0000 0.0000 22.8553 0.0000 0.0000
# 5 0.0000 0.0000 0.0000 0.0000 21.5000 0.0000
# 6 0.0000 0.0000 0.0000 0.0000 0.0000 -182.7576
#
#
#
# Elastic Compliance Matrix: (Units=1/GPa)
#
#
# Indices 1 2 3 4 5 6 
#
# 1 0.034927 -0.005988 -0.006449 0.000000 0.000000 0.000000
# 2 -0.005988 0.020438 -0.001595 0.000000 0.000000 0.000000
# 3 -0.006449 -0.001595 0.008004 0.000000 0.000000 0.000000
# 4 0.000000 0.000000 0.000000 0.043754 0.000000 0.000000
# 5 0.000000 0.000000 0.000000 0.000000 0.046512 0.000000
# 6 0.000000 0.000000 0.000000 0.000000 0.000000 -0.005472
#
#
# Mechanical properties :
#
#
# Convention : Reuss Voigt Hill
#
# Bulk Modulus (GPa) = 28.32428 42.38164 35.35296
# Shear Modulus (GPa) = 26.59656 -15.71847 5.43904
#
# Velocity S-wave (km/s) = 3.67338 -2.82396 1.66117
# Velocity P-wave (km/s) = 5.68876 3.29686 4.64926
#
# Compressibility (1/GPa) = 0.03530540
#
# Stress axis : x y z
#
# Youngs Moduli (GPa) = 28.63103 48.92783 124.94485
#
# Poissons Ratio (x) = 0.29300 0.80572
# Poissons Ratio (y) = 0.17146 0.19925
# Poissons Ratio (z) = 0.18463 0.07803
#
# Static dielectric constant tensor:
#      x y z
#    x 1.747900 0.000000 0.000000 
#    y 0.000000 1.677290 0.000000 
#    z 0.000000 0.000000 1.616470 
# 
# From -- ./inp_files/12069.got.cif
#   From: 2010.05.17/outbox.ucp.g08.bks.cvg/sg49_7_cif.got.tgz:12069.got - 2010.06.11 16:40:14.
