data_PCOD9395581
_publ_section_title
;
Structure prediction by ZEFSAII (Michael W. Deem and Ramdas Pophale) SiO2 
 PCOD9395581
Probable space group: P B A N
;
_chemical_formula_sum "Si O2"
_cell_formula_units_Z 58
_cell_length_a 14.812805
_cell_length_b 26.505803
_cell_length_c 7.256034
_cell_angle_alpha 90.000000
_cell_angle_beta 90.000000
_cell_angle_gamma 90.000000
_cell_volume 2848.902462
_symmetry_space_group_name_H-M "P B A N"
_symmetry_group_IT_number 50
_space_group.IT_coordinate_system_code '2'
_symmetry_cell_setting 'orthorhombic'
loop_
_space_group_symop_operation_xyz
x,y,z
1/2-x,1/2-y,z
x,1/2-y,-z
1/2-x,y,-z
-x,-y,-z
1/2+x,1/2+y,-z
-x,1/2+y,z
1/2+x,-y,z
loop_
_atom_site_type_symbol
_atom_site_label
_atom_site_fract_x
_atom_site_fract_y
_atom_site_fract_z
Si Si1 0.250000 0.750000 0.000000
Si Si2 0.259303 0.017053 0.278753
Si Si3 0.466266 0.646542 0.705941
Si Si4 0.561843 0.950996 0.276768
Si Si5 0.075428 0.639514 0.709111
Si Si6 0.769350 0.398182 0.788745
Si Si7 0.100841 0.752769 0.723293
Si Si8 0.049021 0.049088 0.727445
O O1 0.182904 0.726480 0.151793
O O2 0.250000 0.019702 0.500000
O O3 0.161957 0.035281 0.213256
O O4 0.346268 0.048812 0.217373
O O5 0.274322 0.958460 0.232351
O O6 0.532353 0.604532 0.784117
O O7 0.472854 0.647529 0.485534
O O8 0.365033 0.625355 0.737266
O O9 0.474475 0.704957 0.758562
O O10 0.552827 0.950801 0.501791
O O11 0.495224 0.995779 0.217582
O O12 0.179029 0.620953 0.685216
O O13 0.081231 0.695898 0.790062
O O14 0.016614 0.594098 0.794514
O O15 0.750000 0.385406 0.000000
O O16 0.120722 0.750000 0.500000
#
# Coordination Sequence:
#
# PCOD9395581 Si02
#       8
#     2   8   8   8   8   8   8   8
#     4  12  22  36  60  78 116 142 186 224 264 332
#     4  10  18  33  54  77 103 135 176 214 258 317
#     4  10  20  36  53  72 102 140 178 214 260 315
#     4   9  16  29  53  78  98 130 173 217 260 309
#     4  10  20  36  53  72 102 140 178 214 260 315
#     4  12  23  30  46  76 109 139 170 212 262 310
#     4  10  23  37  53  77 109 147 181 223 268 318
#     4   9  16  29  53  78  98 130 173 217 260 309
#
# _framework density 20.358716999999999
#
# number of rings (size 3 to 8) (size 9 to 14) (size 15 to 20)
#    0.000    1.931    2.759    2.276    3.862    2.207 
#    0.000    2.759    0.000    0.828    0.000    5.793 
#    0.000    1.103    0.000    0.138    0.000    0.000 
#
# Total GULP energy -323368.943840 kJ/mol
# GULP energy per Si atom -5575.326618 kJ/mol
# Density = 2.031238 g / cm^3
# Si number density = 20.358717 Si / 1000 Ang^3
#
#
#
# Elastic Constant Matrix: (Units=GPa)
#
#
# Indices 1 2 3 4 5 6 
#
# 1 104.6294 55.2853 -12.3109 0.0000 0.0000 0.0000
# 2 55.2853 145.5480 -17.9854 0.0000 0.0000 0.0000
# 3 -12.3109 -17.9854 71.3339 0.0000 0.0000 0.0000
# 4 0.0000 0.0000 0.0000 -4.2509 0.0000 0.0000
# 5 0.0000 0.0000 0.0000 0.0000 -6.1025 0.0000
# 6 0.0000 0.0000 0.0000 0.0000 0.0000 -0.4262
#
#
#
# Elastic Compliance Matrix: (Units=1/GPa)
#
#
# Indices 1 2 3 4 5 6 
#
# 1 0.012020 -0.004448 0.000953 0.000000 0.000000 0.000000
# 2 -0.004448 0.008737 0.001435 0.000000 0.000000 0.000000
# 3 0.000953 0.001435 0.014545 0.000000 0.000000 0.000000
# 4 0.000000 0.000000 0.000000 -0.235244 0.000000 0.000000
# 5 0.000000 0.000000 0.000000 0.000000 -0.163868 0.000000
# 6 0.000000 0.000000 0.000000 0.000000 0.000000 -2.346291
#
#
# Mechanical properties :
#
#
# Convention : Reuss Voigt Hill
#
# Bulk Modulus (GPa) = 32.06864 41.27657 36.67260
# Shear Modulus (GPa) = -1.85488 17.61224 7.87868
#
# Velocity S-wave (km/s) = -0.95555 2.94444 1.96935
# Velocity P-wave (km/s) = 3.81688 5.64609 4.81907
#
# Compressibility (1/GPa) = 0.03118312
#
# Stress axis : x y z
#
# Youngs Moduli (GPa) = 83.19533 114.44978 68.75241
#
# Poissons Ratio (x) = 0.50906 -0.06552
# Poissons Ratio (y) = 0.37005 -0.09868
# Poissons Ratio (z) = -0.07928 -0.16427
#
# Static dielectric constant tensor:
#      x y z
#    x 1.712390 0.000000 0.000000 
#    y 0.000000 1.763380 0.000000 
#    z 0.000000 0.000000 1.848840 
# 
# From -- ./inp_files/13524.got.cif
#   From: 2010.05.17/outbox.cif.g08.bks.cpg/sg50_7_cif.got.tgz:13524.got - 2010.06.03 11:33:33.
