data_PCOD9395130
_publ_section_title
;
Structure prediction by ZEFSAII (Michael W. Deem and Ramdas Pophale) SiO2 
 PCOD9395130
Probable space group: P C C M
;
_chemical_formula_sum "Si O2"
_cell_formula_units_Z 48
_cell_length_a 8.754425
_cell_length_b 7.524290
_cell_length_c 34.977547
_cell_angle_alpha 90.000000
_cell_angle_beta 90.000000
_cell_angle_gamma 90.000000
_cell_volume 2304.000139
_symmetry_space_group_name_H-M "P C C M"
_symmetry_group_IT_number 49
_symmetry_cell_setting 'orthorhombic'
loop_
_space_group_symop_operation_xyz
x,y,z
-x,-y,z
x,-y,1/2-z
-x,y,1/2-z
-x,-y,-z
x,y,-z
-x,y,1/2+z
x,-y,1/2+z
loop_
_atom_site_type_symbol
_atom_site_label
_atom_site_fract_x
_atom_site_fract_y
_atom_site_fract_z
Si Si1 0.133442 0.264827 0.341979
Si Si2 0.098766 0.267842 0.573249
Si Si3 0.586663 0.224897 0.500000
Si Si4 0.779520 0.863050 0.160366
Si Si5 0.729006 0.613921 0.500000
Si Si6 0.232334 0.131777 0.074428
Si Si7 0.327656 0.458181 0.205115
O O1 0.146003 0.338066 0.385241
O O2 0.202753 0.414628 0.314942
O O3 0.955633 0.206766 0.339155
O O4 0.219309 0.076395 0.335009
O O5 0.171880 0.362798 0.537602
O O6 0.916879 0.254476 0.568403
O O7 0.164112 0.066859 0.574252
O O8 0.651091 0.424210 0.500000
O O9 0.404720 0.238531 0.500000
O O10 0.650938 0.146900 0.460384
O O11 0.712495 0.829404 0.117663
O O12 0.701450 0.745245 0.192798
O O13 0.500000 0.500000 0.192039
O O14 0.318585 0.500000 0.250000
#
# Coordination Sequence:
#
# PCOD9395130 Si02
#       7
#     8   8   4   8   4   8   8
#     4   9  20  40  65  91 117 150 197 249 296 344
#     4   9  19  37  59  81 106 141 188 238 285 333
#     4  11  24  35  46  76 118 153 188 229 274 330
#     4   9  20  40  65  91 117 150 197 249 296 344
#     4  11  24  35  46  76 118 153 188 229 274 330
#     4   9  19  37  59  81 106 141 188 238 285 333
#     4  11  25  41  59  88 125 160 191 231 290 359
#
# _framework density 20.833331000000001
#
# number of rings (size 3 to 8) (size 9 to 14) (size 15 to 20)
#    0.000    2.333    0.000    3.500    2.333    8.000 
#    0.000    6.667    0.000    0.000    0.000    0.000 
#    0.000    0.000    0.000    0.000    0.000    0.000 
#
# Total GULP energy -268053.484916 kJ/mol
# GULP energy per Si atom -5584.447602 kJ/mol
# Density = 2.078591 g / cm^3
# Si number density = 20.833331 Si / 1000 Ang^3
#
#
#
# Elastic Constant Matrix: (Units=GPa)
#
#
# Indices 1 2 3 4 5 6 
#
# 1 9.5560 10.1087 4.1023 0.0000 0.0000 0.0000
# 2 10.1087 75.5239 35.7816 0.0000 0.0000 0.0000
# 3 4.1023 35.7816 70.2733 0.0000 0.0000 0.0000
# 4 0.0000 0.0000 0.0000 -109.9668 0.0000 0.0000
# 5 0.0000 0.0000 0.0000 0.0000 7.4413 0.0000
# 6 0.0000 0.0000 0.0000 0.0000 0.0000 27.6561
#
#
#
# Elastic Compliance Matrix: (Units=1/GPa)
#
#
# Indices 1 2 3 4 5 6 
#
# 1 0.122039 -0.017080 0.001572 0.000000 0.000000 0.000000
# 2 -0.017080 0.019841 -0.009106 0.000000 0.000000 0.000000
# 3 0.001572 -0.009106 0.018775 0.000000 0.000000 0.000000
# 4 0.000000 0.000000 0.000000 -0.009094 0.000000 0.000000
# 5 0.000000 0.000000 0.000000 0.000000 0.134385 0.000000
# 6 0.000000 0.000000 0.000000 0.000000 0.000000 0.036158
#
#
# Mechanical properties :
#
#
# Convention : Reuss Voigt Hill
#
# Bulk Modulus (GPa) = 8.97431 28.37095 18.67263
# Shear Modulus (GPa) = 12.24070 -7.94985 2.14543
#
# Velocity S-wave (km/s) = 2.42658 -1.95556 1.01589
# Velocity P-wave (km/s) = 3.48828 2.92381 3.21844
#
# Compressibility (1/GPa) = 0.11142921
#
# Stress axis : x y z
#
# Youngs Moduli (GPa) = 8.19408 50.40090 53.26315
#
# Poissons Ratio (x) = 0.86083 -0.08375
# Poissons Ratio (y) = 0.13995 0.48499
# Poissons Ratio (z) = -0.01288 0.45893
#
# Static dielectric constant tensor:
#      x y z
#    x 1.751510 0.000000 0.000000 
#    y 0.000000 1.773770 0.000000 
#    z 0.000000 0.000000 1.717690 
# 
# From -- ./inp_files/26333.got.cif
#   From: 2010.05.17/outbox.cif.g08.bks.cpg/sg49_14_cif.got.tgz:26333.got - 2010.06.03 21:02:19.
