data_PCOD9395308
_publ_section_title
;
Structure prediction by ZEFSAII (Michael W. Deem and Ramdas Pophale) SiO2 
 PCOD9395308
Probable space group: P C C M
;
_chemical_formula_sum "Si O2"
_cell_formula_units_Z 56
_cell_length_a 9.000000
_cell_length_b 21.000000
_cell_length_c 15.000000
_cell_angle_alpha 90.000000
_cell_angle_beta 90.000000
_cell_angle_gamma 90.000000
_cell_volume 2835.000000
_symmetry_space_group_name_H-M "P C C M"
_symmetry_group_IT_number 49
_symmetry_cell_setting 'orthorhombic'
loop_
_space_group_symop_operation_xyz
x,y,z
-x,-y,z
x,-y,1/2-z
-x,y,1/2-z
-x,-y,-z
x,y,-z
-x,y,1/2+z
x,-y,1/2+z
loop_
_atom_site_type_symbol
_atom_site_label
_atom_site_fract_x
_atom_site_fract_y
_atom_site_fract_z
Si Si1 0.113451 0.557185 0.895898
Si Si2 0.678226 0.362958 0.228224
Si Si3 0.375400 0.886962 0.607304
Si Si4 0.117587 0.673985 0.397450
Si Si5 0.175271 0.985189 0.899460
Si Si6 0.827848 0.255276 0.892738
Si Si7 0.297555 0.129628 0.304737
O O1 0.241965 0.576449 0.823720
O O2 0.000000 0.500000 0.871358
O O3 0.002225 0.616910 0.899051
O O4 0.166902 0.546727 0.000000
O O5 0.500000 0.369347 0.250000
O O6 0.763320 0.344129 0.321049
O O7 0.722250 0.305955 0.159476
O O8 0.369132 0.865750 0.500000
O O9 0.286870 0.954306 0.606995
O O10 0.545868 0.885733 0.643187
O O11 0.307086 0.853967 0.698352
O O12 0.175742 0.681446 0.500000
O O13 0.003848 0.731529 0.374524
O O14 0.208889 0.935001 0.822371
O O15 0.202062 0.957894 0.000000
O O16 0.000000 0.000000 0.895831
O O17 0.779500 0.187173 0.856576
O O18 0.808610 0.261520 0.000000
#
# Coordination Sequence:
#
# PCOD9395308 Si02
#       7
#     8   8   8   8   8   8   8
#     4   9  18  37  66  94 125 172 220 258 303 368
#     4  11  23  38  62  95 134 168 208 264 326 373
#     4  10  22  39  59  85 119 156 201 257 329 406
#     4   9  20  40  62  88 125 170 214 256 307 372
#     4  10  21  39  59  86 119 154 203 265 331 395
#     4  10  21  40  63  87 119 165 220 267 315 389
#     4  11  22  38  64  87 116 161 208 263 330 391
#
# _framework density 19.753086
#
# number of rings (size 3 to 8) (size 9 to 14) (size 15 to 20)
#    0.000    2.000    0.000    5.143    2.000    5.714 
#    5.143    2.143    0.000    3.429    0.000    0.000 
#    0.000    0.000    0.000    0.000    0.000    0.000 
#
# Total GULP energy -311931.894187 kJ/mol
# GULP energy per Si atom -5570.212396 kJ/mol
# Density = 1.970813 g / cm^3
# Si number density = 19.753086 Si / 1000 Ang^3
#
#
#
# Elastic Constant Matrix: (Units=GPa)
#
#
# Indices 1 2 3 4 5 6 
#
# 1 131.0674 38.9383 69.7800 0.0000 0.0000 0.0000
# 2 38.9383 65.7242 24.0358 0.0000 0.0000 0.0000
# 3 69.7800 24.0358 182.8829 0.0000 0.0000 0.0000
# 4 0.0000 0.0000 0.0000 31.9198 0.0000 0.0000
# 5 0.0000 0.0000 0.0000 0.0000 37.0176 0.0000
# 6 0.0000 0.0000 0.0000 0.0000 0.0000 25.4011
#
#
#
# Elastic Compliance Matrix: (Units=1/GPa)
#
#
# Indices 1 2 3 4 5 6 
#
# 1 0.011077 -0.005270 -0.003534 0.000000 0.000000 0.000000
# 2 -0.005270 0.018491 -0.000419 0.000000 0.000000 0.000000
# 3 -0.003534 -0.000419 0.006871 0.000000 0.000000 0.000000
# 4 0.000000 0.000000 0.000000 0.031328 0.000000 0.000000
# 5 0.000000 0.000000 0.000000 0.000000 0.027014 0.000000
# 6 0.000000 0.000000 0.000000 0.000000 0.000000 0.039368
#
#
# Mechanical properties :
#
#
# Convention : Reuss Voigt Hill
#
# Bulk Modulus (GPa) = 55.57879 71.68696 63.63288
# Shear Modulus (GPa) = 31.52712 35.32907 33.42810
#
# Velocity S-wave (km/s) = 3.99941 4.23369 4.11822
# Velocity P-wave (km/s) = 7.03739 7.76332 7.40925
#
# Compressibility (1/GPa) = 0.01799247
#
# Stress axis : x y z
#
# Youngs Moduli (GPa) = 90.27974 54.08121 145.53044
#
# Poissons Ratio (x) = 0.28501 0.51427
# Poissons Ratio (y) = 0.47578 0.06103
# Poissons Ratio (z) = 0.31903 0.02268
#
# Static dielectric constant tensor:
#      x y z
#    x 1.695800 0.000000 0.000000 
#    y 0.000000 1.764780 0.000000 
#    z 0.000000 0.000000 1.744380 
# 
# From -- ./inp_files/12006.got.cif
#   From: 2010.05.17/outbox.ucp.g08.bks.cvg/sg49_7_cif.got.tgz:12006.got - 2010.06.11 16:40:14.
