data_PCOD9395411
_publ_section_title
;
Structure prediction by ZEFSAII (Michael W. Deem and Ramdas Pophale) SiO2 
 PCOD9395411
Probable space group: P B A N
;
_chemical_formula_sum "Si O2"
_cell_formula_units_Z 48
_cell_length_a 17.773903
_cell_length_b 8.749554
_cell_length_c 15.259086
_cell_angle_alpha 90.000000
_cell_angle_beta 90.000000
_cell_angle_gamma 90.000000
_cell_volume 2372.997290
_symmetry_space_group_name_H-M "P B A N"
_symmetry_group_IT_number 50
_space_group.IT_coordinate_system_code '2'
_symmetry_cell_setting 'orthorhombic'
loop_
_space_group_symop_operation_xyz
x,y,z
1/2-x,1/2-y,z
x,1/2-y,-z
1/2-x,y,-z
-x,-y,-z
1/2+x,1/2+y,-z
-x,1/2+y,z
1/2+x,-y,z
loop_
_atom_site_type_symbol
_atom_site_label
_atom_site_fract_x
_atom_site_fract_y
_atom_site_fract_z
Si Si1 0.250000 0.250000 0.500000
Si Si2 0.467395 0.750000 0.000000
Si Si3 0.169199 0.175147 0.770043
Si Si4 0.456980 0.410178 0.286694
Si Si5 0.750000 0.250000 0.500000
Si Si6 0.985780 0.153453 0.586955
Si Si7 0.059248 0.485153 0.120726
Si Si8 0.650214 0.507444 0.404121
O O1 0.302195 0.354483 0.557226
O O2 0.426119 0.641575 0.930800
O O3 0.515468 0.866446 0.940966
O O4 0.250000 0.250000 0.773478
O O5 0.113339 0.315436 0.747985
O O6 0.136541 0.096894 0.855666
O O7 0.159768 0.038650 0.698783
O O8 0.503604 0.281619 0.338697
O O9 0.433522 0.530948 0.362984
O O10 0.506883 0.481371 0.207571
O O11 0.692939 0.357600 0.442220
O O12 0.967334 0.250000 0.500000
O O13 0.063832 0.057193 0.572452
#
# Coordination Sequence:
#
# PCOD9395411 Si02
#       8
#     2   4   8   8   2   8   8   8
#     4  10  16  34  64  80 128 180 220 264 324 386
#     4  10  22  38  75 107 130 162 216 264 342 410
#     4  11  23  42  68  97 129 181 220 274 337 404
#     4  11  21  40  65  94 133 171 226 273 327 396
#     4  10  24  38  60  92 132 188 230 278 332 390
#     4  11  22  39  58  95 131 172 225 288 327 371
#     4  11  20  42  71 103 128 172 218 270 330 421
#     4  10  20  38  58  87 125 174 228 271 324 390
#
# _framework density 20.227582999999999
#
# number of rings (size 3 to 8) (size 9 to 14) (size 15 to 20)
#    0.000    1.333    6.667    0.500    0.000    0.000 
#    7.500    0.417    0.000    1.000    0.000    0.000 
#    0.000    0.000    0.000    0.000    0.000    0.000 
#
# Total GULP energy -267642.100634 kJ/mol
# GULP energy per Si atom -5575.877097 kJ/mol
# Density = 2.018154 g / cm^3
# Si number density = 20.227583 Si / 1000 Ang^3
#
#
#
# Elastic Constant Matrix: (Units=GPa)
#
#
# Indices 1 2 3 4 5 6 
#
# 1 67.5992 34.3970 32.8866 0.0000 0.0000 0.0000
# 2 34.3970 141.1369 49.2845 0.0000 0.0000 0.0000
# 3 32.8866 49.2845 96.5777 0.0000 0.0000 0.0000
# 4 0.0000 0.0000 0.0000 60.9973 0.0000 0.0000
# 5 0.0000 0.0000 0.0000 0.0000 10.6341 0.0000
# 6 0.0000 0.0000 0.0000 0.0000 0.0000 -0.8963
#
#
#
# Elastic Compliance Matrix: (Units=1/GPa)
#
#
# Indices 1 2 3 4 5 6 
#
# 1 0.018613 -0.002827 -0.004896 0.000000 0.000000 0.000000
# 2 -0.002827 0.009051 -0.003656 0.000000 0.000000 0.000000
# 3 -0.004896 -0.003656 0.013887 0.000000 0.000000 0.000000
# 4 0.000000 0.000000 0.000000 0.016394 0.000000 0.000000
# 5 0.000000 0.000000 0.000000 0.000000 0.094037 0.000000
# 6 0.000000 0.000000 0.000000 0.000000 0.000000 -1.115678
#
#
# Mechanical properties :
#
#
# Convention : Reuss Voigt Hill
#
# Bulk Modulus (GPa) = 53.20810 59.82776 56.51793
# Shear Modulus (GPa) = -5.34946 26.73006 10.69030
#
# Velocity S-wave (km/s) = -1.62800 3.63914 2.30141
# Velocity P-wave (km/s) = 4.77786 6.87745 5.92146
#
# Compressibility (1/GPa) = 0.01879413
#
# Stress axis : x y z
#
# Youngs Moduli (GPa) = 53.72555 110.48527 72.00863
#
# Poissons Ratio (x) = 0.31231 0.35253
# Poissons Ratio (y) = 0.15187 0.26328
# Poissons Ratio (z) = 0.26302 0.40396
#
# Static dielectric constant tensor:
#      x y z
#    x 1.696130 0.000000 0.000000 
#    y 0.000000 1.736700 0.000000 
#    z 0.000000 0.000000 1.829790 
# 
# From -- ./inp_files/26928.got.cif
#   From: 2010.05.17/outbox.cif.g08.bks.cpg/sg50_14_cif.got.tgz:26928.got - 2010.06.03 11:33:33.
