data_PCOD9395599
_publ_section_title
;
Structure prediction by ZEFSAII (Michael W. Deem and Ramdas Pophale) SiO2 
 PCOD9395599
Probable space group: P B A N
;
_chemical_formula_sum "Si O2"
_cell_formula_units_Z 52
_cell_length_a 25.377900
_cell_length_b 7.903279
_cell_length_c 13.691876
_cell_angle_alpha 90.000000
_cell_angle_beta 90.000000
_cell_angle_gamma 90.000000
_cell_volume 2746.160731
_symmetry_space_group_name_H-M "P B A N"
_symmetry_group_IT_number 50
_space_group.IT_coordinate_system_code '2'
_symmetry_cell_setting 'orthorhombic'
loop_
_space_group_symop_operation_xyz
x,y,z
1/2-x,1/2-y,z
x,1/2-y,-z
1/2-x,y,-z
-x,-y,-z
1/2+x,1/2+y,-z
-x,1/2+y,z
1/2+x,-y,z
loop_
_atom_site_type_symbol
_atom_site_label
_atom_site_fract_x
_atom_site_fract_y
_atom_site_fract_z
Si Si1 0.957446 0.560860 0.819554
Si Si2 0.030371 0.359711 0.687026
Si Si3 0.076898 0.250000 0.000000
Si Si4 0.226982 0.939803 0.874521
Si Si5 0.366038 0.800115 0.209637
Si Si6 0.575127 0.317969 0.605279
Si Si7 0.333981 0.011518 0.923881
O O1 0.941686 0.701320 0.738270
O O2 0.914342 0.415200 0.823650
O O3 0.010552 0.478782 0.776839
O O4 0.958715 0.645099 0.925175
O O5 0.061143 0.483189 0.614429
O O6 0.978261 0.284660 0.635098
O O7 0.117907 0.360658 0.935610
O O8 0.250000 0.750000 0.890558
O O9 0.186165 0.916192 0.787139
O O10 0.279246 0.054298 0.866660
O O11 0.190654 0.985567 0.967608
O O12 0.381825 0.721498 0.312540
O O13 0.356408 0.653933 0.129776
O O14 0.590799 0.250000 0.500000
#
# Coordination Sequence:
#
# PCOD9395599 Si02
#       7
#     8   8   4   8   8   8   8
#     4  10  21  34  50  74 102 146 171 217 260 309
#     4   9  20  38  50  71 109 132 175 220 277 314
#     4  12  22  29  50  80 106 134 186 214 249 304
#     4   9  17  31  53  74 101 141 169 201 264 303
#     4  10  18  34  52  73 106 135 173 212 263 314
#     4  10  19  33  58  78  98 133 177 226 270 321
#     4  10  19  32  51  77 106 137 170 212 255 314
#
# _framework density 18.935528000000001
#
# number of rings (size 3 to 8) (size 9 to 14) (size 15 to 20)
#    0.000    2.154    1.538    4.615    0.000    1.846 
#    0.000    0.000    0.000    4.154    0.000    0.000 
#    0.000    1.846    0.000    0.000    0.000    0.000 
#
# Total GULP energy -289815.868571 kJ/mol
# GULP energy per Si atom -5573.382088 kJ/mol
# Density = 1.889243 g / cm^3
# Si number density = 18.935528 Si / 1000 Ang^3
#
#
#
# Elastic Constant Matrix: (Units=GPa)
#
#
# Indices 1 2 3 4 5 6 
#
# 1 29.2626 11.3558 9.1563 0.0000 0.0000 0.0000
# 2 11.3558 62.7894 22.5625 0.0000 0.0000 0.0000
# 3 9.1563 22.5625 43.6555 0.0000 0.0000 0.0000
# 4 0.0000 0.0000 0.0000 12.9736 0.0000 0.0000
# 5 0.0000 0.0000 0.0000 0.0000 17.5804 0.0000
# 6 0.0000 0.0000 0.0000 0.0000 0.0000 18.7414
#
#
#
# Elastic Compliance Matrix: (Units=1/GPa)
#
#
# Indices 1 2 3 4 5 6 
#
# 1 0.037759 -0.004891 -0.005391 0.000000 0.000000 0.000000
# 2 -0.004891 0.020192 -0.009410 0.000000 0.000000 0.000000
# 3 -0.005391 -0.009410 0.028901 0.000000 0.000000 0.000000
# 4 0.000000 0.000000 0.000000 0.077080 0.000000 0.000000
# 5 0.000000 0.000000 0.000000 0.000000 0.056882 0.000000
# 6 0.000000 0.000000 0.000000 0.000000 0.000000 0.053358
#
#
# Mechanical properties :
#
#
# Convention : Reuss Voigt Hill
#
# Bulk Modulus (GPa) = 21.06784 24.65075 22.85929
# Shear Modulus (GPa) = 15.18010 16.03460 15.60735
#
# Velocity S-wave (km/s) = 2.83445 2.91314 2.87407
# Velocity P-wave (km/s) = 4.67573 4.93576 4.80750
#
# Compressibility (1/GPa) = 0.04746572
#
# Stress axis : x y z
#
# Youngs Moduli (GPa) = 26.48407 49.52390 34.60111
#
# Poissons Ratio (x) = 0.24225 0.18655
# Poissons Ratio (y) = 0.12955 0.32560
# Poissons Ratio (z) = 0.14279 0.46602
#
# Static dielectric constant tensor:
#      x y z
#    x 1.699670 0.000000 0.000000 
#    y 0.000000 1.725710 0.000000 
#    z 0.000000 0.000000 1.654640 
# 
# From -- ./inp_files/23095.got.cif
#   From: 2010.05.17/outbox.cif.g08.bks.cpg/sg50_12_cif.got.tgz:23095.got - 2010.06.03 11:33:33.
