data_PCOD9395255
_publ_section_title
;
Structure prediction by ZEFSAII (Michael W. Deem and Ramdas Pophale) SiO2 
 PCOD9395255
Probable space group: P C C M
;
_chemical_formula_sum "Si O2"
_cell_formula_units_Z 56
_cell_length_a 15.000000
_cell_length_b 21.000000
_cell_length_c 9.000000
_cell_angle_alpha 90.000000
_cell_angle_beta 90.000000
_cell_angle_gamma 90.000000
_cell_volume 2835.000000
_symmetry_space_group_name_H-M "P C C M"
_symmetry_group_IT_number 49
_symmetry_cell_setting 'orthorhombic'
loop_
_space_group_symop_operation_xyz
x,y,z
-x,-y,z
x,-y,1/2-z
-x,y,1/2-z
-x,-y,-z
x,y,-z
-x,y,1/2+z
x,-y,1/2+z
loop_
_atom_site_type_symbol
_atom_site_label
_atom_site_fract_x
_atom_site_fract_y
_atom_site_fract_z
Si Si1 0.229383 0.679651 0.672089
Si Si2 0.591021 0.688844 0.328266
Si Si3 0.906620 0.435701 0.673232
Si Si4 0.407516 0.842329 0.173377
Si Si5 0.276382 0.063663 0.823740
Si Si6 0.090807 0.913828 0.169352
Si Si7 0.090279 0.239281 0.332828
O O1 0.243383 0.694917 0.500000
O O2 0.322128 0.663608 0.747522
O O3 0.162607 0.620871 0.687539
O O4 0.178233 0.737343 0.750812
O O5 0.500000 0.669299 0.250000
O O6 0.589849 0.671384 0.500000
O O7 0.597839 0.765900 0.317853
O O8 0.873276 0.500000 0.750000
O O9 0.922234 0.447434 0.500000
O O10 0.000000 0.419281 0.750000
O O11 0.500000 0.861785 0.250000
O O12 0.328328 0.875848 0.260375
O O13 0.405197 0.860224 0.000000
O O14 0.175361 0.068020 0.766720
O O15 0.316239 0.000000 0.750000
O O16 0.280819 0.060633 0.000000
O O17 0.089972 0.836967 0.161493
O O18 0.000000 0.932333 0.250000
O O19 0.097586 0.938089 0.000000
O O20 0.089472 0.264847 0.500000
O O21 0.000000 0.259584 0.250000
#
# Coordination Sequence:
#
# PCOD9395255 Si02
#       7
#     8   8   8   8   8   8   8
#     4  11  22  34  53  82 114 147 186 228 273 325
#     4  10  21  37  59  85 114 146 180 222 272 325
#     4  10  21  36  55  80 112 152 193 234 274 319
#     4  10  21  39  61  86 113 142 177 218 269 328
#     4  12  25  40  58  80 106 139 179 224 271 322
#     4  10  21  38  57  79 107 140 179 222 269 324
#     4  10  20  33  52  79 111 144 178 219 270 325
#
# _framework density 19.753086
#
# number of rings (size 3 to 8) (size 9 to 14) (size 15 to 20)
#    0.000    1.571    0.000    5.571    0.000   10.857 
#    0.000    2.857    0.000    0.429    0.000    3.000 
#    0.000    0.000    0.000    0.000    0.000    0.000 
#
# Total GULP energy -313029.123893 kJ/mol
# GULP energy per Si atom -5589.805784 kJ/mol
# Density = 1.970813 g / cm^3
# Si number density = 19.753086 Si / 1000 Ang^3
#
#
#
# Elastic Constant Matrix: (Units=GPa)
#
#
# Indices 1 2 3 4 5 6 
#
# 1 78.1199 9.2987 47.1929 0.0000 0.0000 0.0000
# 2 9.2987 30.4843 32.8313 0.0000 0.0000 0.0000
# 3 47.1929 32.8313 170.1809 0.0000 0.0000 0.0000
# 4 0.0000 0.0000 0.0000 32.7320 0.0000 0.0000
# 5 0.0000 0.0000 0.0000 0.0000 34.5213 0.0000
# 6 0.0000 0.0000 0.0000 0.0000 0.0000 3.8352
#
#
#
# Elastic Compliance Matrix: (Units=1/GPa)
#
#
# Indices 1 2 3 4 5 6 
#
# 1 0.015377 -0.000124 -0.004240 0.000000 0.000000 0.000000
# 2 -0.000124 0.041408 -0.007954 0.000000 0.000000 0.000000
# 3 -0.004240 -0.007954 0.008587 0.000000 0.000000 0.000000
# 4 0.000000 0.000000 0.000000 0.030551 0.000000 0.000000
# 5 0.000000 0.000000 0.000000 0.000000 0.028968 0.000000
# 6 0.000000 0.000000 0.000000 0.000000 0.000000 0.260746
#
#
# Mechanical properties :
#
#
# Convention : Reuss Voigt Hill
#
# Bulk Modulus (GPa) = 24.54871 50.82565 37.68718
# Shear Modulus (GPa) = 11.79660 26.84851 19.32255
#
# Velocity S-wave (km/s) = 2.44642 3.69074 3.13102
# Velocity P-wave (km/s) = 4.52048 6.62936 5.67376
#
# Compressibility (1/GPa) = 0.04073534
#
# Stress axis : x y z
#
# Youngs Moduli (GPa) = 65.03126 24.14989 116.46164
#
# Poissons Ratio (x) = 0.00299 0.49384
# Poissons Ratio (y) = 0.00804 0.92635
# Poissons Ratio (z) = 0.27576 0.19209
#
# Static dielectric constant tensor:
#      x y z
#    x 1.611640 0.000000 0.000000 
#    y 0.000000 1.703110 0.000000 
#    z 0.000000 0.000000 1.693020 
# 
# From -- ./inp_files/4011.got.cif
#   From: 2010.05.17/outbox.ucp.g08.bks.cvg/sg49_3_cif.got.tgz:4011.got - 2010.06.11 16:40:14.
