data_PCOD9395621
_publ_section_title
;
Structure prediction by ZEFSAII (Michael W. Deem and Ramdas Pophale) SiO2 
 PCOD9395621
Probable space group: P B A N
;
_chemical_formula_sum "Si O2"
_cell_formula_units_Z 48
_cell_length_a 28.142872
_cell_length_b 14.134992
_cell_length_c 5.179040
_cell_angle_alpha 90.000000
_cell_angle_beta 90.000000
_cell_angle_gamma 90.000000
_cell_volume 2060.218334
_symmetry_space_group_name_H-M "P B A N"
_symmetry_group_IT_number 50
_space_group.IT_coordinate_system_code '2'
_symmetry_cell_setting 'orthorhombic'
loop_
_space_group_symop_operation_xyz
x,y,z
1/2-x,1/2-y,z
x,1/2-y,-z
1/2-x,y,-z
-x,-y,-z
1/2+x,1/2+y,-z
-x,1/2+y,z
1/2+x,-y,z
loop_
_atom_site_type_symbol
_atom_site_label
_atom_site_fract_x
_atom_site_fract_y
_atom_site_fract_z
Si Si1 0.948762 0.999033 0.622083
Si Si2 0.604040 0.184083 0.242777
Si Si3 0.552281 0.799173 0.240140
Si Si4 0.840000 0.834035 0.837944
Si Si5 0.648177 0.956174 0.658384
Si Si6 0.804535 0.136815 0.530640
O O1 0.932230 0.097661 0.737698
O O2 0.952404 0.909958 0.808719
O O3 0.906877 0.966662 0.425106
O O4 0.000000 0.000000 0.500000
O O5 0.600577 0.250000 0.500000
O O6 0.657243 0.137357 0.234105
O O7 0.596823 0.250000 0.000000
O O8 0.534324 0.750000 0.500000
O O9 0.609517 0.786081 0.236592
O O10 0.528786 0.750000 0.000000
O O11 0.827490 0.890163 0.570230
O O12 0.813127 0.750000 0.000000
O O13 0.846326 0.911902 0.060957
O O14 0.669026 0.061914 0.652139
O O15 0.801503 0.250000 0.500000
O O16 0.750000 0.105447 0.500000
#
# Coordination Sequence:
#
# PCOD9395621 Si02
#       6
#     8   8   8   8   8   8
#     4  10  22  40  62  90 125 168 212 258 322 390
#     4  10  23  44  66  93 132 171 212 271 333 388
#     4  10  20  36  57  84 114 151 206 260 301 358
#     4  10  18  35  60  85 115 154 196 244 305 365
#     4  10  21  37  59  88 121 155 200 259 310 368
#     4   9  20  40  65  93 121 160 209 259 318 387
#
# _framework density 23.298501999999999
#
# number of rings (size 3 to 8) (size 9 to 14) (size 15 to 20)
#    0.000    2.167    0.000    4.500    0.000   14.000 
#    0.000   30.000    0.000    3.000    0.000    0.000 
#    0.000    0.000    0.000    0.000    0.000    0.000 
#
# Total GULP energy -267330.115093 kJ/mol
# GULP energy per Si atom -5569.377398 kJ/mol
# Density = 2.324547 g / cm^3
# Si number density = 23.298502 Si / 1000 Ang^3
#
#
#
# Elastic Constant Matrix: (Units=GPa)
#
#
# Indices 1 2 3 4 5 6 
#
# 1 102.9391 46.9356 16.0981 0.0000 0.0000 0.0000
# 2 46.9356 133.6428 70.0004 0.0000 0.0000 0.0000
# 3 16.0981 70.0004 168.8821 0.0000 0.0000 0.0000
# 4 0.0000 0.0000 0.0000 40.0543 0.0000 0.0000
# 5 0.0000 0.0000 0.0000 0.0000 0.4644 0.0000
# 6 0.0000 0.0000 0.0000 0.0000 0.0000 -11.5885
#
#
#
# Elastic Compliance Matrix: (Units=1/GPa)
#
#
# Indices 1 2 3 4 5 6 
#
# 1 0.011640 -0.004479 0.000747 0.000000 0.000000 0.000000
# 2 -0.004479 0.011281 -0.004249 0.000000 0.000000 0.000000
# 3 0.000747 -0.004249 0.007611 0.000000 0.000000 0.000000
# 4 0.000000 0.000000 0.000000 0.024966 0.000000 0.000000
# 5 0.000000 0.000000 0.000000 0.000000 2.153162 0.000000
# 6 0.000000 0.000000 0.000000 0.000000 0.000000 -0.086292
#
#
# Mechanical properties :
#
#
# Convention : Reuss Voigt Hill
#
# Bulk Modulus (GPa) = 68.63370 74.61468 71.62419
# Shear Modulus (GPa) = 2.33297 23.94804 13.14051
#
# Velocity S-wave (km/s) = 1.00176 3.20953 2.37746
# Velocity P-wave (km/s) = 5.55521 6.76977 6.19234
#
# Compressibility (1/GPa) = 0.01457010
#
# Stress axis : x y z
#
# Youngs Moduli (GPa) = 85.91059 88.64155 131.38380
#
# Poissons Ratio (x) = 0.39705 -0.09816
# Poissons Ratio (y) = 0.38482 0.55826
# Poissons Ratio (z) = -0.06418 0.37664
#
# Static dielectric constant tensor:
#      x y z
#    x 2.209780 0.000000 0.000000 
#    y 0.000000 2.585810 0.000000 
#    z 0.000000 0.000000 2.014620 
# 
# From -- ./inp_files/6600.got.cif
#   From: 2010.05.17/outbox.cif.g08.bks.cpg/sg50_4_cif.got.tgz:6600.got - 2010.06.03 11:33:33.
