data_PCOD9395113
_publ_section_title
;
Structure prediction by ZEFSAII (Michael W. Deem and Ramdas Pophale) SiO2 
 PCOD9395113
Probable space group: P C C M
;
_chemical_formula_sum "Si O2"
_cell_formula_units_Z 48
_cell_length_a 8.455629
_cell_length_b 14.664252
_cell_length_c 18.030284
_cell_angle_alpha 90.000000
_cell_angle_beta 90.000000
_cell_angle_gamma 90.000000
_cell_volume 2235.673619
_symmetry_space_group_name_H-M "P C C M"
_symmetry_group_IT_number 49
_symmetry_cell_setting 'orthorhombic'
loop_
_space_group_symop_operation_xyz
x,y,z
-x,-y,z
x,-y,1/2-z
-x,y,1/2-z
-x,-y,-z
x,y,-z
-x,y,1/2+z
x,-y,1/2+z
loop_
_atom_site_type_symbol
_atom_site_label
_atom_site_fract_x
_atom_site_fract_y
_atom_site_fract_z
Si Si1 0.700283 0.811279 0.317809
Si Si2 0.338166 0.134862 0.153367
Si Si3 0.327493 0.477582 0.837838
Si Si4 0.189735 0.693043 0.585873
Si Si5 0.103981 0.365532 0.674009
Si Si6 0.822789 0.035280 0.087623
O O1 0.726019 0.854398 0.236785
O O2 0.519206 0.830903 0.340954
O O3 0.754577 0.706597 0.312013
O O4 0.803774 0.866044 0.376563
O O5 0.246253 0.204680 0.100541
O O6 0.303229 0.033616 0.124980
O O7 0.500000 0.500000 0.869075
O O8 0.333861 0.500000 0.750000
O O9 0.289556 0.375502 0.862039
O O10 0.182632 0.543508 0.859111
O O11 0.207941 0.669022 0.500000
O O12 0.013136 0.678535 0.614795
O O13 0.000000 0.380288 0.750000
O O14 0.795369 0.037587 0.000000
O O15 0.000000 0.000000 0.101622
#
# Coordination Sequence:
#
# PCOD9395113 Si02
#       6
#     8   8   8   8   8   8
#     4  11  24  41  69  98 128 174 230 271 333 402
#     4  11  23  44  66  98 134 172 222 281 330 401
#     4  11  23  42  69  98 131 174 223 268 324 401
#     4  12  26  42  67 100 134 173 219 277 338 400
#     4  12  23  42  69  98 130 177 219 275 332 392
#     4  11  25  42  64  96 135 178 224 277 337 396
#
# _framework density 21.470039
#
# number of rings (size 3 to 8) (size 9 to 14) (size 15 to 20)
#    0.000    0.667    3.333    4.000    0.000   10.333 
#    0.000    1.667    0.000    0.000    0.000    0.000 
#    0.000    0.000    0.000    0.000    0.000    0.000 
#
# Total GULP energy -268421.777381 kJ/mol
# GULP energy per Si atom -5592.120362 kJ/mol
# Density = 2.142117 g / cm^3
# Si number density = 21.470039 Si / 1000 Ang^3
#
#
#
# Elastic Constant Matrix: (Units=GPa)
#
#
# Indices 1 2 3 4 5 6 
#
# 1 67.4107 7.3978 15.1863 0.0000 0.0000 0.0000
# 2 7.3978 72.2800 -12.2464 0.0000 0.0000 0.0000
# 3 15.1863 -12.2464 47.7146 0.0000 0.0000 0.0000
# 4 0.0000 0.0000 0.0000 6.6520 0.0000 0.0000
# 5 0.0000 0.0000 0.0000 0.0000 16.0692 0.0000
# 6 0.0000 0.0000 0.0000 0.0000 0.0000 38.3681
#
#
#
# Elastic Compliance Matrix: (Units=1/GPa)
#
#
# Indices 1 2 3 4 5 6 
#
# 1 0.016466 -0.002690 -0.005931 0.000000 0.000000 0.000000
# 2 -0.002690 0.014904 0.004681 0.000000 0.000000 0.000000
# 3 -0.005931 0.004681 0.024047 0.000000 0.000000 0.000000
# 4 0.000000 0.000000 0.000000 0.150331 0.000000 0.000000
# 5 0.000000 0.000000 0.000000 0.000000 0.062231 0.000000
# 6 0.000000 0.000000 0.000000 0.000000 0.000000 0.026063
#
#
# Mechanical properties :
#
#
# Convention : Reuss Voigt Hill
#
# Bulk Modulus (GPa) = 21.03636 23.12008 22.07822
# Shear Modulus (GPa) = 15.73481 24.02236 19.87858
#
# Velocity S-wave (km/s) = 2.71010 3.34859 3.04612
# Velocity P-wave (km/s) = 4.42856 5.07372 4.76208
#
# Compressibility (1/GPa) = 0.04753675
#
# Stress axis : x y z
#
# Youngs Moduli (GPa) = 60.73182 67.09795 41.58492
#
# Poissons Ratio (x) = 0.18050 0.24664
# Poissons Ratio (y) = 0.16338 -0.19467
# Poissons Ratio (z) = 0.36021 -0.31411
#
# Static dielectric constant tensor:
#      x y z
#    x 1.814580 0.000000 0.000000 
#    y 0.000000 1.754860 0.000000 
#    z 0.000000 0.000000 1.751410 
# 
# From -- ./inp_files/16261.got.cif
#   From: 2010.05.17/outbox.cif.g08.bks.cpg/sg49_9_cif.got.tgz:16261.got - 2010.06.03 21:02:19.
