data_PCOD9395088
_publ_section_title
;
Structure prediction by ZEFSAII (Michael W. Deem and Ramdas Pophale) SiO2 
 PCOD9395088
Probable space group: P C C M
;
_chemical_formula_sum "Si O2"
_cell_formula_units_Z 40
_cell_length_a 17.345314
_cell_length_b 8.810357
_cell_length_c 14.186056
_cell_angle_alpha 90.000000
_cell_angle_beta 90.000000
_cell_angle_gamma 90.000000
_cell_volume 2167.890502
_symmetry_space_group_name_H-M "P C C M"
_symmetry_group_IT_number 49
_symmetry_cell_setting 'orthorhombic'
loop_
_space_group_symop_operation_xyz
x,y,z
-x,-y,z
x,-y,1/2-z
-x,y,1/2-z
-x,-y,-z
x,y,-z
-x,y,1/2+z
x,-y,1/2+z
loop_
_atom_site_type_symbol
_atom_site_label
_atom_site_fract_x
_atom_site_fract_y
_atom_site_fract_z
Si Si1 0.511610 0.184226 0.606260
Si Si2 0.044871 0.736443 0.500000
Si Si3 0.076964 0.832674 0.294178
Si Si4 0.874493 0.404369 0.000000
Si Si5 0.786506 0.656163 0.302976
Si Si6 0.371668 0.182458 0.739892
O O1 0.510704 0.239031 0.500000
O O2 0.437886 0.232420 0.666661
O O3 0.590676 0.227132 0.659416
O O4 0.500000 0.000000 0.605671
O O5 0.066513 0.828003 0.406028
O O6 0.093249 0.577917 0.500000
O O7 0.953580 0.695327 0.500000
O O8 0.149717 0.740614 0.259561
O O9 0.000000 0.759068 0.250000
O O10 0.082519 0.000000 0.250000
O O11 0.823712 0.370618 0.906482
O O12 0.770051 0.500000 0.250000
O O13 0.708366 0.752211 0.296282
O O14 0.365395 0.000000 0.750000
#
# Coordination Sequence:
#
# PCOD9395088 Si02
#       6
#     8   4   8   4   8   8
#     4   8  15  33  60  87 116 157 201 244 308 374
#     4  11  22  44  67  90 118 168 218 254 314 377
#     4  11  24  41  65  91 125 157 203 268 315 366
#     4  11  24  39  68  89 119 172 216 246 310 384
#     4  12  24  41  60  90 125 166 207 251 310 373
#     4   9  19  36  60  89 123 154 198 260 306 357
#
# _framework density 18.451118000000001
#
# number of rings (size 3 to 8) (size 9 to 14) (size 15 to 20)
#    0.000    1.800    4.000    1.800    1.400    2.800 
#    3.600    2.000    0.000    1.200    0.000    0.000 
#    0.000    0.000    0.000    0.000    0.000    0.000 
#
# Total GULP energy -223040.830972 kJ/mol
# GULP energy per Si atom -5576.020774 kJ/mol
# Density = 1.840912 g / cm^3
# Si number density = 18.451118 Si / 1000 Ang^3
#
#
#
# Elastic Constant Matrix: (Units=GPa)
#
#
# Indices 1 2 3 4 5 6 
#
# 1 125.9075 25.7745 57.0890 0.0000 0.0000 0.0000
# 2 25.7745 46.9218 34.5470 0.0000 0.0000 0.0000
# 3 57.0890 34.5470 191.1863 0.0000 0.0000 0.0000
# 4 0.0000 0.0000 0.0000 20.4831 0.0000 0.0000
# 5 0.0000 0.0000 0.0000 0.0000 20.2851 0.0000
# 6 0.0000 0.0000 0.0000 0.0000 0.0000 53.4943
#
#
#
# Elastic Compliance Matrix: (Units=1/GPa)
#
#
# Indices 1 2 3 4 5 6 
#
# 1 0.009710 -0.003690 -0.002233 0.000000 0.000000 0.000000
# 2 -0.003690 0.025985 -0.003594 0.000000 0.000000 0.000000
# 3 -0.002233 -0.003594 0.006547 0.000000 0.000000 0.000000
# 4 0.000000 0.000000 0.000000 0.048821 0.000000 0.000000
# 5 0.000000 0.000000 0.000000 0.000000 0.049297 0.000000
# 6 0.000000 0.000000 0.000000 0.000000 0.000000 0.018694
#
#
# Mechanical properties :
#
#
# Convention : Reuss Voigt Hill
#
# Bulk Modulus (GPa) = 43.08677 66.53739 54.81208
# Shear Modulus (GPa) = 26.90749 35.29282 31.10016
#
# Velocity S-wave (km/s) = 3.82293 4.37827 4.10999
# Velocity P-wave (km/s) = 6.54896 7.85486 7.23145
#
# Compressibility (1/GPa) = 0.02320898
#
# Stress axis : x y z
#
# Youngs Moduli (GPa) = 102.98601 38.48401 152.75236
#
# Poissons Ratio (x) = 0.14200 0.34105
# Poissons Ratio (y) = 0.38001 0.54893
# Poissons Ratio (z) = 0.22994 0.13829
#
# Static dielectric constant tensor:
#      x y z
#    x 1.628760 0.000000 0.000000 
#    y 0.000000 1.534810 0.000000 
#    z 0.000000 0.000000 1.632510 
# 
# From -- ./inp_files/11626.got.cif
#   From: 2010.05.17/outbox.cif.g08.bks.cpg/sg49_6_cif.got.tgz:11626.got - 2010.06.03 21:02:19.
