data_PCOD9395199
_publ_section_title
;
Structure prediction by ZEFSAII (Michael W. Deem and Ramdas Pophale) SiO2 
 PCOD9395199
Probable space group: P C C M
;
_chemical_formula_sum "Si O2"
_cell_formula_units_Z 48
_cell_length_a 12.233370
_cell_length_b 12.792099
_cell_length_c 17.541184
_cell_angle_alpha 90.000000
_cell_angle_beta 90.000000
_cell_angle_gamma 90.000000
_cell_volume 2745.028306
_symmetry_space_group_name_H-M "P C C M"
_symmetry_group_IT_number 49
_symmetry_cell_setting 'orthorhombic'
loop_
_space_group_symop_operation_xyz
x,y,z
-x,-y,z
x,-y,1/2-z
-x,y,1/2-z
-x,-y,-z
x,y,-z
-x,y,1/2+z
x,-y,1/2+z
loop_
_atom_site_type_symbol
_atom_site_label
_atom_site_fract_x
_atom_site_fract_y
_atom_site_fract_z
Si Si1 0.769978 0.886671 0.265810
Si Si2 0.255410 0.612287 0.914139
Si Si3 0.124046 0.665866 0.231735
Si Si4 0.328650 0.428540 0.820248
Si Si5 0.369242 0.164885 0.587145
Si Si6 0.573883 0.203710 0.325569
O O1 0.853109 0.790150 0.266298
O O2 0.704368 0.886780 0.346575
O O3 0.681201 0.859500 0.199701
O O4 0.818069 0.000000 0.250000
O O5 0.161178 0.628576 0.851827
O O6 0.315752 0.506274 0.890528
O O7 0.335696 0.712116 0.906669
O O8 0.214545 0.609136 0.000000
O O9 0.210845 0.612802 0.289385
O O10 0.000000 0.640514 0.250000
O O11 0.371784 0.500000 0.750000
O O12 0.395304 0.324554 0.838770
O O13 0.348239 0.131616 0.500000
O O14 0.496753 0.156602 0.609338
O O15 0.500000 0.203039 0.250000
#
# Coordination Sequence:
#
# PCOD9395199 Si02
#       6
#     8   8   8   8   8   8
#     4   9  18  33  51  69  90 117 153 196 235 274
#     4   9  18  31  47  69  96 125 154 185 224 268
#     4   9  18  33  51  69  90 117 153 196 235 274
#     4   9  17  28  43  66  95 125 157 190 222 262
#     4   9  18  31  47  69  96 125 154 185 224 268
#     4   9  17  28  43  66  95 125 157 190 222 262
#
# _framework density 17.486160000000002
#
# number of rings (size 3 to 8) (size 9 to 14) (size 15 to 20)
#    0.000    3.000    0.000    3.000    0.000    9.333 
#    0.000    5.000    0.000    3.000    0.000    4.667 
#    0.000    0.000    0.000    0.000    0.000    0.000 
#
# Total GULP energy -267469.424106 kJ/mol
# GULP energy per Si atom -5572.279669 kJ/mol
# Density = 1.744636 g / cm^3
# Si number density = 17.486160 Si / 1000 Ang^3
#
#
#
# Elastic Constant Matrix: (Units=GPa)
#
#
# Indices 1 2 3 4 5 6 
#
# 1 36.9435 -23.7719 1.8548 0.0000 0.0000 0.0000
# 2 -23.7719 66.2414 0.4524 0.0000 0.0000 0.0000
# 3 1.8548 0.4524 68.1715 0.0000 0.0000 0.0000
# 4 0.0000 0.0000 0.0000 11.9729 0.0000 0.0000
# 5 0.0000 0.0000 0.0000 0.0000 1.5314 0.0000
# 6 0.0000 0.0000 0.0000 0.0000 0.0000 -0.8041
#
#
#
# Elastic Compliance Matrix: (Units=1/GPa)
#
#
# Indices 1 2 3 4 5 6 
#
# 1 0.035270 0.012664 -0.001044 0.000000 0.000000 0.000000
# 2 0.012664 0.019644 -0.000475 0.000000 0.000000 0.000000
# 3 -0.001044 -0.000475 0.014700 0.000000 0.000000 0.000000
# 4 0.000000 0.000000 0.000000 0.083522 0.000000 0.000000
# 5 0.000000 0.000000 0.000000 0.000000 0.653001 0.000000
# 6 0.000000 0.000000 0.000000 0.000000 0.000000 -1.243591
#
#
# Mechanical properties :
#
#
# Convention : Reuss Voigt Hill
#
# Bulk Modulus (GPa) = 10.88066 14.26966 12.57516
# Shear Modulus (GPa) = -11.65205 15.39476 1.87136
#
# Velocity S-wave (km/s) = -2.58419 2.97037 1.03562
# Velocity P-wave (km/s) = 1.63344 4.46569 2.93890
#
# Compressibility (1/GPa) = 0.09190622
#
# Stress axis : x y z
#
# Youngs Moduli (GPa) = 28.35280 50.90509 68.02515
#
# Poissons Ratio (x) = -0.64468 0.07100
# Poissons Ratio (y) = -0.35907 0.03231
# Poissons Ratio (z) = 0.02959 0.02418
#
# Static dielectric constant tensor:
#      x y z
#    x 1.593690 0.000000 0.000000 
#    y 0.000000 1.615240 0.000000 
#    z 0.000000 0.000000 1.593770 
# 
# From -- ./inp_files/17042.got.cif
#   From: 2010.05.17/outbox.cif.g08.bks.cpg/sg49_9_cif.got.tgz:17042.got - 2010.06.03 21:02:19.
