data_PCOD9395733
_publ_section_title
;
Structure prediction by ZEFSAII (Michael W. Deem and Ramdas Pophale) SiO2 
 PCOD9395733
Probable space group: P B A N
;
_chemical_formula_sum "Si O2"
_cell_formula_units_Z 28
_cell_length_a 28.295554
_cell_length_b 5.095212
_cell_length_c 8.202843
_cell_angle_alpha 90.000000
_cell_angle_beta 90.000000
_cell_angle_gamma 90.000000
_cell_volume 1182.619020
_symmetry_space_group_name_H-M "P B A N"
_symmetry_group_IT_number 50
_space_group.IT_coordinate_system_code '2'
_symmetry_cell_setting 'orthorhombic'
loop_
_space_group_symop_operation_xyz
x,y,z
1/2-x,1/2-y,z
x,1/2-y,-z
1/2-x,y,-z
-x,-y,-z
1/2+x,1/2+y,-z
-x,1/2+y,z
1/2+x,-y,z
loop_
_atom_site_type_symbol
_atom_site_label
_atom_site_fract_x
_atom_site_fract_y
_atom_site_fract_z
Si Si1 0.317083 0.102333 0.274659
Si Si2 0.630568 0.138866 0.182846
Si Si3 0.750000 0.750000 0.000000
Si Si4 0.978361 0.501989 0.185382
Si Si5 0.250000 0.750000 0.500000
O O1 0.336185 0.403633 0.254917
O O2 0.283737 0.082149 0.115418
O O3 0.361789 0.908417 0.280240
O O4 0.283126 0.959966 0.405032
O O5 0.577363 0.035311 0.179103
O O6 0.640496 0.250000 0.000000
O O7 0.994822 0.764892 0.267859
O O8 0.000000 0.500000 0.000000
#
# Coordination Sequence:
#
# PCOD9395733 Si02
#       5
#     8   8   2   8   2
#     4  12  28  44  72  97 146 187 251 317 374 451
#     4  12  22  40  66 107 142 180 236 305 379 425
#     4  12  24  44  72 106 128 184 240 334 388 424
#     4  10  19  31  56  96 151 175 208 285 386 441
#     4  12  32  56  68 106 148 216 260 310 396 456
#
# _framework density 23.676265000000001
#
# number of rings (size 3 to 8) (size 9 to 14) (size 15 to 20)
#    0.000    0.571    5.714    3.429    4.000    6.286 
#    0.000    0.000    0.000    0.000    0.000   20.000 
#    0.000    0.000    0.000    0.000    0.000    0.000 
#
# Total GULP energy -155961.556640 kJ/mol
# GULP energy per Si atom -5570.055594 kJ/mol
# Density = 2.362238 g / cm^3
# Si number density = 23.676265 Si / 1000 Ang^3
#
#
#
# Elastic Constant Matrix: (Units=GPa)
#
#
# Indices 1 2 3 4 5 6 
#
# 1 146.4621 55.4226 42.4977 0.0000 0.0000 0.0000
# 2 55.4226 216.0015 35.5991 0.0000 0.0000 0.0000
# 3 42.4977 35.5991 63.6246 0.0000 0.0000 0.0000
# 4 0.0000 0.0000 0.0000 22.8041 0.0000 0.0000
# 5 0.0000 0.0000 0.0000 0.0000 14.3129 0.0000
# 6 0.0000 0.0000 0.0000 0.0000 0.0000 31.4155
#
#
#
# Elastic Compliance Matrix: (Units=1/GPa)
#
#
# Indices 1 2 3 4 5 6 
#
# 1 0.008852 -0.001429 -0.005113 0.000000 0.000000 0.000000
# 2 -0.001429 0.005330 -0.002028 0.000000 0.000000 0.000000
# 3 -0.005113 -0.002028 0.020267 0.000000 0.000000 0.000000
# 4 0.000000 0.000000 0.000000 0.043852 0.000000 0.000000
# 5 0.000000 0.000000 0.000000 0.000000 0.069867 0.000000
# 6 0.000000 0.000000 0.000000 0.000000 0.000000 0.031831
#
#
# Mechanical properties :
#
#
# Convention : Reuss Voigt Hill
#
# Bulk Modulus (GPa) = 57.77155 77.01411 67.39283
# Shear Modulus (GPa) = 24.64144 33.21109 28.92627
#
# Velocity S-wave (km/s) = 3.22959 3.74935 3.49913
# Velocity P-wave (km/s) = 6.19359 7.16534 6.69711
#
# Compressibility (1/GPa) = 0.01730956
#
# Stress axis : x y z
#
# Youngs Moduli (GPa) = 112.96920 187.60242 49.34020
#
# Poissons Ratio (x) = 0.26800 0.25229
# Poissons Ratio (y) = 0.16138 0.10008
# Poissons Ratio (z) = 0.57765 0.38051
#
# Static dielectric constant tensor:
#      x y z
#    x 1.897880 0.000000 0.000000 
#    y 0.000000 1.953240 0.000000 
#    z 0.000000 0.000000 2.009340 
# 
# From -- ./inp_files/16278.got.cif
#   From: 2010.05.17/outbox.cif.g08.bks.cpg/sg50_9_cif.got.tgz:16278.got - 2010.06.03 11:33:33.
