data_PCOD9395586
_publ_section_title
;
Structure prediction by ZEFSAII (Michael W. Deem and Ramdas Pophale) SiO2 
 PCOD9395586
Probable space group: P B A N
;
_chemical_formula_sum "Si O2"
_cell_formula_units_Z 40
_cell_length_a 9.014966
_cell_length_b 27.911379
_cell_length_c 7.224609
_cell_angle_alpha 90.000000
_cell_angle_beta 90.000000
_cell_angle_gamma 90.000000
_cell_volume 1817.857075
_symmetry_space_group_name_H-M "P B A N"
_symmetry_group_IT_number 50
_space_group.IT_coordinate_system_code '2'
_symmetry_cell_setting 'orthorhombic'
loop_
_space_group_symop_operation_xyz
x,y,z
1/2-x,1/2-y,z
x,1/2-y,-z
1/2-x,y,-z
-x,-y,-z
1/2+x,1/2+y,-z
-x,1/2+y,z
1/2+x,-y,z
loop_
_atom_site_type_symbol
_atom_site_label
_atom_site_fract_x
_atom_site_fract_y
_atom_site_fract_z
Si Si1 0.603864 0.839393 0.919324
Si Si2 0.710090 0.934632 0.721561
Si Si3 0.492437 0.516536 0.711801
Si Si4 0.856667 0.111834 0.171557
Si Si5 0.690794 0.299643 0.786539
O O1 0.671523 0.882529 0.797266
O O2 0.485385 0.807707 0.804727
O O3 0.750000 0.813823 0.000000
O O4 0.504118 0.863911 0.082272
O O5 0.750000 0.930911 0.500000
O O6 0.853425 0.964095 0.788731
O O7 0.575160 0.968079 0.791053
O O8 0.500000 0.500000 0.500000
O O9 0.389022 0.563136 0.723097
O O10 0.771093 0.152716 0.286807
O O11 0.750000 0.099314 0.000000
O O12 0.750000 0.250000 0.706031
O O13 0.750000 0.299111 0.000000
#
# Coordination Sequence:
#
# PCOD9395586 Si02
#       5
#     8   8   8   8   8
#     4  10  18  33  57  84 117 153 192 242 292 339
#     4  10  22  35  51  79 119 159 201 235 289 348
#     4  10  21  36  51  76 115 159 201 236 289 349
#     4   9  19  33  55  82 117 149 194 246 299 347
#     4   8  17  34  56  86 120 142 186 244 306 361
#
# _framework density 22.00393
#
# number of rings (size 3 to 8) (size 9 to 14) (size 15 to 20)
#    0.000    3.000    2.000    0.000    5.600    1.600 
#    0.000    8.000    0.000    0.000    0.000   16.800 
#    0.000    0.000    0.000    0.000    0.000    0.000 
#
# Total GULP energy -222829.115621 kJ/mol
# GULP energy per Si atom -5570.727891 kJ/mol
# Density = 2.195385 g / cm^3
# Si number density = 22.003930 Si / 1000 Ang^3
#
#
#
# Elastic Constant Matrix: (Units=GPa)
#
#
# Indices 1 2 3 4 5 6 
#
# 1 155.2278 41.0994 20.0285 0.0000 0.0000 0.0000
# 2 41.0994 108.9105 23.5184 0.0000 0.0000 0.0000
# 3 20.0285 23.5184 76.4134 0.0000 0.0000 0.0000
# 4 0.0000 0.0000 0.0000 133.1032 0.0000 0.0000
# 5 0.0000 0.0000 0.0000 0.0000 8.4657 0.0000
# 6 0.0000 0.0000 0.0000 0.0000 0.0000 18.5956
#
#
#
# Elastic Compliance Matrix: (Units=1/GPa)
#
#
# Indices 1 2 3 4 5 6 
#
# 1 0.007248 -0.002490 -0.001133 0.000000 0.000000 0.000000
# 2 -0.002490 0.010691 -0.002638 0.000000 0.000000 0.000000
# 3 -0.001133 -0.002638 0.014196 0.000000 0.000000 0.000000
# 4 0.000000 0.000000 0.000000 0.007513 0.000000 0.000000
# 5 0.000000 0.000000 0.000000 0.000000 0.118124 0.000000
# 6 0.000000 0.000000 0.000000 0.000000 0.000000 0.053776
#
#
# Mechanical properties :
#
#
# Convention : Reuss Voigt Hill
#
# Bulk Modulus (GPa) = 50.98960 56.64938 53.81949
# Shear Modulus (GPa) = 21.68180 49.09325 35.38753
#
# Velocity S-wave (km/s) = 3.14245 4.72859 4.01463
# Velocity P-wave (km/s) = 6.03241 7.45746 6.78247
#
# Compressibility (1/GPa) = 0.01961184
#
# Stress axis : x y z
#
# Youngs Moduli (GPa) = 137.97432 93.53449 70.44448
#
# Poissons Ratio (x) = 0.23293 0.07983
# Poissons Ratio (y) = 0.34361 0.18582
# Poissons Ratio (z) = 0.15635 0.24672
#
# Static dielectric constant tensor:
#      x y z
#    x 1.935680 0.000000 0.000000 
#    y 0.000000 1.852400 0.000000 
#    z 0.000000 0.000000 3.522510 
# 
# From -- ./inp_files/9922.got.cif
#   From: 2010.05.17/outbox.cif.g08.bks.cpg/sg50_5_cif.got.tgz:9922.got - 2010.06.03 11:33:33.
