data_PCOD9395401
_publ_section_title
;
Structure prediction by ZEFSAII (Michael W. Deem and Ramdas Pophale) SiO2 
 PCOD9395401
Probable space group: P B A N
;
_chemical_formula_sum "Si O2"
_cell_formula_units_Z 54
_cell_length_a 15.942707
_cell_length_b 5.437315
_cell_length_c 28.789483
_cell_angle_alpha 90.000000
_cell_angle_beta 90.000000
_cell_angle_gamma 90.000000
_cell_volume 2495.631302
_symmetry_space_group_name_H-M "P B A N"
_symmetry_group_IT_number 50
_space_group.IT_coordinate_system_code '2'
_symmetry_cell_setting 'orthorhombic'
loop_
_space_group_symop_operation_xyz
x,y,z
1/2-x,1/2-y,z
x,1/2-y,-z
1/2-x,y,-z
-x,-y,-z
1/2+x,1/2+y,-z
-x,1/2+y,z
1/2+x,-y,z
loop_
_atom_site_type_symbol
_atom_site_label
_atom_site_fract_x
_atom_site_fract_y
_atom_site_fract_z
Si Si1 0.597612 0.882300 0.703953
Si Si2 0.750000 0.250000 0.500000
Si Si3 0.949740 0.930249 0.092946
Si Si4 0.717196 0.999672 0.947301
Si Si5 0.051858 0.250000 0.500000
Si Si6 0.447895 0.509879 0.805409
Si Si7 0.667792 0.601371 0.575299
Si Si8 0.597405 0.381310 0.667568
O O1 0.633268 0.610269 0.697126
O O2 0.500630 0.859436 0.684194
O O3 0.599362 0.959690 0.757619
O O4 0.635186 0.111894 0.676087
O O5 0.696834 0.416200 0.534950
O O6 0.882209 0.986015 0.053862
O O7 0.908087 0.968355 0.143978
O O8 0.017569 0.150754 0.090145
O O9 0.750000 0.250000 0.924922
O O10 0.750000 0.750000 0.924453
O O11 0.750000 0.000265 0.000000
O O12 0.106614 0.276487 0.453265
O O13 0.000000 0.500000 0.500000
O O14 0.517956 0.290050 0.804286
O O15 0.750000 0.750000 0.592131
O O16 0.616271 0.465735 0.615424
#
# Coordination Sequence:
#
# PCOD9395401 Si02
#       8
#     8   2   8   8   4   8   8   8
#     4  10  18  37  56  96 124 150 196 259 309 357
#     4  12  24  52  68  84 128 182 210 234 326 386
#     4  10  21  35  61  96 125 160 227 278 319 381
#     4  10  21  40  60  84 127 180 216 264 338 398
#     4  12  28  44  69  97 122 148 214 266 302 356
#     4  10  16  31  56  89 124 161 192 263 325 366
#     4  12  27  47  67  92 129 177 199 255 320 392
#     4  10  22  33  63  87 121 156 202 238 305 374
#
# _framework density 21.637813999999999
#
# number of rings (size 3 to 8) (size 9 to 14) (size 15 to 20)
#    0.000    1.481    4.444    1.333    6.222    0.000 
#    0.000    8.889    0.000    2.667    0.000    0.000 
#    0.000    0.000    0.000    0.000    0.000    0.000 
#
# Total GULP energy -301115.775455 kJ/mol
# GULP energy per Si atom -5576.218064 kJ/mol
# Density = 2.158857 g / cm^3
# Si number density = 21.637814 Si / 1000 Ang^3
#
#
#
# Elastic Constant Matrix: (Units=GPa)
#
#
# Indices 1 2 3 4 5 6 
#
# 1 33.7845 6.8466 20.6773 0.0000 0.0000 0.0000
# 2 6.8466 132.6959 -15.5101 0.0000 0.0000 0.0000
# 3 20.6773 -15.5101 81.9821 0.0000 0.0000 0.0000
# 4 0.0000 0.0000 0.0000 -10.1596 0.0000 0.0000
# 5 0.0000 0.0000 0.0000 0.0000 -5.7308 0.0000
# 6 0.0000 0.0000 0.0000 0.0000 0.0000 102.8501
#
#
#
# Elastic Compliance Matrix: (Units=1/GPa)
#
#
# Indices 1 2 3 4 5 6 
#
# 1 0.036131 -0.002996 -0.009679 0.000000 0.000000 0.000000
# 2 -0.002996 0.007955 0.002261 0.000000 0.000000 0.000000
# 3 -0.009679 0.002261 0.015067 0.000000 0.000000 0.000000
# 4 0.000000 0.000000 0.000000 -0.098429 0.000000 0.000000
# 5 0.000000 0.000000 0.000000 0.000000 -0.174496 0.000000
# 6 0.000000 0.000000 0.000000 0.000000 0.000000 0.009723
#
#
# Mechanical properties :
#
#
# Convention : Reuss Voigt Hill
#
# Bulk Modulus (GPa) = 26.09392 30.27665 28.18529
# Shear Modulus (GPa) = -29.33480 33.15517 1.91019
#
# Velocity S-wave (km/s) = -3.68600 3.91868 0.94059
# Velocity P-wave (km/s) = 2.45559 5.87346 3.77278
#
# Compressibility (1/GPa) = 0.03832310
#
# Stress axis : x y z
#
# Youngs Moduli (GPa) = 27.67733 125.71014 66.37116
#
# Poissons Ratio (x) = 0.37658 0.64244
# Poissons Ratio (y) = 0.08291 -0.15003
# Poissons Ratio (z) = 0.26790 -0.28417
#
# Static dielectric constant tensor:
#      x y z
#    x 2.073070 0.000000 0.000000 
#    y 0.000000 1.837080 0.000000 
#    z 0.000000 0.000000 1.792030 
# 
# From -- ./inp_files/32536.got.cif
#   From: 2010.05.17/outbox.cif.g08.bks.cpg/sg50_17_cif.got.tgz:32536.got - 2010.06.03 11:33:33.
