data_PCOD9395080
_publ_section_title
;
Structure prediction by ZEFSAII (Michael W. Deem and Ramdas Pophale) SiO2 
 PCOD9395080
Probable space group: P C C M
;
_chemical_formula_sum "Si O2"
_cell_formula_units_Z 40
_cell_length_a 13.998277
_cell_length_b 14.706830
_cell_length_c 9.660950
_cell_angle_alpha 90.000000
_cell_angle_beta 90.000000
_cell_angle_gamma 90.000000
_cell_volume 1988.902483
_symmetry_space_group_name_H-M "P C C M"
_symmetry_group_IT_number 49
_symmetry_cell_setting 'orthorhombic'
loop_
_space_group_symop_operation_xyz
x,y,z
-x,-y,z
x,-y,1/2-z
-x,y,1/2-z
-x,-y,-z
x,y,-z
-x,y,1/2+z
x,-y,1/2+z
loop_
_atom_site_type_symbol
_atom_site_label
_atom_site_fract_x
_atom_site_fract_y
_atom_site_fract_z
Si Si1 0.191222 0.290298 0.257211
Si Si2 0.861220 0.589495 0.000000
Si Si3 0.617167 0.083848 0.343407
Si Si4 0.911614 0.385369 0.000000
Si Si5 0.844767 0.085651 0.344061
Si Si6 0.589312 0.733757 0.333644
O O1 0.119170 0.328441 0.368846
O O2 0.155444 0.187925 0.219104
O O3 0.300439 0.297778 0.313099
O O4 0.183187 0.358032 0.128764
O O5 0.853741 0.480664 0.000000
O O6 0.975499 0.601636 0.000000
O O7 0.577109 0.089145 0.500000
O O8 0.730882 0.073012 0.359196
O O9 0.597058 0.171361 0.250321
O O10 0.589562 0.000000 0.250000
O O11 0.886796 0.084651 0.500000
O O12 0.878900 0.000000 0.250000
O O13 0.500000 0.686852 0.250000
O O14 0.570824 0.739105 0.500000
#
# Coordination Sequence:
#
# PCOD9395080 Si02
#       6
#     8   4   8   4   8   8
#     4  11  22  41  67  99 136 172 212 267 330 384
#     4  11  24  44  74 102 134 157 208 268 342 405
#     4   9  17  30  50  79 120 164 215 271 321 367
#     4  11  24  44  72 108 126 163 206 270 338 403
#     4   9  18  31  55  88 126 175 219 258 307 372
#     4  11  23  37  58  87 124 171 222 261 311 379
#
# _framework density 20.111594
#
# number of rings (size 3 to 8) (size 9 to 14) (size 15 to 20)
#    0.000    1.800    2.000    2.400    4.200    4.400 
#    0.000    2.000    0.000    7.200    0.000    0.000 
#    0.000    0.000    0.000    0.000    0.000    0.000 
#
# Total GULP energy -222784.041002 kJ/mol
# GULP energy per Si atom -5569.601025 kJ/mol
# Density = 2.006582 g / cm^3
# Si number density = 20.111594 Si / 1000 Ang^3
#
#
#
# Elastic Constant Matrix: (Units=GPa)
#
#
# Indices 1 2 3 4 5 6 
#
# 1 46.4190 18.1106 24.5744 0.0000 0.0000 0.0000
# 2 18.1106 111.6410 59.8503 0.0000 0.0000 0.0000
# 3 24.5744 59.8503 194.5314 0.0000 0.0000 0.0000
# 4 0.0000 0.0000 0.0000 -20.6461 0.0000 0.0000
# 5 0.0000 0.0000 0.0000 0.0000 39.0228 0.0000
# 6 0.0000 0.0000 0.0000 0.0000 0.0000 30.8226
#
#
#
# Elastic Compliance Matrix: (Units=1/GPa)
#
#
# Indices 1 2 3 4 5 6 
#
# 1 0.023741 -0.002687 -0.002173 0.000000 0.000000 0.000000
# 2 -0.002687 0.011031 -0.003054 0.000000 0.000000 0.000000
# 3 -0.002173 -0.003054 0.006355 0.000000 0.000000 0.000000
# 4 0.000000 0.000000 0.000000 -0.048435 0.000000 0.000000
# 5 0.000000 0.000000 0.000000 0.000000 0.025626 0.000000
# 6 0.000000 0.000000 0.000000 0.000000 0.000000 0.032444
#
#
# Mechanical properties :
#
#
# Convention : Reuss Voigt Hill
#
# Bulk Modulus (GPa) = 39.52648 61.96243 50.74446
# Shear Modulus (GPa) = 66.64796 26.51027 46.57911
#
# Velocity S-wave (km/s) = 5.76290 3.63458 4.81774
# Velocity P-wave (km/s) = 7.99860 6.96346 7.49891
#
# Compressibility (1/GPa) = 0.02529949
#
# Stress axis : x y z
#
# Youngs Moduli (GPa) = 42.12073 90.65758 157.36370
#
# Poissons Ratio (x) = 0.24357 0.34188
# Poissons Ratio (y) = 0.11316 0.48064
# Poissons Ratio (z) = 0.09151 0.27690
#
# Static dielectric constant tensor:
#      x y z
#    x 1.777400 0.000000 0.000000 
#    y 0.000000 1.659900 0.000000 
#    z 0.000000 0.000000 1.679330 
# 
# From -- ./inp_files/3478.got.cif
#   From: 2010.05.17/outbox.cif.g08.bks.cpg/sg49_2_cif.got.tgz:3478.got - 2010.06.03 21:02:19.
