data_PCOD9395953
_publ_section_title
;
Structure prediction by ZEFSAII (Michael W. Deem and Ramdas Pophale) SiO2 
 PCOD9395953
Probable space group: P B A N
;
_chemical_formula_sum "Si O2"
_cell_formula_units_Z 48
_cell_length_a 15.935044
_cell_length_b 12.296599
_cell_length_c 11.287547
_cell_angle_alpha 90.000000
_cell_angle_beta 90.000000
_cell_angle_gamma 90.000000
_cell_volume 2211.759235
_symmetry_space_group_name_H-M "P B A N"
_symmetry_group_IT_number 50
_space_group.IT_coordinate_system_code '2'
_symmetry_cell_setting 'orthorhombic'
loop_
_space_group_symop_operation_xyz
x,y,z
1/2-x,1/2-y,z
x,1/2-y,-z
1/2-x,y,-z
-x,-y,-z
1/2+x,1/2+y,-z
-x,1/2+y,z
1/2+x,-y,z
loop_
_atom_site_type_symbol
_atom_site_label
_atom_site_fract_x
_atom_site_fract_y
_atom_site_fract_z
Si Si1 0.257064 0.877735 0.773856
Si Si2 0.422085 0.332906 0.254821
Si Si3 0.386281 0.980396 0.935521
Si Si4 0.664164 0.990399 0.428550
Si Si5 0.579173 0.435318 0.341075
Si Si6 0.049858 0.396119 0.155059
O O1 0.250000 0.750000 0.792330
O O2 0.298992 0.934285 0.887583
O O3 0.166996 0.915222 0.725286
O O4 0.318599 0.915304 0.667419
O O5 0.411872 0.418888 0.148577
O O6 0.363211 0.382052 0.358076
O O7 0.515049 0.338738 0.311803
O O8 0.409304 0.216671 0.194259
O O9 0.459746 0.890997 0.911571
O O10 0.394534 0.030075 0.066139
O O11 0.750000 0.969619 0.500000
O O12 0.598320 0.034995 0.524142
O O13 0.538007 0.538793 0.276886
#
# Coordination Sequence:
#
# PCOD9395953 Si02
#       6
#     8   8   8   8   8   8
#     4  10  20  38  61  84 115 154 193 246 312 361
#     4  10  19  36  60  83 114 160 205 248 304 363
#     4   9  20  37  57  85 117 150 201 253 298 364
#     4   9  20  37  55  84 122 155 199 252 298 361
#     4  10  21  35  55  87 118 148 200 254 297 362
#     4  10  20  36  57  82 117 157 196 246 304 363
#
# _framework density 21.702179999999998
#
# number of rings (size 3 to 8) (size 9 to 14) (size 15 to 20)
#    0.000    2.333    0.000    2.000    0.000    4.333 
#    0.000   15.000    0.000    6.000    0.000    0.000 
#    0.000    0.000    0.000    0.000    0.000    0.833 
#
# Total GULP energy -267823.295119 kJ/mol
# GULP energy per Si atom -5579.651982 kJ/mol
# Density = 2.165279 g / cm^3
# Si number density = 21.702180 Si / 1000 Ang^3
#
#
#
# Elastic Constant Matrix: (Units=GPa)
#
#
# Indices 1 2 3 4 5 6 
#
# 1 73.2215 12.6006 38.8726 0.0000 0.0000 0.0000
# 2 12.6006 76.5485 32.2902 0.0000 0.0000 0.0000
# 3 38.8726 32.2902 144.6475 0.0000 0.0000 0.0000
# 4 0.0000 0.0000 0.0000 22.1406 0.0000 0.0000
# 5 0.0000 0.0000 0.0000 0.0000 26.8817 0.0000
# 6 0.0000 0.0000 0.0000 0.0000 0.0000 18.0404
#
#
#
# Elastic Compliance Matrix: (Units=1/GPa)
#
#
# Indices 1 2 3 4 5 6 
#
# 1 0.015986 -0.000904 -0.004094 0.000000 0.000000 0.000000
# 2 -0.000904 0.014473 -0.002988 0.000000 0.000000 0.000000
# 3 -0.004094 -0.002988 0.008681 0.000000 0.000000 0.000000
# 4 0.000000 0.000000 0.000000 0.045166 0.000000 0.000000
# 5 0.000000 0.000000 0.000000 0.000000 0.037200 0.000000
# 6 0.000000 0.000000 0.000000 0.000000 0.000000 0.055431
#
#
# Mechanical properties :
#
#
# Convention : Reuss Voigt Hill
#
# Bulk Modulus (GPa) = 43.16501 51.32712 47.24606
# Shear Modulus (GPa) = 24.92124 27.45616 26.18870
#
# Velocity S-wave (km/s) = 3.39238 3.56073 3.47757
# Velocity P-wave (km/s) = 5.93946 6.37237 6.15972
#
# Compressibility (1/GPa) = 0.02316691
#
# Stress axis : x y z
#
# Youngs Moduli (GPa) = 62.55295 69.09506 115.19896
#
# Poissons Ratio (x) = 0.06249 0.47166
# Poissons Ratio (y) = 0.05657 0.34419
# Poissons Ratio (z) = 0.25611 0.20644
#
# Static dielectric constant tensor:
#      x y z
#    x 1.847600 0.000000 0.000000 
#    y 0.000000 1.763970 0.000000 
#    z 0.000000 0.000000 1.788580 
# 
# From -- ./inp_files/21772.got.cif
#   From: 2010.05.17/outbox.cif.g08.bks.cpg/sg50_11_cif.got.tgz:21772.got - 2010.06.03 11:33:33.
