data_PCOD9395185
_publ_section_title
;
Structure prediction by ZEFSAII (Michael W. Deem and Ramdas Pophale) SiO2 
 PCOD9395185
Probable space group: P C C M
;
_chemical_formula_sum "Si O2"
_cell_formula_units_Z 20
_cell_length_a 5.038622
_cell_length_b 5.841857
_cell_length_c 28.150434
_cell_angle_alpha 90.000000
_cell_angle_beta 90.000000
_cell_angle_gamma 90.000000
_cell_volume 828.605469
_symmetry_space_group_name_H-M "P C C M"
_symmetry_group_IT_number 49
_symmetry_cell_setting 'orthorhombic'
loop_
_space_group_symop_operation_xyz
x,y,z
-x,-y,z
x,-y,1/2-z
-x,y,1/2-z
-x,-y,-z
x,y,-z
-x,y,1/2+z
x,-y,1/2+z
loop_
_atom_site_type_symbol
_atom_site_label
_atom_site_fract_x
_atom_site_fract_y
_atom_site_fract_z
Si Si1 0.000000 0.000000 0.250000
Si Si2 0.260694 0.841656 0.926487
Si Si3 0.000000 0.500000 0.000000
Si Si4 0.741440 0.656933 0.322315
O O1 0.819605 0.845504 0.284017
O O2 0.328496 0.764531 0.873238
O O3 0.182848 0.627574 0.958836
O O4 0.500000 0.000000 0.944967
O O5 0.000000 0.000000 0.925548
O O6 0.500000 0.500000 0.306439
O O7 0.000000 0.500000 0.329204
#
# Coordination Sequence:
#
# PCOD9395185 Si02
#       4
#     2   8   2   8
#     4  12  30  54  84 118 160 214 262 338 384 482
#     4  12  27  51  80 115 158 205 261 326 395 466
#     4  12  28  50  84 114 154 212 262 328 384 482
#     4  12  28  53  81 116 159 208 263 326 398 470
#
# _framework density 24.136942999999999
#
# number of rings (size 3 to 8) (size 9 to 14) (size 15 to 20)
#    0.000    0.000    4.000    4.200    0.000    6.400 
#    0.000    0.000    0.000    0.000    0.000    0.000 
#    0.000    0.000    0.000    0.000    0.000    0.000 
#
# Total GULP energy -111811.655325 kJ/mol
# GULP energy per Si atom -5590.582766 kJ/mol
# Density = 2.408201 g / cm^3
# Si number density = 24.136943 Si / 1000 Ang^3
#
#
#
# Elastic Constant Matrix: (Units=GPa)
#
#
# Indices 1 2 3 4 5 6 
#
# 1 152.5060 94.1177 42.1353 0.0000 0.0000 0.0000
# 2 94.1177 129.5078 87.9538 0.0000 0.0000 0.0000
# 3 42.1353 87.9538 225.1140 0.0000 0.0000 0.0000
# 4 0.0000 0.0000 0.0000 -7.5577 0.0000 0.0000
# 5 0.0000 0.0000 0.0000 0.0000 1.5249 0.0000
# 6 0.0000 0.0000 0.0000 0.0000 0.0000 69.7815
#
#
#
# Elastic Compliance Matrix: (Units=1/GPa)
#
#
# Indices 1 2 3 4 5 6 
#
# 1 0.012309 -0.010047 0.001621 0.000000 0.000000 0.000000
# 2 -0.010047 0.018711 -0.005430 0.000000 0.000000 0.000000
# 3 0.001621 -0.005430 0.006260 0.000000 0.000000 0.000000
# 4 0.000000 0.000000 0.000000 -0.132315 0.000000 0.000000
# 5 0.000000 0.000000 0.000000 0.000000 0.655766 0.000000
# 6 0.000000 0.000000 0.000000 0.000000 0.000000 0.014330
#
#
# Mechanical properties :
#
#
# Convention : Reuss Voigt Hill
#
# Bulk Modulus (GPa) = 104.49789 106.17128 105.33459
# Shear Modulus (GPa) = 8.25135 31.61115 19.93125
#
# Velocity S-wave (km/s) = 1.85094 3.62285 2.87672
# Velocity P-wave (km/s) = 6.92501 7.84746 7.40062
#
# Compressibility (1/GPa) = 0.00956957
#
# Stress axis : x y z
#
# Youngs Moduli (GPa) = 81.23817 53.44575 159.73929
#
# Poissons Ratio (x) = 0.53696 -0.25900
# Poissons Ratio (y) = 0.81619 0.86736
# Poissons Ratio (z) = -0.13172 0.29020
#
# Static dielectric constant tensor:
#      x y z
#    x 1.878740 0.000000 0.000000 
#    y 0.000000 1.933500 0.000000 
#    z 0.000000 0.000000 1.869010 
# 
# From -- ./inp_files/23515.got.cif
#   From: 2010.05.17/outbox.cif.g08.bks.cpg/sg49_12_cif.got.tgz:23515.got - 2010.06.03 21:02:19.
