data_PCOD9395406
_publ_section_title
;
Structure prediction by ZEFSAII (Michael W. Deem and Ramdas Pophale) SiO2 
 PCOD9395406
Probable space group: P B A N
;
_chemical_formula_sum "Si O2"
_cell_formula_units_Z 32
_cell_length_a 9.980200
_cell_length_b 14.932659
_cell_length_c 9.578955
_cell_angle_alpha 90.000000
_cell_angle_beta 90.000000
_cell_angle_gamma 90.000000
_cell_volume 1427.560508
_symmetry_space_group_name_H-M "P B A N"
_symmetry_group_IT_number 50
_space_group.IT_coordinate_system_code '2'
_symmetry_cell_setting 'orthorhombic'
loop_
_space_group_symop_operation_xyz
x,y,z
1/2-x,1/2-y,z
x,1/2-y,-z
1/2-x,y,-z
-x,-y,-z
1/2+x,1/2+y,-z
-x,1/2+y,z
1/2+x,-y,z
loop_
_atom_site_type_symbol
_atom_site_label
_atom_site_fract_x
_atom_site_fract_y
_atom_site_fract_z
Si Si1 0.943378 0.153634 0.825819
Si Si2 0.930637 0.509091 0.352077
Si Si3 0.971265 0.143896 0.139549
Si Si4 0.750604 0.653146 0.748361
O O1 0.916602 0.259774 0.808394
O O2 0.102114 0.139026 0.803659
O O3 0.914038 0.127962 0.986094
O O4 0.884007 0.084473 0.715564
O O5 0.033357 0.561426 0.246013
O O6 0.804795 0.575823 0.349972
O O7 0.000000 0.500000 0.500000
O O8 0.133691 0.158433 0.133730
O O9 0.750000 0.750000 0.676621
#
# Coordination Sequence:
#
# PCOD9395406 Si02
#       4
#     8   8   8   8
#     4  10  16  33  57  74 109 140 192 237 282 320
#     4  10  21  31  47  82 114 149 185 224 285 340
#     4   8  18  32  52  81 103 143 187 238 277 326
#     4   8  17  33  52  79 106 141 188 235 274 323
#
# _framework density 22.415863000000002
#
# number of rings (size 3 to 8) (size 9 to 14) (size 15 to 20)
#    1.500    1.500    0.000    1.500    0.000    5.000 
#    0.000    1.250    0.000    1.500    0.000    7.000 
#    0.000    0.000    0.000    0.000    0.000    0.000 
#
# Total GULP energy -178268.470487 kJ/mol
# GULP energy per Si atom -5570.889703 kJ/mol
# Density = 2.236484 g / cm^3
# Si number density = 22.415863 Si / 1000 Ang^3
#
#
#
# Elastic Constant Matrix: (Units=GPa)
#
#
# Indices 1 2 3 4 5 6 
#
# 1 61.9474 3.9590 -4.5349 0.0000 0.0000 0.0000
# 2 3.9590 137.5331 65.6178 0.0000 0.0000 0.0000
# 3 -4.5349 65.6178 94.6721 0.0000 0.0000 0.0000
# 4 0.0000 0.0000 0.0000 -37.6511 0.0000 0.0000
# 5 0.0000 0.0000 0.0000 0.0000 9.8814 0.0000
# 6 0.0000 0.0000 0.0000 0.0000 0.0000 32.9896
#
#
#
# Elastic Compliance Matrix: (Units=1/GPa)
#
#
# Indices 1 2 3 4 5 6 
#
# 1 0.016345 -0.001261 0.001657 0.000000 0.000000 0.000000
# 2 -0.001261 0.010961 -0.007657 0.000000 0.000000 0.000000
# 3 0.001657 -0.007657 0.015949 0.000000 0.000000 0.000000
# 4 0.000000 0.000000 0.000000 -0.026560 0.000000 0.000000
# 5 0.000000 0.000000 0.000000 0.000000 0.101200 0.000000
# 6 0.000000 0.000000 0.000000 0.000000 0.000000 0.030313
#
#
# Mechanical properties :
#
#
# Convention : Reuss Voigt Hill
#
# Bulk Modulus (GPa) = 34.80445 47.13738 40.97091
# Shear Modulus (GPa) = 29.01787 16.31803 22.66795
#
# Velocity S-wave (km/s) = 3.60185 2.70102 3.18346
# Velocity P-wave (km/s) = 5.73221 5.54991 5.64180
#
# Compressibility (1/GPa) = 0.02873196
#
# Stress axis : x y z
#
# Youngs Moduli (GPa) = 61.18226 91.23595 62.69820
#
# Poissons Ratio (x) = 0.11505 -0.10389
# Poissons Ratio (y) = 0.07715 0.48010
# Poissons Ratio (z) = -0.10138 0.69862
#
# Static dielectric constant tensor:
#      x y z
#    x 1.896780 0.000000 0.000000 
#    y 0.000000 1.827670 0.000000 
#    z 0.000000 0.000000 1.897600 
# 
# From -- ./inp_files/12335.got.cif
#   From: 2010.05.17/outbox.cif.g08.bks.cpg/sg50_7_cif.got.tgz:12335.got - 2010.06.03 11:33:33.
