data_PCOD9395629
_publ_section_title
;
Structure prediction by ZEFSAII (Michael W. Deem and Ramdas Pophale) SiO2 
 PCOD9395629
Probable space group: P B A N
;
_chemical_formula_sum "Si O2"
_cell_formula_units_Z 30
_cell_length_a 15.479503
_cell_length_b 17.281538
_cell_length_c 5.209546
_cell_angle_alpha 90.000000
_cell_angle_beta 90.000000
_cell_angle_gamma 90.000000
_cell_volume 1393.603667
_symmetry_space_group_name_H-M "P B A N"
_symmetry_group_IT_number 50
_space_group.IT_coordinate_system_code '2'
_symmetry_cell_setting 'orthorhombic'
loop_
_space_group_symop_operation_xyz
x,y,z
1/2-x,1/2-y,z
x,1/2-y,-z
1/2-x,y,-z
-x,-y,-z
1/2+x,1/2+y,-z
-x,1/2+y,z
1/2+x,-y,z
loop_
_atom_site_type_symbol
_atom_site_label
_atom_site_fract_x
_atom_site_fract_y
_atom_site_fract_z
Si Si1 0.688478 0.528278 0.245096
Si Si2 0.093474 0.321338 0.202237
Si Si3 0.250000 0.250000 0.500000
Si Si4 0.190372 0.648686 0.249728
Si Si5 0.554568 0.250000 0.500000
O O1 0.750000 0.541423 0.500000
O O2 0.611551 0.587741 0.172237
O O3 0.656868 0.439549 0.258376
O O4 0.750000 0.533660 0.000000
O O5 0.185169 0.299436 0.330753
O O6 0.010316 0.312415 0.380590
O O7 0.082880 0.250000 0.000000
O O8 0.250000 0.657959 0.500000
O O9 0.113825 0.709404 0.287363
O O10 0.250000 0.658793 0.000000
#
# Coordination Sequence:
#
# PCOD9395629 Si02
#       5
#     8   8   2   8   4
#     4  10  21  42  69  97 131 184 236 274 340 408
#     4  11  23  37  63  99 142 177 221 283 336 422
#     4  10  18  36  58  90 130 178 220 260 338 394
#     4  10  24  46  72  94 129 183 236 291 336 407
#     4  11  27  41  63 106 136 174 233 283 359 397
#
# _framework density 21.526923
#
# number of rings (size 3 to 8) (size 9 to 14) (size 15 to 20)
#    0.000    1.600    1.333    2.400    7.467    2.133 
#    0.000    1.333    0.000    0.000    0.000    0.000 
#    0.000    0.000    0.000    0.000    0.000    0.000 
#
# Total GULP energy -167228.016119 kJ/mol
# GULP energy per Si atom -5574.267204 kJ/mol
# Density = 2.147793 g / cm^3
# Si number density = 21.526923 Si / 1000 Ang^3
#
#
#
# Elastic Constant Matrix: (Units=GPa)
#
#
# Indices 1 2 3 4 5 6 
#
# 1 102.7078 57.7970 30.9006 0.0000 0.0000 0.0000
# 2 57.7970 150.5376 24.0436 0.0000 0.0000 0.0000
# 3 30.9006 24.0436 117.5361 0.0000 0.0000 0.0000
# 4 0.0000 0.0000 0.0000 45.3246 0.0000 0.0000
# 5 0.0000 0.0000 0.0000 0.0000 32.8777 0.0000
# 6 0.0000 0.0000 0.0000 0.0000 0.0000 -7.2355
#
#
#
# Elastic Compliance Matrix: (Units=1/GPa)
#
#
# Indices 1 2 3 4 5 6 
#
# 1 0.013091 -0.004628 -0.002495 0.000000 0.000000 0.000000
# 2 -0.004628 0.008503 -0.000523 0.000000 0.000000 0.000000
# 3 -0.002495 -0.000523 0.009271 0.000000 0.000000 0.000000
# 4 0.000000 0.000000 0.000000 0.022063 0.000000 0.000000
# 5 0.000000 0.000000 0.000000 0.000000 0.030416 0.000000
# 6 0.000000 0.000000 0.000000 0.000000 0.000000 -0.138208
#
#
# Mechanical properties :
#
#
# Convention : Reuss Voigt Hill
#
# Bulk Modulus (GPa) = 64.20902 66.25155 65.23028
# Shear Modulus (GPa) = -145.42646 31.39606 -57.01520
#
# Velocity S-wave (km/s) = -8.22814 3.82312 -5.15199
# Velocity P-wave (km/s) = 7.77030 7.09445 2.24125
#
# Compressibility (1/GPa) = 0.01557414
#
# Stress axis : x y z
#
# Youngs Moduli (GPa) = 76.38737 117.60419 107.86411
#
# Poissons Ratio (x) = 0.54423 0.26913
# Poissons Ratio (y) = 0.35350 0.05639
# Poissons Ratio (z) = 0.19059 0.06148
#
# Static dielectric constant tensor:
#      x y z
#    x 1.480560 0.000000 0.000000 
#    y 0.000000 1.900500 0.000000 
#    z 0.000000 0.000000 1.823750 
# 
# From -- ./inp_files/2940.got.cif
#   From: 2010.05.17/outbox.cif.g08.bks.cpg/sg50_2_cif.got.tgz:2940.got - 2010.06.03 11:33:33.
