data_PCOD9395605
_publ_section_title
;
Structure prediction by ZEFSAII (Michael W. Deem and Ramdas Pophale) SiO2 
 PCOD9395605
Probable space group: P B A N
;
_chemical_formula_sum "Si O2"
_cell_formula_units_Z 48
_cell_length_a 17.307641
_cell_length_b 16.345653
_cell_length_c 8.661744
_cell_angle_alpha 90.000000
_cell_angle_beta 90.000000
_cell_angle_gamma 90.000000
_cell_volume 2450.448036
_symmetry_space_group_name_H-M "P B A N"
_symmetry_group_IT_number 50
_space_group.IT_coordinate_system_code '2'
_symmetry_cell_setting 'orthorhombic'
loop_
_space_group_symop_operation_xyz
x,y,z
1/2-x,1/2-y,z
x,1/2-y,-z
1/2-x,y,-z
-x,-y,-z
1/2+x,1/2+y,-z
-x,1/2+y,z
1/2+x,-y,z
loop_
_atom_site_type_symbol
_atom_site_label
_atom_site_fract_x
_atom_site_fract_y
_atom_site_fract_z
Si Si1 0.174823 0.978806 0.598736
Si Si2 0.336207 0.333158 0.068451
Si Si3 0.447718 0.843162 0.508162
Si Si4 0.946856 0.051897 0.793903
Si Si5 0.112436 0.498030 0.091173
Si Si6 0.387021 0.394483 0.383985
O O1 0.250000 0.955845 0.500000
O O2 0.110122 0.909518 0.566997
O O3 0.178857 0.984369 0.784515
O O4 0.153549 0.070774 0.538329
O O5 0.342667 0.341140 0.254679
O O6 0.372119 0.250000 0.000000
O O7 0.250000 0.335257 0.000000
O O8 0.375294 0.412692 0.996022
O O9 0.421252 0.750000 0.500000
O O10 0.453760 0.870026 0.686379
O O11 0.531907 0.853613 0.429877
O O12 0.031616 0.014582 0.821037
O O13 0.902891 0.981520 0.699112
O O14 0.903836 0.063243 0.956449
#
# Coordination Sequence:
#
# PCOD9395605 Si02
#       6
#     8   8   8   8   8   8
#     4  11  21  37  61  85 112 155 205 247 299 366
#     4  10  22  35  50  82 122 151 183 240 314 372
#     4  11  22  37  56  85 120 152 196 253 309 362
#     4   9  18  35  57  81 111 143 196 246 287 349
#     4  10  18  34  59  82 110 151 200 244 290 361
#     4  10  19  37  56  78 110 150 195 242 289 361
#
# _framework density 19.588255
#
# number of rings (size 3 to 8) (size 9 to 14) (size 15 to 20)
#    0.000    1.833    3.333    2.000    2.333    0.333 
#    0.000    0.833    0.000    3.000    0.000    7.000 
#    0.000    0.000    0.000    0.000    0.000    0.000 
#
# Total GULP energy -267462.557960 kJ/mol
# GULP energy per Si atom -5572.136624 kJ/mol
# Density = 1.954367 g / cm^3
# Si number density = 19.588255 Si / 1000 Ang^3
#
#
#
# Elastic Constant Matrix: (Units=GPa)
#
#
# Indices 1 2 3 4 5 6 
#
# 1 50.3864 4.6343 17.5516 0.0000 0.0000 0.0000
# 2 4.6343 76.5465 40.1335 0.0000 0.0000 0.0000
# 3 17.5516 40.1335 127.7136 0.0000 0.0000 0.0000
# 4 0.0000 0.0000 0.0000 16.4312 0.0000 0.0000
# 5 0.0000 0.0000 0.0000 0.0000 35.3329 0.0000
# 6 0.0000 0.0000 0.0000 0.0000 0.0000 10.7165
#
#
#
# Elastic Compliance Matrix: (Units=1/GPa)
#
#
# Indices 1 2 3 4 5 6 
#
# 1 0.020850 0.000287 -0.002956 0.000000 0.000000 0.000000
# 2 0.000287 0.015645 -0.004956 0.000000 0.000000 0.000000
# 3 -0.002956 -0.004956 0.009794 0.000000 0.000000 0.000000
# 4 0.000000 0.000000 0.000000 0.060860 0.000000 0.000000
# 5 0.000000 0.000000 0.000000 0.000000 0.028302 0.000000
# 6 0.000000 0.000000 0.000000 0.000000 0.000000 0.093314
#
#
# Mechanical properties :
#
#
# Convention : Reuss Voigt Hill
#
# Bulk Modulus (GPa) = 32.21653 42.14282 37.17967
# Shear Modulus (GPa) = 19.65723 25.31793 22.48758
#
# Velocity S-wave (km/s) = 3.17128 3.59904 3.39191
# Velocity P-wave (km/s) = 5.46735 6.23152 5.86190
#
# Compressibility (1/GPa) = 0.03103996
#
# Stress axis : x y z
#
# Youngs Moduli (GPa) = 47.96217 63.91850 102.10777
#
# Poissons Ratio (x) = -0.01837 0.30180
# Poissons Ratio (y) = -0.01378 0.50603
# Poissons Ratio (z) = 0.14176 0.31677
#
# Static dielectric constant tensor:
#      x y z
#    x 1.813290 0.000000 0.000000 
#    y 0.000000 1.672540 0.000000 
#    z 0.000000 0.000000 1.791490 
# 
# From -- ./inp_files/14351.got.cif
#   From: 2010.05.17/outbox.cif.g08.bks.cpg/sg50_8_cif.got.tgz:14351.got - 2010.06.03 11:33:33.
