data_PCOD9395665
_publ_section_title
;
Structure prediction by ZEFSAII (Michael W. Deem and Ramdas Pophale) SiO2 
 PCOD9395665
Probable space group: P B A N
;
_chemical_formula_sum "Si O2"
_cell_formula_units_Z 48
_cell_length_a 27.134762
_cell_length_b 5.294703
_cell_length_c 13.980288
_cell_angle_alpha 90.000000
_cell_angle_beta 90.000000
_cell_angle_gamma 90.000000
_cell_volume 2008.555048
_symmetry_space_group_name_H-M "P B A N"
_symmetry_group_IT_number 50
_space_group.IT_coordinate_system_code '2'
_symmetry_cell_setting 'orthorhombic'
loop_
_space_group_symop_operation_xyz
x,y,z
1/2-x,1/2-y,z
x,1/2-y,-z
1/2-x,y,-z
-x,-y,-z
1/2+x,1/2+y,-z
-x,1/2+y,z
1/2+x,-y,z
loop_
_atom_site_type_symbol
_atom_site_label
_atom_site_fract_x
_atom_site_fract_y
_atom_site_fract_z
Si Si1 0.377123 0.189893 0.372442
Si Si2 0.807075 0.220112 0.831813
Si Si3 0.484555 0.286875 0.394007
Si Si4 0.520733 0.563489 0.105820
Si Si5 0.631219 0.788998 0.853470
Si Si6 0.824710 0.186646 0.602125
O O1 0.427065 0.319799 0.406062
O O2 0.379257 0.203811 0.259116
O O3 0.335651 0.388762 0.402726
O O4 0.368296 0.900182 0.400585
O O5 0.750000 0.250000 0.860458
O O6 0.835554 0.464886 0.871306
O O7 0.806830 0.223127 0.713199
O O8 0.837045 0.969395 0.866818
O O9 0.507977 0.250000 0.500000
O O10 0.508496 0.521674 0.344390
O O11 0.513605 0.283659 0.149885
O O12 0.576806 0.665293 0.103309
O O13 0.500000 0.500000 0.000000
O O14 0.799634 0.250000 0.500000
#
# Coordination Sequence:
#
# PCOD9395665 Si02
#       6
#     8   8   8   8   8   8
#     4  10  20  32  47  69 100 141 190 248 303 357
#     4  10  21  37  57  85 120 161 210 259 307 361
#     4  10  19  28  39  57  84 124 174 227 283 340
#     4  10  21  38  63  97 129 159 191 236 302 373
#     4  10  21  37  58  86 120 157 200 248 303 364
#     4  10  19  32  51  72 101 146 199 255 309 355
#
# _framework density 23.897777999999999
#
# number of rings (size 3 to 8) (size 9 to 14) (size 15 to 20)
#    0.000    2.000    0.000    4.000    0.000    3.000 
#    0.000    0.000    0.000    6.000    0.000   35.000 
#    0.000    0.000    0.000    0.000    0.000    0.000 
#
# Total GULP energy -267366.241122 kJ/mol
# GULP energy per Si atom -5570.130023 kJ/mol
# Density = 2.384339 g / cm^3
# Si number density = 23.897778 Si / 1000 Ang^3
#
#
#
# Elastic Constant Matrix: (Units=GPa)
#
#
# Indices 1 2 3 4 5 6 
#
# 1 153.0624 57.9773 21.1720 0.0000 0.0000 0.0000
# 2 57.9773 187.0559 35.1110 0.0000 0.0000 0.0000
# 3 21.1720 35.1110 78.2201 0.0000 0.0000 0.0000
# 4 0.0000 0.0000 0.0000 19.0787 0.0000 0.0000
# 5 0.0000 0.0000 0.0000 0.0000 15.9487 0.0000
# 6 0.0000 0.0000 0.0000 0.0000 0.0000 17.3130
#
#
#
# Elastic Compliance Matrix: (Units=1/GPa)
#
#
# Indices 1 2 3 4 5 6 
#
# 1 0.007484 -0.002118 -0.001075 0.000000 0.000000 0.000000
# 2 -0.002118 0.006437 -0.002316 0.000000 0.000000 0.000000
# 3 -0.001075 -0.002316 0.014115 0.000000 0.000000 0.000000
# 4 0.000000 0.000000 0.000000 0.052414 0.000000 0.000000
# 5 0.000000 0.000000 0.000000 0.000000 0.062701 0.000000
# 6 0.000000 0.000000 0.000000 0.000000 0.000000 0.057760
#
#
# Mechanical properties :
#
#
# Convention : Reuss Voigt Hill
#
# Bulk Modulus (GPa) = 58.76104 71.87322 65.31713
# Shear Modulus (GPa) = 22.97760 30.73996 26.85878
#
# Velocity S-wave (km/s) = 3.10416 3.59041 3.35610
# Velocity P-wave (km/s) = 6.12288 6.87958 6.51223
#
# Compressibility (1/GPa) = 0.01701808
#
# Stress axis : x y z
#
# Youngs Moduli (GPa) = 133.61452 155.34716 70.84593
#
# Poissons Ratio (x) = 0.32901 0.07617
# Poissons Ratio (y) = 0.28298 0.16410
# Poissons Ratio (z) = 0.14365 0.35982
#
# Static dielectric constant tensor:
#      x y z
#    x 1.872390 0.000000 0.000000 
#    y 0.000000 1.967780 0.000000 
#    z 0.000000 0.000000 2.017050 
# 
# From -- ./inp_files/27617.got.cif
#   From: 2010.05.17/outbox.cif.g08.bks.cpg/sg50_14_cif.got.tgz:27617.got - 2010.06.03 11:33:33.
