data_PCOD9395138
_publ_section_title
;
Structure prediction by ZEFSAII (Michael W. Deem and Ramdas Pophale) SiO2 
 PCOD9395138
Probable space group: P C C M
;
_chemical_formula_sum "Si O2"
_cell_formula_units_Z 48
_cell_length_a 8.406986
_cell_length_b 8.720686
_cell_length_c 29.548936
_cell_angle_alpha 90.000000
_cell_angle_beta 90.000000
_cell_angle_gamma 90.000000
_cell_volume 2166.370938
_symmetry_space_group_name_H-M "P C C M"
_symmetry_group_IT_number 49
_symmetry_cell_setting 'orthorhombic'
loop_
_space_group_symop_operation_xyz
x,y,z
-x,-y,z
x,-y,1/2-z
-x,y,1/2-z
-x,-y,-z
x,y,-z
-x,y,1/2+z
x,-y,1/2+z
loop_
_atom_site_type_symbol
_atom_site_label
_atom_site_fract_x
_atom_site_fract_y
_atom_site_fract_z
Si Si1 0.871505 0.373510 0.618346
Si Si2 0.813036 0.675175 0.739407
Si Si3 0.636331 0.103238 0.885461
Si Si4 0.367544 0.401490 0.654748
Si Si5 0.832189 0.906802 0.813062
Si Si6 0.934956 0.173667 0.948294
O O1 0.714486 0.478518 0.620517
O O2 0.866751 0.240677 0.655482
O O3 0.000000 0.500000 0.631748
O O4 0.936169 0.289260 0.573559
O O5 0.762517 0.500000 0.750000
O O6 0.759847 0.678330 0.687687
O O7 0.758256 0.823989 0.768343
O O8 0.000000 0.678592 0.750000
O O9 0.552607 0.257008 0.868587
O O10 0.778365 0.162144 0.917358
O O11 0.500000 0.000000 0.907829
O O12 0.714077 0.008448 0.843741
O O13 0.500000 0.500000 0.680282
O O14 0.000000 0.000000 0.805333
O O15 0.900398 0.216616 0.000000
O O16 0.000000 0.000000 0.947455
#
# Coordination Sequence:
#
# PCOD9395138 Si02
#       6
#     8   8   8   8   8   8
#     4  12  20  42  72 101 139 181 236 287 351 424
#     4  11  24  40  67  97 133 178 234 290 343 399
#     4  12  25  45  68  99 144 188 234 287 358 430
#     4  12  27  45  69 102 141 192 235 295 361 422
#     4  12  22  42  71 101 133 185 239 290 340 414
#     4  11  24  44  76 109 139 181 235 295 358 433
#
# _framework density 22.156867999999999
#
# number of rings (size 3 to 8) (size 9 to 14) (size 15 to 20)
#    0.000    0.333    6.667    3.000    0.000    3.333 
#    0.000    0.833    0.000    1.000    0.000    0.000 
#    0.000    0.000    0.000    0.000    0.000    0.000 
#
# Total GULP energy -267894.624862 kJ/mol
# GULP energy per Si atom -5581.138018 kJ/mol
# Density = 2.210644 g / cm^3
# Si number density = 22.156868 Si / 1000 Ang^3
#
#
#
# Elastic Constant Matrix: (Units=GPa)
#
#
# Indices 1 2 3 4 5 6 
#
# 1 58.8683 27.6984 24.4601 0.0000 0.0000 0.0000
# 2 27.6984 166.1908 47.8159 0.0000 0.0000 0.0000
# 3 24.4601 47.8159 101.7982 0.0000 0.0000 0.0000
# 4 0.0000 0.0000 0.0000 11.0120 0.0000 0.0000
# 5 0.0000 0.0000 0.0000 0.0000 8.7889 0.0000
# 6 0.0000 0.0000 0.0000 0.0000 0.0000 40.4105
#
#
#
# Elastic Compliance Matrix: (Units=1/GPa)
#
#
# Indices 1 2 3 4 5 6 
#
# 1 0.019545 -0.002204 -0.003661 0.000000 0.000000 0.000000
# 2 -0.002204 0.007206 -0.002855 0.000000 0.000000 0.000000
# 3 -0.003661 -0.002855 0.012044 0.000000 0.000000 0.000000
# 4 0.000000 0.000000 0.000000 0.090810 0.000000 0.000000
# 5 0.000000 0.000000 0.000000 0.000000 0.113780 0.000000
# 6 0.000000 0.000000 0.000000 0.000000 0.000000 0.024746
#
#
# Mechanical properties :
#
#
# Convention : Reuss Voigt Hill
#
# Bulk Modulus (GPa) = 46.82792 58.53399 52.68096
# Shear Modulus (GPa) = 17.08290 27.16780 22.12535
#
# Velocity S-wave (km/s) = 2.77970 3.50545 3.16346
# Velocity P-wave (km/s) = 5.61096 6.54672 6.09682
#
# Compressibility (1/GPa) = 0.02135478
#
# Stress axis : x y z
#
# Youngs Moduli (GPa) = 51.16308 138.77288 83.02811
#
# Poissons Ratio (x) = 0.30588 0.30397
# Poissons Ratio (y) = 0.11277 0.23706
# Poissons Ratio (z) = 0.18731 0.39621
#
# Static dielectric constant tensor:
#      x y z
#    x 1.875920 0.000000 0.000000 
#    y 0.000000 1.826140 0.000000 
#    z 0.000000 0.000000 1.852900 
# 
# From -- ./inp_files/26263.got.cif
#   From: 2010.05.17/outbox.cif.g08.bks.cpg/sg49_14_cif.got.tgz:26263.got - 2010.06.03 21:02:19.
