data_PCOD9395814
_publ_section_title
;
Structure prediction by ZEFSAII (Michael W. Deem and Ramdas Pophale) SiO2 
 PCOD9395814
Probable space group: P B A N
;
_chemical_formula_sum "Si O2"
_cell_formula_units_Z 24
_cell_length_a 12.539273
_cell_length_b 11.439515
_cell_length_c 7.099123
_cell_angle_alpha 90.000000
_cell_angle_beta 90.000000
_cell_angle_gamma 90.000000
_cell_volume 1018.320931
_symmetry_space_group_name_H-M "P B A N"
_symmetry_group_IT_number 50
_space_group.IT_coordinate_system_code '2'
_symmetry_cell_setting 'orthorhombic'
loop_
_space_group_symop_operation_xyz
x,y,z
1/2-x,1/2-y,z
x,1/2-y,-z
1/2-x,y,-z
-x,-y,-z
1/2+x,1/2+y,-z
-x,1/2+y,z
1/2+x,-y,z
loop_
_atom_site_type_symbol
_atom_site_label
_atom_site_fract_x
_atom_site_fract_y
_atom_site_fract_z
Si Si1 0.908901 0.782385 0.293191
Si Si2 0.115603 0.443748 0.965388
Si Si3 0.148052 0.817404 0.198171
O O1 0.869970 0.750000 0.500000
O O2 0.896714 0.665800 0.171013
O O3 0.035650 0.812865 0.305163
O O4 0.854796 0.885229 0.167839
O O5 0.174019 0.549567 0.858179
O O6 0.000000 0.500000 0.000000
O O7 0.250000 0.750000 0.282368
O O8 0.128220 0.750000 0.000000
#
# Coordination Sequence:
#
# PCOD9395814 Si02
#       3
#     8   8   8
#     4  10  19  33  60  84 112 153 194 235 282 334
#     4   9  17  35  53  83 114 147 192 236 274 343
#     4  10  19  34  55  83 118 148 190 234 289 334
#
# _framework density 23.568209
#
# number of rings (size 3 to 8) (size 9 to 14) (size 15 to 20)
#    0.000    2.333    6.667    0.000    0.000    6.000 
#    0.000    0.000    0.000   16.000    8.667    9.333 
#    0.000    0.000    0.000    0.000    0.000    0.000 
#
# Total GULP energy -133932.147446 kJ/mol
# GULP energy per Si atom -5580.506144 kJ/mol
# Density = 2.351457 g / cm^3
# Si number density = 23.568209 Si / 1000 Ang^3
#
#
#
# Elastic Constant Matrix: (Units=GPa)
#
#
# Indices 1 2 3 4 5 6 
#
# 1 127.8732 53.3550 12.4763 0.0000 0.0000 0.0000
# 2 53.3550 215.7700 60.7565 0.0000 0.0000 0.0000
# 3 12.4763 60.7565 154.5292 0.0000 0.0000 0.0000
# 4 0.0000 0.0000 0.0000 13.1405 0.0000 0.0000
# 5 0.0000 0.0000 0.0000 0.0000 1.6065 0.0000
# 6 0.0000 0.0000 0.0000 0.0000 0.0000 36.3489
#
#
#
# Elastic Compliance Matrix: (Units=1/GPa)
#
#
# Indices 1 2 3 4 5 6 
#
# 1 0.008724 -0.002203 0.000162 0.000000 0.000000 0.000000
# 2 -0.002203 0.005768 -0.002090 0.000000 0.000000 0.000000
# 3 0.000162 -0.002090 0.007280 0.000000 0.000000 0.000000
# 4 0.000000 0.000000 0.000000 0.076101 0.000000 0.000000
# 5 0.000000 0.000000 0.000000 0.000000 0.622490 0.000000
# 6 0.000000 0.000000 0.000000 0.000000 0.000000 0.027511
#
#
# Mechanical properties :
#
#
# Convention : Reuss Voigt Hill
#
# Bulk Modulus (GPa) = 74.02205 83.48311 78.75258
# Shear Modulus (GPa) = 6.57343 34.99148 20.78246
#
# Velocity S-wave (km/s) = 1.67187 3.85735 2.97273
# Velocity P-wave (km/s) = 5.93318 7.43893 6.72831
#
# Compressibility (1/GPa) = 0.01350949
#
# Stress axis : x y z
#
# Youngs Moduli (GPa) = 114.63252 173.37951 137.36483
#
# Poissons Ratio (x) = 0.38190 -0.02221
# Poissons Ratio (y) = 0.25250 0.28707
# Poissons Ratio (z) = -0.01854 0.36234
#
# Static dielectric constant tensor:
#      x y z
#    x 2.069820 0.000000 0.000000 
#    y 0.000000 1.842490 0.000000 
#    z 0.000000 0.000000 1.846150 
# 
# From -- ./inp_files/13768.got.cif
#   From: 2010.05.17/outbox.cif.g08.bks.cpg/sg50_7_cif.got.tgz:13768.got - 2010.06.03 11:33:33.
