data_PCOD9395779
_publ_section_title
;
Structure prediction by ZEFSAII (Michael W. Deem and Ramdas Pophale) SiO2 
 PCOD9395779
Probable space group: P B A N
;
_chemical_formula_sum "Si O2"
_cell_formula_units_Z 48
_cell_length_a 7.769043
_cell_length_b 19.715217
_cell_length_c 14.285306
_cell_angle_alpha 90.000000
_cell_angle_beta 90.000000
_cell_angle_gamma 90.000000
_cell_volume 2188.057015
_symmetry_space_group_name_H-M "P B A N"
_symmetry_group_IT_number 50
_space_group.IT_coordinate_system_code '2'
_symmetry_cell_setting 'orthorhombic'
loop_
_space_group_symop_operation_xyz
x,y,z
1/2-x,1/2-y,z
x,1/2-y,-z
1/2-x,y,-z
-x,-y,-z
1/2+x,1/2+y,-z
-x,1/2+y,z
1/2+x,-y,z
loop_
_atom_site_type_symbol
_atom_site_label
_atom_site_fract_x
_atom_site_fract_y
_atom_site_fract_z
Si Si1 0.414370 0.067411 0.610639
Si Si2 0.509827 0.149590 0.223873
Si Si3 0.624851 0.463211 0.924879
Si Si4 0.368577 0.401951 0.188694
Si Si5 0.495373 0.411148 0.585195
Si Si6 0.954840 0.769773 0.898707
O O1 0.471156 0.084101 0.715894
O O2 0.211907 0.083747 0.599233
O O3 0.515597 0.103426 0.525492
O O4 0.432386 0.986690 0.599515
O O5 0.574282 0.093107 0.150308
O O6 0.304390 0.136356 0.219399
O O7 0.564265 0.135472 0.330755
O O8 0.538549 0.223911 0.181973
O O9 0.682659 0.528273 0.862503
O O10 0.750000 0.430027 0.000000
O O11 0.500000 0.500000 0.000000
O O12 0.464803 0.349355 0.121942
O O13 0.750000 0.750000 0.901192
O O14 0.024198 0.750000 0.000000
#
# Coordination Sequence:
#
# PCOD9395779 Si02
#       6
#     8   8   8   8   8   8
#     4   9  17  30  49  77 103 131 166 215 268 313
#     4  10  19  34  51  77 104 138 176 217 264 313
#     4  12  22  32  51  80 105 133 174 228 261 304
#     4  10  19  33  52  77 104 138 176 216 263 315
#     4   9  17  30  50  75 105 130 166 216 266 314
#     4   9  18  31  50  71 103 141 177 207 250 319
#
# _framework density 21.937272
#
# number of rings (size 3 to 8) (size 9 to 14) (size 15 to 20)
#    0.000    2.167    3.333    1.000    2.333    0.000 
#    0.000    0.833    0.000    9.500    0.000    0.000 
#    0.000    5.333    0.000    0.000    0.000    0.000 
#
# Total GULP energy -267528.754359 kJ/mol
# GULP energy per Si atom -5573.515716 kJ/mol
# Density = 2.188734 g / cm^3
# Si number density = 21.937272 Si / 1000 Ang^3
#
#
#
# Elastic Constant Matrix: (Units=GPa)
#
#
# Indices 1 2 3 4 5 6 
#
# 1 11.7645 0.0089 13.9643 0.0000 0.0000 0.0000
# 2 0.0089 69.6425 34.1918 0.0000 0.0000 0.0000
# 3 13.9643 34.1918 176.1530 0.0000 0.0000 0.0000
# 4 0.0000 0.0000 0.0000 29.7764 0.0000 0.0000
# 5 0.0000 0.0000 0.0000 0.0000 19.1255 0.0000
# 6 0.0000 0.0000 0.0000 0.0000 0.0000 12.0122
#
#
#
# Elastic Compliance Matrix: (Units=1/GPa)
#
#
# Indices 1 2 3 4 5 6 
#
# 1 0.094861 0.004068 -0.008310 0.000000 0.000000 0.000000
# 2 0.004068 0.016046 -0.003437 0.000000 0.000000 0.000000
# 3 -0.008310 -0.003437 0.007003 0.000000 0.000000 0.000000
# 4 0.000000 0.000000 0.000000 0.033584 0.000000 0.000000
# 5 0.000000 0.000000 0.000000 0.000000 0.052286 0.000000
# 6 0.000000 0.000000 0.000000 0.000000 0.000000 0.083249
#
#
# Mechanical properties :
#
#
# Convention : Reuss Voigt Hill
#
# Bulk Modulus (GPa) = 9.75113 39.32112 24.53613
# Shear Modulus (GPa) = 14.85571 26.14250 20.49910
#
# Velocity S-wave (km/s) = 2.60511 3.45584 3.06018
# Velocity P-wave (km/s) = 3.67471 5.82125 4.86777
#
# Compressibility (1/GPa) = 0.10255218
#
# Stress axis : x y z
#
# Youngs Moduli (GPa) = 10.54169 62.32093 142.80104
#
# Poissons Ratio (x) = -0.25349 1.18661
# Poissons Ratio (y) = -0.04288 0.49081
# Poissons Ratio (z) = 0.08760 0.21420
#
# Static dielectric constant tensor:
#      x y z
#    x 1.972770 0.000000 0.000000 
#    y 0.000000 1.756280 0.000000 
#    z 0.000000 0.000000 1.852160 
# 
# From -- ./inp_files/25000.got.cif
#   From: 2010.05.17/outbox.cif.g08.bks.cpg/sg50_13_cif.got.tgz:25000.got - 2010.06.03 11:33:33.
