data_PCOD9395661
_publ_section_title
;
Structure prediction by ZEFSAII (Michael W. Deem and Ramdas Pophale) SiO2 
 PCOD9395661
Probable space group: P B A N
;
_chemical_formula_sum "Si O2"
_cell_formula_units_Z 44
_cell_length_a 14.319887
_cell_length_b 8.502591
_cell_length_c 17.312195
_cell_angle_alpha 90.000000
_cell_angle_beta 90.000000
_cell_angle_gamma 90.000000
_cell_volume 2107.866078
_symmetry_space_group_name_H-M "P B A N"
_symmetry_group_IT_number 50
_space_group.IT_coordinate_system_code '2'
_symmetry_cell_setting 'orthorhombic'
loop_
_space_group_symop_operation_xyz
x,y,z
1/2-x,1/2-y,z
x,1/2-y,-z
1/2-x,y,-z
-x,-y,-z
1/2+x,1/2+y,-z
-x,1/2+y,z
1/2+x,-y,z
loop_
_atom_site_type_symbol
_atom_site_label
_atom_site_fract_x
_atom_site_fract_y
_atom_site_fract_z
Si Si1 0.750000 0.750000 0.000000
Si Si2 0.750000 0.250000 0.000000
Si Si3 0.909694 0.542310 0.593510
Si Si4 0.646145 0.931026 0.230964
Si Si5 0.250000 0.250000 0.634277
Si Si6 0.943101 0.250000 0.500000
Si Si7 0.463460 0.102865 0.231396
Si Si8 0.319191 0.003754 0.114244
O O1 0.684825 0.647468 0.054792
O O2 0.690765 0.355650 0.058535
O O3 0.821838 0.653872 0.584263
O O4 0.892941 0.371860 0.556958
O O5 0.930684 0.540554 0.684760
O O6 0.994426 0.634808 0.552973
O O7 0.697625 0.876374 0.309862
O O8 0.579298 0.777582 0.218264
O O9 0.728492 0.966397 0.169687
O O10 0.574520 0.076732 0.231453
O O11 0.410698 0.003309 0.166074
#
# Coordination Sequence:
#
# PCOD9395661 Si02
#       8
#     2   2   8   8   4   4   8   8
#     4  10  18  42  74  80 136 182 208 274 356 410
#     4  10  28  38  66  94 140 174 216 290 350 394
#     4  10  20  40  66  98 137 182 219 279 337 405
#     4  11  21  40  67  99 127 170 230 280 331 391
#     4  10  19  39  68  98 134 182 222 278 337 395
#     4  10  22  39  68 101 144 174 220 278 350 398
#     4  11  22  39  70  98 125 178 235 273 327 406
#     4  11  21  45  64  94 133 179 219 276 348 404
#
# _framework density 20.874191
#
# number of rings (size 3 to 8) (size 9 to 14) (size 15 to 20)
#    0.000    1.455    5.455    2.182    2.545    0.364 
#    0.000    5.455    0.000   18.545    0.000    0.000 
#    0.000    0.000    0.000    0.000    0.000    0.000 
#
# Total GULP energy -245541.255585 kJ/mol
# GULP energy per Si atom -5580.483081 kJ/mol
# Density = 2.082668 g / cm^3
# Si number density = 20.874191 Si / 1000 Ang^3
#
#
#
# Elastic Constant Matrix: (Units=GPa)
#
#
# Indices 1 2 3 4 5 6 
#
# 1 70.4854 3.2676 15.8022 0.0000 0.0000 0.0000
# 2 3.2676 64.1041 36.9333 0.0000 0.0000 0.0000
# 3 15.8022 36.9333 99.7810 0.0000 0.0000 0.0000
# 4 0.0000 0.0000 0.0000 74.4088 0.0000 0.0000
# 5 0.0000 0.0000 0.0000 0.0000 23.7967 0.0000
# 6 0.0000 0.0000 0.0000 0.0000 0.0000 -5.1409
#
#
#
# Elastic Compliance Matrix: (Units=1/GPa)
#
#
# Indices 1 2 3 4 5 6 
#
# 1 0.014738 0.000754 -0.002613 0.000000 0.000000 0.000000
# 2 0.000754 0.019867 -0.007473 0.000000 0.000000 0.000000
# 3 -0.002613 -0.007473 0.013202 0.000000 0.000000 0.000000
# 4 0.000000 0.000000 0.000000 0.013439 0.000000 0.000000
# 5 0.000000 0.000000 0.000000 0.000000 0.042023 0.000000
# 6 0.000000 0.000000 0.000000 0.000000 0.000000 -0.194519
#
#
# Mechanical properties :
#
#
# Convention : Reuss Voigt Hill
#
# Bulk Modulus (GPa) = 34.31354 38.48629 36.39992
# Shear Modulus (GPa) = -79.52716 30.50407 -24.51155
#
# Velocity S-wave (km/s) = -6.17908 3.82688 -3.43045
# Velocity P-wave (km/s) = 5.86806 6.16474 1.33602
#
# Compressibility (1/GPa) = 0.02914301
#
# Stress axis : x y z
#
# Youngs Moduli (GPa) = 67.85067 50.33540 75.74663
#
# Poissons Ratio (x) = -0.03797 0.19795
# Poissons Ratio (y) = -0.05119 0.56606
# Poissons Ratio (z) = 0.17731 0.37616
#
# Static dielectric constant tensor:
#      x y z
#    x 1.744130 0.000000 0.000000 
#    y 0.000000 1.853350 0.000000 
#    z 0.000000 0.000000 1.741250 
# 
# From -- ./inp_files/28676.got.cif
#   From: 2010.05.17/outbox.cif.g08.bks.cpg/sg50_15_cif.got.tgz:28676.got - 2010.06.03 11:33:33.
