data_PCOD9395122
_publ_section_title
;
Structure prediction by ZEFSAII (Michael W. Deem and Ramdas Pophale) SiO2 
 PCOD9395122
Probable space group: P C C M
;
_chemical_formula_sum "Si O2"
_cell_formula_units_Z 34
_cell_length_a 7.239605
_cell_length_b 10.691562
_cell_length_c 20.345026
_cell_angle_alpha 90.000000
_cell_angle_beta 90.000000
_cell_angle_gamma 90.000000
_cell_volume 1574.759653
_symmetry_space_group_name_H-M "P C C M"
_symmetry_group_IT_number 49
_symmetry_cell_setting 'orthorhombic'
loop_
_space_group_symop_operation_xyz
x,y,z
-x,-y,z
x,-y,1/2-z
-x,y,1/2-z
-x,-y,-z
x,y,-z
-x,y,1/2+z
x,-y,1/2+z
loop_
_atom_site_type_symbol
_atom_site_label
_atom_site_fract_x
_atom_site_fract_y
_atom_site_fract_z
Si Si1 0.243216 0.551718 0.000000
Si Si2 0.000000 0.500000 0.750000
Si Si3 0.373639 0.292730 0.000000
Si Si4 0.470809 0.852417 0.370259
Si Si5 0.171788 0.327849 0.360741
Si Si6 0.086888 0.130187 0.821652
O O1 0.443480 0.620571 0.000000
O O2 0.178977 0.596307 0.071770
O O3 0.776355 0.598228 0.000000
O O4 0.869616 0.583171 0.701901
O O5 0.384718 0.208027 0.064195
O O6 0.649082 0.765592 0.353815
O O7 0.306099 0.856918 0.317184
O O8 0.500000 0.000000 0.382979
O O9 0.995453 0.238669 0.365354
O O10 0.000000 0.145229 0.750000
O O11 0.000000 0.000000 0.846765
#
# Coordination Sequence:
#
# PCOD9395122 Si02
#       6
#     4   2   4   8   8   8
#     4   9  22  44  71  99 146 191 229 293 355 425
#     4  12  28  50  72 108 154 190 248 296 336 458
#     4   9  21  41  70 105 137 182 243 283 356 437
#     4  11  23  45  74 103 139 187 230 302 368 414
#     4  11  25  48  70 106 144 186 241 292 357 429
#     4  11  24  45  67 103 144 182 242 295 349 435
#
# _framework density 21.590595
#
# number of rings (size 3 to 8) (size 9 to 14) (size 15 to 20)
#    0.000    1.412    3.529    0.353    3.294    2.353 
#    0.000    2.353    0.000    0.000    0.000    0.000 
#    0.000    0.000    0.000    0.000    0.000    0.000 
#
# Total GULP energy -189586.516748 kJ/mol
# GULP energy per Si atom -5576.074022 kJ/mol
# Density = 2.154145 g / cm^3
# Si number density = 21.590595 Si / 1000 Ang^3
#
#
#
# Elastic Constant Matrix: (Units=GPa)
#
#
# Indices 1 2 3 4 5 6 
#
# 1 115.3285 70.4109 43.4674 0.0000 0.0000 0.0000
# 2 70.4109 182.4833 89.7048 0.0000 0.0000 0.0000
# 3 43.4674 89.7048 132.1335 0.0000 0.0000 0.0000
# 4 0.0000 0.0000 0.0000 -6.7290 0.0000 0.0000
# 5 0.0000 0.0000 0.0000 0.0000 34.8696 0.0000
# 6 0.0000 0.0000 0.0000 0.0000 0.0000 15.7765
#
#
#
# Elastic Compliance Matrix: (Units=1/GPa)
#
#
# Indices 1 2 3 4 5 6 
#
# 1 0.011459 -0.003855 -0.001153 0.000000 0.000000 0.000000
# 2 -0.003855 0.009522 -0.005196 0.000000 0.000000 0.000000
# 3 -0.001153 -0.005196 0.011475 0.000000 0.000000 0.000000
# 4 0.000000 0.000000 0.000000 -0.148611 0.000000 0.000000
# 5 0.000000 0.000000 0.000000 0.000000 0.028678 0.000000
# 6 0.000000 0.000000 0.000000 0.000000 0.000000 0.063385
#
#
# Mechanical properties :
#
#
# Convention : Reuss Voigt Hill
#
# Bulk Modulus (GPa) = 82.99876 93.01241 88.00559
# Shear Modulus (GPa) = 15134.30063 23.87424 7579.08744
#
# Velocity S-wave (km/s) = 83.81462 3.32892 59.31261
# Velocity P-wave (km/s) = 96.97962 7.61244 68.78588
#
# Compressibility (1/GPa) = 0.01204837
#
# Stress axis : x y z
#
# Youngs Moduli (GPa) = 87.26992 105.02455 87.14718
#
# Poissons Ratio (x) = 0.40484 0.10044
# Poissons Ratio (y) = 0.33640 0.45282
# Poissons Ratio (z) = 0.10058 0.54572
#
# Static dielectric constant tensor:
#      x y z
#    x 1.875780 0.000000 0.000000 
#    y 0.000000 1.867600 0.000000 
#    z 0.000000 0.000000 1.843090 
# 
# From -- ./inp_files/21641.got.cif
#   From: 2010.05.17/outbox.cif.g08.bks.cpg/sg49_11_cif.got.tgz:21641.got - 2010.06.03 21:02:19.
