data_PCOD9395770
_publ_section_title
;
Structure prediction by ZEFSAII (Michael W. Deem and Ramdas Pophale) SiO2 
 PCOD9395770
Probable space group: P B A N
;
_chemical_formula_sum "Si O2"
_cell_formula_units_Z 48
_cell_length_a 14.301866
_cell_length_b 15.668868
_cell_length_c 9.606880
_cell_angle_alpha 90.000000
_cell_angle_beta 90.000000
_cell_angle_gamma 90.000000
_cell_volume 2152.844652
_symmetry_space_group_name_H-M "P B A N"
_symmetry_group_IT_number 50
_space_group.IT_coordinate_system_code '2'
_symmetry_cell_setting 'orthorhombic'
loop_
_space_group_symop_operation_xyz
x,y,z
1/2-x,1/2-y,z
x,1/2-y,-z
1/2-x,y,-z
-x,-y,-z
1/2+x,1/2+y,-z
-x,1/2+y,z
1/2+x,-y,z
loop_
_atom_site_type_symbol
_atom_site_label
_atom_site_fract_x
_atom_site_fract_y
_atom_site_fract_z
Si Si1 0.331911 0.663429 0.590619
Si Si2 0.032905 0.352891 0.014150
Si Si3 0.464945 0.089122 0.553985
Si Si4 0.334452 0.841879 0.080895
Si Si5 0.832763 0.866191 0.779849
Si Si6 0.123135 0.166606 0.715321
O O1 0.339274 0.750000 0.500000
O O2 0.250000 0.615536 0.500000
O O3 0.438393 0.633010 0.595074
O O4 0.309638 0.669035 0.755937
O O5 0.125812 0.381057 0.932560
O O6 0.936323 0.383249 0.945184
O O7 0.033854 0.250000 0.000000
O O8 0.045710 0.368134 0.177049
O O9 0.393153 0.076195 0.678472
O O10 0.410357 0.142901 0.437131
O O11 0.500000 0.000000 0.500000
O O12 0.342036 0.750000 0.000000
O O13 0.250000 0.887694 0.000000
O O14 0.861709 0.768170 0.737568
O O15 0.723199 0.873632 0.754644
#
# Coordination Sequence:
#
# PCOD9395770 Si02
#       6
#     8   8   8   8   8   8
#     4  11  23  38  63  91 119 155 206 250 300 356
#     4   9  18  32  60  95 123 145 188 254 309 358
#     4  12  26  40  57  85 125 165 201 244 295 360
#     4  10  19  32  57  91 125 151 191 251 313 355
#     4  10  19  40  64  95 120 149 201 249 304 359
#     4  10  21  36  68  93 119 155 194 252 305 359
#
# _framework density 22.296081999999998
#
# number of rings (size 3 to 8) (size 9 to 14) (size 15 to 20)
#    0.000    1.667    1.667    4.500    7.000    4.667 
#    0.000    0.833    0.000    0.000    0.000    0.000 
#    0.000    0.000    0.000    0.000    0.000    0.000 
#
# Total GULP energy -267706.194343 kJ/mol
# GULP energy per Si atom -5577.212382 kJ/mol
# Density = 2.224534 g / cm^3
# Si number density = 22.296082 Si / 1000 Ang^3
#
#
#
# Elastic Constant Matrix: (Units=GPa)
#
#
# Indices 1 2 3 4 5 6 
#
# 1 125.0685 -1.1536 36.9841 0.0000 0.0000 0.0000
# 2 -1.1536 6.1684 -6.2387 0.0000 0.0000 0.0000
# 3 36.9841 -6.2387 144.4374 0.0000 0.0000 0.0000
# 4 0.0000 0.0000 0.0000 -3.8001 0.0000 0.0000
# 5 0.0000 0.0000 0.0000 0.0000 51.4033 0.0000
# 6 0.0000 0.0000 0.0000 0.0000 0.0000 -31.0384
#
#
#
# Elastic Compliance Matrix: (Units=1/GPa)
#
#
# Indices 1 2 3 4 5 6 
#
# 1 0.008653 -0.000651 -0.002244 0.000000 0.000000 0.000000
# 2 -0.000651 0.169572 0.007491 0.000000 0.000000 0.000000
# 3 -0.002244 0.007491 0.007822 0.000000 0.000000 0.000000
# 4 0.000000 0.000000 0.000000 -0.263153 0.000000 0.000000
# 5 0.000000 0.000000 0.000000 0.000000 0.019454 0.000000
# 6 0.000000 0.000000 0.000000 0.000000 0.000000 -0.032218
#
#
# Mechanical properties :
#
#
# Convention : Reuss Voigt Hill
#
# Bulk Modulus (GPa) = 5.12192 37.20642 21.16417
# Shear Modulus (GPa) = -147.13341 19.71846 -63.70748
#
# Velocity S-wave (km/s) = -8.13228 2.97710 -5.35121
# Velocity P-wave (km/s) = 9.26695 5.34239 5.35422
#
# Compressibility (1/GPa) = 0.19523923
#
# Stress axis : x y z
#
# Youngs Moduli (GPa) = 115.56508 5.89719 127.85245
#
# Poissons Ratio (x) = 0.00384 0.28688
# Poissons Ratio (y) = 0.07524 -0.95775
# Poissons Ratio (z) = 0.25931 -0.04418
#
# Static dielectric constant tensor:
#      x y z
#    x 0.754600 0.000000 0.000000 
#    y 0.000000 2.056730 0.000000 
#    z 0.000000 0.000000 1.825970 
# 
# From -- ./inp_files/12967.got.cif
#   From: 2010.05.17/outbox.cif.g08.bks.cpg/sg50_7_cif.got.tgz:12967.got - 2010.06.03 11:33:33.
