data_PCOD9395477
_publ_section_title
;
Structure prediction by ZEFSAII (Michael W. Deem and Ramdas Pophale) SiO2 
 PCOD9395477
Probable space group: P B A N
;
_chemical_formula_sum "Si O2"
_cell_formula_units_Z 56
_cell_length_a 14.522947
_cell_length_b 18.691152
_cell_length_c 9.221245
_cell_angle_alpha 90.000000
_cell_angle_beta 90.000000
_cell_angle_gamma 90.000000
_cell_volume 2503.112579
_symmetry_space_group_name_H-M "P B A N"
_symmetry_group_IT_number 50
_space_group.IT_coordinate_system_code '2'
_symmetry_cell_setting 'orthorhombic'
loop_
_space_group_symop_operation_xyz
x,y,z
1/2-x,1/2-y,z
x,1/2-y,-z
1/2-x,y,-z
-x,-y,-z
1/2+x,1/2+y,-z
-x,1/2+y,z
1/2+x,-y,z
loop_
_atom_site_type_symbol
_atom_site_label
_atom_site_fract_x
_atom_site_fract_y
_atom_site_fract_z
Si Si1 0.152013 0.130672 0.080727
Si Si2 0.598352 0.485590 0.796188
Si Si3 0.517768 0.859283 0.698940
Si Si4 0.476679 0.909161 0.368839
Si Si5 0.223218 0.967782 0.654611
Si Si6 0.481383 0.717943 0.864535
Si Si7 0.768852 0.638679 0.658043
O O1 0.116685 0.048094 0.085816
O O2 0.068691 0.182986 0.045230
O O3 0.186441 0.160174 0.237215
O O4 0.250000 0.132276 0.000000
O O5 0.522935 0.422958 0.800243
O O6 0.560673 0.536070 0.663853
O O7 0.696407 0.447351 0.766571
O O8 0.489892 0.879637 0.532300
O O9 0.482051 0.783738 0.753176
O O10 0.627698 0.849186 0.708713
O O11 0.383684 0.952492 0.335653
O O12 0.468052 0.848061 0.246477
O O13 0.250000 0.935442 0.500000
O O14 0.235300 0.052831 0.653226
O O15 0.422773 0.750000 0.000000
O O16 0.750000 0.668089 0.500000
#
# Coordination Sequence:
#
# PCOD9395477 Si02
#       7
#     8   8   8   8   8   8   8
#     4  10  22  43  63  91 128 176 220 269 326 401
#     4  10  21  37  64 101 131 158 216 278 338 386
#     4  12  21  38  64  95 128 169 210 277 332 397
#     4  11  21  40  67  95 130 169 216 274 331 398
#     4  10  17  33  61  95 125 159 198 264 331 381
#     4  11  26  44  60  88 133 181 223 261 326 398
#     4  10  20  33  60  97 127 156 207 266 338 383
#
# _framework density 22.372145
#
# number of rings (size 3 to 8) (size 9 to 14) (size 15 to 20)
#    0.000    1.429    2.857    5.143    0.000    2.000 
#    5.143    3.571    0.000    0.857    0.000    0.000 
#    0.000    0.000    0.000    0.000    0.000    0.000 
#
# Total GULP energy -311847.071341 kJ/mol
# GULP energy per Si atom -5568.697703 kJ/mol
# Density = 2.232123 g / cm^3
# Si number density = 22.372145 Si / 1000 Ang^3
#
#
#
# Elastic Constant Matrix: (Units=GPa)
#
#
# Indices 1 2 3 4 5 6 
#
# 1 75.2881 21.5983 9.3856 0.0000 0.0000 0.0000
# 2 21.5983 82.1354 7.4012 0.0000 0.0000 0.0000
# 3 9.3856 7.4012 45.1443 0.0000 0.0000 0.0000
# 4 0.0000 0.0000 0.0000 21.0974 0.0000 0.0000
# 5 0.0000 0.0000 0.0000 0.0000 23.7287 0.0000
# 6 0.0000 0.0000 0.0000 0.0000 0.0000 0.6573
#
#
#
# Elastic Compliance Matrix: (Units=1/GPa)
#
#
# Indices 1 2 3 4 5 6 
#
# 1 0.014628 -0.003626 -0.002447 0.000000 0.000000 0.000000
# 2 -0.003626 0.013256 -0.001419 0.000000 0.000000 0.000000
# 3 -0.002447 -0.001419 0.022893 0.000000 0.000000 0.000000
# 4 0.000000 0.000000 0.000000 0.047399 0.000000 0.000000
# 5 0.000000 0.000000 0.000000 0.000000 0.042143 0.000000
# 6 0.000000 0.000000 0.000000 0.000000 0.000000 1.521312
#
#
# Mechanical properties :
#
#
# Convention : Reuss Voigt Hill
#
# Bulk Modulus (GPa) = 27.93894 31.03754 29.48824
# Shear Modulus (GPa) = 2.96113 20.04218 11.50166
#
# Velocity S-wave (km/s) = 1.15172 2.99633 2.26985
# Velocity P-wave (km/s) = 3.77942 5.08666 4.48096
#
# Compressibility (1/GPa) = 0.03579234
#
# Stress axis : x y z
#
# Youngs Moduli (GPa) = 68.36423 75.43512 43.68233
#
# Poissons Ratio (x) = 0.27353 0.10687
# Poissons Ratio (y) = 0.24789 0.06201
# Poissons Ratio (z) = 0.16726 0.10708
#
# Static dielectric constant tensor:
#      x y z
#    x 1.903430 0.000000 0.000000 
#    y 0.000000 1.799390 0.000000 
#    z 0.000000 0.000000 1.933620 
# 
# From -- ./inp_files/13298.got.cif
#   From: 2010.05.17/outbox.cif.g08.bks.cpg/sg50_7_cif.got.tgz:13298.got - 2010.06.03 11:33:33.
