data_PCOD9395186
_publ_section_title
;
Structure prediction by ZEFSAII (Michael W. Deem and Ramdas Pophale) SiO2 
 PCOD9395186
Probable space group: P C C M
;
_chemical_formula_sum "Si O2"
_cell_formula_units_Z 20
_cell_length_a 4.606681
_cell_length_b 6.484232
_cell_length_c 24.938099
_cell_angle_alpha 90.000000
_cell_angle_beta 90.000000
_cell_angle_gamma 90.000000
_cell_volume 744.920677
_symmetry_space_group_name_H-M "P C C M"
_symmetry_group_IT_number 49
_symmetry_cell_setting 'orthorhombic'
loop_
_space_group_symop_operation_xyz
x,y,z
-x,-y,z
x,-y,1/2-z
-x,y,1/2-z
-x,-y,-z
x,y,-z
-x,y,1/2+z
x,-y,1/2+z
loop_
_atom_site_type_symbol
_atom_site_label
_atom_site_fract_x
_atom_site_fract_y
_atom_site_fract_z
Si Si1 0.000000 0.000000 0.250000
Si Si2 0.484768 0.244114 0.943286
Si Si3 0.000000 0.500000 0.000000
Si Si4 0.262956 0.655179 0.325450
O O1 0.814477 0.850155 0.211318
O O2 0.363873 0.278954 0.884640
O O3 0.500000 0.000000 0.947189
O O4 0.301732 0.304905 0.000000
O O5 0.212231 0.637309 0.952436
O O6 0.500000 0.500000 0.303371
O O7 0.000000 0.500000 0.330212
#
# Coordination Sequence:
#
# PCOD9395186 Si02
#       4
#     2   8   2   8
#     4  12  34  58  82 120 168 226 286 364 396 512
#     4   9  19  42  79 121 165 213 267 340 423 503
#     4   8  14  40  74 118 168 216 258 334 404 520
#     4  12  29  55  86 120 164 221 280 348 425 495
#
# _framework density 26.848495
#
# number of rings (size 3 to 8) (size 9 to 14) (size 15 to 20)
#    1.200    0.400    2.000    0.600    5.600    5.600 
#    0.000    1.000    0.000    0.000    0.000    0.000 
#    0.000    0.000    0.000    0.000    0.000    0.000 
#
# Total GULP energy -111756.871005 kJ/mol
# GULP energy per Si atom -5587.843550 kJ/mol
# Density = 2.678739 g / cm^3
# Si number density = 26.848495 Si / 1000 Ang^3
#
#
#
# Elastic Constant Matrix: (Units=GPa)
#
#
# Indices 1 2 3 4 5 6 
#
# 1 227.4816 113.2520 142.9400 0.0000 0.0000 0.0000
# 2 113.2520 339.3789 172.3904 0.0000 0.0000 0.0000
# 3 142.9400 172.3904 317.6918 0.0000 0.0000 0.0000
# 4 0.0000 0.0000 0.0000 102.5462 0.0000 0.0000
# 5 0.0000 0.0000 0.0000 0.0000 60.3829 0.0000
# 6 0.0000 0.0000 0.0000 0.0000 0.0000 35.7558
#
#
#
# Elastic Compliance Matrix: (Units=1/GPa)
#
#
# Indices 1 2 3 4 5 6 
#
# 1 0.006330 -0.000919 -0.002349 0.000000 0.000000 0.000000
# 2 -0.000919 0.004201 -0.001866 0.000000 0.000000 0.000000
# 3 -0.002349 -0.001866 0.005217 0.000000 0.000000 0.000000
# 4 0.000000 0.000000 0.000000 0.009752 0.000000 0.000000
# 5 0.000000 0.000000 0.000000 0.000000 0.016561 0.000000
# 6 0.000000 0.000000 0.000000 0.000000 0.000000 0.027968
#
#
# Mechanical properties :
#
#
# Convention : Reuss Voigt Hill
#
# Bulk Modulus (GPa) = 182.50323 193.52411 188.01367
# Shear Modulus (GPa) = 60.88374 70.13498 65.50936
#
# Velocity S-wave (km/s) = 4.76718 5.11656 4.94496
# Velocity P-wave (km/s) = 9.92089 10.35095 10.13820
#
# Compressibility (1/GPa) = 0.00547936
#
# Stress axis : x y z
#
# Youngs Moduli (GPa) = 157.98743 238.02841 191.66526
#
# Poissons Ratio (x) = 0.21872 0.45028
# Poissons Ratio (y) = 0.14517 0.35770
# Poissons Ratio (z) = 0.37116 0.44423
#
# Static dielectric constant tensor:
#      x y z
#    x 2.160530 0.000000 0.000000 
#    y 0.000000 2.088210 0.000000 
#    z 0.000000 0.000000 2.139620 
# 
# From -- ./inp_files/23514.got.cif
#   From: 2010.05.17/outbox.cif.g08.bks.cpg/sg49_12_cif.got.tgz:23514.got - 2010.06.03 21:02:19.
