data_PCOD9395108
_publ_section_title
;
Structure prediction by ZEFSAII (Michael W. Deem and Ramdas Pophale) SiO2 
 PCOD9395108
Probable space group: P C C M
;
_chemical_formula_sum "Si O2"
_cell_formula_units_Z 64
_cell_length_a 9.781295
_cell_length_b 19.002034
_cell_length_c 17.297756
_cell_angle_alpha 90.000000
_cell_angle_beta 90.000000
_cell_angle_gamma 90.000000
_cell_volume 3215.038773
_symmetry_space_group_name_H-M "P C C M"
_symmetry_group_IT_number 49
_symmetry_cell_setting 'orthorhombic'
loop_
_space_group_symop_operation_xyz
x,y,z
-x,-y,z
x,-y,1/2-z
-x,y,1/2-z
-x,-y,-z
x,y,-z
-x,y,1/2+z
x,-y,1/2+z
loop_
_atom_site_type_symbol
_atom_site_label
_atom_site_fract_x
_atom_site_fract_y
_atom_site_fract_z
Si Si1 0.159846 0.581700 0.657223
Si Si2 0.335613 0.293541 0.591920
Si Si3 0.711257 0.851485 0.837196
Si Si4 0.213549 0.150964 0.340734
Si Si5 0.842465 0.581848 0.343227
Si Si6 0.657405 0.704621 0.907950
Si Si7 0.962574 0.079823 0.591381
Si Si8 0.461340 0.918575 0.088200
O O1 0.185369 0.499854 0.637542
O O2 0.171385 0.588748 0.750265
O O3 0.263481 0.634552 0.616911
O O4 0.001275 0.597147 0.637124
O O5 0.325987 0.282256 0.500000
O O6 0.263184 0.228082 0.633912
O O7 0.258155 0.364448 0.615653
O O8 0.496242 0.298019 0.612257
O O9 0.755010 0.859215 0.749033
O O10 0.723044 0.771241 0.864828
O O11 0.556578 0.875024 0.853981
O O12 0.807466 0.901261 0.888677
O O13 0.058435 0.133824 0.362216
O O14 0.305900 0.096267 0.389414
O O15 0.668228 0.714854 0.000000
O O16 0.986848 0.087544 0.500000
O O17 0.000000 0.000000 0.613724
O O18 0.500000 0.000000 0.093485
O O19 0.485930 0.894353 0.000000
#
# Coordination Sequence:
#
# PCOD9395108 Si02
#       8
#     8   8   8   8   8   8   8   8
#     4   9  20  40  65  93 126 163 205 255 311 370
#     4  11  24  41  62  89 126 168 210 257 310 371
#     4  12  25  41  64  93 125 163 210 262 311 368
#     4  12  25  41  64  93 125 163 210 262 311 368
#     4   9  20  40  65  93 126 163 205 255 311 370
#     4  11  24  41  62  89 126 168 210 257 310 371
#     4  11  25  45  67  91 124 165 206 255 319 383
#     4  11  23  41  65  91 124 165 206 253 313 375
#
# _framework density 19.906448000000001
#
# number of rings (size 3 to 8) (size 9 to 14) (size 15 to 20)
#    0.000    1.250    1.250    5.250    1.750    8.000 
#    0.000    3.750    0.000    0.000    0.000    0.000 
#    0.000    0.000    0.000    0.000    0.000    0.000 
#
# Total GULP energy -358020.165685 kJ/mol
# GULP energy per Si atom -5594.065089 kJ/mol
# Density = 1.986114 g / cm^3
# Si number density = 19.906448 Si / 1000 Ang^3
#
#
#
# Elastic Constant Matrix: (Units=GPa)
#
#
# Indices 1 2 3 4 5 6 
#
# 1 49.8946 21.5320 7.8037 0.0000 0.0000 0.0000
# 2 21.5320 80.5100 23.8367 0.0000 0.0000 0.0000
# 3 7.8037 23.8367 63.3064 0.0000 0.0000 0.0000
# 4 0.0000 0.0000 0.0000 27.8839 0.0000 0.0000
# 5 0.0000 0.0000 0.0000 0.0000 14.5654 0.0000
# 6 0.0000 0.0000 0.0000 0.0000 0.0000 40.6434
#
#
#
# Elastic Compliance Matrix: (Units=1/GPa)
#
#
# Indices 1 2 3 4 5 6 
#
# 1 0.022676 -0.005894 -0.000576 0.000000 0.000000 0.000000
# 2 -0.005894 0.015511 -0.005114 0.000000 0.000000 0.000000
# 3 -0.000576 -0.005114 0.017793 0.000000 0.000000 0.000000
# 4 0.000000 0.000000 0.000000 0.035863 0.000000 0.000000
# 5 0.000000 0.000000 0.000000 0.000000 0.068656 0.000000
# 6 0.000000 0.000000 0.000000 0.000000 0.000000 0.024604
#
#
# Mechanical properties :
#
#
# Convention : Reuss Voigt Hill
#
# Bulk Modulus (GPa) = 30.47656 33.33953 31.90804
# Shear Modulus (GPa) = 22.80940 25.98779 24.39859
#
# Velocity S-wave (km/s) = 3.38868 3.61708 3.50474
# Velocity P-wave (km/s) = 5.53661 5.85054 5.69574
#
# Compressibility (1/GPa) = 0.03281211
#
# Stress axis : x y z
#
# Youngs Moduli (GPa) = 44.09963 64.46942 56.20283
#
# Poissons Ratio (x) = 0.37999 0.03237
# Poissons Ratio (y) = 0.25993 0.28741
# Poissons Ratio (z) = 0.02540 0.32969
#
# Static dielectric constant tensor:
#      x y z
#    x 1.661550 0.000000 0.000000 
#    y 0.000000 1.678220 0.000000 
#    z 0.000000 0.000000 1.681160 
# 
# From -- ./inp_files/16531.got.cif
#   From: 2010.05.17/outbox.cif.g08.bks.cpg/sg49_9_cif.got.tgz:16531.got - 2010.06.03 21:02:19.
