data_PCOD9395063
_publ_section_title
;
Structure prediction by ZEFSAII (Michael W. Deem and Ramdas Pophale) SiO2 
 PCOD9395063
Probable space group: P C C M
;
_chemical_formula_sum "Si O2"
_cell_formula_units_Z 40
_cell_length_a 25.872233
_cell_length_b 9.338203
_cell_length_c 8.634433
_cell_angle_alpha 90.000000
_cell_angle_beta 90.000000
_cell_angle_gamma 90.000000
_cell_volume 2086.080427
_symmetry_space_group_name_H-M "P C C M"
_symmetry_group_IT_number 49
_symmetry_cell_setting 'orthorhombic'
loop_
_space_group_symop_operation_xyz
x,y,z
-x,-y,z
x,-y,1/2-z
-x,y,1/2-z
-x,-y,-z
x,y,-z
-x,y,1/2+z
x,-y,1/2+z
loop_
_atom_site_type_symbol
_atom_site_label
_atom_site_fract_x
_atom_site_fract_y
_atom_site_fract_z
Si Si1 0.753332 0.660325 0.814276
Si Si2 0.057103 0.658078 0.314286
Si Si3 0.849197 0.159622 0.814810
Si Si4 0.650399 0.159169 0.314630
Si Si5 0.443519 0.658755 0.185028
O O1 0.750691 0.500000 0.750000
O O2 0.801254 0.743770 0.739817
O O3 0.700600 0.745076 0.777924
O O4 0.759751 0.657194 0.000000
O O5 0.070751 0.500000 0.250000
O O6 0.056157 0.654086 0.500000
O O7 0.098991 0.770006 0.253906
O O8 0.000000 0.691622 0.250000
O O9 0.842548 0.000000 0.750000
O O10 0.851901 0.156890 0.000000
O O11 0.644719 0.154375 0.500000
O O12 0.600125 0.232771 0.241483
O O13 0.657381 0.000000 0.250000
O O14 0.431604 0.500000 0.250000
O O15 0.500000 0.698559 0.250000
O O16 0.445405 0.652786 0.000000
#
# Coordination Sequence:
#
# PCOD9395063 Si02
#       5
#     8   8   8   8   8
#     4  11  24  42  65  92 122 159 202 249 299 357
#     4  11  22  40  64  92 124 161 205 251 301 356
#     4  12  25  42  63  90 124 161 202 250 304 361
#     4  11  24  41  62  90 124 160 201 248 303 360
#     4  11  22  39  63  90 122 159 203 250 300 356
#
# _framework density 19.174716
#
# number of rings (size 3 to 8) (size 9 to 14) (size 15 to 20)
#    0.000    0.800    0.000    9.600    0.000    7.200 
#    0.000    4.000    0.000    0.000    0.000    0.000 
#    0.000    0.000    0.000    0.000    0.000    0.000 
#
# Total GULP energy -223957.496532 kJ/mol
# GULP energy per Si atom -5598.937413 kJ/mol
# Density = 1.913107 g / cm^3
# Si number density = 19.174716 Si / 1000 Ang^3
#
#
#
# Elastic Constant Matrix: (Units=GPa)
#
#
# Indices 1 2 3 4 5 6 
#
# 1 110.5214 111.6373 81.4971 0.0000 0.0000 0.0000
# 2 111.6373 179.9770 91.9881 0.0000 0.0000 0.0000
# 3 81.4971 91.9881 175.3493 0.0000 0.0000 0.0000
# 4 0.0000 0.0000 0.0000 38.3854 0.0000 0.0000
# 5 0.0000 0.0000 0.0000 0.0000 47.1093 0.0000
# 6 0.0000 0.0000 0.0000 0.0000 0.0000 98.2319
#
#
#
# Elastic Compliance Matrix: (Units=1/GPa)
#
#
# Indices 1 2 3 4 5 6 
#
# 1 0.027307 -0.014280 -0.005200 0.000000 0.000000 0.000000
# 2 -0.014280 0.015060 -0.001263 0.000000 0.000000 0.000000
# 3 -0.005200 -0.001263 0.008782 0.000000 0.000000 0.000000
# 4 0.000000 0.000000 0.000000 0.026052 0.000000 0.000000
# 5 0.000000 0.000000 0.000000 0.000000 0.021227 0.000000
# 6 0.000000 0.000000 0.000000 0.000000 0.000000 0.010180
#
#
# Mechanical properties :
#
#
# Convention : Reuss Voigt Hill
#
# Bulk Modulus (GPa) = 103.49890 115.12141 109.31015
# Shear Modulus (GPa) = 32.61235 48.79366 40.70301
#
# Velocity S-wave (km/s) = 4.12855 5.04996 4.61232
# Velocity P-wave (km/s) = 8.76473 9.70419 9.24640
#
# Compressibility (1/GPa) = 0.00966194
#
# Stress axis : x y z
#
# Youngs Moduli (GPa) = 36.62066 66.40150 113.86373
#
# Poissons Ratio (x) = 0.94824 0.59209
# Poissons Ratio (y) = 0.52296 0.14385
# Poissons Ratio (z) = 0.19043 0.08389
#
# Static dielectric constant tensor:
#      x y z
#    x 1.641040 0.000000 0.000000 
#    y 0.000000 1.631500 0.000000 
#    z 0.000000 0.000000 1.639340 
# 
# From -- ./inp_files/1686.got.cif
#   From: 2010.05.17/outbox.cif.g08.bks.cpg/sg49_1_cif.got.tgz:1686.got - 2010.06.03 21:02:19.
