data_PCOD9395773
_publ_section_title
;
Structure prediction by ZEFSAII (Michael W. Deem and Ramdas Pophale) SiO2 
 PCOD9395773
Probable space group: P B A N
;
_chemical_formula_sum "Si O2"
_cell_formula_units_Z 58
_cell_length_a 15.229936
_cell_length_b 24.083911
_cell_length_c 7.136366
_cell_angle_alpha 90.000000
_cell_angle_beta 90.000000
_cell_angle_gamma 90.000000
_cell_volume 2617.593523
_symmetry_space_group_name_H-M "P B A N"
_symmetry_group_IT_number 50
_space_group.IT_coordinate_system_code '2'
_symmetry_cell_setting 'orthorhombic'
loop_
_space_group_symop_operation_xyz
x,y,z
1/2-x,1/2-y,z
x,1/2-y,-z
1/2-x,y,-z
-x,-y,-z
1/2+x,1/2+y,-z
-x,1/2+y,z
1/2+x,-y,z
loop_
_atom_site_type_symbol
_atom_site_label
_atom_site_fract_x
_atom_site_fract_y
_atom_site_fract_z
Si Si1 0.250000 0.750000 0.000000
Si Si2 0.262954 0.032490 0.290604
Si Si3 0.458977 0.630272 0.860351
Si Si4 0.565843 0.976878 0.251892
Si Si5 0.977630 0.690194 0.488792
Si Si6 0.771917 0.408412 0.778318
Si Si7 0.123509 0.671047 0.764942
Si Si8 0.060785 0.071746 0.668931
O O1 0.188683 0.787240 0.130517
O O2 0.250000 0.056267 0.500000
O O3 0.167895 0.028657 0.192427
O O4 0.349254 0.063303 0.216096
O O5 0.289844 0.968190 0.305475
O O6 0.505565 0.570514 0.841051
O O7 0.511185 0.672230 0.726668
O O8 0.361471 0.625710 0.772645
O O9 0.442904 0.650330 0.071455
O O10 0.569033 0.961310 0.471892
O O11 0.520442 0.037513 0.238186
O O12 0.931149 0.750000 0.500000
O O13 0.944519 0.635341 0.599852
O O14 0.070130 0.697303 0.596967
O O15 0.686650 0.378577 0.695096
O O16 0.750000 0.414838 0.000000
#
# Coordination Sequence:
#
# PCOD9395773 Si02
#       8
#     2   8   8   8   8   8   8   8
#     4  12  20  40  54  76 124 148 196 248 278 358
#     4  10  19  32  58  85 115 154 193 238 301 356
#     4  10  20  40  57  80 122 154 195 246 293 357
#     4   9  17  32  59  85 112 159 190 236 304 358
#     4  11  24  38  59  83 110 160 207 241 298 357
#     4  10  20  35  49  81 120 154 185 238 293 357
#     4  11  23  38  55  83 120 160 196 244 300 355
#     4   9  18  34  54  85 122 145 196 250 287 357
#
# _framework density 22.157758000000001
#
# number of rings (size 3 to 8) (size 9 to 14) (size 15 to 20)
#    0.000    1.931    3.448    1.655    3.862    0.000 
#    2.483    2.069    0.000   10.345    0.000    0.000 
#    0.000   12.138    0.000    0.000    0.000    0.000 
#
# Total GULP energy -323745.556082 kJ/mol
# GULP energy per Si atom -5581.819932 kJ/mol
# Density = 2.210733 g / cm^3
# Si number density = 22.157758 Si / 1000 Ang^3
#
#
#
# Elastic Constant Matrix: (Units=GPa)
#
#
# Indices 1 2 3 4 5 6 
#
# 1 109.9354 43.9638 15.2771 0.0000 0.0000 0.0000
# 2 43.9638 138.4425 20.5514 0.0000 0.0000 0.0000
# 3 15.2771 20.5514 71.3383 0.0000 0.0000 0.0000
# 4 0.0000 0.0000 0.0000 22.5873 0.0000 0.0000
# 5 0.0000 0.0000 0.0000 0.0000 12.5599 0.0000
# 6 0.0000 0.0000 0.0000 0.0000 0.0000 19.5043
#
#
#
# Elastic Compliance Matrix: (Units=1/GPa)
#
#
# Indices 1 2 3 4 5 6 
#
# 1 0.010543 -0.003147 -0.001351 0.000000 0.000000 0.000000
# 2 -0.003147 0.008486 -0.001771 0.000000 0.000000 0.000000
# 3 -0.001351 -0.001771 0.014817 0.000000 0.000000 0.000000
# 4 0.000000 0.000000 0.000000 0.044273 0.000000 0.000000
# 5 0.000000 0.000000 0.000000 0.000000 0.079618 0.000000
# 6 0.000000 0.000000 0.000000 0.000000 0.000000 0.051271
#
#
# Mechanical properties :
#
#
# Convention : Reuss Voigt Hill
#
# Bulk Modulus (GPa) = 46.93193 53.25565 50.09379
# Shear Modulus (GPa) = 21.86775 26.92523 24.39649
#
# Velocity S-wave (km/s) = 3.14492 3.48970 3.32179
# Velocity P-wave (km/s) = 5.86636 6.35014 6.11304
#
# Compressibility (1/GPa) = 0.02130745
#
# Stress axis : x y z
#
# Youngs Moduli (GPa) = 94.85288 117.84777 67.48960
#
# Poissons Ratio (x) = 0.37091 0.09118
# Poissons Ratio (y) = 0.29854 0.11949
# Poissons Ratio (z) = 0.12815 0.20865
#
# Static dielectric constant tensor:
#      x y z
#    x 1.883510 0.000000 0.000000 
#    y 0.000000 1.843250 0.000000 
#    z 0.000000 0.000000 1.838070 
# 
# From -- ./inp_files/13521.got.cif
#   From: 2010.05.17/outbox.cif.g08.bks.cpg/sg50_7_cif.got.tgz:13521.got - 2010.06.03 11:33:33.
