data_PCOD9395942
_publ_section_title
;
Structure prediction by ZEFSAII (Michael W. Deem and Ramdas Pophale) SiO2 
 PCOD9395942
Probable space group: P B A N
;
_chemical_formula_sum "Si O2"
_cell_formula_units_Z 48
_cell_length_a 10.750679
_cell_length_b 18.550806
_cell_length_c 11.272089
_cell_angle_alpha 90.000000
_cell_angle_beta 90.000000
_cell_angle_gamma 90.000000
_cell_volume 2248.035098
_symmetry_space_group_name_H-M "P B A N"
_symmetry_group_IT_number 50
_space_group.IT_coordinate_system_code '2'
_symmetry_cell_setting 'orthorhombic'
loop_
_space_group_symop_operation_xyz
x,y,z
1/2-x,1/2-y,z
x,1/2-y,-z
1/2-x,y,-z
-x,-y,-z
1/2+x,1/2+y,-z
-x,1/2+y,z
1/2+x,-y,z
loop_
_atom_site_type_symbol
_atom_site_label
_atom_site_fract_x
_atom_site_fract_y
_atom_site_fract_z
Si Si1 0.007732 0.776683 0.864353
Si Si2 0.895515 0.061778 0.474933
Si Si3 0.459777 0.858430 0.700075
Si Si4 0.813806 0.396649 0.783767
Si Si5 0.462458 0.024719 0.151291
Si Si6 0.624812 0.590262 0.926460
O O1 0.002182 0.715818 0.762995
O O2 0.128094 0.826087 0.842437
O O3 0.895463 0.834422 0.862009
O O4 0.009419 0.750000 0.000000
O O5 0.750000 0.039156 0.500000
O O6 0.931776 0.128883 0.561601
O O7 0.886642 0.088834 0.340098
O O8 0.000000 0.000000 0.500000
O O9 0.329244 0.881589 0.760391
O O10 0.554478 0.920926 0.740785
O O11 0.849184 0.468301 0.856174
O O12 0.583991 0.974011 0.160279
O O13 0.471674 0.074656 0.035122
O O14 0.750000 0.590057 0.000000
#
# Coordination Sequence:
#
# PCOD9395942 Si02
#       6
#     8   8   8   8   8   8
#     4  11  23  40  55  88 125 162 202 245 306 376
#     4  10  21  40  66  92 123 158 208 266 316 374
#     4  11  21  37  60  88 121 156 204 252 310 366
#     4  10  22  37  61  89 119 159 201 254 308 364
#     4  10  19  36  58  90 116 154 209 254 298 365
#     4  10  21  37  58  82 125 166 203 247 307 372
#
# _framework density 21.351979
#
# number of rings (size 3 to 8) (size 9 to 14) (size 15 to 20)
#    0.000    1.667    3.333    1.500    0.000    2.333 
#    0.000    2.500    0.000    0.000    0.000    1.167 
#    0.000    0.000    0.000    0.000    0.000    0.000 
#
# Total GULP energy -267438.203271 kJ/mol
# GULP energy per Si atom -5571.629235 kJ/mol
# Density = 2.130338 g / cm^3
# Si number density = 21.351979 Si / 1000 Ang^3
#
#
#
# Elastic Constant Matrix: (Units=GPa)
#
#
# Indices 1 2 3 4 5 6 
#
# 1 68.0544 32.2251 1.5734 0.0000 0.0000 0.0000
# 2 32.2251 137.6111 33.6428 0.0000 0.0000 0.0000
# 3 1.5734 33.6428 68.6573 0.0000 0.0000 0.0000
# 4 0.0000 0.0000 0.0000 33.5649 0.0000 0.0000
# 5 0.0000 0.0000 0.0000 0.0000 26.5313 0.0000
# 6 0.0000 0.0000 0.0000 0.0000 0.0000 22.9190
#
#
#
# Elastic Compliance Matrix: (Units=1/GPa)
#
#
# Indices 1 2 3 4 5 6 
#
# 1 0.016708 -0.004339 0.001743 0.000000 0.000000 0.000000
# 2 -0.004339 0.009383 -0.004498 0.000000 0.000000 0.000000
# 3 0.001743 -0.004498 0.016729 0.000000 0.000000 0.000000
# 4 0.000000 0.000000 0.000000 0.029793 0.000000 0.000000
# 5 0.000000 0.000000 0.000000 0.000000 0.037691 0.000000
# 6 0.000000 0.000000 0.000000 0.000000 0.000000 0.043632
#
#
# Mechanical properties :
#
#
# Convention : Reuss Voigt Hill
#
# Bulk Modulus (GPa) = 34.92520 45.46728 40.19624
# Shear Modulus (GPa) = 28.14231 30.39513 29.26872
#
# Velocity S-wave (km/s) = 3.63439 3.77706 3.70641
# Velocity P-wave (km/s) = 5.83131 6.35311 6.09779
#
# Compressibility (1/GPa) = 0.02863262
#
# Stress axis : x y z
#
# Youngs Moduli (GPa) = 59.85027 106.58025 59.77540
#
# Poissons Ratio (x) = 0.46244 -0.10420
# Poissons Ratio (y) = 0.25968 0.26888
# Poissons Ratio (z) = -0.10433 0.47941
#
# Static dielectric constant tensor:
#      x y z
#    x 1.859250 0.000000 0.000000 
#    y 0.000000 1.803100 0.000000 
#    z 0.000000 0.000000 1.831120 
# 
# From -- ./inp_files/20191.got.cif
#   From: 2010.05.17/outbox.cif.g08.bks.cpg/sg50_11_cif.got.tgz:20191.got - 2010.06.03 11:33:33.
