data_PCOD9395564
_publ_section_title
;
Structure prediction by ZEFSAII (Michael W. Deem and Ramdas Pophale) SiO2 
 PCOD9395564
Probable space group: P B A N
;
_chemical_formula_sum "Si O2"
_cell_formula_units_Z 48
_cell_length_a 11.312295
_cell_length_b 21.837989
_cell_length_c 9.123891
_cell_angle_alpha 90.000000
_cell_angle_beta 90.000000
_cell_angle_gamma 90.000000
_cell_volume 2253.945721
_symmetry_space_group_name_H-M "P B A N"
_symmetry_group_IT_number 50
_space_group.IT_coordinate_system_code '2'
_symmetry_cell_setting 'orthorhombic'
loop_
_space_group_symop_operation_xyz
x,y,z
1/2-x,1/2-y,z
x,1/2-y,-z
1/2-x,y,-z
-x,-y,-z
1/2+x,1/2+y,-z
-x,1/2+y,z
1/2+x,-y,z
loop_
_atom_site_type_symbol
_atom_site_label
_atom_site_fract_x
_atom_site_fract_y
_atom_site_fract_z
Si Si1 0.633094 0.895672 0.809541
Si Si2 0.606836 0.558538 0.884691
Si Si3 0.908527 0.478147 0.668868
Si Si4 0.693036 0.074803 0.140371
Si Si5 0.378840 0.180442 0.447869
Si Si6 0.620995 0.384927 0.561623
O O1 0.770621 0.910791 0.838038
O O2 0.622796 0.831828 0.726828
O O3 0.592987 0.949670 0.698087
O O4 0.571114 0.906438 0.966464
O O5 0.517427 0.554048 0.750963
O O6 0.630487 0.486781 0.921333
O O7 0.796244 0.452574 0.757375
O O8 0.893801 0.453784 0.504589
O O9 0.624165 0.114110 0.261352
O O10 0.750000 0.107346 0.000000
O O11 0.379848 0.250000 0.500000
O O12 0.250000 0.154033 0.500000
O O13 0.505420 0.151381 0.494074
O O14 0.750000 0.363185 0.500000
#
# Coordination Sequence:
#
# PCOD9395564 Si02
#       6
#     8   8   8   8   8   8
#     4  10  20  33  55  89 123 164 203 252 319 380
#     4  10  18  32  54  90 128 169 201 245 318 394
#     4  10  19  32  56  89 131 160 200 247 312 396
#     4  10  19  33  52  90 133 164 204 248 310 400
#     4  11  25  43  63  86 119 164 225 273 316 372
#     4  10  23  39  61  96 128 166 206 262 328 384
#
# _framework density 21.295988999999999
#
# number of rings (size 3 to 8) (size 9 to 14) (size 15 to 20)
#    0.000    1.833    3.333    2.500    2.333    6.333 
#    0.000    0.000    0.000   17.000    0.000    1.167 
#    0.000    0.000    0.000    0.000    0.000    0.000 
#
# Total GULP energy -267705.815998 kJ/mol
# GULP energy per Si atom -5577.204500 kJ/mol
# Density = 2.124752 g / cm^3
# Si number density = 21.295989 Si / 1000 Ang^3
#
#
#
# Elastic Constant Matrix: (Units=GPa)
#
#
# Indices 1 2 3 4 5 6 
#
# 1 117.0636 26.2612 30.2360 0.0000 0.0000 0.0000
# 2 26.2612 61.1600 38.4814 0.0000 0.0000 0.0000
# 3 30.2360 38.4814 148.2517 0.0000 0.0000 0.0000
# 4 0.0000 0.0000 0.0000 25.9722 0.0000 0.0000
# 5 0.0000 0.0000 0.0000 0.0000 43.0075 0.0000
# 6 0.0000 0.0000 0.0000 0.0000 0.0000 24.2047
#
#
#
# Elastic Compliance Matrix: (Units=1/GPa)
#
#
# Indices 1 2 3 4 5 6 
#
# 1 0.009590 -0.003451 -0.001060 0.000000 0.000000 0.000000
# 2 -0.003451 0.020784 -0.004691 0.000000 0.000000 0.000000
# 3 -0.001060 -0.004691 0.008179 0.000000 0.000000 0.000000
# 4 0.000000 0.000000 0.000000 0.038503 0.000000 0.000000
# 5 0.000000 0.000000 0.000000 0.000000 0.023252 0.000000
# 6 0.000000 0.000000 0.000000 0.000000 0.000000 0.041314
#
#
# Mechanical properties :
#
#
# Convention : Reuss Voigt Hill
#
# Bulk Modulus (GPa) = 49.62990 57.38139 53.50564
# Shear Modulus (GPa) = 29.98631 34.06999 32.02815
#
# Velocity S-wave (km/s) = 3.75650 4.00413 3.88229
# Velocity P-wave (km/s) = 6.49388 6.95561 6.72871
#
# Compressibility (1/GPa) = 0.02014914
#
# Stress axis : x y z
#
# Youngs Moduli (GPa) = 104.27157 48.11428 122.26194
#
# Poissons Ratio (x) = 0.16604 0.12962
# Poissons Ratio (y) = 0.35983 0.57353
# Poissons Ratio (z) = 0.11055 0.22571
#
# Static dielectric constant tensor:
#      x y z
#    x 1.945060 0.000000 0.000000 
#    y 0.000000 1.726970 0.000000 
#    z 0.000000 0.000000 1.840240 
# 
# From -- ./inp_files/11555.got.cif
#   From: 2010.05.17/outbox.cif.g08.bks.cpg/sg50_6_cif.got.tgz:11555.got - 2010.06.03 11:33:33.
