data_PCOD9395286
_publ_section_title
;
Structure prediction by ZEFSAII (Michael W. Deem and Ramdas Pophale) SiO2 
 PCOD9395286
Probable space group: P C C M
;
_chemical_formula_sum "Si O2"
_cell_formula_units_Z 34
_cell_length_a 9.000000
_cell_length_b 21.000000
_cell_length_c 9.000000
_cell_angle_alpha 90.000000
_cell_angle_beta 90.000000
_cell_angle_gamma 90.000000
_cell_volume 1701.000000
_symmetry_space_group_name_H-M "P C C M"
_symmetry_group_IT_number 49
_symmetry_cell_setting 'orthorhombic'
loop_
_space_group_symop_operation_xyz
x,y,z
-x,-y,z
x,-y,1/2-z
-x,y,1/2-z
-x,-y,-z
x,y,-z
-x,y,1/2+z
x,-y,1/2+z
loop_
_atom_site_type_symbol
_atom_site_label
_atom_site_fract_x
_atom_site_fract_y
_atom_site_fract_z
Si Si1 0.145071 0.877438 0.333088
Si Si2 0.000000 0.000000 0.250000
Si Si3 0.664524 0.564283 0.319766
Si Si4 0.342608 0.205914 0.323405
Si Si5 0.161004 0.318517 0.820661
O O1 0.164665 0.853095 0.500000
O O2 0.282552 0.862642 0.227761
O O3 0.000000 0.849171 0.250000
O O4 0.104110 0.951725 0.338678
O O5 0.732837 0.500000 0.250000
O O6 0.500000 0.567577 0.250000
O O7 0.661135 0.562965 0.500000
O O8 0.747949 0.624249 0.253137
O O9 0.500000 0.217515 0.250000
O O10 0.343074 0.213807 0.500000
O O11 0.233937 0.254474 0.241087
O O12 0.000000 0.322837 0.750000
O O13 0.161303 0.321220 0.000000
#
# Coordination Sequence:
#
# PCOD9395286 Si02
#       5
#     8   2   8   8   8
#     4  10  20  37  62  92 123 160 202 246 297 358
#     4   8  22  36  68  92 130 160 210 240 306 352
#     4  11  22  40  64  93 126 166 210 256 311 371
#     4  12  25  42  63  90 124 163 205 256 310 367
#     4  12  25  43  64  91 124 162 208 259 312 369
#
# _framework density 19.988242
#
# number of rings (size 3 to 8) (size 9 to 14) (size 15 to 20)
#    0.706    0.235    0.000    9.529    0.000    0.471 
#    0.000    2.941    0.000    2.824    0.000    0.000 
#    0.000    0.000    0.000    0.000    0.000    0.000 
#
# Total GULP energy -189595.419922 kJ/mol
# GULP energy per Si atom -5576.335880 kJ/mol
# Density = 1.994275 g / cm^3
# Si number density = 19.988242 Si / 1000 Ang^3
#
#
#
# Elastic Constant Matrix: (Units=GPa)
#
#
# Indices 1 2 3 4 5 6 
#
# 1 67.4300 38.4224 45.9053 0.0000 0.0000 0.0000
# 2 38.4224 103.7389 48.4976 0.0000 0.0000 0.0000
# 3 45.9053 48.4976 250.2501 0.0000 0.0000 0.0000
# 4 0.0000 0.0000 0.0000 35.9864 0.0000 0.0000
# 5 0.0000 0.0000 0.0000 0.0000 8.6646 0.0000
# 6 0.0000 0.0000 0.0000 0.0000 0.0000 14.9931
#
#
#
# Elastic Compliance Matrix: (Units=1/GPa)
#
#
# Indices 1 2 3 4 5 6 
#
# 1 0.020093 -0.006289 -0.002467 0.000000 0.000000 0.000000
# 2 -0.006289 0.012568 -0.001282 0.000000 0.000000 0.000000
# 3 -0.002467 -0.001282 0.004697 0.000000 0.000000 0.000000
# 4 0.000000 0.000000 0.000000 0.027788 0.000000 0.000000
# 5 0.000000 0.000000 0.000000 0.000000 0.115412 0.000000
# 6 0.000000 0.000000 0.000000 0.000000 0.000000 0.066697
#
#
# Mechanical properties :
#
#
# Convention : Reuss Voigt Hill
#
# Bulk Modulus (GPa) = 57.86172 76.34108 67.10140
# Shear Modulus (GPa) = 18.30882 31.16840 24.73861
#
# Velocity S-wave (km/s) = 3.02980 3.95313 3.52185
# Velocity P-wave (km/s) = 6.42264 7.68845 7.08387
#
# Compressibility (1/GPa) = 0.01728258
#
# Stress axis : x y z
#
# Youngs Moduli (GPa) = 49.76826 79.56643 212.90054
#
# Poissons Ratio (x) = 0.50036 0.52525
# Poissons Ratio (y) = 0.31297 0.27296
# Poissons Ratio (z) = 0.12278 0.10201
#
# Static dielectric constant tensor:
#      x y z
#    x 1.327770 0.000000 0.000000 
#    y 0.000000 1.847270 0.000000 
#    z 0.000000 0.000000 1.673090 
# 
# From -- ./inp_files/1535.got.cif
#   From: 2010.05.17/outbox.ucp.g08.bks.cvg/sg49_1_cif.got.tgz:1535.got - 2010.06.11 16:40:14.
