data_PCOD9395177
_publ_section_title
;
Structure prediction by ZEFSAII (Michael W. Deem and Ramdas Pophale) SiO2 
 PCOD9395177
Probable space group: P C C M
;
_chemical_formula_sum "Si O2"
_cell_formula_units_Z 32
_cell_length_a 5.104107
_cell_length_b 19.081831
_cell_length_c 14.993480
_cell_angle_alpha 90.000000
_cell_angle_beta 90.000000
_cell_angle_gamma 90.000000
_cell_volume 1460.300588
_symmetry_space_group_name_H-M "P C C M"
_symmetry_group_IT_number 49
_symmetry_cell_setting 'orthorhombic'
loop_
_space_group_symop_operation_xyz
x,y,z
-x,-y,z
x,-y,1/2-z
-x,y,1/2-z
-x,-y,-z
x,y,-z
-x,y,1/2+z
x,-y,1/2+z
loop_
_atom_site_type_symbol
_atom_site_label
_atom_site_fract_x
_atom_site_fract_y
_atom_site_fract_z
Si Si1 0.748164 0.549720 0.500000
Si Si2 0.500000 0.000000 0.250000
Si Si3 0.000000 0.000000 0.000000
Si Si4 0.135257 0.896305 0.654295
Si Si5 0.599461 0.655763 0.346457
Si Si6 0.916685 0.261366 0.602468
O O1 0.500000 0.500000 0.500000
O O2 0.722360 0.598029 0.412128
O O3 0.000000 0.500000 0.500000
O O4 0.377177 0.945436 0.320828
O O5 0.014653 0.938736 0.921995
O O6 0.176692 0.816917 0.624919
O O7 0.000000 0.894152 0.750000
O O8 0.500000 0.629940 0.250000
O O9 0.336394 0.689154 0.387787
O O10 0.832864 0.713379 0.339650
O O11 0.008472 0.263382 0.500000
#
# Coordination Sequence:
#
# PCOD9395177 Si02
#       6
#     4   2   2   8   8   8
#     4  12  26  48  83 116 164 200 240 304 374 450
#     4  12  26  46  68  98 150 188 248 326 390 456
#     4  12  22  46  62  90 134 188 238 310 380 456
#     4  12  26  46  66  99 142 189 253 316 388 451
#     4  12  26  50  78 114 155 197 253 307 370 445
#     4  12  25  47  76 108 148 202 255 318 377 446
#
# _framework density 21.913297
#
# number of rings (size 3 to 8) (size 9 to 14) (size 15 to 20)
#    0.000    0.000    6.250    3.750    5.250    1.000 
#    4.500    1.250    0.000    0.000    0.000    0.000 
#    0.000    0.000    0.000    0.000    0.000    0.000 
#
# Total GULP energy -178223.603693 kJ/mol
# GULP energy per Si atom -5569.487615 kJ/mol
# Density = 2.186342 g / cm^3
# Si number density = 21.913297 Si / 1000 Ang^3
#
#
#
# Elastic Constant Matrix: (Units=GPa)
#
#
# Indices 1 2 3 4 5 6 
#
# 1 105.7433 39.5998 21.9951 0.0000 0.0000 0.0000
# 2 39.5998 133.8218 51.9655 0.0000 0.0000 0.0000
# 3 21.9951 51.9655 169.9828 0.0000 0.0000 0.0000
# 4 0.0000 0.0000 0.0000 30.1748 0.0000 0.0000
# 5 0.0000 0.0000 0.0000 0.0000 21.1732 0.0000
# 6 0.0000 0.0000 0.0000 0.0000 0.0000 49.8464
#
#
#
# Elastic Compliance Matrix: (Units=1/GPa)
#
#
# Indices 1 2 3 4 5 6 
#
# 1 0.010669 -0.002974 -0.000471 0.000000 0.000000 0.000000
# 2 -0.002974 0.009308 -0.002461 0.000000 0.000000 0.000000
# 3 -0.000471 -0.002461 0.006696 0.000000 0.000000 0.000000
# 4 0.000000 0.000000 0.000000 0.033140 0.000000 0.000000
# 5 0.000000 0.000000 0.000000 0.000000 0.047230 0.000000
# 6 0.000000 0.000000 0.000000 0.000000 0.000000 0.020062
#
#
# Mechanical properties :
#
#
# Convention : Reuss Voigt Hill
#
# Bulk Modulus (GPa) = 67.29061 70.74097 69.01579
# Shear Modulus (GPa) = 34.75351 39.97138 37.36244
#
# Velocity S-wave (km/s) = 3.98673 4.27555 4.13366
# Velocity P-wave (km/s) = 7.20877 7.53167 7.37198
#
# Compressibility (1/GPa) = 0.01486091
#
# Stress axis : x y z
#
# Youngs Moduli (GPa) = 93.73284 107.43163 149.33788
#
# Poissons Ratio (x) = 0.31950 0.07038
# Poissons Ratio (y) = 0.27876 0.36749
# Poissons Ratio (z) = 0.04418 0.26437
#
# Static dielectric constant tensor:
#      x y z
#    x 1.835130 0.000000 0.000000 
#    y 0.000000 -17.359390 0.000000 
#    z 0.000000 0.000000 1.837190 
# 
# From -- ./inp_files/10639.got.cif
#   From: 2010.05.17/outbox.cif.g08.bks.cpg/sg49_6_cif.got.tgz:10639.got - 2010.06.03 21:02:19.
