data_PCOD9395429
_publ_section_title
;
Structure prediction by ZEFSAII (Michael W. Deem and Ramdas Pophale) SiO2 
 PCOD9395429
Probable space group: P B A N
;
_chemical_formula_sum "Si O2"
_cell_formula_units_Z 32
_cell_length_a 5.225942
_cell_length_b 31.764390
_cell_length_c 6.951611
_cell_angle_alpha 90.000000
_cell_angle_beta 90.000000
_cell_angle_gamma 90.000000
_cell_volume 1153.959500
_symmetry_space_group_name_H-M "P B A N"
_symmetry_group_IT_number 50
_space_group.IT_coordinate_system_code '2'
_symmetry_cell_setting 'orthorhombic'
loop_
_space_group_symop_operation_xyz
x,y,z
1/2-x,1/2-y,z
x,1/2-y,-z
1/2-x,y,-z
-x,-y,-z
1/2+x,1/2+y,-z
-x,1/2+y,z
1/2+x,-y,z
loop_
_atom_site_type_symbol
_atom_site_label
_atom_site_fract_x
_atom_site_fract_y
_atom_site_fract_z
Si Si1 0.501182 0.230861 0.715903
Si Si2 0.166515 0.102396 0.725207
Si Si3 0.338607 0.982505 0.777569
Si Si4 0.330560 0.864079 0.282218
O O1 0.750000 0.250000 0.807151
O O2 0.500069 0.250000 0.500000
O O3 0.534268 0.181004 0.707465
O O4 0.250000 0.250000 0.803473
O O5 0.250000 0.106897 0.500000
O O6 0.452729 0.106158 0.812413
O O7 0.002426 0.060155 0.759552
O O8 0.959307 0.137156 0.797838
O O9 0.549864 0.015485 0.692734
O O10 0.250000 0.990054 0.000000
O O11 0.250000 0.877475 0.500000
#
# Coordination Sequence:
#
# PCOD9395429 Si02
#       4
#     8   8   8   8
#     4  10  17  24  41  63  95 144 178 208 242 310
#     4  10  21  32  50  75 107 140 167 220 274 333
#     4  10  21  38  58  77  99 132 178 226 271 329
#     4  10  18  30  43  69 108 142 173 210 266 316
#
# _framework density 27.730606999999999
#
# number of rings (size 3 to 8) (size 9 to 14) (size 15 to 20)
#    0.000    2.000    2.500    3.000    7.000    1.000 
#    0.000    0.000    0.000    0.000    0.000    0.000 
#    0.000   15.000    0.000    0.000    0.000    0.000 
#
# Total GULP energy -178512.255787 kJ/mol
# GULP energy per Si atom -5578.507993 kJ/mol
# Density = 2.766749 g / cm^3
# Si number density = 27.730607 Si / 1000 Ang^3
#
#
#
# Elastic Constant Matrix: (Units=GPa)
#
#
# Indices 1 2 3 4 5 6 
#
# 1 375.7298 87.5976 45.1218 0.0000 0.0000 0.0000
# 2 87.5976 166.4757 1.7445 0.0000 0.0000 0.0000
# 3 45.1218 1.7445 124.2228 0.0000 0.0000 0.0000
# 4 0.0000 0.0000 0.0000 -199.1302 0.0000 0.0000
# 5 0.0000 0.0000 0.0000 0.0000 -19.1896 0.0000
# 6 0.0000 0.0000 0.0000 0.0000 0.0000 58.3972
#
#
#
# Elastic Compliance Matrix: (Units=1/GPa)
#
#
# Indices 1 2 3 4 5 6 
#
# 1 0.003186 -0.001664 -0.001134 0.000000 0.000000 0.000000
# 2 -0.001664 0.006877 0.000508 0.000000 0.000000 0.000000
# 3 -0.001134 0.000508 0.008455 0.000000 0.000000 0.000000
# 4 0.000000 0.000000 0.000000 -0.005022 0.000000 0.000000
# 5 0.000000 0.000000 0.000000 0.000000 -0.052112 0.000000
# 6 0.000000 0.000000 0.000000 0.000000 0.000000 0.017124
#
#
# Mechanical properties :
#
#
# Convention : Reuss Voigt Hill
#
# Bulk Modulus (GPa) = 71.74935 103.92844 87.83890
# Shear Modulus (GPa) = -407.64838 3.47978 -202.08430
#
# Velocity S-wave (km/s) = -12.13763 1.12142 -8.54589
# Velocity P-wave (km/s) = 13.05755 6.26387 8.10135
#
# Compressibility (1/GPa) = 0.01393741
#
# Stress axis : x y z
#
# Youngs Moduli (GPa) = 313.90499 145.40503 118.27686
#
# Poissons Ratio (x) = 0.24201 0.13410
# Poissons Ratio (y) = 0.52246 -0.06008
# Poissons Ratio (z) = 0.35590 -0.07386
#
# Static dielectric constant tensor:
#      x y z
#    x 2.266990 0.000000 0.000000 
#    y 0.000000 2.260050 0.000000 
#    z 0.000000 0.000000 2.299390 
# 
# From -- ./inp_files/17941.got.cif
#   From: 2010.05.17/outbox.cif.g08.bks.cpg/sg50_9_cif.got.tgz:17941.got - 2010.06.03 11:33:33.
