data_PCOD9395735
_publ_section_title
;
Structure prediction by ZEFSAII (Michael W. Deem and Ramdas Pophale) SiO2 
 PCOD9395735
Probable space group: P B A N
;
_chemical_formula_sum "Si O2"
_cell_formula_units_Z 64
_cell_length_a 22.944120
_cell_length_b 8.198402
_cell_length_c 18.868060
_cell_angle_alpha 90.000000
_cell_angle_beta 90.000000
_cell_angle_gamma 90.000000
_cell_volume 3549.178677
_symmetry_space_group_name_H-M "P B A N"
_symmetry_group_IT_number 50
_space_group.IT_coordinate_system_code '2'
_symmetry_cell_setting 'orthorhombic'
loop_
_space_group_symop_operation_xyz
x,y,z
1/2-x,1/2-y,z
x,1/2-y,-z
1/2-x,y,-z
-x,-y,-z
1/2+x,1/2+y,-z
-x,1/2+y,z
1/2+x,-y,z
loop_
_atom_site_type_symbol
_atom_site_label
_atom_site_fract_x
_atom_site_fract_y
_atom_site_fract_z
Si Si1 0.008766 0.028189 0.113786
Si Si2 0.768958 0.559785 0.078631
Si Si3 0.027797 0.860247 0.347150
Si Si4 0.436267 0.563108 0.740437
Si Si5 0.585991 0.828294 0.928500
Si Si6 0.833654 0.466513 0.833389
Si Si7 0.622545 0.336479 0.922625
Si Si8 0.037138 0.119577 0.449718
O O1 0.043007 0.195983 0.104703
O O2 0.974623 0.035941 0.188272
O O3 0.059145 0.894774 0.102341
O O4 0.956475 0.983823 0.059385
O O5 0.750000 0.750000 0.078924
O O6 0.733797 0.484438 0.145816
O O7 0.834786 0.493446 0.082219
O O8 0.750000 0.497143 0.000000
O O9 0.058145 0.748497 0.287869
O O10 0.007163 0.732486 0.406091
O O11 0.063603 0.001744 0.388586
O O12 0.969722 0.944280 0.314354
O O13 0.368851 0.524636 0.759329
O O14 0.636669 0.888302 0.878741
O O15 0.608383 0.750000 0.000000
O O16 0.854022 0.297761 0.868227
O O17 0.624161 0.250000 0.000000
O O18 0.070812 0.250000 0.500000
O O19 0.000000 0.000000 0.500000
#
# Coordination Sequence:
#
# PCOD9395735 Si02
#       8
#     8   8   8   8   8   8   8   8
#     4  11  21  33  48  67  96 123 161 207 251 323
#     4  11  24  39  54  68  85 111 157 217 286 342
#     4   9  16  27  46  65 100 140 173 205 227 280
#     4  10  19  32  44  69  98 135 173 197 245 301
#     4  11  21  33  47  68  90 119 152 201 270 315
#     4  11  22  34  51  68  92 119 160 217 261 330
#     4  12  22  36  54  71  87 116 157 216 286 342
#     4   8  14  25  43  71 100 135 179 205 223 254
#
# _framework density 18.032342
#
# number of rings (size 3 to 8) (size 9 to 14) (size 15 to 20)
#    0.000    1.625    1.250    6.375    1.750    0.000 
#    0.000    0.000    0.000    0.000    0.000    0.000 
#    0.000    0.000    0.000    0.000    0.000 1583.125 
#
# Total GULP energy -356401.979452 kJ/mol
# GULP energy per Si atom -5568.780929 kJ/mol
# Density = 1.799130 g / cm^3
# Si number density = 18.032342 Si / 1000 Ang^3
#
#
#
# Elastic Constant Matrix: (Units=GPa)
#
#
# Indices 1 2 3 4 5 6 
#
# 1 73.3759 24.6628 13.5990 0.0000 0.0000 0.0000
# 2 24.6628 91.2648 31.8300 0.0000 0.0000 0.0000
# 3 13.5990 31.8300 65.7473 0.0000 0.0000 0.0000
# 4 0.0000 0.0000 0.0000 44.2132 0.0000 0.0000
# 5 0.0000 0.0000 0.0000 0.0000 -4.5261 0.0000
# 6 0.0000 0.0000 0.0000 0.0000 0.0000 26.3517
#
#
#
# Elastic Compliance Matrix: (Units=1/GPa)
#
#
# Indices 1 2 3 4 5 6 
#
# 1 0.015093 -0.003597 -0.001380 0.000000 0.000000 0.000000
# 2 -0.003597 0.014040 -0.006053 0.000000 0.000000 0.000000
# 3 -0.001380 -0.006053 0.018426 0.000000 0.000000 0.000000
# 4 0.000000 0.000000 0.000000 0.022618 0.000000 0.000000
# 5 0.000000 0.000000 0.000000 0.000000 -0.220940 0.000000
# 6 0.000000 0.000000 0.000000 0.000000 0.000000 0.037948
#
#
# Mechanical properties :
#
#
# Convention : Reuss Voigt Hill
#
# Bulk Modulus (GPa) = 39.21910 41.17461 40.19686
# Shear Modulus (GPa) = -60.78759 23.89417 -18.44671
#
# Velocity S-wave (km/s) = -5.81236 3.64410 -3.20187
# Velocity P-wave (km/s) = 4.82163 6.37098 2.94459
#
# Compressibility (1/GPa) = 0.02549778
#
# Stress axis : x y z
#
# Youngs Moduli (GPa) = 66.25423 71.22300 54.27173
#
# Poissons Ratio (x) = 0.25621 0.07491
# Poissons Ratio (y) = 0.23834 0.32852
# Poissons Ratio (z) = 0.09145 0.43113
#
# Static dielectric constant tensor:
#      x y z
#    x 1.626620 0.000000 0.000000 
#    y 0.000000 1.730550 0.000000 
#    z 0.000000 0.000000 1.673830 
# 
# From -- ./inp_files/31211.got.cif
#   From: 2010.05.17/outbox.cif.g08.bks.cpg/sg50_16_cif.got.tgz:31211.got - 2010.06.03 11:33:33.
