data_PCOD9395876
_publ_section_title
;
Structure prediction by ZEFSAII (Michael W. Deem and Ramdas Pophale) SiO2 
 PCOD9395876
Probable space group: P B A N
;
_chemical_formula_sum "Si O2"
_cell_formula_units_Z 44
_cell_length_a 8.543540
_cell_length_b 28.177848
_cell_length_c 9.341229
_cell_angle_alpha 90.000000
_cell_angle_beta 90.000000
_cell_angle_gamma 90.000000
_cell_volume 2248.794126
_symmetry_space_group_name_H-M "P B A N"
_symmetry_group_IT_number 50
_space_group.IT_coordinate_system_code '2'
_symmetry_cell_setting 'orthorhombic'
loop_
_space_group_symop_operation_xyz
x,y,z
1/2-x,1/2-y,z
x,1/2-y,-z
1/2-x,y,-z
-x,-y,-z
1/2+x,1/2+y,-z
-x,1/2+y,z
1/2+x,-y,z
loop_
_atom_site_type_symbol
_atom_site_label
_atom_site_fract_x
_atom_site_fract_y
_atom_site_fract_z
Si Si1 0.738380 0.145449 0.335099
Si Si2 0.238983 0.020659 0.173069
Si Si3 0.750000 0.830359 0.000000
Si Si4 0.250000 0.750000 0.763076
Si Si5 0.517764 0.898690 0.148454
Si Si6 0.059075 0.571313 0.823525
Si Si7 0.493577 0.250000 0.000000
O O1 0.750000 0.131639 0.500000
O O2 0.720080 0.201995 0.322575
O O3 0.592873 0.118681 0.262870
O O4 0.888611 0.127433 0.243492
O O5 0.094081 0.054231 0.215709
O O6 0.400663 0.044186 0.220324
O O7 0.197755 0.966455 0.206105
O O8 0.250000 0.022523 0.000000
O O9 0.665605 0.864285 0.114328
O O10 0.613132 0.794353 0.954144
O O11 0.394958 0.738221 0.867692
O O12 0.451454 0.914269 0.991652
#
# Coordination Sequence:
#
# PCOD9395876 Si02
#       7
#     8   8   4   4   8   8   4
#     4  12  26  42  60  88 127 171 210 252 310 382
#     4  10  19  34  63  97 125 156 205 266 319 367
#     4  11  18  36  60 100 126 150 198 265 324 362
#     4  11  23  40  64  90 122 160 204 256 314 378
#     4  11  20  38  64  94 124 160 205 261 315 371
#     4  11  21  38  63  94 125 161 212 263 315 369
#     4  10  22  34  66 100 120 148 204 272 316 366
#
# _framework density 19.566041999999999
#
# number of rings (size 3 to 8) (size 9 to 14) (size 15 to 20)
#    0.000    1.091    4.545    6.273    2.545    0.000 
#    0.000    4.545    0.000    0.000    0.000    0.000 
#    0.000    0.000    0.000    0.000    0.000    0.000 
#
# Total GULP energy -245645.046876 kJ/mol
# GULP energy per Si atom -5582.841974 kJ/mol
# Density = 1.952151 g / cm^3
# Si number density = 19.566042 Si / 1000 Ang^3
#
#
#
# Elastic Constant Matrix: (Units=GPa)
#
#
# Indices 1 2 3 4 5 6 
#
# 1 88.9064 42.2961 29.6625 0.0000 0.0000 0.0000
# 2 42.2961 141.8572 28.2564 0.0000 0.0000 0.0000
# 3 29.6625 28.2564 63.3834 0.0000 0.0000 0.0000
# 4 0.0000 0.0000 0.0000 3.7446 0.0000 0.0000
# 5 0.0000 0.0000 0.0000 0.0000 0.8246 0.0000
# 6 0.0000 0.0000 0.0000 0.0000 0.0000 44.7198
#
#
#
# Elastic Compliance Matrix: (Units=1/GPa)
#
#
# Indices 1 2 3 4 5 6 
#
# 1 0.014602 -0.003284 -0.005369 0.000000 0.000000 0.000000
# 2 -0.003284 0.008475 -0.002241 0.000000 0.000000 0.000000
# 3 -0.005369 -0.002241 0.019289 0.000000 0.000000 0.000000
# 4 0.000000 0.000000 0.000000 0.267049 0.000000 0.000000
# 5 0.000000 0.000000 0.000000 0.000000 1.212721 0.000000
# 6 0.000000 0.000000 0.000000 0.000000 0.000000 0.022361
#
#
# Mechanical properties :
#
#
# Convention : Reuss Voigt Hill
#
# Bulk Modulus (GPa) = 48.59985 54.95301 51.77643
# Shear Modulus (GPa) = 3.17835 22.78659 12.98247
#
# Velocity S-wave (km/s) = 1.27591 3.41632 2.57868
# Velocity P-wave (km/s) = 5.20225 6.61125 5.94861
#
# Compressibility (1/GPa) = 0.02057620
#
# Stress axis : x y z
#
# Youngs Moduli (GPa) = 68.48592 117.99466 51.84336
#
# Poissons Ratio (x) = 0.38751 0.27836
# Poissons Ratio (y) = 0.22491 0.11619
# Poissons Ratio (z) = 0.36772 0.26445
#
# Static dielectric constant tensor:
#      x y z
#    x 1.738870 0.000000 0.000000 
#    y 0.000000 1.737420 0.000000 
#    z 0.000000 0.000000 1.631790 
# 
# From -- ./inp_files/10006.got.cif
#   From: 2010.05.17/outbox.cif.g08.bks.cpg/sg50_6_cif.got.tgz:10006.got - 2010.06.03 11:33:33.
