data_PCOD9395490
_publ_section_title
;
Structure prediction by ZEFSAII (Michael W. Deem and Ramdas Pophale) SiO2 
 PCOD9395490
Probable space group: P B A N
;
_chemical_formula_sum "Si O2"
_cell_formula_units_Z 56
_cell_length_a 14.424699
_cell_length_b 21.322384
_cell_length_c 8.574155
_cell_angle_alpha 90.000000
_cell_angle_beta 90.000000
_cell_angle_gamma 90.000000
_cell_volume 2637.144032
_symmetry_space_group_name_H-M "P B A N"
_symmetry_group_IT_number 50
_space_group.IT_coordinate_system_code '2'
_symmetry_cell_setting 'orthorhombic'
loop_
_space_group_symop_operation_xyz
x,y,z
1/2-x,1/2-y,z
x,1/2-y,-z
1/2-x,y,-z
-x,-y,-z
1/2+x,1/2+y,-z
-x,1/2+y,z
1/2+x,-y,z
loop_
_atom_site_type_symbol
_atom_site_label
_atom_site_fract_x
_atom_site_fract_y
_atom_site_fract_z
Si Si1 0.457098 0.188412 0.099328
Si Si2 0.855308 0.455803 0.721216
Si Si3 0.250000 0.599073 0.000000
Si Si4 0.664893 0.298875 0.784510
Si Si5 0.782766 0.817438 0.318143
Si Si6 0.267998 0.441742 0.183746
Si Si7 0.750000 0.139564 0.500000
Si Si8 0.466458 0.443416 0.110968
O O1 0.557995 0.211422 0.168518
O O2 0.387200 0.175459 0.245583
O O3 0.425861 0.250000 0.000000
O O4 0.462035 0.123395 0.989884
O O5 0.815401 0.440154 0.891692
O O6 0.809477 0.524572 0.708370
O O7 0.811462 0.406285 0.604878
O O8 0.962312 0.442523 0.744747
O O9 0.310417 0.641609 0.111253
O O10 0.750000 0.250000 0.818463
O O11 0.683063 0.318442 0.606541
O O12 0.750000 0.750000 0.265169
O O13 0.750000 0.821709 0.500000
O O14 0.725358 0.870897 0.235493
O O15 0.371158 0.467548 0.188971
O O16 0.250000 0.440769 0.000000
O O17 0.500000 0.500000 0.000000
#
# Coordination Sequence:
#
# PCOD9395490 Si02
#       8
#     8   8   4   8   8   8   4   8
#     4  12  25  43  77 109 136 186 249 296 356 430
#     4  11  22  42  64 100 140 180 233 291 363 423
#     4  10  17  36  66  88 135 174 220 280 340 400
#     4  11  23  42  64 103 143 185 235 284 347 430
#     4  11  27  50  69 101 141 182 226 302 372 423
#     4  12  23  42  73 101 136 180 242 306 353 428
#     4  10  27  42  64  92 155 200 222 286 366 438
#     4  12  23  41  71 107 131 179 237 303 356 420
#
# _framework density 21.235092999999999
#
# number of rings (size 3 to 8) (size 9 to 14) (size 15 to 20)
#    0.000    0.714    5.000    2.143    5.000    1.143 
#    5.143    0.714    0.000    0.000    0.000    0.000 
#    0.000    0.000    0.000    0.000    0.000    0.000 
#
# Total GULP energy -311759.379966 kJ/mol
# GULP energy per Si atom -5567.131785 kJ/mol
# Density = 2.118676 g / cm^3
# Si number density = 21.235093 Si / 1000 Ang^3
#
#
#
# Elastic Constant Matrix: (Units=GPa)
#
#
# Indices 1 2 3 4 5 6 
#
# 1 98.4241 -12.5738 32.6323 0.0000 0.0000 0.0000
# 2 -12.5738 95.1100 25.8499 0.0000 0.0000 0.0000
# 3 32.6323 25.8499 73.3667 0.0000 0.0000 0.0000
# 4 0.0000 0.0000 0.0000 36.3339 0.0000 0.0000
# 5 0.0000 0.0000 0.0000 0.0000 19.8907 0.0000
# 6 0.0000 0.0000 0.0000 0.0000 0.0000 26.4678
#
#
#
# Elastic Compliance Matrix: (Units=1/GPa)
#
#
# Indices 1 2 3 4 5 6 
#
# 1 0.012958 0.003627 -0.007041 0.000000 0.000000 0.000000
# 2 0.003627 0.012643 -0.006068 0.000000 0.000000 0.000000
# 3 -0.007041 -0.006068 0.018900 0.000000 0.000000 0.000000
# 4 0.000000 0.000000 0.000000 0.027522 0.000000 0.000000
# 5 0.000000 0.000000 0.000000 0.000000 0.050275 0.000000
# 6 0.000000 0.000000 0.000000 0.000000 0.000000 0.037782
#
#
# Mechanical properties :
#
#
# Convention : Reuss Voigt Hill
#
# Bulk Modulus (GPa) = 39.16002 39.85751 39.50876
# Shear Modulus (GPa) = 26.65869 31.27133 28.96501
#
# Velocity S-wave (km/s) = 3.54702 3.84164 3.69727
# Velocity P-wave (km/s) = 5.93770 6.20387 6.07225
#
# Compressibility (1/GPa) = 0.02553625
#
# Stress axis : x y z
#
# Youngs Moduli (GPa) = 77.17241 79.09671 52.91026
#
# Poissons Ratio (x) = -0.28687 0.37256
# Poissons Ratio (y) = -0.27989 0.32104
# Poissons Ratio (z) = 0.54340 0.47993
#
# Static dielectric constant tensor:
#      x y z
#    x 2.024510 0.000000 0.000000 
#    y 0.000000 1.880660 0.000000 
#    z 0.000000 0.000000 1.802590 
# 
# From -- ./inp_files/13330.got.cif
#   From: 2010.05.17/outbox.cif.g08.bks.cpg/sg50_7_cif.got.tgz:13330.got - 2010.06.03 11:33:33.
