data_PCOD9395327
_publ_section_title
;
Structure prediction by ZEFSAII (Michael W. Deem and Ramdas Pophale) SiO2 
 PCOD9395327
Probable space group: P C C M
;
_chemical_formula_sum "Si O2"
_cell_formula_units_Z 48
_cell_length_a 9.000000
_cell_length_b 18.000000
_cell_length_c 15.000000
_cell_angle_alpha 90.000000
_cell_angle_beta 90.000000
_cell_angle_gamma 90.000000
_cell_volume 2430.000000
_symmetry_space_group_name_H-M "P C C M"
_symmetry_group_IT_number 49
_symmetry_cell_setting 'orthorhombic'
loop_
_space_group_symop_operation_xyz
x,y,z
-x,-y,z
x,-y,1/2-z
-x,y,1/2-z
-x,-y,-z
x,y,-z
-x,y,1/2+z
x,-y,1/2+z
loop_
_atom_site_type_symbol
_atom_site_label
_atom_site_fract_x
_atom_site_fract_y
_atom_site_fract_z
Si Si1 0.321460 0.587762 0.000000
Si Si2 0.173454 0.309202 0.147817
Si Si3 0.169045 1.000000 0.356364
Si Si4 0.330725 0.844317 0.894642
Si Si5 0.669275 0.155683 0.394641
Si Si6 0.321461 0.587762 0.500000
Si Si7 0.826547 0.309203 0.852183
O O1 0.258009 0.633381 0.915786
O O2 0.279534 0.500000 0.000000
O O3 0.499999 0.591935 0.000000
O O4 0.242049 0.226230 0.142825
O O5 0.258011 0.366618 0.084214
O O6 0.183250 0.334293 0.250000
O O7 0.000001 0.305080 0.121842
O O8 0.252923 0.924088 0.381743
O O9 0.161637 0.000000 0.250000
O O10 0.252923 0.075912 0.381743
O O11 0.000000 0.000000 0.391571
O O12 0.500000 0.846878 0.860062
O O13 0.242048 0.773770 0.857176
O O14 0.337282 0.830909 0.000000
O O15 0.662720 0.169091 0.500000
#
# Coordination Sequence:
#
# PCOD9395327 Si02
#       7
#     4   8   8   8   8   4   8
#     4  11  25  45  69  98 131 168 211 261 319 383
#     4  11  24  42  67  98 131 170 215 263 319 382
#     4  11  24  39  56  84 122 165 216 268 318 374
#     4  11  23  39  61  90 124 165 214 265 319 378
#     4  11  23  39  61  90 124 165 214 265 319 378
#     4  11  25  45  69  98 131 168 211 261 319 383
#     4  11  24  42  67  98 131 170 215 263 319 382
#
# _framework density 19.753086
#
# number of rings (size 3 to 8) (size 9 to 14) (size 15 to 20)
#    0.000    1.000    1.667    4.500    0.000   14.000 
#    0.000    3.333    0.000    0.000    0.000    0.000 
#    0.000    0.000    0.000    0.000    0.000    0.000 
#
# Total GULP energy -268340.159431 kJ/mol
# GULP energy per Si atom -5590.419988 kJ/mol
# Density = 1.970813 g / cm^3
# Si number density = 19.753086 Si / 1000 Ang^3
#
#
#
# Elastic Constant Matrix: (Units=GPa)
#
#
# Indices 1 2 3 4 5 6 
#
# 1 165.9805 90.6409 43.7658 0.0000 0.0000 0.0000
# 2 90.6409 179.7717 41.9364 0.0000 0.0000 0.0000
# 3 43.7658 41.9364 103.8871 0.0000 0.0000 0.0000
# 4 0.0000 0.0000 0.0000 -9.9349 0.0000 0.0000
# 5 0.0000 0.0000 0.0000 0.0000 33.8307 0.0000
# 6 0.0000 0.0000 0.0000 0.0000 0.0000 33.4256
#
#
#
# Elastic Compliance Matrix: (Units=1/GPa)
#
#
# Indices 1 2 3 4 5 6 
#
# 1 0.008708 -0.003902 -0.002093 0.000000 0.000000 0.000000
# 2 -0.003902 0.007890 -0.001541 0.000000 0.000000 0.000000
# 3 -0.002093 -0.001541 0.011130 0.000000 0.000000 0.000000
# 4 0.000000 0.000000 0.000000 -0.100655 0.000000 0.000000
# 5 0.000000 0.000000 0.000000 0.000000 0.029559 0.000000
# 6 0.000000 0.000000 0.000000 0.000000 0.000000 0.029917
#
#
# Mechanical properties :
#
#
# Convention : Reuss Voigt Hill
#
# Bulk Modulus (GPa) = 79.02367 89.14727 84.08547
# Shear Modulus (GPa) = 856.45346 29.68404 443.06875
#
# Velocity S-wave (km/s) = 20.84516 3.88074 14.99301
# Velocity P-wave (km/s) = 24.88883 8.08140 18.50355
#
# Compressibility (1/GPa) = 0.01265444
#
# Stress axis : x y z
#
# Youngs Moduli (GPa) = 114.84141 126.75069 89.84984
#
# Poissons Ratio (x) = 0.49459 0.18807
# Poissons Ratio (y) = 0.44812 0.13845
# Poissons Ratio (z) = 0.24039 0.19531
#
# Static dielectric constant tensor:
#      x y z
#    x 1.703900 0.000000 0.000000 
#    y 0.000000 1.664870 0.000000 
#    z 0.000000 0.000000 1.719220 
# 
# From -- ./inp_files/11839.got.cif
#   From: 2010.05.17/outbox.ucp.g08.bks.cvg/sg49_6_cif.got.tgz:11839.got - 2010.06.11 16:40:14.
