data_PCOD9395031
_publ_section_title
;
Structure prediction by ZEFSAII (Michael W. Deem and Ramdas Pophale) SiO2 
 PCOD9395031
Probable space group: P C C M
;
_chemical_formula_sum "Si O2"
_cell_formula_units_Z 56
_cell_length_a 5.465897
_cell_length_b 13.887546
_cell_length_c 31.912424
_cell_angle_alpha 90.000000
_cell_angle_beta 90.000000
_cell_angle_gamma 90.000000
_cell_volume 2422.404963
_symmetry_space_group_name_H-M "P C C M"
_symmetry_group_IT_number 49
_symmetry_cell_setting 'orthorhombic'
loop_
_space_group_symop_operation_xyz
x,y,z
-x,-y,z
x,-y,1/2-z
-x,y,1/2-z
-x,-y,-z
x,y,-z
-x,y,1/2+z
x,-y,1/2+z
loop_
_atom_site_type_symbol
_atom_site_label
_atom_site_fract_x
_atom_site_fract_y
_atom_site_fract_z
Si Si1 0.230251 0.260783 0.375463
Si Si2 0.112173 0.096670 0.839926
Si Si3 0.248922 0.945120 0.434006
Si Si4 0.597336 0.595454 0.169214
Si Si5 0.750488 0.756269 0.775825
Si Si6 0.445929 0.247799 0.954749
Si Si7 0.855271 0.590595 0.083601
O O1 0.390684 0.327975 0.345029
O O2 0.393842 0.224846 0.414046
O O3 0.098571 0.173078 0.352641
O O4 0.035882 0.328706 0.398457
O O5 0.239074 0.066794 0.883443
O O6 0.278606 0.154984 0.807925
O O7 0.000000 0.000000 0.821025
O O8 0.250905 0.838540 0.453299
O O9 0.500000 0.000000 0.445853
O O10 0.000000 0.000000 0.445737
O O11 0.500000 0.500000 0.191345
O O12 0.778593 0.658364 0.197205
O O13 0.718611 0.558488 0.126058
O O14 0.500000 0.746541 0.750000
O O15 0.000000 0.771581 0.750000
O O16 0.327736 0.352325 0.946519
O O17 0.571286 0.246666 0.000000
O O18 0.000000 0.500000 0.065420
#
# Coordination Sequence:
#
# PCOD9395031 Si02
#       7
#     8   8   8   8   8   8   8
#     4  11  21  45  70 102 134 181 247 296 339 425
#     4  11  23  47  76 101 134 190 242 293 349 420
#     4  11  24  44  72 104 134 184 253 299 342 417
#     4  11  23  43  75 100 131 186 239 299 351 417
#     4  12  28  48  69 107 153 185 226 292 364 440
#     4  11  25  41  63 102 149 190 227 298 374 425
#     4  11  22  41  72 100 129 178 246 291 347 420
#
# _framework density 23.117522000000001
#
# number of rings (size 3 to 8) (size 9 to 14) (size 15 to 20)
#    0.000    0.857    4.286    3.429    0.000    4.286 
#    0.000    5.000    0.000    0.429    0.000    0.000 
#    0.000    0.000    0.000    0.000    0.000    0.000 
#
# Total GULP energy -313348.824242 kJ/mol
# GULP energy per Si atom -5595.514719 kJ/mol
# Density = 2.306491 g / cm^3
# Si number density = 23.117522 Si / 1000 Ang^3
#
#
#
# Elastic Constant Matrix: (Units=GPa)
#
#
# Indices 1 2 3 4 5 6 
#
# 1 86.2160 15.2600 14.0139 0.0000 0.0000 0.0000
# 2 15.2600 114.0675 15.2848 0.0000 0.0000 0.0000
# 3 14.0139 15.2848 68.8982 0.0000 0.0000 0.0000
# 4 0.0000 0.0000 0.0000 -1.4144 0.0000 0.0000
# 5 0.0000 0.0000 0.0000 0.0000 83.9005 0.0000
# 6 0.0000 0.0000 0.0000 0.0000 0.0000 46.2874
#
#
#
# Elastic Compliance Matrix: (Units=1/GPa)
#
#
# Indices 1 2 3 4 5 6 
#
# 1 0.012190 -0.001338 -0.002183 0.000000 0.000000 0.000000
# 2 -0.001338 0.009182 -0.001765 0.000000 0.000000 0.000000
# 3 -0.002183 -0.001765 0.015350 0.000000 0.000000 0.000000
# 4 0.000000 0.000000 0.000000 -0.707025 0.000000 0.000000
# 5 0.000000 0.000000 0.000000 0.000000 0.011919 0.000000
# 6 0.000000 0.000000 0.000000 0.000000 0.000000 0.021604
#
#
# Mechanical properties :
#
#
# Convention : Reuss Voigt Hill
#
# Bulk Modulus (GPa) = 38.23990 39.81100 39.02545
# Shear Modulus (GPa) = -8.09729 40.72958 16.31615
#
# Velocity S-wave (km/s) = -1.87357 4.20199 2.65956
# Velocity P-wave (km/s) = 3.44921 6.38755 5.13312
#
# Compressibility (1/GPa) = 0.02615070
#
# Stress axis : x y z
#
# Youngs Moduli (GPa) = 82.03154 108.90556 65.14810
#
# Poissons Ratio (x) = 0.14576 0.14219
# Poissons Ratio (y) = 0.10979 0.11497
# Poissons Ratio (z) = 0.17904 0.19220
#
# Static dielectric constant tensor:
#      x y z
#    x 2.041080 0.000000 0.000000 
#    y 0.000000 1.917900 0.000000 
#    z 0.000000 0.000000 1.873030 
# 
# From -- ./inp_files/25817.got.cif
#   From: 2010.05.17/outbox.cif.g08.bks.cpg/sg49_13_cif.got.tgz:25817.got - 2010.06.03 21:02:19.
