data_PCOD9395656
_publ_section_title
;
Structure prediction by ZEFSAII (Michael W. Deem and Ramdas Pophale) SiO2 
 PCOD9395656
Probable space group: P B A N
;
_chemical_formula_sum "Si O2"
_cell_formula_units_Z 32
_cell_length_a 5.169292
_cell_length_b 18.938336
_cell_length_c 14.216256
_cell_angle_alpha 90.000000
_cell_angle_beta 90.000000
_cell_angle_gamma 90.000000
_cell_volume 1391.740027
_symmetry_space_group_name_H-M "P B A N"
_symmetry_group_IT_number 50
_space_group.IT_coordinate_system_code '2'
_symmetry_cell_setting 'orthorhombic'
loop_
_space_group_symop_operation_xyz
x,y,z
1/2-x,1/2-y,z
x,1/2-y,-z
1/2-x,y,-z
-x,-y,-z
1/2+x,1/2+y,-z
-x,1/2+y,z
1/2+x,-y,z
loop_
_atom_site_type_symbol
_atom_site_label
_atom_site_fract_x
_atom_site_fract_y
_atom_site_fract_z
Si Si1 0.549374 0.354892 0.645145
Si Si2 0.750000 0.250000 0.000000
Si Si3 0.425493 0.182006 0.160662
Si Si4 0.750000 0.453897 0.500000
Si Si5 0.779850 0.950131 0.758052
Si Si6 0.750000 0.250000 0.500000
O O1 0.616755 0.329611 0.750035
O O2 0.741693 0.407831 0.593929
O O3 0.290256 0.400337 0.667279
O O4 0.560012 0.292369 0.570380
O O5 0.574812 0.201331 0.066697
O O6 0.250000 0.250000 0.183699
O O7 0.260806 0.109373 0.160712
O O8 0.500000 0.500000 0.500000
O O9 0.545724 0.007295 0.762102
#
# Coordination Sequence:
#
# PCOD9395656 Si02
#       6
#     8   2   8   4   8   2
#     4   9  22  39  69 100 152 191 255 299 376 433
#     4  12  24  48  76 108 144 188 266 320 390 474
#     4  10  25  45  76 106 146 201 252 314 388 460
#     4  11  22  43  68 107 150 199 244 296 363 444
#     4  10  23  43  73 104 143 192 241 300 376 445
#     4  10  18  40  58 110 140 204 252 314 342 464
#
# _framework density 22.992801
#
# number of rings (size 3 to 8) (size 9 to 14) (size 15 to 20)
#    1.500    0.500    0.000    2.625    3.500    0.000 
#   13.500    1.250    0.000    0.000    0.000    0.000 
#    0.000    0.000    0.000    0.000    0.000    0.000 
#
# Total GULP energy -178482.780595 kJ/mol
# GULP energy per Si atom -5577.586894 kJ/mol
# Density = 2.294047 g / cm^3
# Si number density = 22.992801 Si / 1000 Ang^3
#
#
#
# Elastic Constant Matrix: (Units=GPa)
#
#
# Indices 1 2 3 4 5 6 
#
# 1 98.7062 49.4144 42.9256 0.0000 0.0000 0.0000
# 2 49.4144 143.8242 62.3677 0.0000 0.0000 0.0000
# 3 42.9256 62.3677 155.4648 0.0000 0.0000 0.0000
# 4 0.0000 0.0000 0.0000 114.0978 0.0000 0.0000
# 5 0.0000 0.0000 0.0000 0.0000 17.7069 0.0000
# 6 0.0000 0.0000 0.0000 0.0000 0.0000 10.0044
#
#
#
# Elastic Compliance Matrix: (Units=1/GPa)
#
#
# Indices 1 2 3 4 5 6 
#
# 1 0.012799 -0.003468 -0.002143 0.000000 0.000000 0.000000
# 2 -0.003468 0.009357 -0.002796 0.000000 0.000000 0.000000
# 3 -0.002143 -0.002796 0.008146 0.000000 0.000000 0.000000
# 4 0.000000 0.000000 0.000000 0.008764 0.000000 0.000000
# 5 0.000000 0.000000 0.000000 0.000000 0.056475 0.000000
# 6 0.000000 0.000000 0.000000 0.000000 0.000000 0.099956
#
#
# Mechanical properties :
#
#
# Convention : Reuss Voigt Hill
#
# Bulk Modulus (GPa) = 74.14141 78.60117 76.37129
# Shear Modulus (GPa) = 23.06190 44.58099 33.82144
#
# Velocity S-wave (km/s) = 3.17046 4.40808 3.83947
# Velocity P-wave (km/s) = 6.76150 7.75678 7.27618
#
# Compressibility (1/GPa) = 0.01348774
#
# Stress axis : x y z
#
# Youngs Moduli (GPa) = 78.12986 106.87092 122.76508
#
# Poissons Ratio (x) = 0.37067 0.26304
# Poissons Ratio (y) = 0.27098 0.34327
# Poissons Ratio (z) = 0.16740 0.29882
#
# Static dielectric constant tensor:
#      x y z
#    x 1.843100 0.000000 0.000000 
#    y 0.000000 1.959390 0.000000 
#    z 0.000000 0.000000 1.882270 
# 
# From -- ./inp_files/23757.got.cif
#   From: 2010.05.17/outbox.cif.g08.bks.cpg/sg50_12_cif.got.tgz:23757.got - 2010.06.03 11:33:33.
