data_PCOD9395859
_publ_section_title
;
Structure prediction by ZEFSAII (Michael W. Deem and Ramdas Pophale) SiO2 
 PCOD9395859
Probable space group: P B A N
;
_chemical_formula_sum "Si O2"
_cell_formula_units_Z 56
_cell_length_a 9.851553
_cell_length_b 20.835871
_cell_length_c 14.543407
_cell_angle_alpha 90.000000
_cell_angle_beta 90.000000
_cell_angle_gamma 90.000000
_cell_volume 2985.262436
_symmetry_space_group_name_H-M "P B A N"
_symmetry_group_IT_number 50
_space_group.IT_coordinate_system_code '2'
_symmetry_cell_setting 'orthorhombic'
loop_
_space_group_symop_operation_xyz
x,y,z
1/2-x,1/2-y,z
x,1/2-y,-z
1/2-x,y,-z
-x,-y,-z
1/2+x,1/2+y,-z
-x,1/2+y,z
1/2+x,-y,z
loop_
_atom_site_type_symbol
_atom_site_label
_atom_site_fract_x
_atom_site_fract_y
_atom_site_fract_z
Si Si1 0.901755 0.124536 0.810317
Si Si2 0.408351 0.754876 0.674756
Si Si3 0.084338 0.675908 0.004549
Si Si4 0.454633 0.497046 0.294956
Si Si5 0.168306 0.305707 0.403221
Si Si6 0.193542 0.453224 0.396679
Si Si7 0.422594 0.628345 0.795688
O O1 0.923022 0.189449 0.751668
O O2 0.953985 0.137334 0.913106
O O3 0.738701 0.116137 0.805529
O O4 0.963016 0.060777 0.766441
O O5 0.250000 0.750000 0.645581
O O6 0.514995 0.778646 0.597987
O O7 0.442252 0.687218 0.723897
O O8 0.041666 0.750000 0.000000
O O9 0.250000 0.676272 0.000000
O O10 0.035275 0.647749 0.101166
O O11 0.303818 0.485339 0.330752
O O12 0.553265 0.509878 0.381387
O O13 0.504338 0.434430 0.241526
O O14 0.250000 0.250000 0.349074
O O15 0.250000 0.310471 0.500000
O O16 0.173656 0.378476 0.369482
O O17 0.250000 0.456485 0.500000
#
# Coordination Sequence:
#
# PCOD9395859 Si02
#       7
#     8   8   8   8   8   8   8
#     4  10  19  34  58  86 123 154 199 249 293 351
#     4  10  19  35  61  89 115 157 204 259 294 347
#     4   9  16  31  56  88 120 155 197 243 296 357
#     4  12  22  39  59  90 122 159 204 248 305 362
#     4  10  21  39  59  85 118 156 203 248 309 370
#     4  11  24  41  62  85 119 164 205 252 305 366
#     4  10  20  34  59  90 120 156 206 244 298 361
#
# _framework density 18.758821000000001
#
# number of rings (size 3 to 8) (size 9 to 14) (size 15 to 20)
#    0.000    1.714    4.286    1.286    0.000    0.571 
#    0.000    1.429    0.000    0.000    0.000    2.000 
#    0.000    0.000    0.000    0.000    0.000    0.000 
#
# Total GULP energy -312117.059590 kJ/mol
# GULP energy per Si atom -5573.518921 kJ/mol
# Density = 1.871612 g / cm^3
# Si number density = 18.758821 Si / 1000 Ang^3
#
#
#
# Elastic Constant Matrix: (Units=GPa)
#
#
# Indices 1 2 3 4 5 6 
#
# 1 63.7255 27.2179 24.3654 0.0000 0.0000 0.0000
# 2 27.2179 129.1876 42.5476 0.0000 0.0000 0.0000
# 3 24.3654 42.5476 80.5807 0.0000 0.0000 0.0000
# 4 0.0000 0.0000 0.0000 30.0350 0.0000 0.0000
# 5 0.0000 0.0000 0.0000 0.0000 -0.3601 0.0000
# 6 0.0000 0.0000 0.0000 0.0000 0.0000 27.7076
#
#
#
# Elastic Compliance Matrix: (Units=1/GPa)
#
#
# Indices 1 2 3 4 5 6 
#
# 1 0.018373 -0.002471 -0.004251 0.000000 0.000000 0.000000
# 2 -0.002471 0.009702 -0.004376 0.000000 0.000000 0.000000
# 3 -0.004251 -0.004376 0.016006 0.000000 0.000000 0.000000
# 4 0.000000 0.000000 0.000000 0.033294 0.000000 0.000000
# 5 0.000000 0.000000 0.000000 0.000000 -2.776961 0.000000
# 6 0.000000 0.000000 0.000000 0.000000 0.000000 0.036091
#
#
# Mechanical properties :
#
#
# Convention : Reuss Voigt Hill
#
# Bulk Modulus (GPa) = 45.69138 51.30619 48.49878
# Shear Modulus (GPa) = -1.89825 23.43403 10.76789
#
# Velocity S-wave (km/s) = -1.00704 3.53828 2.39847
# Velocity P-wave (km/s) = 4.80187 6.64096 5.79484
#
# Compressibility (1/GPa) = 0.02188597
#
# Stress axis : x y z
#
# Youngs Moduli (GPa) = 54.42787 103.06678 62.47756
#
# Poissons Ratio (x) = 0.25467 0.26558
# Poissons Ratio (y) = 0.13449 0.27339
# Poissons Ratio (z) = 0.23136 0.45101
#
# Static dielectric constant tensor:
#      x y z
#    x 1.665920 0.000000 0.000000 
#    y 0.000000 1.645710 0.000000 
#    z 0.000000 0.000000 1.670260 
# 
# From -- ./inp_files/25265.got.cif
#   From: 2010.05.17/outbox.cif.g08.bks.cpg/sg50_13_cif.got.tgz:25265.got - 2010.06.03 11:33:33.
