data_PCOD9395007
_publ_section_title
;
Structure prediction by ZEFSAII (Michael W. Deem and Ramdas Pophale) SiO2 
 PCOD9395007
Probable space group: P C C M
;
_chemical_formula_sum "Si O2"
_cell_formula_units_Z 40
_cell_length_a 15.817575
_cell_length_b 14.691592
_cell_length_c 8.633359
_cell_angle_alpha 90.000000
_cell_angle_beta 90.000000
_cell_angle_gamma 90.000000
_cell_volume 2006.266225
_symmetry_space_group_name_H-M "P C C M"
_symmetry_group_IT_number 49
_symmetry_cell_setting 'orthorhombic'
loop_
_space_group_symop_operation_xyz
x,y,z
-x,-y,z
x,-y,1/2-z
-x,y,1/2-z
-x,-y,-z
x,y,-z
-x,y,1/2+z
x,-y,1/2+z
loop_
_atom_site_type_symbol
_atom_site_label
_atom_site_fract_x
_atom_site_fract_y
_atom_site_fract_z
Si Si1 0.656066 0.404199 0.185232
Si Si2 0.411999 0.218501 0.185387
Si Si3 0.753955 0.898243 0.185905
Si Si4 0.152566 0.596668 0.314529
Si Si5 0.911270 0.784546 0.684728
O O1 0.622241 0.500000 0.250000
O O2 0.603750 0.317450 0.240506
O O3 0.750626 0.393938 0.255186
O O4 0.661350 0.407654 0.000000
O O5 0.500000 0.181008 0.250000
O O6 0.332041 0.155596 0.225745
O O7 0.415736 0.227117 0.000000
O O8 0.833200 0.844720 0.256795
O O9 0.750946 0.000000 0.250000
O O10 0.761973 0.898923 0.000000
O O11 0.120869 0.500000 0.250000
O O12 0.151885 0.596334 0.500000
O O13 0.102706 0.682891 0.250171
O O14 0.912759 0.782196 0.500000
O O15 0.000000 0.820252 0.750000
#
# Coordination Sequence:
#
# PCOD9395007 Si02
#       5
#     8   8   8   8   8
#     4  11  21  36  61  92 129 173 218 263 318 377
#     4  11  24  42  66  96 132 170 216 267 321 383
#     4  11  25  46  71  97 129 167 212 268 327 388
#     4  11  21  37  61  93 131 173 219 263 316 377
#     4  12  25  43  68  98 132 171 216 266 323 384
#
# _framework density 19.937532000000001
#
# number of rings (size 3 to 8) (size 9 to 14) (size 15 to 20)
#    0.000    0.800    2.000    7.800    0.000    4.000 
#    0.000    8.000    0.000    0.000    0.000    0.000 
#    0.000    0.000    0.000    0.000    0.000    0.000 
#
# Total GULP energy -223931.727103 kJ/mol
# GULP energy per Si atom -5598.293178 kJ/mol
# Density = 1.989215 g / cm^3
# Si number density = 19.937532 Si / 1000 Ang^3
#
#
#
# Elastic Constant Matrix: (Units=GPa)
#
#
# Indices 1 2 3 4 5 6 
#
# 1 151.3563 75.0420 78.9338 0.0000 0.0000 0.0000
# 2 75.0420 136.5910 70.9131 0.0000 0.0000 0.0000
# 3 78.9338 70.9131 173.2728 0.0000 0.0000 0.0000
# 4 0.0000 0.0000 0.0000 52.9236 0.0000 0.0000
# 5 0.0000 0.0000 0.0000 0.0000 35.0038 0.0000
# 6 0.0000 0.0000 0.0000 0.0000 0.0000 -4.1606
#
#
#
# Elastic Compliance Matrix: (Units=1/GPa)
#
#
# Indices 1 2 3 4 5 6 
#
# 1 0.010161 -0.004037 -0.002977 0.000000 0.000000 0.000000
# 2 -0.004037 0.010900 -0.002622 0.000000 0.000000 0.000000
# 3 -0.002977 -0.002622 0.008200 0.000000 0.000000 0.000000
# 4 0.000000 0.000000 0.000000 0.018895 0.000000 0.000000
# 5 0.000000 0.000000 0.000000 0.000000 0.028568 0.000000
# 6 0.000000 0.000000 0.000000 0.000000 0.000000 -0.240350
#
#
# Mechanical properties :
#
#
# Convention : Reuss Voigt Hill
#
# Bulk Modulus (GPa) = 100.09694 101.22200 100.65947
# Shear Modulus (GPa) = -35.45483 32.50878 -1.47303
#
# Velocity S-wave (km/s) = -4.22156 4.04236 -0.86048
# Velocity P-wave (km/s) = 5.15288 8.52452 7.04342
#
# Compressibility (1/GPa) = 0.00999031
#
# Stress axis : x y z
#
# Youngs Moduli (GPa) = 98.41837 91.74132 121.94720
#
# Poissons Ratio (x) = 0.37035 0.36298
# Poissons Ratio (y) = 0.39731 0.31974
# Poissons Ratio (z) = 0.29295 0.24055
#
# Static dielectric constant tensor:
#      x y z
#    x 1.732300 0.000000 0.000000 
#    y 0.000000 1.687010 0.000000 
#    z 0.000000 0.000000 1.660020 
# 
# From -- ./inp_files/3440.got.cif
#   From: 2010.05.17/outbox.cif.g08.bks.cpg/sg49_2_cif.got.tgz:3440.got - 2010.06.03 21:02:19.
