data_PCOD9395869
_publ_section_title
;
Structure prediction by ZEFSAII (Michael W. Deem and Ramdas Pophale) SiO2 
 PCOD9395869
Probable space group: P B A N
;
_chemical_formula_sum "Si O2"
_cell_formula_units_Z 56
_cell_length_a 8.120178
_cell_length_b 20.648423
_cell_length_c 16.350958
_cell_angle_alpha 90.000000
_cell_angle_beta 90.000000
_cell_angle_gamma 90.000000
_cell_volume 2741.546654
_symmetry_space_group_name_H-M "P B A N"
_symmetry_group_IT_number 50
_space_group.IT_coordinate_system_code '2'
_symmetry_cell_setting 'orthorhombic'
loop_
_space_group_symop_operation_xyz
x,y,z
1/2-x,1/2-y,z
x,1/2-y,-z
1/2-x,y,-z
-x,-y,-z
1/2+x,1/2+y,-z
-x,1/2+y,z
1/2+x,-y,z
loop_
_atom_site_type_symbol
_atom_site_label
_atom_site_fract_x
_atom_site_fract_y
_atom_site_fract_z
Si Si1 0.860759 0.341371 0.384149
Si Si2 0.495777 0.695846 0.625375
Si Si3 0.700265 0.604211 0.417434
Si Si4 0.207782 0.057512 0.766510
Si Si5 0.180745 0.816229 0.908478
Si Si6 0.341404 0.914618 0.788392
Si Si7 0.120945 0.189846 0.190882
O O1 0.667822 0.341035 0.407627
O O2 0.942451 0.269878 0.390900
O O3 0.850241 0.368745 0.291525
O O4 0.006156 0.381653 0.425510
O O5 0.667937 0.665379 0.591063
O O6 0.516326 0.694173 0.724304
O O7 0.750000 0.568367 0.500000
O O8 0.715669 0.568978 0.331195
O O9 0.308769 0.117291 0.803618
O O10 0.029557 0.068424 0.804698
O O11 0.257470 0.983695 0.776798
O O12 0.250000 0.750000 0.870696
O O13 0.249747 0.876197 0.858684
O O14 0.987929 0.808612 0.890880
O O15 0.250000 0.819916 0.000000
O O16 0.250000 0.250000 0.193432
#
# Coordination Sequence:
#
# PCOD9395869 Si02
#       7
#     8   8   8   8   8   8   8
#     4  10  20  34  59  89 117 171 210 266 325 389
#     4  10  19  34  61  89 123 161 222 259 323 391
#     4  10  22  39  57  89 127 163 212 278 343 389
#     4  10  23  39  66  91 118 172 225 266 327 390
#     4  11  23  40  65 100 134 166 204 264 332 389
#     4  11  21  41  63  89 128 165 220 273 313 392
#     4  11  20  38  65  94 127 171 222 270 321 390
#
# _framework density 20.426427
#
# number of rings (size 3 to 8) (size 9 to 14) (size 15 to 20)
#    0.000    1.571    1.429    5.571    2.000    1.714 
#    0.000   12.143    0.000    0.000    0.000    0.000 
#    0.000    0.000    0.000    0.000    0.000    0.000 
#
# Total GULP energy -312016.816460 kJ/mol
# GULP energy per Si atom -5571.728865 kJ/mol
# Density = 2.037994 g / cm^3
# Si number density = 20.426427 Si / 1000 Ang^3
#
#
#
# Elastic Constant Matrix: (Units=GPa)
#
#
# Indices 1 2 3 4 5 6 
#
# 1 123.9932 34.9991 41.9082 0.0000 0.0000 0.0000
# 2 34.9991 110.1569 33.3123 0.0000 0.0000 0.0000
# 3 41.9082 33.3123 64.9203 0.0000 0.0000 0.0000
# 4 0.0000 0.0000 0.0000 6.0785 0.0000 0.0000
# 5 0.0000 0.0000 0.0000 0.0000 28.8580 0.0000
# 6 0.0000 0.0000 0.0000 0.0000 0.0000 19.9149
#
#
#
# Elastic Compliance Matrix: (Units=1/GPa)
#
#
# Indices 1 2 3 4 5 6 
#
# 1 0.010528 -0.001527 -0.006013 0.000000 0.000000 0.000000
# 2 -0.001527 0.010967 -0.004642 0.000000 0.000000 0.000000
# 3 -0.006013 -0.004642 0.021667 0.000000 0.000000 0.000000
# 4 0.000000 0.000000 0.000000 0.164514 0.000000 0.000000
# 5 0.000000 0.000000 0.000000 0.000000 0.034652 0.000000
# 6 0.000000 0.000000 0.000000 0.000000 0.000000 0.050214
#
#
# Mechanical properties :
#
#
# Convention : Reuss Voigt Hill
#
# Bulk Modulus (GPa) = 53.19430 57.72330 55.45880
# Shear Modulus (GPa) = 15.47170 23.56033 19.51602
#
# Velocity S-wave (km/s) = 2.75514 3.39989 3.09436
# Velocity P-wave (km/s) = 6.01826 6.61308 6.32267
#
# Compressibility (1/GPa) = 0.01879901
#
# Stress axis : x y z
#
# Youngs Moduli (GPa) = 94.98324 91.18487 46.15344
#
# Poissons Ratio (x) = 0.13921 0.27752
# Poissons Ratio (y) = 0.14501 0.21424
# Poissons Ratio (z) = 0.57113 0.42326
#
# Static dielectric constant tensor:
#      x y z
#    x 1.784550 0.000000 0.000000 
#    y 0.000000 1.650140 0.000000 
#    z 0.000000 0.000000 1.730280 
# 
# From -- ./inp_files/25267.got.cif
#   From: 2010.05.17/outbox.cif.g08.bks.cpg/sg50_13_cif.got.tgz:25267.got - 2010.06.03 11:33:33.
