data_PCOD9395217
_publ_section_title
;
Structure prediction by ZEFSAII (Michael W. Deem and Ramdas Pophale) SiO2 
 PCOD9395217
Probable space group: P C C M
;
_chemical_formula_sum "Si O2"
_cell_formula_units_Z 56
_cell_length_a 15.000000
_cell_length_b 21.000000
_cell_length_c 9.000000
_cell_angle_alpha 90.000000
_cell_angle_beta 90.000000
_cell_angle_gamma 90.000000
_cell_volume 2835.000000
_symmetry_space_group_name_H-M "P C C M"
_symmetry_group_IT_number 49
_symmetry_cell_setting 'orthorhombic'
loop_
_space_group_symop_operation_xyz
x,y,z
-x,-y,z
x,-y,1/2-z
-x,y,1/2-z
-x,-y,-z
x,y,-z
-x,y,1/2+z
x,-y,1/2+z
loop_
_atom_site_type_symbol
_atom_site_label
_atom_site_fract_x
_atom_site_fract_y
_atom_site_fract_z
Si Si1 0.658467 0.201900 0.820587
Si Si2 0.593386 0.344384 0.822495
Si Si3 0.147180 0.196779 0.178099
Si Si4 0.910576 0.337232 0.322523
Si Si5 0.360343 0.064465 0.670790
Si Si6 0.746460 0.429945 0.321115
Si Si7 0.857898 0.934347 0.672322
O O1 0.611905 0.269245 0.792257
O O2 0.751027 0.203058 0.732498
O O3 0.611879 0.135077 0.775460
O O4 0.674769 0.197405 0.000000
O O5 0.500000 0.360788 0.750000
O O6 0.665301 0.390168 0.747652
O O7 0.593893 0.352611 0.000000
O O8 0.104620 0.263902 0.227172
O O9 0.112132 0.131125 0.249596
O O10 0.142559 0.191818 0.000000
O O11 0.918102 0.335167 0.500000
O O12 0.830906 0.384973 0.285817
O O13 0.000000 0.361786 0.250000
O O14 0.386467 0.058933 0.500000
O O15 0.251276 0.065762 0.678929
O O16 0.390022 0.000000 0.750000
O O17 0.753155 0.500000 0.250000
O O18 0.738382 0.435067 0.500000
O O19 0.883574 0.934095 0.500000
O O20 0.886938 0.000000 0.750000
#
# Coordination Sequence:
#
# PCOD9395217 Si02
#       7
#     8   8   8   8   8   8   8
#     4   9  18  32  52  78 111 153 199 244 298 357
#     4  11  23  40  64  93 124 162 202 250 303 359
#     4  10  18  31  52  80 113 152 196 248 300 352
#     4  10  23  40  62  91 125 161 202 247 296 355
#     4   8  14  24  39  66 102 140 187 238 286 343
#     4  11  24  45  68  96 127 159 198 243 294 356
#     4   9  16  26  42  70 106 148 195 246 299 357
#
# _framework density 19.753086
#
# number of rings (size 3 to 8) (size 9 to 14) (size 15 to 20)
#    0.000    2.286    1.429    2.571    0.000    6.857 
#    0.000    2.857    0.000    0.857    0.000    6.000 
#    0.000    0.000    0.000    0.000    0.000    0.000 
#
# Total GULP energy -312503.871283 kJ/mol
# GULP energy per Si atom -5580.426273 kJ/mol
# Density = 1.970813 g / cm^3
# Si number density = 19.753086 Si / 1000 Ang^3
#
#
#
# Elastic Constant Matrix: (Units=GPa)
#
#
# Indices 1 2 3 4 5 6 
#
# 1 107.1970 72.4959 51.0505 0.0000 0.0000 0.0000
# 2 72.4959 196.8304 75.8626 0.0000 0.0000 0.0000
# 3 51.0505 75.8626 66.3802 0.0000 0.0000 0.0000
# 4 0.0000 0.0000 0.0000 63.1946 0.0000 0.0000
# 5 0.0000 0.0000 0.0000 0.0000 13.7675 0.0000
# 6 0.0000 0.0000 0.0000 0.0000 0.0000 -37.6817
#
#
#
# Elastic Compliance Matrix: (Units=1/GPa)
#
#
# Indices 1 2 3 4 5 6 
#
# 1 0.015125 -0.001944 -0.009411 0.000000 0.000000 0.000000
# 2 -0.001944 0.009330 -0.009168 0.000000 0.000000 0.000000
# 3 -0.009411 -0.009168 0.032780 0.000000 0.000000 0.000000
# 4 0.000000 0.000000 0.000000 0.015824 0.000000 0.000000
# 5 0.000000 0.000000 0.000000 0.000000 0.072635 0.000000
# 6 0.000000 0.000000 0.000000 0.000000 0.000000 -0.026538
#
#
# Mechanical properties :
#
#
# Convention : Reuss Voigt Hill
#
# Bulk Modulus (GPa) = 61.76654 85.46950 73.61802
# Shear Modulus (GPa) = 30.19402 19.25598 24.72500
#
# Velocity S-wave (km/s) = 3.91394 3.12562 3.54178
# Velocity P-wave (km/s) = 7.19461 7.50925 7.35361
#
# Compressibility (1/GPa) = 0.01619000
#
# Stress axis : x y z
#
# Youngs Moduli (GPa) = 66.11719 107.18239 30.50683
#
# Poissons Ratio (x) = 0.20832 0.28709
# Poissons Ratio (y) = 0.12851 0.27968
# Poissons Ratio (z) = 0.62220 0.98264
#
# Static dielectric constant tensor:
#      x y z
#    x 1.696400 0.000000 0.000000 
#    y 0.000000 1.696070 0.000000 
#    z 0.000000 0.000000 1.694450 
# 
# From -- ./inp_files/4052.got.cif
#   From: 2010.05.17/outbox.ucp.g08.bks.cvg/sg49_3_cif.got.tgz:4052.got - 2010.06.11 16:40:14.
