data_PCOD9395669
_publ_section_title
;
Structure prediction by ZEFSAII (Michael W. Deem and Ramdas Pophale) SiO2 
 PCOD9395669
Probable space group: P B A N
;
_chemical_formula_sum "Si O2"
_cell_formula_units_Z 52
_cell_length_a 25.756483
_cell_length_b 5.196150
_cell_length_c 19.633021
_cell_angle_alpha 90.000000
_cell_angle_beta 90.000000
_cell_angle_gamma 90.000000
_cell_volume 2627.576514
_symmetry_space_group_name_H-M "P B A N"
_symmetry_group_IT_number 50
_space_group.IT_coordinate_system_code '2'
_symmetry_cell_setting 'orthorhombic'
loop_
_space_group_symop_operation_xyz
x,y,z
1/2-x,1/2-y,z
x,1/2-y,-z
1/2-x,y,-z
-x,-y,-z
1/2+x,1/2+y,-z
-x,1/2+y,z
1/2+x,-y,z
loop_
_atom_site_type_symbol
_atom_site_label
_atom_site_fract_x
_atom_site_fract_y
_atom_site_fract_z
Si Si1 0.479659 0.426942 0.575864
Si Si2 0.367691 0.170854 0.761359
Si Si3 0.536461 0.750000 0.000000
Si Si4 0.535601 0.709677 0.148850
Si Si5 0.192367 0.826626 0.761196
Si Si6 0.368116 0.182663 0.597287
Si Si7 0.191751 0.818788 0.595634
O O1 0.500000 0.500000 0.500000
O O2 0.483072 0.710191 0.609194
O O3 0.423362 0.298702 0.575341
O O4 0.422247 0.246534 0.793312
O O5 0.326003 0.389939 0.780843
O O6 0.370716 0.171975 0.679368
O O7 0.348164 0.891048 0.783936
O O8 0.562682 0.740260 0.074109
O O9 0.500000 0.500000 0.000000
O O10 0.507891 0.433191 0.153488
O O11 0.250000 0.750000 0.783445
O O12 0.192217 0.817809 0.678397
O O13 0.326096 0.396621 0.576218
O O14 0.349287 0.901648 0.573818
O O15 0.250000 0.750000 0.574496
#
# Coordination Sequence:
#
# PCOD9395669 Si02
#       7
#     8   8   4   8   8   8   8
#     4  10  21  36  52  71  94 130 170 197 226 273
#     4  10  19  29  46  73  98 126 159 195 246 288
#     4   8  16  30  46  62  85 122 165 200 238 286
#     4  10  19  31  46  67  96 127 159 200 243 291
#     4   9  17  30  46  67  98 130 160 193 235 294
#     4  10  19  31  49  74 102 127 160 200 236 289
#     4   9  17  30  49  74 102 128 153 193 249 296
#
# _framework density 19.790101
#
# number of rings (size 3 to 8) (size 9 to 14) (size 15 to 20)
#    0.000    2.462    0.000    2.769    0.000    4.923 
#    0.000    0.000    0.000    0.000    0.000   35.538 
#    0.000    0.000    0.000    0.000    0.000    0.000 
#
# Total GULP energy -290102.457874 kJ/mol
# GULP energy per Si atom -5578.893421 kJ/mol
# Density = 1.974506 g / cm^3
# Si number density = 19.790101 Si / 1000 Ang^3
#
#
#
# Elastic Constant Matrix: (Units=GPa)
#
#
# Indices 1 2 3 4 5 6 
#
# 1 53.6811 -4.6636 -2.3045 0.0000 0.0000 0.0000
# 2 -4.6636 103.5720 1.0488 0.0000 0.0000 0.0000
# 3 -2.3045 1.0488 43.8612 0.0000 0.0000 0.0000
# 4 0.0000 0.0000 0.0000 15.6954 0.0000 0.0000
# 5 0.0000 0.0000 0.0000 0.0000 12.9006 0.0000
# 6 0.0000 0.0000 0.0000 0.0000 0.0000 33.6179
#
#
#
# Elastic Compliance Matrix: (Units=1/GPa)
#
#
# Indices 1 2 3 4 5 6 
#
# 1 0.018742 0.000834 0.000965 0.000000 0.000000 0.000000
# 2 0.000834 0.009695 -0.000188 0.000000 0.000000 0.000000
# 3 0.000965 -0.000188 0.022854 0.000000 0.000000 0.000000
# 4 0.000000 0.000000 0.000000 0.063713 0.000000 0.000000
# 5 0.000000 0.000000 0.000000 0.000000 0.077516 0.000000
# 6 0.000000 0.000000 0.000000 0.000000 0.000000 0.029746
#
#
# Mechanical properties :
#
#
# Convention : Reuss Voigt Hill
#
# Bulk Modulus (GPa) = 18.34413 21.03062 19.68738
# Shear Modulus (GPa) = 21.07790 26.24502 23.66146
#
# Velocity S-wave (km/s) = 3.26709 3.64561 3.46153
# Velocity P-wave (km/s) = 4.84987 5.32640 5.09371
#
# Compressibility (1/GPa) = 0.05451334
#
# Stress axis : x y z
#
# Youngs Moduli (GPa) = 53.35491 103.15038 43.75526
#
# Poissons Ratio (x) = -0.08604 -0.04221
# Poissons Ratio (y) = -0.04451 0.00823
# Poissons Ratio (z) = -0.05148 0.01939
#
# Static dielectric constant tensor:
#      x y z
#    x 1.694120 0.000000 0.000000 
#    y 0.000000 1.748210 0.000000 
#    z 0.000000 0.000000 1.745060 
# 
# From -- ./inp_files/31188.got.cif
#   From: 2010.05.17/outbox.cif.g08.bks.cpg/sg50_16_cif.got.tgz:31188.got - 2010.06.03 11:33:33.
