data_PCOD9395427
_publ_section_title
;
Structure prediction by ZEFSAII (Michael W. Deem and Ramdas Pophale) SiO2 
 PCOD9395427
Probable space group: P B A N
;
_chemical_formula_sum "Si O2"
_cell_formula_units_Z 40
_cell_length_a 5.273381
_cell_length_b 14.213283
_cell_length_c 23.596556
_cell_angle_alpha 90.000000
_cell_angle_beta 90.000000
_cell_angle_gamma 90.000000
_cell_volume 1768.610399
_symmetry_space_group_name_H-M "P B A N"
_symmetry_group_IT_number 50
_space_group.IT_coordinate_system_code '2'
_symmetry_cell_setting 'orthorhombic'
loop_
_space_group_symop_operation_xyz
x,y,z
1/2-x,1/2-y,z
x,1/2-y,-z
1/2-x,y,-z
-x,-y,-z
1/2+x,1/2+y,-z
-x,1/2+y,z
1/2+x,-y,z
loop_
_atom_site_type_symbol
_atom_site_label
_atom_site_fract_x
_atom_site_fract_y
_atom_site_fract_z
Si Si1 0.293006 0.860708 0.798519
Si Si2 0.766841 0.436309 0.561722
Si Si3 0.199669 0.358849 0.847432
Si Si4 0.505399 0.643152 0.974630
Si Si5 0.606949 0.436657 0.677398
O O1 0.250000 0.750000 0.809904
O O2 0.514336 0.897182 0.840984
O O3 0.375175 0.876885 0.734380
O O4 0.011304 0.902726 0.806598
O O5 0.750000 0.388915 0.500000
O O6 0.549935 0.519241 0.563059
O O7 0.683743 0.383140 0.619040
O O8 0.250000 0.250000 0.831904
O O9 0.059303 0.356972 0.908057
O O10 0.505107 0.750000 0.000000
O O11 0.750000 0.595299 0.000000
O O12 0.250000 0.603503 0.000000
O O13 0.328314 0.483360 0.677733
#
# Coordination Sequence:
#
# PCOD9395427 Si02
#       5
#     8   8   8   8   8
#     4  10  21  32  48  69 103 138 160 200 250 302
#     4   8  14  25  44  70  95 120 157 210 255 280
#     4  10  18  30  43  66  99 135 154 191 250 306
#     4  10  17  24  41  63  92 126 148 193 244 300
#     4  10  19  33  52  73  99 132 174 208 239 295
#
# _framework density 22.616624999999999
#
# number of rings (size 3 to 8) (size 9 to 14) (size 15 to 20)
#    0.000    2.400    2.000    2.400    5.600    0.000 
#    0.000    0.000    0.000    0.600    0.000    0.000 
#    0.000   76.800    0.000    0.000    0.000    3.200 
#
# Total GULP energy -222683.526436 kJ/mol
# GULP energy per Si atom -5567.088161 kJ/mol
# Density = 2.256515 g / cm^3
# Si number density = 22.616625 Si / 1000 Ang^3
#
#
#
# Elastic Constant Matrix: (Units=GPa)
#
#
# Indices 1 2 3 4 5 6 
#
# 1 207.0535 7.7690 41.7983 0.0000 0.0000 0.0000
# 2 7.7690 59.3151 -8.3090 0.0000 0.0000 0.0000
# 3 41.7983 -8.3090 128.5297 0.0000 0.0000 0.0000
# 4 0.0000 0.0000 0.0000 -43.2359 0.0000 0.0000
# 5 0.0000 0.0000 0.0000 0.0000 40.6567 0.0000
# 6 0.0000 0.0000 0.0000 0.0000 0.0000 -9.0227
#
#
#
# Elastic Compliance Matrix: (Units=1/GPa)
#
#
# Indices 1 2 3 4 5 6 
#
# 1 0.005219 -0.000930 -0.001757 0.000000 0.000000 0.000000
# 2 -0.000930 0.017179 0.001413 0.000000 0.000000 0.000000
# 3 -0.001757 0.001413 0.008443 0.000000 0.000000 0.000000
# 4 0.000000 0.000000 0.000000 -0.023129 0.000000 0.000000
# 5 0.000000 0.000000 0.000000 0.000000 0.024596 0.000000
# 6 0.000000 0.000000 0.000000 0.000000 0.000000 -0.110832
#
#
# Mechanical properties :
#
#
# Convention : Reuss Voigt Hill
#
# Bulk Modulus (GPa) = 35.34484 53.04609 44.19546
# Shear Modulus (GPa) = -75.13846 21.25563 -26.94142
#
# Velocity S-wave (km/s) = -5.77016 3.06898 -3.45515
# Velocity P-wave (km/s) = 5.36016 6.00529 1.91471
#
# Compressibility (1/GPa) = 0.02829267
#
# Stress axis : x y z
#
# Youngs Moduli (GPa) = 191.59512 58.21117 118.43890
#
# Poissons Ratio (x) = 0.05413 0.20815
# Poissons Ratio (y) = 0.17815 -0.16735
# Poissons Ratio (z) = 0.33672 -0.08225
#
# Static dielectric constant tensor:
#      x y z
#    x 1.898380 0.000000 0.000000 
#    y 0.000000 1.805690 0.000000 
#    z 0.000000 0.000000 2.030790 
# 
# From -- ./inp_files/30318.got.cif
#   From: 2010.05.17/outbox.cif.g08.bks.cpg/sg50_16_cif.got.tgz:30318.got - 2010.06.03 11:33:33.
