data_PCOD9395560
_publ_section_title
;
Structure prediction by ZEFSAII (Michael W. Deem and Ramdas Pophale) SiO2 
 PCOD9395560
Probable space group: P B A N
;
_chemical_formula_sum "Si O2"
_cell_formula_units_Z 40
_cell_length_a 5.372537
_cell_length_b 14.380137
_cell_length_c 21.447810
_cell_angle_alpha 90.000000
_cell_angle_beta 90.000000
_cell_angle_gamma 90.000000
_cell_volume 1657.011004
_symmetry_space_group_name_H-M "P B A N"
_symmetry_group_IT_number 50
_space_group.IT_coordinate_system_code '2'
_symmetry_cell_setting 'orthorhombic'
loop_
_space_group_symop_operation_xyz
x,y,z
1/2-x,1/2-y,z
x,1/2-y,-z
1/2-x,y,-z
-x,-y,-z
1/2+x,1/2+y,-z
-x,1/2+y,z
1/2+x,-y,z
loop_
_atom_site_type_symbol
_atom_site_label
_atom_site_fract_x
_atom_site_fract_y
_atom_site_fract_z
Si Si1 0.728099 0.137833 0.338157
Si Si2 0.006883 0.895477 0.472530
Si Si3 0.765836 0.601815 0.127175
Si Si4 0.259783 0.608502 0.074252
Si Si5 0.238052 0.136924 0.269477
O O1 0.750000 0.250000 0.344802
O O2 0.584531 0.101917 0.400229
O O3 0.520837 0.111128 0.287408
O O4 0.009938 0.110106 0.316921
O O5 0.750000 0.854694 0.500000
O O6 0.250000 0.847810 0.500000
O O7 0.000000 0.000000 0.500000
O O8 0.506433 0.646140 0.106826
O O9 0.754342 0.499393 0.096448
O O10 0.806993 0.598073 0.200901
O O11 0.005606 0.650564 0.099020
O O12 0.250000 0.613088 0.000000
O O13 0.250000 0.250000 0.267507
#
# Coordination Sequence:
#
# PCOD9395560 Si02
#       5
#     8   8   8   8   8
#     4  10  21  39  59  80 109 150 190 226 275 340
#     4  10  21  39  59  85 117 149 183 231 292 339
#     4  10  18  32  53  79 104 138 184 228 275 325
#     4  10  19  33  53  76 107 143 181 229 282 337
#     4  10  21  37  57  80 110 146 186 229 273 328
#
# _framework density 24.139849999999999
#
# number of rings (size 3 to 8) (size 9 to 14) (size 15 to 20)
#    0.000    2.000    0.000    5.400    0.000    0.400 
#    0.000   25.000    0.000    6.600    0.000    0.000 
#    0.000    0.000    0.000    0.000    0.000    0.000 
#
# Total GULP energy -223138.975482 kJ/mol
# GULP energy per Si atom -5578.474387 kJ/mol
# Density = 2.408491 g / cm^3
# Si number density = 24.139850 Si / 1000 Ang^3
#
#
#
# Elastic Constant Matrix: (Units=GPa)
#
#
# Indices 1 2 3 4 5 6 
#
# 1 270.8026 16.9908 63.2996 0.0000 0.0000 0.0000
# 2 16.9908 104.2823 9.0320 0.0000 0.0000 0.0000
# 3 63.2996 9.0320 161.9887 0.0000 0.0000 0.0000
# 4 0.0000 0.0000 0.0000 155.8019 0.0000 0.0000
# 5 0.0000 0.0000 0.0000 0.0000 54.1371 0.0000
# 6 0.0000 0.0000 0.0000 0.0000 0.0000 -37.4626
#
#
#
# Elastic Compliance Matrix: (Units=1/GPa)
#
#
# Indices 1 2 3 4 5 6 
#
# 1 0.004093 -0.000531 -0.001570 0.000000 0.000000 0.000000
# 2 -0.000531 0.009705 -0.000334 0.000000 0.000000 0.000000
# 3 -0.001570 -0.000334 0.006805 0.000000 0.000000 0.000000
# 4 0.000000 0.000000 0.000000 0.006418 0.000000 0.000000
# 5 0.000000 0.000000 0.000000 0.000000 0.018472 0.000000
# 6 0.000000 0.000000 0.000000 0.000000 0.000000 -0.026693
#
#
# Mechanical properties :
#
#
# Convention : Reuss Voigt Hill
#
# Bulk Modulus (GPa) = 63.55529 79.52424 71.53976
# Shear Modulus (GPa) = 172.93097 64.34534 118.63816
#
# Velocity S-wave (km/s) = 8.47305 5.16847 7.01804
# Velocity P-wave (km/s) = 11.05028 8.28445 9.76578
#
# Compressibility (1/GPa) = 0.01573433
#
# Stress axis : x y z
#
# Youngs Moduli (GPa) = 244.32119 103.04225 146.94441
#
# Poissons Ratio (x) = 0.05471 0.23067
# Poissons Ratio (y) = 0.12971 0.04903
# Poissons Ratio (z) = 0.38353 0.03438
#
# Static dielectric constant tensor:
#      x y z
#    x 1.838420 0.000000 0.000000 
#    y 0.000000 1.880260 0.000000 
#    z 0.000000 0.000000 1.999000 
# 
# From -- ./inp_files/28194.got.cif
#   From: 2010.05.17/outbox.cif.g08.bks.cpg/sg50_15_cif.got.tgz:28194.got - 2010.06.03 11:33:33.
