data_PCOD9395728
_publ_section_title
;
Structure prediction by ZEFSAII (Michael W. Deem and Ramdas Pophale) SiO2 
 PCOD9395728
Probable space group: P B A N
;
_chemical_formula_sum "Si O2"
_cell_formula_units_Z 48
_cell_length_a 16.368943
_cell_length_b 11.458005
_cell_length_c 11.896227
_cell_angle_alpha 90.000000
_cell_angle_beta 90.000000
_cell_angle_gamma 90.000000
_cell_volume 2231.201979
_symmetry_space_group_name_H-M "P B A N"
_symmetry_group_IT_number 50
_space_group.IT_coordinate_system_code '2'
_symmetry_cell_setting 'orthorhombic'
loop_
_space_group_symop_operation_xyz
x,y,z
1/2-x,1/2-y,z
x,1/2-y,-z
1/2-x,y,-z
-x,-y,-z
1/2+x,1/2+y,-z
-x,1/2+y,z
1/2+x,-y,z
loop_
_atom_site_type_symbol
_atom_site_label
_atom_site_fract_x
_atom_site_fract_y
_atom_site_fract_z
Si Si1 0.333346 0.684885 0.647217
Si Si2 0.081304 0.900109 0.424124
Si Si3 0.061749 0.090749 0.255894
Si Si4 0.594880 0.685367 0.395381
Si Si5 0.934164 0.890658 0.993179
Si Si6 0.122762 0.488988 0.217423
O O1 0.250000 0.750000 0.623034
O O2 0.368194 0.614229 0.539046
O O3 0.396434 0.790668 0.655065
O O4 0.326702 0.605248 0.757001
O O5 0.984525 0.882925 0.445785
O O6 0.102894 0.010482 0.349802
O O7 0.062294 0.218398 0.308086
O O8 0.100634 0.094987 0.132405
O O9 0.970836 0.035133 0.239900
O O10 0.635508 0.750000 0.500000
O O11 0.645102 0.598790 0.317778
O O12 0.877087 0.923242 0.098926
O O13 0.959929 0.750000 0.000000
O O14 0.000000 0.000000 0.000000
#
# Coordination Sequence:
#
# PCOD9395728 Si02
#       6
#     8   8   8   8   8   8
#     4  11  21  37  56  79 117 160 201 257 304 375
#     4  10  19  33  52  83 118 151 197 239 316 378
#     4  10  19  31  53  83 120 157 188 248 312 373
#     4  11  17  28  51  81 122 148 186 242 303 378
#     4  10  20  34  54  85 130 171 202 249 317 384
#     4  10  20  32  52  82 119 159 208 240 312 376
#
# _framework density 21.513069000000002
#
# number of rings (size 3 to 8) (size 9 to 14) (size 15 to 20)
#    0.000    1.667    5.000    2.000    0.000    2.667 
#    0.000    0.000    0.000    4.000    0.000    7.000 
#    0.000    0.000    0.000    0.000    0.000    0.000 
#
# Total GULP energy -267305.765648 kJ/mol
# GULP energy per Si atom -5568.870118 kJ/mol
# Density = 2.146410 g / cm^3
# Si number density = 21.513069 Si / 1000 Ang^3
#
#
#
# Elastic Constant Matrix: (Units=GPa)
#
#
# Indices 1 2 3 4 5 6 
#
# 1 16.7729 6.0520 13.6080 0.0000 0.0000 0.0000
# 2 6.0520 125.0998 54.7929 0.0000 0.0000 0.0000
# 3 13.6080 54.7929 131.0359 0.0000 0.0000 0.0000
# 4 0.0000 0.0000 0.0000 43.4777 0.0000 0.0000
# 5 0.0000 0.0000 0.0000 0.0000 3.4166 0.0000
# 6 0.0000 0.0000 0.0000 0.0000 0.0000 0.0403
#
#
#
# Elastic Compliance Matrix: (Units=1/GPa)
#
#
# Indices 1 2 3 4 5 6 
#
# 1 0.065111 -0.000231 -0.006665 0.000000 0.000000 0.000000
# 2 -0.000231 0.009787 -0.004068 0.000000 0.000000 0.000000
# 3 -0.006665 -0.004068 0.010025 0.000000 0.000000 0.000000
# 4 0.000000 0.000000 0.000000 0.023000 0.000000 0.000000
# 5 0.000000 0.000000 0.000000 0.000000 0.292692 0.000000
# 6 0.000000 0.000000 0.000000 0.000000 0.000000 24.800309
#
#
# Mechanical properties :
#
#
# Convention : Reuss Voigt Hill
#
# Bulk Modulus (GPa) = 15.87451 46.86826 31.37138
# Shear Modulus (GPa) = 0.19807 22.61729 11.40768
#
# Velocity S-wave (km/s) = 0.30376 3.24594 2.30525
# Velocity P-wave (km/s) = 2.74191 5.99011 4.65830
#
# Compressibility (1/GPa) = 0.06299406
#
# Stress axis : x y z
#
# Youngs Moduli (GPa) = 15.35840 102.17960 99.75181
#
# Poissons Ratio (x) = 0.02356 0.66488
# Poissons Ratio (y) = 0.00354 0.40583
# Poissons Ratio (z) = 0.10237 0.41571
#
# Static dielectric constant tensor:
#      x y z
#    x 1.851970 0.000000 0.000000 
#    y 0.000000 1.888230 0.000000 
#    z 0.000000 0.000000 1.798980 
# 
# From -- ./inp_files/22343.got.cif
#   From: 2010.05.17/outbox.cif.g08.bks.cpg/sg50_12_cif.got.tgz:22343.got - 2010.06.03 11:33:33.
