data_PCOD9395850
_publ_section_title
;
Structure prediction by ZEFSAII (Michael W. Deem and Ramdas Pophale) SiO2 
 PCOD9395850
Probable space group: P B A N
;
_chemical_formula_sum "Si O2"
_cell_formula_units_Z 34
_cell_length_a 4.905628
_cell_length_b 12.704328
_cell_length_c 22.416671
_cell_angle_alpha 90.000000
_cell_angle_beta 90.000000
_cell_angle_gamma 90.000000
_cell_volume 1397.067622
_symmetry_space_group_name_H-M "P B A N"
_symmetry_group_IT_number 50
_space_group.IT_coordinate_system_code '2'
_symmetry_cell_setting 'orthorhombic'
loop_
_space_group_symop_operation_xyz
x,y,z
1/2-x,1/2-y,z
x,1/2-y,-z
1/2-x,y,-z
-x,-y,-z
1/2+x,1/2+y,-z
-x,1/2+y,z
1/2+x,-y,z
loop_
_atom_site_type_symbol
_atom_site_label
_atom_site_fract_x
_atom_site_fract_y
_atom_site_fract_z
Si Si1 0.232617 0.071547 0.191277
Si Si2 0.664277 0.573526 0.061823
Si Si3 0.512991 0.931933 0.577329
Si Si4 0.516593 0.819177 0.694451
Si Si5 0.250000 0.750000 0.500000
O O1 0.281484 0.122519 0.126319
O O2 0.340794 0.138949 0.245857
O O3 0.421128 0.966064 0.194317
O O4 0.356918 0.531281 0.061414
O O5 0.750000 0.628128 0.000000
O O6 0.456785 0.909931 0.647372
O O7 0.423145 0.828353 0.541912
O O8 0.817778 0.968848 0.564197
O O9 0.250000 0.750000 0.706406
O O10 0.750000 0.750000 0.663049
#
# Coordination Sequence:
#
# PCOD9395850 Si02
#       5
#     8   8   8   8   2
#     4  10  19  34  57  86 118 158 211 265 323 396
#     4   8  14  25  45  76 111 147 195 256 313 373
#     4  12  27  48  74 103 137 181 225 279 341 405
#     4  12  24  42  64  92 131 172 219 277 335 398
#     4  12  28  50  76 108 144 174 232 280 336 416
#
# _framework density 24.336689
#
# number of rings (size 3 to 8) (size 9 to 14) (size 15 to 20)
#    0.000    1.412    1.176    4.941    0.000    0.941 
#    0.000    0.000    0.000    0.706    0.000    1.647 
#    0.000    0.000    0.000    0.000    0.000    0.000 
#
# Total GULP energy -190240.842944 kJ/mol
# GULP energy per Si atom -5595.318910 kJ/mol
# Density = 2.428130 g / cm^3
# Si number density = 24.336689 Si / 1000 Ang^3
#
#
#
# Elastic Constant Matrix: (Units=GPa)
#
#
# Indices 1 2 3 4 5 6 
#
# 1 89.7873 10.1750 -8.8010 0.0000 0.0000 0.0000
# 2 10.1750 74.3512 29.9661 0.0000 0.0000 0.0000
# 3 -8.8010 29.9661 167.1497 0.0000 0.0000 0.0000
# 4 0.0000 0.0000 0.0000 -9.8411 0.0000 0.0000
# 5 0.0000 0.0000 0.0000 0.0000 37.1115 0.0000
# 6 0.0000 0.0000 0.0000 0.0000 0.0000 23.7920
#
#
#
# Elastic Compliance Matrix: (Units=1/GPa)
#
#
# Indices 1 2 3 4 5 6 
#
# 1 0.011452 -0.001951 0.000953 0.000000 0.000000 0.000000
# 2 -0.001951 0.014830 -0.002761 0.000000 0.000000 0.000000
# 3 0.000953 -0.002761 0.006528 0.000000 0.000000 0.000000
# 4 0.000000 0.000000 0.000000 -0.101615 0.000000 0.000000
# 5 0.000000 0.000000 0.000000 0.000000 0.026946 0.000000
# 6 0.000000 0.000000 0.000000 0.000000 0.000000 0.042031
#
#
# Mechanical properties :
#
#
# Convention : Reuss Voigt Hill
#
# Bulk Modulus (GPa) = 39.54146 43.77427 41.65786
# Shear Modulus (GPa) = 310.15418 30.20901 170.18160
#
# Velocity S-wave (km/s) = 11.30131 3.52702 8.37137
# Velocity P-wave (km/s) = 13.65928 5.88324 10.51638
#
# Compressibility (1/GPa) = 0.02528991
#
# Stress axis : x y z
#
# Youngs Moduli (GPa) = 87.32141 67.43261 153.18924
#
# Poissons Ratio (x) = 0.13157 -0.14596
# Poissons Ratio (y) = 0.17038 0.42301
# Poissons Ratio (z) = -0.08320 0.18620
#
# Static dielectric constant tensor:
#      x y z
#    x 1.905900 0.000000 0.000000 
#    y 0.000000 1.941320 0.000000 
#    z 0.000000 0.000000 1.997500 
# 
# From -- ./inp_files/31348.got.cif
#   From: 2010.05.17/outbox.cif.g08.bks.cpg/sg50_16_cif.got.tgz:31348.got - 2010.06.03 11:33:33.
