data_PCOD9395454
_publ_section_title
;
Structure prediction by ZEFSAII (Michael W. Deem and Ramdas Pophale) SiO2 
 PCOD9395454
Probable space group: P B A N
;
_chemical_formula_sum "Si O2"
_cell_formula_units_Z 28
_cell_length_a 5.564587
_cell_length_b 21.855601
_cell_length_c 9.366856
_cell_angle_alpha 90.000000
_cell_angle_beta 90.000000
_cell_angle_gamma 90.000000
_cell_volume 1139.172609
_symmetry_space_group_name_H-M "P B A N"
_symmetry_group_IT_number 50
_space_group.IT_coordinate_system_code '2'
_symmetry_cell_setting 'orthorhombic'
loop_
_space_group_symop_operation_xyz
x,y,z
1/2-x,1/2-y,z
x,1/2-y,-z
1/2-x,y,-z
-x,-y,-z
1/2+x,1/2+y,-z
-x,1/2+y,z
1/2+x,-y,z
loop_
_atom_site_type_symbol
_atom_site_label
_atom_site_fract_x
_atom_site_fract_y
_atom_site_fract_z
Si Si1 0.739525 0.521177 0.223934
Si Si2 0.499997 0.819075 0.941112
Si Si3 0.860893 0.644254 0.641517
Si Si4 0.750000 0.057814 0.500000
O O1 0.472611 0.511733 0.154871
O O2 0.788261 0.591689 0.270875
O O3 0.678098 0.485392 0.370758
O O4 0.523091 0.817043 0.769354
O O5 0.498320 0.750000 0.000000
O O6 0.250000 0.847349 0.000000
O O7 0.750000 0.847116 0.000000
O O8 0.750000 0.675736 0.500000
O O9 0.056332 0.602460 0.565659
#
# Coordination Sequence:
#
# PCOD9395454 Si02
#       4
#     8   8   8   4
#     4  10  17  30  51  95 135 161 191 272 330 365
#     4  10  25  48  68  85 131 182 211 270 350 402
#     4  11  20  35  69 100 124 167 230 268 320 394
#     4  10  18  32  56 103 136 159 206 288 324 366
#
# _framework density 24.579242000000001
#
# number of rings (size 3 to 8) (size 9 to 14) (size 15 to 20)
#    0.000    1.714    4.286    1.714    4.000    0.000 
#    0.000    2.857    0.000   20.571    0.000    0.000 
#    0.000    0.000    0.000    0.000    0.000    0.000 
#
# Total GULP energy -155936.385395 kJ/mol
# GULP energy per Si atom -5569.156621 kJ/mol
# Density = 2.452330 g / cm^3
# Si number density = 24.579242 Si / 1000 Ang^3
#
#
#
# Elastic Constant Matrix: (Units=GPa)
#
#
# Indices 1 2 3 4 5 6 
#
# 1 163.0024 -1.4235 47.7784 0.0000 0.0000 0.0000
# 2 -1.4235 54.6328 47.6791 0.0000 0.0000 0.0000
# 3 47.7784 47.6791 212.7101 0.0000 0.0000 0.0000
# 4 0.0000 0.0000 0.0000-1169.0367 0.0000 0.0000
# 5 0.0000 0.0000 0.0000 0.0000 -15.0832 0.0000
# 6 0.0000 0.0000 0.0000 0.0000 0.0000 6.0569
#
#
#
# Elastic Compliance Matrix: (Units=1/GPa)
#
#
# Indices 1 2 3 4 5 6 
#
# 1 0.006715 0.001854 -0.001924 0.000000 0.000000 0.000000
# 2 0.001854 0.023267 -0.005632 0.000000 0.000000 0.000000
# 3 -0.001924 -0.005632 0.006396 0.000000 0.000000 0.000000
# 4 0.000000 0.000000 0.000000 -0.000855 0.000000 0.000000
# 5 0.000000 0.000000 0.000000 0.000000 -0.066299 0.000000
# 6 0.000000 0.000000 0.000000 0.000000 0.000000 0.165101
#
#
# Mechanical properties :
#
#
# Convention : Reuss Voigt Hill
#
# Bulk Modulus (GPa) = 40.04068 68.71260 54.37664
# Shear Modulus (GPa) = 32.45634 -213.19186 -90.36776
#
# Velocity S-wave (km/s) = 3.63778 -9.32335 -6.07007
# Velocity P-wave (km/s) = 5.82841 9.37462 5.19197
#
# Compressibility (1/GPa) = 0.02497460
#
# Stress axis : x y z
#
# Youngs Moduli (GPa) = 148.92064 42.97873 156.35392
#
# Poissons Ratio (x) = -0.07968 0.30080
# Poissons Ratio (y) = -0.27609 0.88056
# Poissons Ratio (z) = 0.28650 0.24205
#
# Static dielectric constant tensor:
#      x y z
#    x 2.253500 0.000000 0.000000 
#    y 0.000000 1.865100 0.000000 
#    z 0.000000 0.000000 2.000990 
# 
# From -- ./inp_files/7792.got.cif
#   From: 2010.05.17/outbox.cif.g08.bks.cpg/sg50_4_cif.got.tgz:7792.got - 2010.06.03 11:33:33.
