data_PCOD9395833
_publ_section_title
;
Structure prediction by ZEFSAII (Michael W. Deem and Ramdas Pophale) SiO2 
 PCOD9395833
Probable space group: P B A N
;
_chemical_formula_sum "Si O2"
_cell_formula_units_Z 56
_cell_length_a 15.388424
_cell_length_b 16.009997
_cell_length_c 10.110615
_cell_angle_alpha 90.000000
_cell_angle_beta 90.000000
_cell_angle_gamma 90.000000
_cell_volume 2490.938286
_symmetry_space_group_name_H-M "P B A N"
_symmetry_group_IT_number 50
_space_group.IT_coordinate_system_code '2'
_symmetry_cell_setting 'orthorhombic'
loop_
_space_group_symop_operation_xyz
x,y,z
1/2-x,1/2-y,z
x,1/2-y,-z
1/2-x,y,-z
-x,-y,-z
1/2+x,1/2+y,-z
-x,1/2+y,z
1/2+x,-y,z
loop_
_atom_site_type_symbol
_atom_site_label
_atom_site_fract_x
_atom_site_fract_y
_atom_site_fract_z
Si Si1 0.102588 0.250000 0.500000
Si Si2 0.843201 0.612396 0.962760
Si Si3 0.122562 0.998988 0.739160
Si Si4 0.480761 0.720654 0.718238
Si Si5 0.298659 0.832813 0.359169
Si Si6 0.509085 0.750000 0.000000
Si Si7 0.566608 0.546425 0.797086
Si Si8 0.347780 0.062121 0.533531
O O1 0.149851 0.336351 0.536038
O O2 0.042910 0.274865 0.373814
O O3 0.830729 0.571193 0.820238
O O4 0.923170 0.675713 0.968142
O O5 0.750000 0.649887 0.000000
O O6 0.872571 0.545548 0.074956
O O7 0.183508 0.916554 0.727435
O O8 0.029482 0.990829 0.812872
O O9 0.099686 0.026375 0.590770
O O10 0.399164 0.695394 0.629764
O O11 0.453585 0.748280 0.865204
O O12 0.539627 0.640999 0.756991
O O13 0.250000 0.750000 0.302945
O O14 0.250000 0.848532 0.500000
O O15 0.618620 0.519478 0.667032
O O16 0.250000 0.038835 0.500000
#
# Coordination Sequence:
#
# PCOD9395833 Si02
#       8
#     4   8   8   8   8   4   8   8
#     4  10  19  34  55  86 122 158 200 254 317 382
#     4  11  22  39  63  92 124 160 201 250 309 374
#     4  11  22  39  61  88 118 161 210 252 305 372
#     4   9  19  36  60  87 118 163 213 250 311 387
#     4  10  21  40  64  88 119 160 210 269 319 362
#     4  10  21  40  61  90 130 166 200 250 311 384
#     4   9  21  38  57  84 122 160 199 251 310 368
#     4  11  21  35  57  88 121 156 203 257 310 373
#
# _framework density 22.481487999999999
#
# number of rings (size 3 to 8) (size 9 to 14) (size 15 to 20)
#    0.000    1.857    0.000    4.286    0.000    0.000 
#    0.000   18.929    0.000    0.000    0.000    0.000 
#    0.000    0.000    0.000    0.000    0.000    0.000 
#
# Total GULP energy -311833.454015 kJ/mol
# GULP energy per Si atom -5568.454536 kJ/mol
# Density = 2.243032 g / cm^3
# Si number density = 22.481488 Si / 1000 Ang^3
#
#
#
# Elastic Constant Matrix: (Units=GPa)
#
#
# Indices 1 2 3 4 5 6 
#
# 1 62.3536 -0.5798 21.0282 0.0000 0.0000 0.0000
# 2 -0.5798 62.9554 0.8967 0.0000 0.0000 0.0000
# 3 21.0282 0.8967 108.9122 0.0000 0.0000 0.0000
# 4 0.0000 0.0000 0.0000 9.0804 0.0000 0.0000
# 5 0.0000 0.0000 0.0000 0.0000 1.6970 0.0000
# 6 0.0000 0.0000 0.0000 0.0000 0.0000 15.1711
#
#
#
# Elastic Compliance Matrix: (Units=1/GPa)
#
#
# Indices 1 2 3 4 5 6 
#
# 1 0.017157 0.000205 -0.003314 0.000000 0.000000 0.000000
# 2 0.000205 0.015889 -0.000170 0.000000 0.000000 0.000000
# 3 -0.003314 -0.000170 0.009823 0.000000 0.000000 0.000000
# 4 0.000000 0.000000 0.000000 0.110127 0.000000 0.000000
# 5 0.000000 0.000000 0.000000 0.000000 0.589269 0.000000
# 6 0.000000 0.000000 0.000000 0.000000 0.000000 0.065915
#
#
# Mechanical properties :
#
#
# Convention : Reuss Voigt Hill
#
# Bulk Modulus (GPa) = 27.54084 30.76794 29.15439
# Shear Modulus (GPa) = 6.04710 19.38146 12.71428
#
# Velocity S-wave (km/s) = 1.64184 2.93935 2.38070
# Velocity P-wave (km/s) = 3.98387 5.02348 4.53357
#
# Compressibility (1/GPa) = 0.03630972
#
# Stress axis : x y z
#
# Youngs Moduli (GPa) = 58.28463 62.93833 101.80175
#
# Poissons Ratio (x) = -0.01292 0.33740
# Poissons Ratio (y) = -0.01196 0.01735
# Poissons Ratio (z) = 0.19317 0.01073
#
# Static dielectric constant tensor:
#      x y z
#    x 1.846810 0.000000 0.000000 
#    y 0.000000 1.886320 0.000000 
#    z 0.000000 0.000000 1.973810 
# 
# From -- ./inp_files/13342.got.cif
#   From: 2010.05.17/outbox.cif.g08.bks.cpg/sg50_7_cif.got.tgz:13342.got - 2010.06.03 11:33:33.
