data_PCOD9395000
_publ_section_title
;
Structure prediction by ZEFSAII (Michael W. Deem and Ramdas Pophale) SiO2 
 PCOD9395000
Probable space group: P C C M
;
_chemical_formula_sum "Si O2"
_cell_formula_units_Z 40
_cell_length_a 12.540216
_cell_length_b 4.937874
_cell_length_c 32.434124
_cell_angle_alpha 90.000000
_cell_angle_beta 90.000000
_cell_angle_gamma 90.000000
_cell_volume 2008.386038
_symmetry_space_group_name_H-M "P C C M"
_symmetry_group_IT_number 49
_symmetry_cell_setting 'orthorhombic'
loop_
_space_group_symop_operation_xyz
x,y,z
-x,-y,z
x,-y,1/2-z
-x,y,1/2-z
-x,-y,-z
x,y,-z
-x,y,1/2+z
x,-y,1/2+z
loop_
_atom_site_type_symbol
_atom_site_label
_atom_site_fract_x
_atom_site_fract_y
_atom_site_fract_z
Si Si1 0.197650 0.904244 0.046547
Si Si2 0.693164 0.575792 0.345808
Si Si3 0.429711 0.737539 0.073625
Si Si4 0.375710 0.066796 0.797708
Si Si5 0.119639 0.584924 0.403845
O O1 0.324932 0.856925 0.051230
O O2 0.150281 0.614901 0.058688
O O3 0.148554 0.117909 0.078978
O O4 0.172242 0.984947 0.000000
O O5 0.614807 0.597253 0.384967
O O6 0.695231 0.871200 0.325929
O O7 0.803613 0.479529 0.365419
O O8 0.648665 0.370414 0.311728
O O9 0.500000 0.500000 0.052496
O O10 0.500000 0.000000 0.083186
O O11 0.500000 0.000000 0.805707
O O12 0.355671 0.000000 0.750000
O O13 0.000000 0.500000 0.393057
#
# Coordination Sequence:
#
# PCOD9395000 Si02
#       5
#     8   8   8   8   8
#     4  11  24  39  57  86 117 147 191 242 292 345
#     4  11  21  37  58  81 114 148 189 234 272 335
#     4  11  21  35  57  84 116 157 193 227 280 346
#     4  11  22  35  57  89 120 149 179 220 279 339
#     4  11  24  41  62  84 108 149 198 244 293 336
#
# _framework density 19.916488000000001
#
# number of rings (size 3 to 8) (size 9 to 14) (size 15 to 20)
#    0.000    1.000    0.000   10.200    0.000    4.800 
#    0.000    0.000    0.000    3.600    0.000    0.000 
#    0.000    0.000    0.000    0.000    0.000    0.000 
#
# Total GULP energy -223529.517526 kJ/mol
# GULP energy per Si atom -5588.237938 kJ/mol
# Density = 1.987116 g / cm^3
# Si number density = 19.916488 Si / 1000 Ang^3
#
#
#
# Elastic Constant Matrix: (Units=GPa)
#
#
# Indices 1 2 3 4 5 6 
#
# 1 97.0464 4.7388 12.3790 0.0000 0.0000 0.0000
# 2 4.7388 81.1571 -8.5606 0.0000 0.0000 0.0000
# 3 12.3790 -8.5606 66.5978 0.0000 0.0000 0.0000
# 4 0.0000 0.0000 0.0000 34.7130 0.0000 0.0000
# 5 0.0000 0.0000 0.0000 0.0000 7.9781 0.0000
# 6 0.0000 0.0000 0.0000 0.0000 0.0000 24.6759
#
#
#
# Elastic Compliance Matrix: (Units=1/GPa)
#
#
# Indices 1 2 3 4 5 6 
#
# 1 0.010611 -0.000839 -0.002080 0.000000 0.000000 0.000000
# 2 -0.000839 0.012557 0.001770 0.000000 0.000000 0.000000
# 3 -0.002080 0.001770 0.015630 0.000000 0.000000 0.000000
# 4 0.000000 0.000000 0.000000 0.028808 0.000000 0.000000
# 5 0.000000 0.000000 0.000000 0.000000 0.125344 0.000000
# 6 0.000000 0.000000 0.000000 0.000000 0.000000 0.040525
#
#
# Mechanical properties :
#
#
# Convention : Reuss Voigt Hill
#
# Bulk Modulus (GPa) = 27.39736 29.10173 28.24954
# Shear Modulus (GPa) = 20.16625 29.22300 24.69463
#
# Velocity S-wave (km/s) = 3.18550 3.83466 3.52505
# Velocity P-wave (km/s) = 5.22646 5.85233 5.54822
#
# Compressibility (1/GPa) = 0.03649987
#
# Stress axis : x y z
#
# Youngs Moduli (GPa) = 94.24490 79.63384 63.98077
#
# Poissons Ratio (x) = 0.06681 0.13309
# Poissons Ratio (y) = 0.07907 -0.11325
# Poissons Ratio (z) = 0.19604 -0.14096
#
# Static dielectric constant tensor:
#      x y z
#    x 1.781240 0.000000 0.000000 
#    y 0.000000 1.712940 0.000000 
#    z 0.000000 0.000000 1.691700 
# 
# From -- ./inp_files/26561.got.cif
#   From: 2010.05.17/outbox.cif.g08.bks.cpg/sg49_14_cif.got.tgz:26561.got - 2010.06.03 21:02:19.
