data_PCOD9395727
_publ_section_title
;
Structure prediction by ZEFSAII (Michael W. Deem and Ramdas Pophale) SiO2 
 PCOD9395727
Probable space group: P B A N
;
_chemical_formula_sum "Si O2"
_cell_formula_units_Z 56
_cell_length_a 22.633231
_cell_length_b 22.997894
_cell_length_c 6.063652
_cell_angle_alpha 90.000000
_cell_angle_beta 90.000000
_cell_angle_gamma 90.000000
_cell_volume 3156.231810
_symmetry_space_group_name_H-M "P B A N"
_symmetry_group_IT_number 50
_space_group.IT_coordinate_system_code '2'
_symmetry_cell_setting 'orthorhombic'
loop_
_space_group_symop_operation_xyz
x,y,z
1/2-x,1/2-y,z
x,1/2-y,-z
1/2-x,y,-z
-x,-y,-z
1/2+x,1/2+y,-z
-x,1/2+y,z
1/2+x,-y,z
loop_
_atom_site_type_symbol
_atom_site_label
_atom_site_fract_x
_atom_site_fract_y
_atom_site_fract_z
Si Si1 0.043966 0.845134 0.813002
Si Si2 0.974193 0.938449 0.094100
Si Si3 0.432385 0.938588 0.548784
Si Si4 0.151454 0.693612 0.877129
Si Si5 0.142019 0.017803 0.762447
Si Si6 0.425583 0.750000 0.500000
Si Si7 0.823454 0.068835 0.852387
Si Si8 0.750000 0.993210 0.500000
O O1 0.068958 0.889724 0.634586
O O2 0.033145 0.787760 0.664237
O O3 0.096347 0.825304 0.971027
O O4 0.996697 0.883125 0.951682
O O5 0.903050 0.942443 0.099185
O O6 0.003862 0.936924 0.337072
O O7 0.000000 0.000000 0.000000
O O8 0.388717 0.928658 0.750347
O O9 0.402918 0.992078 0.420232
O O10 0.119775 0.712001 0.648877
O O11 0.192651 0.636835 0.864416
O O12 0.177715 0.750000 0.000000
O O13 0.198985 0.041242 0.631534
O O14 0.168246 0.967134 0.921896
O O15 0.783379 0.033828 0.679006
#
# Coordination Sequence:
#
# PCOD9395727 Si02
#       8
#     8   8   8   8   8   4   8   4
#     4  11  19  31  47  79 107 137 171 218 273 336
#     4  12  20  30  52  84 107 128 175 234 271 324
#     4  11  18  31  52  79 104 135 168 225 276 319
#     4  10  19  31  53  75  98 136 181 233 274 326
#     4  11  22  36  52  73 106 135 181 231 268 338
#     4  10  20  32  48  73 108 140 176 209 284 344
#     4  11  19  38  51  75  99 138 187 232 270 328
#     4  10  26  34  56  65  98 146 182 229 286 322
#
# _framework density 17.742674999999998
#
# number of rings (size 3 to 8) (size 9 to 14) (size 15 to 20)
#    0.000    1.143    7.143    0.857    0.000    0.000 
#    0.000    0.000    0.000    6.429    0.000    0.000 
#    0.000    0.000    0.000    0.000    0.000  545.000 
#
# Total GULP energy -311750.351314 kJ/mol
# GULP energy per Si atom -5566.970559 kJ/mol
# Density = 1.770229 g / cm^3
# Si number density = 17.742675 Si / 1000 Ang^3
#
#
#
# Elastic Constant Matrix: (Units=GPa)
#
#
# Indices 1 2 3 4 5 6 
#
# 1 85.3892 22.3362 25.4162 0.0000 0.0000 0.0000
# 2 22.3362 32.8050 15.3895 0.0000 0.0000 0.0000
# 3 25.4162 15.3895 81.7866 0.0000 0.0000 0.0000
# 4 0.0000 0.0000 0.0000 30.4304 0.0000 0.0000
# 5 0.0000 0.0000 0.0000 0.0000 19.7126 0.0000
# 6 0.0000 0.0000 0.0000 0.0000 0.0000 6.8131
#
#
#
# Elastic Compliance Matrix: (Units=1/GPa)
#
#
# Indices 1 2 3 4 5 6 
#
# 1 0.014884 -0.008735 -0.002982 0.000000 0.000000 0.000000
# 2 -0.008735 0.038561 -0.004541 0.000000 0.000000 0.000000
# 3 -0.002982 -0.004541 0.014008 0.000000 0.000000 0.000000
# 4 0.000000 0.000000 0.000000 0.032862 0.000000 0.000000
# 5 0.000000 0.000000 0.000000 0.000000 0.050729 0.000000
# 6 0.000000 0.000000 0.000000 0.000000 0.000000 0.146776
#
#
# Mechanical properties :
#
#
# Convention : Reuss Voigt Hill
#
# Bulk Modulus (GPa) = 28.62329 36.25161 32.43745
# Shear Modulus (GPa) = 14.62069 20.51382 17.56725
#
# Velocity S-wave (km/s) = 2.87373 3.40396 3.15002
# Velocity P-wave (km/s) = 5.21330 5.99379 5.61712
#
# Compressibility (1/GPa) = 0.03493659
#
# Stress axis : x y z
#
# Youngs Moduli (GPa) = 67.18843 25.93276 71.38763
#
# Poissons Ratio (x) = 0.22653 0.21285
# Poissons Ratio (y) = 0.58690 0.32420
# Poissons Ratio (z) = 0.20033 0.11777
#
# Static dielectric constant tensor:
#      x y z
#    x 1.641920 0.000000 0.000000 
#    y 0.000000 1.680520 0.000000 
#    z 0.000000 0.000000 1.664960 
# 
# From -- ./inp_files/6158.got.cif
#   From: 2010.05.17/outbox.cif.g08.bks.cpg/sg50_4_cif.got.tgz:6158.got - 2010.06.03 11:33:33.
