data_PCOD9395266
_publ_section_title
;
Structure prediction by ZEFSAII (Michael W. Deem and Ramdas Pophale) SiO2 
 PCOD9395266
Probable space group: P C C M
;
_chemical_formula_sum "Si O2"
_cell_formula_units_Z 64
_cell_length_a 15.000000
_cell_length_b 24.000000
_cell_length_c 9.000000
_cell_angle_alpha 90.000000
_cell_angle_beta 90.000000
_cell_angle_gamma 90.000000
_cell_volume 3240.000000
_symmetry_space_group_name_H-M "P C C M"
_symmetry_group_IT_number 49
_symmetry_cell_setting 'orthorhombic'
loop_
_space_group_symop_operation_xyz
x,y,z
-x,-y,z
x,-y,1/2-z
-x,y,1/2-z
-x,-y,-z
x,y,-z
-x,y,1/2+z
x,-y,1/2+z
loop_
_atom_site_type_symbol
_atom_site_label
_atom_site_fract_x
_atom_site_fract_y
_atom_site_fract_z
Si Si1 0.085701 0.440140 0.826852
Si Si2 0.776612 0.055257 0.823316
Si Si3 0.411500 0.214088 0.833278
Si Si4 0.904919 0.157765 0.177617
Si Si5 0.590065 0.079450 0.668995
Si Si6 0.768214 0.246340 0.170740
Si Si7 0.233061 0.622776 0.167731
Si Si8 0.406115 0.557050 0.825290
O O1 0.095697 0.500000 0.750000
O O2 0.172772 0.405992 0.789174
O O3 0.000000 0.412424 0.750000
O O4 0.070717 0.446538 0.000000
O O5 0.837572 0.107839 0.785619
O O6 0.678076 0.063366 0.757894
O O7 0.815631 0.000000 0.750000
O O8 0.771911 0.049899 0.000000
O O9 0.500000 0.233400 0.750000
O O10 0.412699 0.146796 0.835696
O O11 0.320741 0.231592 0.756805
O O12 0.413810 0.235314 0.000000
O O13 0.854274 0.213645 0.227784
O O14 0.000000 0.150566 0.250000
O O15 0.916520 0.159182 0.000000
O O16 0.500000 0.061551 0.750000
O O17 0.594412 0.058550 0.500000
O O18 0.780944 0.311863 0.172229
O O19 0.754616 0.227621 0.000000
O O20 0.334909 0.605686 0.192913
O O21 0.209342 0.602405 0.000000
O O22 0.371666 0.500000 0.750000
O O23 0.500000 0.569856 0.750000
O O24 0.418733 0.547072 0.000000
#
# Coordination Sequence:
#
# PCOD9395266 Si02
#       8
#     8   8   8   8   8   8   8   8
#     4  11  22  38  61  86 116 151 191 239 293 353
#     4  11  23  40  62  90 121 155 195 243 297 353
#     4  10  20  34  57  86 116 153 195 238 284 340
#     4  10  23  42  65  87 114 152 194 242 297 355
#     4  10  20  35  58  88 121 158 195 237 284 342
#     4  10  21  40  61  85 119 156 195 242 294 352
#     4  10  22  38  58  86 120 155 195 243 297 350
#     4  10  20  35  56  82 114 156 199 245 292 343
#
# _framework density 19.753086
#
# number of rings (size 3 to 8) (size 9 to 14) (size 15 to 20)
#    0.000    1.750    1.250    3.750    0.000    6.500 
#    0.000    5.000    0.000    0.000    0.000    0.000 
#    0.000    0.000    0.000    0.000    0.000    0.000 
#
# Total GULP energy -357379.582780 kJ/mol
# GULP energy per Si atom -5584.055981 kJ/mol
# Density = 1.970813 g / cm^3
# Si number density = 19.753086 Si / 1000 Ang^3
#
#
#
# Elastic Constant Matrix: (Units=GPa)
#
#
# Indices 1 2 3 4 5 6 
#
# 1 117.1121 48.5696 63.3643 0.0000 0.0000 0.0000
# 2 48.5696 56.9177 43.5810 0.0000 0.0000 0.0000
# 3 63.3643 43.5810 111.7103 0.0000 0.0000 0.0000
# 4 0.0000 0.0000 0.0000 19.9737 0.0000 0.0000
# 5 0.0000 0.0000 0.0000 0.0000 35.3575 0.0000
# 6 0.0000 0.0000 0.0000 0.0000 0.0000 -36.1553
#
#
#
# Elastic Compliance Matrix: (Units=1/GPa)
#
#
# Indices 1 2 3 4 5 6 
#
# 1 0.014943 -0.008928 -0.004993 0.000000 0.000000 0.000000
# 2 -0.008928 0.030388 -0.006791 0.000000 0.000000 0.000000
# 3 -0.004993 -0.006791 0.014433 0.000000 0.000000 0.000000
# 4 0.000000 0.000000 0.000000 0.050066 0.000000 0.000000
# 5 0.000000 0.000000 0.000000 0.000000 0.028283 0.000000
# 6 0.000000 0.000000 0.000000 0.000000 0.000000 -0.027658
#
#
# Mechanical properties :
#
#
# Convention : Reuss Voigt Hill
#
# Bulk Modulus (GPa) = 54.52582 66.30776 60.41679
# Shear Modulus (GPa) = 31.64745 12.51685 22.08215
#
# Velocity S-wave (km/s) = 4.00703 2.52000 3.34714
# Velocity P-wave (km/s) = 7.00514 6.48910 6.75205
#
# Compressibility (1/GPa) = 0.01833994
#
# Stress axis : x y z
#
# Youngs Moduli (GPa) = 66.92055 32.90814 69.28610
#
# Poissons Ratio (x) = 0.29382 0.34593
# Poissons Ratio (y) = 0.59750 0.47049
# Poissons Ratio (z) = 0.33412 0.22346
#
# Static dielectric constant tensor:
#      x y z
#    x 1.683080 0.000000 0.000000 
#    y 0.000000 1.711790 0.000000 
#    z 0.000000 0.000000 1.687500 
# 
# From -- ./inp_files/4403.got.cif
#   From: 2010.05.17/outbox.ucp.g08.bks.cvg/sg49_3_cif.got.tgz:4403.got - 2010.06.11 16:40:14.
