data_PCOD9395348
_publ_section_title
;
Structure prediction by ZEFSAII (Michael W. Deem and Ramdas Pophale) SiO2 
 PCOD9395348
Probable space group: P B A N
;
_chemical_formula_sum "Si O2"
_cell_formula_units_Z 48
_cell_length_a 5.482550
_cell_length_b 13.622419
_cell_length_c 26.088061
_cell_angle_alpha 90.000000
_cell_angle_beta 90.000000
_cell_angle_gamma 90.000000
_cell_volume 1948.402314
_symmetry_space_group_name_H-M "P B A N"
_symmetry_group_IT_number 50
_space_group.IT_coordinate_system_code '2'
_symmetry_cell_setting 'orthorhombic'
loop_
_space_group_symop_operation_xyz
x,y,z
1/2-x,1/2-y,z
x,1/2-y,-z
1/2-x,y,-z
-x,-y,-z
1/2+x,1/2+y,-z
-x,1/2+y,z
1/2+x,-y,z
loop_
_atom_site_type_symbol
_atom_site_label
_atom_site_fract_x
_atom_site_fract_y
_atom_site_fract_z
Si Si1 0.880688 0.613873 0.859349
Si Si2 0.180674 0.392514 0.559311
Si Si3 0.125878 0.612861 0.181453
Si Si4 0.606622 0.061701 0.701420
Si Si5 0.686679 0.381853 0.597551
Si Si6 0.003424 0.361171 0.021794
O O1 0.611728 0.654073 0.847366
O O2 0.858008 0.499349 0.841468
O O3 0.965330 0.628172 0.917624
O O4 0.107478 0.655987 0.827949
O O5 0.250000 0.399257 0.500000
O O6 0.410772 0.345813 0.589369
O O7 0.154318 0.502327 0.582821
O O8 0.910099 0.347473 0.562219
O O9 0.100714 0.608321 0.242394
O O10 0.691414 0.128410 0.653793
O O11 0.332378 0.016917 0.698232
O O12 0.004463 0.250000 0.000000
O O13 0.250000 0.405381 0.000000
O O14 0.750000 0.399588 0.000000
#
# Coordination Sequence:
#
# PCOD9395348 Si02
#       6
#     8   8   8   8   8   8
#     4  10  18  32  48  67  90 112 139 166 207 257
#     4  10  16  22  28  39  59  85 124 171 216 256
#     4  10  19  30  45  67  90 114 134 172 219 267
#     4  12  16  27  38  53  77 100 133 164 208 272
#     4  10  16  22  31  44  59  90 124 163 209 261
#     4  10  21  37  54  70  89 115 144 172 200 241
#
# _framework density 24.635567000000002
#
# number of rings (size 3 to 8) (size 9 to 14) (size 15 to 20)
#    0.000    1.667    6.667    3.500    0.000    0.000 
#    0.000   10.000    0.000    0.000    0.000    0.000 
#    0.000    0.000    0.000    0.000    0.000    0.000 
#
# Total GULP energy -267849.409898 kJ/mol
# GULP energy per Si atom -5580.196040 kJ/mol
# Density = 2.457950 g / cm^3
# Si number density = 24.635567 Si / 1000 Ang^3
#
#
#
# Elastic Constant Matrix: (Units=GPa)
#
#
# Indices 1 2 3 4 5 6 
#
# 1 210.7366 24.3887 -1.2323 0.0000 0.0000 0.0000
# 2 24.3887 82.3778 -15.3659 0.0000 0.0000 0.0000
# 3 -1.2323 -15.3659 155.5238 0.0000 0.0000 0.0000
# 4 0.0000 0.0000 0.0000 598.5274 0.0000 0.0000
# 5 0.0000 0.0000 0.0000 0.0000 52.1595 0.0000
# 6 0.0000 0.0000 0.0000 0.0000 0.0000 7.9008
#
#
#
# Elastic Compliance Matrix: (Units=1/GPa)
#
#
# Indices 1 2 3 4 5 6 
#
# 1 0.004915 -0.001475 -0.000107 0.000000 0.000000 0.000000
# 2 -0.001475 0.012810 0.001254 0.000000 0.000000 0.000000
# 3 -0.000107 0.001254 0.006553 0.000000 0.000000 0.000000
# 4 0.000000 0.000000 0.000000 0.001671 0.000000 0.000000
# 5 0.000000 0.000000 0.000000 0.000000 0.019172 0.000000
# 6 0.000000 0.000000 0.000000 0.000000 0.000000 0.126570
#
#
# Mechanical properties :
#
#
# Convention : Reuss Voigt Hill
#
# Bulk Modulus (GPa) = 42.33329 51.57990 46.95659
# Shear Modulus (GPa) = 27.74370 161.10738 94.42554
#
# Velocity S-wave (km/s) = 3.35948 8.09557 6.19775
# Velocity P-wave (km/s) = 5.68060 10.40994 8.38559
#
# Compressibility (1/GPa) = 0.02362207
#
# Stress axis : x y z
#
# Youngs Moduli (GPa) = 203.44399 78.06504 152.60350
#
# Poissons Ratio (x) = 0.11516 0.01630
# Poissons Ratio (y) = 0.30011 -0.19136
# Poissons Ratio (z) = 0.02173 -0.09789
#
# Static dielectric constant tensor:
#      x y z
#    x 2.015770 0.000000 0.000000 
#    y 0.000000 2.085350 0.000000 
#    z 0.000000 0.000000 -2.770340 
# 
# From -- ./inp_files/31463.got.cif
#   From: 2010.05.17/outbox.cif.g08.bks.cpg/sg50_16_cif.got.tgz:31463.got - 2010.06.03 11:33:33.
