data_PCOD9395696
_publ_section_title
;
Structure prediction by ZEFSAII (Michael W. Deem and Ramdas Pophale) SiO2 
 PCOD9395696
Probable space group: P B A N
;
_chemical_formula_sum "Si O2"
_cell_formula_units_Z 34
_cell_length_a 21.175270
_cell_length_b 12.037142
_cell_length_c 5.132828
_cell_angle_alpha 90.000000
_cell_angle_beta 90.000000
_cell_angle_gamma 90.000000
_cell_volume 1308.305153
_symmetry_space_group_name_H-M "P B A N"
_symmetry_group_IT_number 50
_space_group.IT_coordinate_system_code '2'
_symmetry_cell_setting 'orthorhombic'
loop_
_space_group_symop_operation_xyz
x,y,z
1/2-x,1/2-y,z
x,1/2-y,-z
1/2-x,y,-z
-x,-y,-z
1/2+x,1/2+y,-z
-x,1/2+y,z
1/2+x,-y,z
loop_
_atom_site_type_symbol
_atom_site_label
_atom_site_fract_x
_atom_site_fract_y
_atom_site_fract_z
Si Si1 0.971598 0.411416 0.800941
Si Si2 0.750000 0.250000 0.000000
Si Si3 0.093682 0.090677 0.442319
Si Si4 0.153592 0.918842 0.055142
Si Si5 0.292480 0.395230 0.752031
O O1 0.938806 0.483545 0.576313
O O2 0.033336 0.348545 0.690519
O O3 0.911724 0.365640 0.957437
O O4 0.000000 0.500000 0.000000
O O5 0.798812 0.172992 0.838990
O O6 0.137135 0.027973 0.227980
O O7 0.138179 0.149246 0.659636
O O8 0.190024 0.976763 0.813438
O O9 0.250000 0.379250 0.500000
O O10 0.250000 0.360303 0.000000
#
# Coordination Sequence:
#
# PCOD9395696 Si02
#       5
#     8   2   8   8   8
#     4   8  16  29  48  65  82 114 174 227 263 304
#     4  12  20  32  46  72 110 152 182 220 258 312
#     4   9  16  30  47  65  86 121 168 227 261 309
#     4  10  19  31  45  65  95 136 178 219 256 307
#     4  11  18  29  44  64  95 123 163 208 259 320
#
# _framework density 25.987821
#
# number of rings (size 3 to 8) (size 9 to 14) (size 15 to 20)
#    0.000    2.353    3.529    0.000    0.000    0.000 
#    0.000   14.706    0.000    0.000    0.000    0.000 
#    0.000    0.000    0.000    0.000    0.000  683.529 
#
# Total GULP energy -189270.486207 kJ/mol
# GULP energy per Si atom -5566.779006 kJ/mol
# Density = 2.592867 g / cm^3
# Si number density = 25.987821 Si / 1000 Ang^3
#
#
#
# Elastic Constant Matrix: (Units=GPa)
#
#
# Indices 1 2 3 4 5 6 
#
# 1 249.5123 49.5597 65.7784 0.0000 0.0000 0.0000
# 2 49.5597 68.7856 11.5570 0.0000 0.0000 0.0000
# 3 65.7784 11.5570 124.0208 0.0000 0.0000 0.0000
# 4 0.0000 0.0000 0.0000 0.9969 0.0000 0.0000
# 5 0.0000 0.0000 0.0000 0.0000 55.8026 0.0000
# 6 0.0000 0.0000 0.0000 0.0000 0.0000 17.4616
#
#
#
# Elastic Compliance Matrix: (Units=1/GPa)
#
#
# Indices 1 2 3 4 5 6 
#
# 1 0.005354 -0.003434 -0.002520 0.000000 0.000000 0.000000
# 2 -0.003434 0.016972 0.000240 0.000000 0.000000 0.000000
# 3 -0.002520 0.000240 0.009377 0.000000 0.000000 0.000000
# 4 0.000000 0.000000 0.000000 1.003069 0.000000 0.000000
# 5 0.000000 0.000000 0.000000 0.000000 0.017920 0.000000
# 6 0.000000 0.000000 0.000000 0.000000 0.000000 0.057269
#
#
# Mechanical properties :
#
#
# Convention : Reuss Voigt Hill
#
# Bulk Modulus (GPa) = 49.32130 77.34545 63.33337
# Shear Modulus (GPa) = 4.43204 35.88046 20.15625
#
# Velocity S-wave (km/s) = 1.30734 3.71976 2.78799
# Velocity P-wave (km/s) = 4.61505 6.94807 5.89806
#
# Compressibility (1/GPa) = 0.02027522
#
# Stress axis : x y z
#
# Youngs Moduli (GPa) = 186.76745 58.92042 106.64121
#
# Poissons Ratio (x) = 0.20235 0.26871
# Poissons Ratio (y) = 0.64143 -0.02559
# Poissons Ratio (z) = 0.47061 -0.01414
#
# Static dielectric constant tensor:
#      x y z
#    x -15.387920 0.000000 0.000000 
#    y 0.000000 2.165010 0.000000 
#    z 0.000000 0.000000 2.039710 
# 
# From -- ./inp_files/5027.got.cif
#   From: 2010.05.17/outbox.cif.g08.bks.cpg/sg50_3_cif.got.tgz:5027.got - 2010.06.03 11:33:33.
