data_PCOD9395743
_publ_section_title
;
Structure prediction by ZEFSAII (Michael W. Deem and Ramdas Pophale) SiO2 
 PCOD9395743
Probable space group: P B A N
;
_chemical_formula_sum "Si O2"
_cell_formula_units_Z 64
_cell_length_a 19.425182
_cell_length_b 7.849432
_cell_length_c 22.882429
_cell_angle_alpha 90.000000
_cell_angle_beta 90.000000
_cell_angle_gamma 90.000000
_cell_volume 3489.036008
_symmetry_space_group_name_H-M "P B A N"
_symmetry_group_IT_number 50
_space_group.IT_coordinate_system_code '2'
_symmetry_cell_setting 'orthorhombic'
loop_
_space_group_symop_operation_xyz
x,y,z
1/2-x,1/2-y,z
x,1/2-y,-z
1/2-x,y,-z
-x,-y,-z
1/2+x,1/2+y,-z
-x,1/2+y,z
1/2+x,-y,z
loop_
_atom_site_type_symbol
_atom_site_label
_atom_site_fract_x
_atom_site_fract_y
_atom_site_fract_z
Si Si1 0.579580 0.954402 0.759820
Si Si2 0.579108 0.954968 0.891841
Si Si3 0.331841 0.557837 0.349843
Si Si4 0.831841 0.057838 0.349844
Si Si5 0.670763 0.541008 0.000000
Si Si6 0.666252 0.750000 0.566717
Si Si7 0.920892 0.954968 0.891841
Si Si8 0.420420 0.045598 0.759820
O O1 0.595163 0.015222 0.825986
O O2 0.587201 0.750000 0.758026
O O3 0.627941 0.031737 0.710490
O O4 0.500000 1.000000 0.748386
O O5 0.629964 0.016516 0.942272
O O6 0.583619 0.750000 0.890558
O O7 0.500000 0.000000 0.905291
O O8 0.250000 0.534705 0.339698
O O9 0.342729 0.750000 0.371467
O O10 0.354440 0.416538 0.396633
O O11 0.372058 0.531737 0.289509
O O12 0.854440 0.916539 0.396633
O O13 0.669823 0.750000 0.000000
O O14 0.750000 0.487844 0.000000
O O15 0.629964 0.483484 0.942272
O O16 0.750000 0.750000 0.564748
O O17 0.641633 0.750000 0.500000
O O18 0.904837 0.015221 0.825986
#
# Coordination Sequence:
#
# PCOD9395743 Si02
#       8
#     8   8   8   8   8   8   8   8
#     4  10  19  32  51  77 105 139 181 225 275 326
#     4   9  18  31  50  72  97 131 174 219 262 316
#     4  10  20  34  54  82 112 143 181 224 272 320
#     4  10  20  34  54  82 112 143 181 224 272 320
#     4   9  17  30  47  71 100 133 174 216 266 319
#     4   9  18  34  56  82 112 145 182 222 263 317
#     4   9  18  31  50  72  97 131 174 219 262 316
#     4  10  19  32  51  77 105 139 181 225 275 326
#
# _framework density 18.343176
#
# number of rings (size 3 to 8) (size 9 to 14) (size 15 to 20)
#    0.000    2.500    1.250    1.125    0.000    2.500 
#    0.000    5.000    0.000    2.250    0.000    0.000 
#    0.000    0.000    0.000    0.000    0.000    0.000 
#
# Total GULP energy -357062.870869 kJ/mol
# GULP energy per Si atom -5579.107357 kJ/mol
# Density = 1.830143 g / cm^3
# Si number density = 18.343176 Si / 1000 Ang^3
#
#
#
# Elastic Constant Matrix: (Units=GPa)
#
#
# Indices 1 2 3 4 5 6 
#
# 1 67.1331 34.8084 86.5437 0.0000 0.0000 0.0000
# 2 34.8084 80.5273 57.4509 0.0000 0.0000 0.0000
# 3 86.5437 57.4509 165.5142 0.0000 0.0000 0.0000
# 4 0.0000 0.0000 0.0000 -9.4599 0.0000 0.0000
# 5 0.0000 0.0000 0.0000 0.0000 44.7029 0.0000
# 6 0.0000 0.0000 0.0000 0.0000 0.0000 22.6088
#
#
#
# Elastic Compliance Matrix: (Units=1/GPa)
#
#
# Indices 1 2 3 4 5 6 
#
# 1 0.046499 -0.003660 -0.023043 0.000000 0.000000 0.000000
# 2 -0.003660 0.016794 -0.003915 0.000000 0.000000 0.000000
# 3 -0.023043 -0.003915 0.019449 0.000000 0.000000 0.000000
# 4 0.000000 0.000000 0.000000 -0.105709 0.000000 0.000000
# 5 0.000000 0.000000 0.000000 0.000000 0.022370 0.000000
# 6 0.000000 0.000000 0.000000 0.000000 0.000000 0.044231
#
#
# Mechanical properties :
#
#
# Convention : Reuss Voigt Hill
#
# Bulk Modulus (GPa) = 46.49981 74.53116 60.51549
# Shear Modulus (GPa) = 44.62771 20.52845 32.57808
#
# Velocity S-wave (km/s) = 4.93783 3.34897 4.21887
# Velocity P-wave (km/s) = 7.61016 7.46150 7.53619
#
# Compressibility (1/GPa) = 0.02150546
#
# Stress axis : x y z
#
# Youngs Moduli (GPa) = 21.50600 59.54656 51.41546
#
# Poissons Ratio (x) = 0.21793 1.18475
# Poissons Ratio (y) = 0.07871 0.20132
# Poissons Ratio (z) = 0.49556 0.23315
#
# Static dielectric constant tensor:
#      x y z
#    x 1.592820 0.000000 0.000000 
#    y 0.000000 1.658450 0.000000 
#    z 0.000000 0.000000 1.618900 
# 
# From -- ./inp_files/31118.got.cif
#   From: 2010.05.17/outbox.cif.g08.bks.cpg/sg50_16_cif.got.tgz:31118.got - 2010.06.03 11:33:33.
