data_PCOD9395929
_publ_section_title
;
Structure prediction by ZEFSAII (Michael W. Deem and Ramdas Pophale) SiO2 
 PCOD9395929
Probable space group: P B A N
;
_chemical_formula_sum "Si O2"
_cell_formula_units_Z 26
_cell_length_a 11.485512
_cell_length_b 12.226216
_cell_length_c 8.687704
_cell_angle_alpha 90.000000
_cell_angle_beta 90.000000
_cell_angle_gamma 90.000000
_cell_volume 1219.965192
_symmetry_space_group_name_H-M "P B A N"
_symmetry_group_IT_number 50
_space_group.IT_coordinate_system_code '2'
_symmetry_cell_setting 'orthorhombic'
loop_
_space_group_symop_operation_xyz
x,y,z
1/2-x,1/2-y,z
x,1/2-y,-z
1/2-x,y,-z
-x,-y,-z
1/2+x,1/2+y,-z
-x,1/2+y,z
1/2+x,-y,z
loop_
_atom_site_type_symbol
_atom_site_label
_atom_site_fract_x
_atom_site_fract_y
_atom_site_fract_z
Si Si1 0.682465 0.352819 0.663826
Si Si2 0.060403 0.386525 0.442570
Si Si3 0.794971 0.596084 0.261869
Si Si4 0.250000 0.250000 0.000000
O O1 0.750000 0.250000 0.734605
O O2 0.750000 0.374674 0.500000
O O3 0.549752 0.323289 0.625570
O O4 0.680777 0.466948 0.754024
O O5 0.130361 0.354576 0.596750
O O6 0.159864 0.399569 0.314327
O O7 0.000000 0.500000 0.500000
O O8 0.817897 0.668497 0.113211
#
# Coordination Sequence:
#
# PCOD9395929 Si02
#       4
#     8   8   8   2
#     4  10  19  35  68 101 121 150 213 291 331 355
#     4   9  17  39  68  93 120 156 223 281 313 359
#     4  10  21  42  59  96 127 173 215 260 315 394
#     4  12  28  38  58  84 146 186 216 234 320 408
#
# _framework density 21.312083000000001
#
# number of rings (size 3 to 8) (size 9 to 14) (size 15 to 20)
#    0.000    2.154    6.154    0.000    0.000    7.385 
#    0.000    6.923    0.000    0.000    0.000    0.000 
#    0.000    0.000    0.000    0.000    0.000    0.000 
#
# Total GULP energy -145015.425676 kJ/mol
# GULP energy per Si atom -5577.516372 kJ/mol
# Density = 2.126358 g / cm^3
# Si number density = 21.312083 Si / 1000 Ang^3
#
#
#
# Elastic Constant Matrix: (Units=GPa)
#
#
# Indices 1 2 3 4 5 6 
#
# 1 174.0781 33.1920 21.5179 0.0000 0.0000 0.0000
# 2 33.1920 159.3385 41.7954 0.0000 0.0000 0.0000
# 3 21.5179 41.7954 79.4212 0.0000 0.0000 0.0000
# 4 0.0000 0.0000 0.0000 48.0074 0.0000 0.0000
# 5 0.0000 0.0000 0.0000 0.0000 7.1854 0.0000
# 6 0.0000 0.0000 0.0000 0.0000 0.0000 29.6756
#
#
#
# Elastic Compliance Matrix: (Units=1/GPa)
#
#
# Indices 1 2 3 4 5 6 
#
# 1 0.006069 -0.000966 -0.001136 0.000000 0.000000 0.000000
# 2 -0.000966 0.007435 -0.003651 0.000000 0.000000 0.000000
# 3 -0.001136 -0.003651 0.014820 0.000000 0.000000 0.000000
# 4 0.000000 0.000000 0.000000 0.020830 0.000000 0.000000
# 5 0.000000 0.000000 0.000000 0.000000 0.139171 0.000000
# 6 0.000000 0.000000 0.000000 0.000000 0.000000 0.033698
#
#
# Mechanical properties :
#
#
# Convention : Reuss Voigt Hill
#
# Bulk Modulus (GPa) = 59.45926 67.31648 63.38787
# Shear Modulus (GPa) = 20.90867 38.06249 29.48558
#
# Velocity S-wave (km/s) = 3.13560 4.23064 3.72360
# Velocity P-wave (km/s) = 6.40853 7.45111 6.94940
#
# Compressibility (1/GPa) = 0.01681824
#
# Stress axis : x y z
#
# Youngs Moduli (GPa) = 164.76621 134.50134 67.47616
#
# Poissons Ratio (x) = 0.12998 0.07664
# Poissons Ratio (y) = 0.15922 0.24634
# Poissons Ratio (z) = 0.18714 0.49103
#
# Static dielectric constant tensor:
#      x y z
#    x 1.764710 0.000000 0.000000 
#    y 0.000000 1.939620 0.000000 
#    z 0.000000 0.000000 1.764870 
# 
# From -- ./inp_files/10478.got.cif
#   From: 2010.05.17/outbox.cif.g08.bks.cpg/sg50_6_cif.got.tgz:10478.got - 2010.06.03 11:33:33.
