data_PCOD9395238
_publ_section_title
;
Structure prediction by ZEFSAII (Michael W. Deem and Ramdas Pophale) SiO2 
 PCOD9395238
Probable space group: P C C M
;
_chemical_formula_sum "Si O2"
_cell_formula_units_Z 64
_cell_length_a 24.000000
_cell_length_b 15.000000
_cell_length_c 9.000000
_cell_angle_alpha 90.000000
_cell_angle_beta 90.000000
_cell_angle_gamma 90.000000
_cell_volume 3240.000000
_symmetry_space_group_name_H-M "P C C M"
_symmetry_group_IT_number 49
_symmetry_cell_setting 'orthorhombic'
loop_
_space_group_symop_operation_xyz
x,y,z
-x,-y,z
x,-y,1/2-z
-x,y,1/2-z
-x,-y,-z
x,y,-z
-x,y,1/2+z
x,-y,1/2+z
loop_
_atom_site_type_symbol
_atom_site_label
_atom_site_fract_x
_atom_site_fract_y
_atom_site_fract_z
Si Si1 0.821034 0.908607 0.823224
Si Si2 0.443204 0.289710 0.824111
Si Si3 0.589344 0.085721 0.325197
Si Si4 0.330610 0.340510 0.669996
Si Si5 0.941353 0.413393 0.828139
Si Si6 0.295872 0.866212 0.170567
Si Si7 0.771939 0.409153 0.675039
Si Si8 0.150131 0.265932 0.673201
O O1 0.758303 0.891053 0.763915
O O2 0.855334 0.825892 0.759190
O O3 0.840544 0.000000 0.750000
O O4 0.821831 0.912295 0.000000
O O5 0.500000 0.320526 0.750000
O O6 0.438906 0.181994 0.805402
O O7 0.391875 0.331856 0.736092
O O8 0.440186 0.307664 0.000000
O O9 0.595456 0.070032 0.500000
O O10 0.649221 0.095694 0.246862
O O11 0.561810 0.000000 0.250000
O O12 0.329045 0.373600 0.500000
O O13 0.305923 0.239942 0.668344
O O14 0.292067 0.396529 0.778990
O O15 0.915473 0.500000 0.750000
O O16 0.904320 0.326246 0.818028
O O17 0.000000 0.398638 0.750000
O O18 0.948869 0.434921 0.000000
O O19 0.289799 0.897104 0.000000
O O20 0.791567 0.500000 0.750000
O O21 0.780028 0.411106 0.500000
O O22 0.803598 0.326190 0.747571
O O23 0.165004 0.250674 0.500000
#
# Coordination Sequence:
#
# PCOD9395238 Si02
#       8
#     8   8   8   8   8   8   8   8
#     4  12  24  37  56  81 115 159 204 251 299 352
#     4  10  21  36  54  75 100 135 182 231 285 349
#     4  10  20  32  47  69  99 133 177 228 284 345
#     4  10  20  36  58  81 111 146 184 233 287 346
#     4  10  21  37  62  92 127 165 206 251 297 354
#     4  10  19  33  53  75 106 144 187 235 285 344
#     4  12  24  38  60  90 124 160 195 236 291 356
#     4  11  23  40  60  89 126 163 204 251 300 352
#
# _framework density 19.753086
#
# number of rings (size 3 to 8) (size 9 to 14) (size 15 to 20)
#    0.000    1.375    1.250    5.625    0.000    5.750 
#    0.000    1.250    0.000    0.750    0.000    5.250 
#    0.000    0.000    0.000    0.000    0.000    0.000 
#
# Total GULP energy -357630.672130 kJ/mol
# GULP energy per Si atom -5587.979252 kJ/mol
# Density = 1.970813 g / cm^3
# Si number density = 19.753086 Si / 1000 Ang^3
#
#
#
# Elastic Constant Matrix: (Units=GPa)
#
#
# Indices 1 2 3 4 5 6 
#
# 1 79.8102 34.6271 50.6420 0.0000 0.0000 0.0000
# 2 34.6271 81.9566 48.8655 0.0000 0.0000 0.0000
# 3 50.6420 48.8655 165.6942 0.0000 0.0000 0.0000
# 4 0.0000 0.0000 0.0000 32.8076 0.0000 0.0000
# 5 0.0000 0.0000 0.0000 0.0000 -208.1532 0.0000
# 6 0.0000 0.0000 0.0000 0.0000 0.0000 95.9145
#
#
#
# Elastic Compliance Matrix: (Units=1/GPa)
#
#
# Indices 1 2 3 4 5 6 
#
# 1 0.017067 -0.004976 -0.003749 0.000000 0.000000 0.000000
# 2 -0.004976 0.016255 -0.003273 0.000000 0.000000 0.000000
# 3 -0.003749 -0.003273 0.008146 0.000000 0.000000 0.000000
# 4 0.000000 0.000000 0.000000 0.030481 0.000000 0.000000
# 5 0.000000 0.000000 0.000000 0.000000 -0.004804 0.000000
# 6 0.000000 0.000000 0.000000 0.000000 0.000000 0.010426
#
#
# Mechanical properties :
#
#
# Convention : Reuss Voigt Hill
#
# Bulk Modulus (GPa) = 57.23012 66.19224 61.71118
# Shear Modulus (GPa) = 46.55838 -2.99778 21.78030
#
# Velocity S-wave (km/s) = 4.86018 -1.23326 3.32419
# Velocity P-wave (km/s) = 7.78015 5.61735 6.78548
#
# Compressibility (1/GPa) = 0.01747332
#
# Stress axis : x y z
#
# Youngs Moduli (GPa) = 58.59123 61.51777 122.75447
#
# Poissons Ratio (x) = 0.30610 0.46020
# Poissons Ratio (y) = 0.29154 0.40180
# Poissons Ratio (z) = 0.21966 0.20136
#
# Static dielectric constant tensor:
#      x y z
#    x 1.716360 0.000000 0.000000 
#    y 0.000000 1.633660 0.000000 
#    z 0.000000 0.000000 1.653810 
# 
# From -- ./inp_files/4434.got.cif
#   From: 2010.05.17/outbox.ucp.g08.bks.cvg/sg49_3_cif.got.tgz:4434.got - 2010.06.11 16:40:14.
