data_PCOD9395242
_publ_section_title
;
Structure prediction by ZEFSAII (Michael W. Deem and Ramdas Pophale) SiO2 
 PCOD9395242
Probable space group: P C C M
;
_chemical_formula_sum "Si O2"
_cell_formula_units_Z 64
_cell_length_a 15.000000
_cell_length_b 9.000000
_cell_length_c 24.000000
_cell_angle_alpha 90.000000
_cell_angle_beta 90.000000
_cell_angle_gamma 90.000000
_cell_volume 3240.000000
_symmetry_space_group_name_H-M "P C C M"
_symmetry_group_IT_number 49
_symmetry_cell_setting 'orthorhombic'
loop_
_space_group_symop_operation_xyz
x,y,z
-x,-y,z
x,-y,1/2-z
-x,y,1/2-z
-x,-y,-z
x,y,-z
-x,y,1/2+z
x,-y,1/2+z
loop_
_atom_site_type_symbol
_atom_site_label
_atom_site_fract_x
_atom_site_fract_y
_atom_site_fract_z
Si Si1 0.912165 0.296013 0.354143
Si Si2 0.211155 0.679302 0.250301
Si Si3 0.724986 0.434175 0.062785
Si Si4 0.117566 0.345907 0.364040
Si Si5 0.602909 0.825424 0.736094
Si Si6 0.566056 0.138600 0.433186
Si Si7 0.763531 0.211310 0.563937
Si Si8 0.446592 0.640927 0.865607
O O1 0.864236 0.270323 0.294454
O O2 0.899631 0.475475 0.359728
O O3 0.850838 0.204053 0.397388
O O4 0.018430 0.273689 0.363450
O O5 0.221141 0.500000 0.250000
O O6 0.171780 0.713055 0.189409
O O7 0.309100 0.747667 0.262090
O O8 0.810862 0.343789 0.085731
O O9 0.744563 0.610898 0.063435
O O10 0.636504 0.415234 0.098668
O O11 0.706476 0.386679 0.000000
O O12 0.500000 0.783659 0.750000
O O13 0.599901 0.764026 0.673502
O O14 0.610362 0.000000 0.750000
O O15 0.566439 0.159394 0.500000
O O16 0.671118 0.131942 0.416671
O O17 0.520129 0.276538 0.402871
O O18 0.500000 0.000000 0.420829
O O19 0.781175 0.165322 0.500000
O O20 0.500000 0.500000 0.839045
#
# Coordination Sequence:
#
# PCOD9395242 Si02
#       8
#     8   8   8   8   8   8   8   8
#     4   9  18  29  55  80 117 156 204 255 322 367
#     4  10  20  35  61  85 115 156 208 260 304 373
#     4  10  19  33  56  89 125 160 204 258 311 369
#     4   9  17  33  49  87 117 153 202 260 314 371
#     4  11  28  43  57  88 124 160 195 252 317 376
#     4  10  22  37  57  87 123 162 206 252 302 369
#     4   9  18  32  50  82 122 158 204 254 308 371
#     4  12  24  38  64  87 120 164 209 254 309 376
#
# _framework density 19.753086
#
# number of rings (size 3 to 8) (size 9 to 14) (size 15 to 20)
#    0.000    2.000    2.500    0.750    5.250    2.500 
#    0.000    2.500    0.000    1.500    0.000    0.000 
#    0.000    5.000    0.000    0.000    0.000    0.000 
#
# Total GULP energy -356495.311523 kJ/mol
# GULP energy per Si atom -5570.239243 kJ/mol
# Density = 1.970813 g / cm^3
# Si number density = 19.753086 Si / 1000 Ang^3
#
#
#
# Elastic Constant Matrix: (Units=GPa)
#
#
# Indices 1 2 3 4 5 6 
#
# 1 148.7849 25.6819 29.6421 0.0000 0.0000 0.0000
# 2 25.6819 44.0847 20.8649 0.0000 0.0000 0.0000
# 3 29.6421 20.8649 61.1140 0.0000 0.0000 0.0000
# 4 0.0000 0.0000 0.0000 6.5258 0.0000 0.0000
# 5 0.0000 0.0000 0.0000 0.0000 14.1965 0.0000
# 6 0.0000 0.0000 0.0000 0.0000 0.0000 30.5168
#
#
#
# Elastic Compliance Matrix: (Units=1/GPa)
#
#
# Indices 1 2 3 4 5 6 
#
# 1 0.007821 -0.003293 -0.002669 0.000000 0.000000 0.000000
# 2 -0.003293 0.028442 -0.008113 0.000000 0.000000 0.000000
# 3 -0.002669 -0.008113 0.020427 0.000000 0.000000 0.000000
# 4 0.000000 0.000000 0.000000 0.153238 0.000000 0.000000
# 5 0.000000 0.000000 0.000000 0.000000 0.070440 0.000000
# 6 0.000000 0.000000 0.000000 0.000000 0.000000 0.032769
#
#
# Mechanical properties :
#
#
# Convention : Reuss Voigt Hill
#
# Bulk Modulus (GPa) = 35.03882 45.15127 40.09505
# Shear Modulus (GPa) = 14.25309 22.10081 18.17695
#
# Velocity S-wave (km/s) = 2.68911 3.34856 3.03678
# Velocity P-wave (km/s) = 5.23628 6.15288 5.71299
#
# Compressibility (1/GPa) = 0.02853977
#
# Stress axis : x y z
#
# Youngs Moduli (GPa) = 127.85553 35.15946 48.95378
#
# Poissons Ratio (x) = 0.11578 0.13067
# Poissons Ratio (y) = 0.42103 0.39717
# Poissons Ratio (z) = 0.34129 0.28525
#
# Static dielectric constant tensor:
#      x y z
#    x 1.698990 0.000000 0.000000 
#    y 0.000000 1.701510 0.000000 
#    z 0.000000 0.000000 1.766020 
# 
# From -- ./inp_files/23230.got.cif
#   From: 2010.05.17/outbox.ucp.g08.bks.cvg/sg49_12_cif.got.tgz:23230.got - 2010.06.11 16:40:14.
