data_PCOD9395995
_publ_section_title
;
Structure prediction by ZEFSAII (Michael W. Deem and Ramdas Pophale) SiO2 
 PCOD9395995
Probable space group: P B A N
;
_chemical_formula_sum "Si O2"
_cell_formula_units_Z 48
_cell_length_a 15.693026
_cell_length_b 9.788379
_cell_length_c 14.809433
_cell_angle_alpha 90.000000
_cell_angle_beta 90.000000
_cell_angle_gamma 90.000000
_cell_volume 2274.866431
_symmetry_space_group_name_H-M "P B A N"
_symmetry_group_IT_number 50
_space_group.IT_coordinate_system_code '2'
_symmetry_cell_setting 'orthorhombic'
loop_
_space_group_symop_operation_xyz
x,y,z
1/2-x,1/2-y,z
x,1/2-y,-z
1/2-x,y,-z
-x,-y,-z
1/2+x,1/2+y,-z
-x,1/2+y,z
1/2+x,-y,z
loop_
_atom_site_type_symbol
_atom_site_label
_atom_site_fract_x
_atom_site_fract_y
_atom_site_fract_z
Si Si1 0.409724 0.313729 0.097869
Si Si2 0.505419 0.971315 0.347447
Si Si3 0.813511 0.604204 0.782202
Si Si4 0.589398 0.155566 0.804830
Si Si5 0.109380 0.289988 0.405481
Si Si6 0.859095 0.055804 0.803850
O O1 0.338335 0.233692 0.155879
O O2 0.501116 0.303837 0.147080
O O3 0.386033 0.473556 0.106091
O O4 0.413189 0.250000 0.000000
O O5 0.431662 0.882103 0.298988
O O6 0.564584 0.854366 0.386406
O O7 0.463043 0.089318 0.408057
O O8 0.562999 0.039123 0.267868
O O9 0.871925 0.489198 0.832078
O O10 0.838199 0.658927 0.681959
O O11 0.725225 0.522412 0.771404
O O12 0.650397 0.283767 0.816348
O O13 0.153239 0.250000 0.500000
#
# Coordination Sequence:
#
# PCOD9395995 Si02
#       6
#     8   8   8   8   8   8
#     4  11  23  40  64  89 119 160 209 257 309 379
#     4  10  19  37  60  89 120 160 205 253 297 360
#     4  11  23  38  60  93 126 162 201 254 318 365
#     4  10  20  39  62  86 120 162 207 248 306 370
#     4  11  21  37  62  92 122 162 211 250 298 364
#     4  11  21  38  62  87 128 160 199 256 317 371
#
# _framework density 21.100141000000001
#
# number of rings (size 3 to 8) (size 9 to 14) (size 15 to 20)
#    0.000    1.333    5.000    3.500    0.000    4.000 
#    0.000    1.667    0.000    3.000    0.000    0.000 
#    0.000    0.000    0.000    0.000    0.000    0.000 
#
# Total GULP energy -267219.747996 kJ/mol
# GULP energy per Si atom -5567.078083 kJ/mol
# Density = 2.105212 g / cm^3
# Si number density = 21.100141 Si / 1000 Ang^3
#
#
#
# Elastic Constant Matrix: (Units=GPa)
#
#
# Indices 1 2 3 4 5 6 
#
# 1 78.7464 15.0983 11.8664 0.0000 0.0000 0.0000
# 2 15.0983 80.8653 27.0191 0.0000 0.0000 0.0000
# 3 11.8664 27.0191 93.9593 0.0000 0.0000 0.0000
# 4 0.0000 0.0000 0.0000 26.7868 0.0000 0.0000
# 5 0.0000 0.0000 0.0000 0.0000 -6.9770 0.0000
# 6 0.0000 0.0000 0.0000 0.0000 0.0000 16.8779
#
#
#
# Elastic Compliance Matrix: (Units=1/GPa)
#
#
# Indices 1 2 3 4 5 6 
#
# 1 0.013266 -0.002121 -0.001066 0.000000 0.000000 0.000000
# 2 -0.002121 0.014020 -0.003764 0.000000 0.000000 0.000000
# 3 -0.001066 -0.003764 0.011860 0.000000 0.000000 0.000000
# 4 0.000000 0.000000 0.000000 0.037332 0.000000 0.000000
# 5 0.000000 0.000000 0.000000 0.000000 -0.143327 0.000000
# 6 0.000000 0.000000 0.000000 0.000000 0.000000 0.059249
#
#
# Mechanical properties :
#
#
# Convention : Reuss Voigt Hill
#
# Bulk Modulus (GPa) = 39.61104 40.17095 39.89100
# Shear Modulus (GPa) = 339.79226 20.64334 180.21780
#
# Velocity S-wave (km/s) = 12.70384 3.13125 9.25182
# Velocity P-wave (km/s) = 15.29696 5.67032 11.53580
#
# Compressibility (1/GPa) = 0.02524549
#
# Stress axis : x y z
#
# Youngs Moduli (GPa) = 75.37944 71.32779 84.31869
#
# Poissons Ratio (x) = 0.15128 0.08984
# Poissons Ratio (y) = 0.15987 0.31735
# Poissons Ratio (z) = 0.08032 0.26846
#
# Static dielectric constant tensor:
#      x y z
#    x 1.883990 0.000000 0.000000 
#    y 0.000000 1.811720 0.000000 
#    z 0.000000 0.000000 1.788820 
# 
# From -- ./inp_files/26841.got.cif
#   From: 2010.05.17/outbox.cif.g08.bks.cpg/sg50_14_cif.got.tgz:26841.got - 2010.06.03 11:33:33.
