data_PCOD9395498
_publ_section_title
;
Structure prediction by ZEFSAII (Michael W. Deem and Ramdas Pophale) SiO2 
 PCOD9395498
Probable space group: P B A N
;
_chemical_formula_sum "Si O2"
_cell_formula_units_Z 36
_cell_length_a 14.100976
_cell_length_b 7.460249
_cell_length_c 15.237434
_cell_angle_alpha 90.000000
_cell_angle_beta 90.000000
_cell_angle_gamma 90.000000
_cell_volume 1602.929177
_symmetry_space_group_name_H-M "P B A N"
_symmetry_group_IT_number 50
_space_group.IT_coordinate_system_code '2'
_symmetry_cell_setting 'orthorhombic'
loop_
_space_group_symop_operation_xyz
x,y,z
1/2-x,1/2-y,z
x,1/2-y,-z
1/2-x,y,-z
-x,-y,-z
1/2+x,1/2+y,-z
-x,1/2+y,z
1/2+x,-y,z
loop_
_atom_site_type_symbol
_atom_site_label
_atom_site_fract_x
_atom_site_fract_y
_atom_site_fract_z
Si Si1 0.863693 0.747344 0.229727
Si Si2 0.364923 0.551568 0.895529
Si Si3 0.913436 0.250000 0.500000
Si Si4 0.401144 0.116099 0.575444
Si Si5 0.365713 0.960663 0.909186
O O1 0.750000 0.750000 0.222663
O O2 0.882853 0.694199 0.329218
O O3 0.900431 0.595759 0.163850
O O4 0.895371 0.935226 0.187632
O O5 0.395746 0.757201 0.892228
O O6 0.249445 0.545953 0.900918
O O7 0.391936 0.480631 0.992255
O O8 0.867194 0.411768 0.444007
O O9 0.984394 0.363927 0.562827
O O10 0.363022 0.250000 0.500000
#
# Coordination Sequence:
#
# PCOD9395498 Si02
#       5
#     8   8   4   8   8
#     4  10  18  26  44  75 102 121 144 185 246 292
#     4   8  14  25  40  60  97 132 161 178 212 273
#     4   8  18  38  55  67  80 118 176 204 230 264
#     4   9  18  34  53  69  89 116 159 208 233 278
#     4   8  14  25  39  62  95 134 158 181 210 274
#
# _framework density 22.458886
#
# number of rings (size 3 to 8) (size 9 to 14) (size 15 to 20)
#    0.667    2.667    0.000    2.000    0.000    4.889 
#    0.000    0.000    0.000    1.333    0.000    6.222 
#    0.000    0.000    0.000    0.000    0.000    0.000 
#
# Total GULP energy -200651.803205 kJ/mol
# GULP energy per Si atom -5573.661200 kJ/mol
# Density = 2.240777 g / cm^3
# Si number density = 22.458886 Si / 1000 Ang^3
#
#
#
# Elastic Constant Matrix: (Units=GPa)
#
#
# Indices 1 2 3 4 5 6 
#
# 1 59.3365 0.7271 1.0446 0.0000 0.0000 0.0000
# 2 0.7271 150.9262 109.8178 0.0000 0.0000 0.0000
# 3 1.0446 109.8178 195.2827 0.0000 0.0000 0.0000
# 4 0.0000 0.0000 0.0000 8.5181 0.0000 0.0000
# 5 0.0000 0.0000 0.0000 0.0000 25.7370 0.0000
# 6 0.0000 0.0000 0.0000 0.0000 0.0000 21.4750
#
#
#
# Elastic Compliance Matrix: (Units=1/GPa)
#
#
# Indices 1 2 3 4 5 6 
#
# 1 0.016855 -0.000026 -0.000075 0.000000 0.000000 0.000000
# 2 -0.000026 0.011215 -0.006306 0.000000 0.000000 0.000000
# 3 -0.000075 -0.006306 0.008668 0.000000 0.000000 0.000000
# 4 0.000000 0.000000 0.000000 0.117397 0.000000 0.000000
# 5 0.000000 0.000000 0.000000 0.000000 0.038855 0.000000
# 6 0.000000 0.000000 0.000000 0.000000 0.000000 0.046566
#
#
# Mechanical properties :
#
#
# Convention : Reuss Voigt Hill
#
# Bulk Modulus (GPa) = 41.80495 69.85828 55.83161
# Shear Modulus (GPa) = 19.20534 30.74307 24.97421
#
# Velocity S-wave (km/s) = 2.92744 3.70382 3.33828
# Velocity P-wave (km/s) = 5.48461 7.03303 6.30652
#
# Compressibility (1/GPa) = 0.02392061
#
# Stress axis : x y z
#
# Youngs Moduli (GPa) = 59.33073 89.16954 115.37200
#
# Poissons Ratio (x) = 0.00235 0.00869
# Poissons Ratio (y) = 0.00157 0.72758
# Poissons Ratio (z) = 0.00447 0.56234
#
# Static dielectric constant tensor:
#      x y z
#    x 1.949780 0.000000 0.000000 
#    y 0.000000 1.853220 0.000000 
#    z 0.000000 0.000000 1.820530 
# 
# From -- ./inp_files/18893.got.cif
#   From: 2010.05.17/outbox.cif.g08.bks.cpg/sg50_10_cif.got.tgz:18893.got - 2010.06.03 11:33:33.
