data_PCOD9395589
_publ_section_title
;
Structure prediction by ZEFSAII (Michael W. Deem and Ramdas Pophale) SiO2 
 PCOD9395589
Probable space group: P B A N
;
_chemical_formula_sum "Si O2"
_cell_formula_units_Z 40
_cell_length_a 14.743966
_cell_length_b 7.811497
_cell_length_c 13.961186
_cell_angle_alpha 90.000000
_cell_angle_beta 90.000000
_cell_angle_gamma 90.000000
_cell_volume 1607.943943
_symmetry_space_group_name_H-M "P B A N"
_symmetry_group_IT_number 50
_space_group.IT_coordinate_system_code '2'
_symmetry_cell_setting 'orthorhombic'
loop_
_space_group_symop_operation_xyz
x,y,z
1/2-x,1/2-y,z
x,1/2-y,-z
1/2-x,y,-z
-x,-y,-z
1/2+x,1/2+y,-z
-x,1/2+y,z
1/2+x,-y,z
loop_
_atom_site_type_symbol
_atom_site_label
_atom_site_fract_x
_atom_site_fract_y
_atom_site_fract_z
Si Si1 0.889593 0.550576 0.103491
Si Si2 0.026041 0.268727 0.387583
Si Si3 0.397986 0.462486 0.893309
Si Si4 0.308038 0.071316 0.700336
Si Si5 0.635909 0.093872 0.686801
O O1 0.884960 0.757763 0.110196
O O2 0.834387 0.497010 0.195930
O O3 0.994388 0.497196 0.110620
O O4 0.861117 0.488028 0.998109
O O5 0.012219 0.250000 0.500000
O O6 0.100541 0.129805 0.352277
O O7 0.075007 0.444541 0.360828
O O8 0.928932 0.252180 0.335726
O O9 0.360786 0.556518 0.800378
O O10 0.250000 0.250000 0.710774
O O11 0.237997 0.940008 0.651336
#
# Coordination Sequence:
#
# PCOD9395589 Si02
#       5
#     8   8   8   8   8
#     4  10  19  33  57  89 126 163 207 246 309 364
#     4  11  23  41  63  88 120 160 205 259 317 366
#     4  10  18  33  58  88 125 165 202 249 305 374
#     4  10  20  36  59  91 121 159 208 260 303 366
#     4  11  21  39  63  88 120 161 206 254 311 367
#
# _framework density 24.87649
#
# number of rings (size 3 to 8) (size 9 to 14) (size 15 to 20)
#    0.000    1.600    6.000    0.600    0.000    4.400 
#    0.000    1.000    0.000    1.200    0.000    5.600 
#    0.000    0.000    0.000    0.000    0.000    0.000 
#
# Total GULP energy -223797.905081 kJ/mol
# GULP energy per Si atom -5594.947627 kJ/mol
# Density = 2.481987 g / cm^3
# Si number density = 24.876490 Si / 1000 Ang^3
#
#
#
# Elastic Constant Matrix: (Units=GPa)
#
#
# Indices 1 2 3 4 5 6 
#
# 1 156.9611 1.9545 40.8832 0.0000 0.0000 0.0000
# 2 1.9545 73.5058 11.4265 0.0000 0.0000 0.0000
# 3 40.8832 11.4265 149.2550 0.0000 0.0000 0.0000
# 4 0.0000 0.0000 0.0000 7.9765 0.0000 0.0000
# 5 0.0000 0.0000 0.0000 0.0000 -4.3928 0.0000
# 6 0.0000 0.0000 0.0000 0.0000 0.0000 34.2611
#
#
#
# Elastic Compliance Matrix: (Units=1/GPa)
#
#
# Indices 1 2 3 4 5 6 
#
# 1 0.006861 0.000111 -0.001888 0.000000 0.000000 0.000000
# 2 0.000111 0.013770 -0.001085 0.000000 0.000000 0.000000
# 3 -0.001888 -0.001085 0.007300 0.000000 0.000000 0.000000
# 4 0.000000 0.000000 0.000000 0.125369 0.000000 0.000000
# 5 0.000000 0.000000 0.000000 0.000000 -0.227643 0.000000
# 6 0.000000 0.000000 0.000000 0.000000 0.000000 0.029188
#
#
# Mechanical properties :
#
#
# Convention : Reuss Voigt Hill
#
# Bulk Modulus (GPa) = 45.02779 54.25001 49.63890
# Shear Modulus (GPa) = -156.10891 29.26613 -63.42139
#
# Velocity S-wave (km/s) = -7.93031 3.43367 -5.05469
# Velocity P-wave (km/s) = 8.10637 6.12986 3.75087
#
# Compressibility (1/GPa) = 0.02220851
#
# Stress axis : x y z
#
# Youngs Moduli (GPa) = 145.74355 72.62150 136.98429
#
# Poissons Ratio (x) = -0.00806 0.25862
# Poissons Ratio (y) = -0.01618 0.14857
# Poissons Ratio (z) = 0.27515 0.07877
#
# Static dielectric constant tensor:
#      x y z
#    x 1.965810 0.000000 0.000000 
#    y 0.000000 2.097540 0.000000 
#    z 0.000000 0.000000 1.997720 
# 
# From -- ./inp_files/24662.got.cif
#   From: 2010.05.17/outbox.cif.g08.bks.cpg/sg50_13_cif.got.tgz:24662.got - 2010.06.03 11:33:33.
