data_PCOD9395841
_publ_section_title
;
Structure prediction by ZEFSAII (Michael W. Deem and Ramdas Pophale) SiO2 
 PCOD9395841
Probable space group: P B A N
;
_chemical_formula_sum "Si O2"
_cell_formula_units_Z 40
_cell_length_a 16.232994
_cell_length_b 12.676080
_cell_length_c 9.232321
_cell_angle_alpha 90.000000
_cell_angle_beta 90.000000
_cell_angle_gamma 90.000000
_cell_volume 1899.741437
_symmetry_space_group_name_H-M "P B A N"
_symmetry_group_IT_number 50
_space_group.IT_coordinate_system_code '2'
_symmetry_cell_setting 'orthorhombic'
loop_
_space_group_symop_operation_xyz
x,y,z
1/2-x,1/2-y,z
x,1/2-y,-z
1/2-x,y,-z
-x,-y,-z
1/2+x,1/2+y,-z
-x,1/2+y,z
1/2+x,-y,z
loop_
_atom_site_type_symbol
_atom_site_label
_atom_site_fract_x
_atom_site_fract_y
_atom_site_fract_z
Si Si1 0.606529 0.041057 0.168870
Si Si2 0.913667 0.469445 0.832846
Si Si3 0.582461 0.252244 0.328387
Si Si4 0.899285 0.831354 0.332527
Si Si5 0.826862 0.616074 0.394052
O O1 0.621931 0.154069 0.243435
O O2 0.511757 0.997361 0.182142
O O3 0.661816 0.960093 0.259662
O O4 0.614880 0.049511 0.996645
O O5 0.897187 0.365808 0.738239
O O6 0.874464 0.578109 0.777365
O O7 0.599053 0.250000 0.500000
O O8 0.485800 0.224691 0.302779
O O9 0.835306 0.736161 0.340883
O O10 0.902694 0.888450 0.489718
O O11 0.750000 0.594371 0.500000
#
# Coordination Sequence:
#
# PCOD9395841 Si02
#       5
#     8   8   8   8   8
#     4  10  21  34  54  89 121 164 202 252 333 373
#     4  10  20  34  56  87 127 154 196 270 322 388
#     4  11  18  32  58  88 124 150 200 267 327 382
#     4  10  19  34  56  85 116 157 207 249 323 367
#     4  11  21  38  57  82 120 163 214 254 294 388
#
# _framework density 21.055496999999999
#
# number of rings (size 3 to 8) (size 9 to 14) (size 15 to 20)
#    0.000    1.600    4.000    3.000    0.000    4.000 
#    0.000    1.000    0.000   11.400    0.000    5.600 
#    0.000    0.000    0.000    0.000    0.000    0.000 
#
# Total GULP energy -223098.068385 kJ/mol
# GULP energy per Si atom -5577.451710 kJ/mol
# Density = 2.100757 g / cm^3
# Si number density = 21.055497 Si / 1000 Ang^3
#
#
#
# Elastic Constant Matrix: (Units=GPa)
#
#
# Indices 1 2 3 4 5 6 
#
# 1 31.0496 14.2491 22.5946 0.0000 0.0000 0.0000
# 2 14.2491 133.4243 82.0965 0.0000 0.0000 0.0000
# 3 22.5946 82.0965 108.1572 0.0000 0.0000 0.0000
# 4 0.0000 0.0000 0.0000 35.7918 0.0000 0.0000
# 5 0.0000 0.0000 0.0000 0.0000 25.3575 0.0000
# 6 0.0000 0.0000 0.0000 0.0000 0.0000 6.9475
#
#
#
# Elastic Compliance Matrix: (Units=1/GPa)
#
#
# Indices 1 2 3 4 5 6 
#
# 1 0.038152 0.001557 -0.009152 0.000000 0.000000 0.000000
# 2 0.001557 0.014126 -0.011048 0.000000 0.000000 0.000000
# 3 -0.009152 -0.011048 0.019543 0.000000 0.000000 0.000000
# 4 0.000000 0.000000 0.000000 0.027939 0.000000 0.000000
# 5 0.000000 0.000000 0.000000 0.000000 0.039436 0.000000
# 6 0.000000 0.000000 0.000000 0.000000 0.000000 0.143937
#
#
# Mechanical properties :
#
#
# Convention : Reuss Voigt Hill
#
# Bulk Modulus (GPa) = 28.95536 56.72350 42.83943
# Shear Modulus (GPa) = 15.06335 23.86542 19.46438
#
# Velocity S-wave (km/s) = 2.67762 3.37033 3.04375
# Velocity P-wave (km/s) = 4.83128 6.49184 5.72212
#
# Compressibility (1/GPa) = 0.03453592
#
# Stress axis : x y z
#
# Youngs Moduli (GPa) = 26.21115 70.78942 51.16805
#
# Poissons Ratio (x) = -0.11019 0.46827
# Poissons Ratio (y) = -0.04080 0.56529
# Poissons Ratio (z) = 0.23987 0.78207
#
# Static dielectric constant tensor:
#      x y z
#    x 1.844990 0.000000 0.000000 
#    y 0.000000 1.742060 0.000000 
#    z 0.000000 0.000000 1.781510 
# 
# From -- ./inp_files/13904.got.cif
#   From: 2010.05.17/outbox.cif.g08.bks.cpg/sg50_7_cif.got.tgz:13904.got - 2010.06.03 11:33:33.
