data_PCOD9395618
_publ_section_title
;
Structure prediction by ZEFSAII (Michael W. Deem and Ramdas Pophale) SiO2 
 PCOD9395618
Probable space group: P B A N
;
_chemical_formula_sum "Si O2"
_cell_formula_units_Z 56
_cell_length_a 18.552830
_cell_length_b 5.382108
_cell_length_c 28.896070
_cell_angle_alpha 90.000000
_cell_angle_beta 90.000000
_cell_angle_gamma 90.000000
_cell_volume 2885.368951
_symmetry_space_group_name_H-M "P B A N"
_symmetry_group_IT_number 50
_space_group.IT_coordinate_system_code '2'
_symmetry_cell_setting 'orthorhombic'
loop_
_space_group_symop_operation_xyz
x,y,z
1/2-x,1/2-y,z
x,1/2-y,-z
1/2-x,y,-z
-x,-y,-z
1/2+x,1/2+y,-z
-x,1/2+y,z
1/2+x,-y,z
loop_
_atom_site_type_symbol
_atom_site_label
_atom_site_fract_x
_atom_site_fract_y
_atom_site_fract_z
Si Si1 0.834633 0.753963 0.309647
Si Si2 0.931056 0.863733 0.862315
Si Si3 0.953943 0.246262 0.445504
Si Si4 0.039002 0.390392 0.754524
Si Si5 0.835050 0.254973 0.367998
Si Si6 0.718836 0.003279 0.947942
Si Si7 0.410920 0.868479 0.100962
O O1 0.750000 0.750000 0.297604
O O2 0.885423 0.697972 0.266282
O O3 0.848683 0.520738 0.343770
O O4 0.849758 0.018617 0.334321
O O5 0.957015 0.902926 0.810207
O O6 0.893076 0.598678 0.865430
O O7 0.002125 0.847953 0.895650
O O8 0.887977 0.100152 0.880434
O O9 0.934896 0.250000 0.500000
O O10 0.884982 0.234538 0.412689
O O11 0.997966 0.500713 0.436489
O O12 0.015274 0.667673 0.739907
O O13 0.750000 0.250000 0.379413
O O14 0.750000 0.750000 0.927243
O O15 0.750000 0.250000 0.924924
O O16 0.632645 0.045534 0.944538
O O17 0.750000 0.002097 0.000000
#
# Coordination Sequence:
#
# PCOD9395618 Si02
#       7
#     8   8   8   8   8   8   8
#     4  10  23  39  56  82 119 157 192 247 300 349
#     4  10  19  35  59  82 110 143 186 242 275 338
#     4  10  21  36  57  85 119 148 189 256 309 355
#     4  12  21  37  60  88 116 151 199 246 290 348
#     4  10  21  39  58  80 114 157 203 240 292 368
#     4  10  21  37  58  83 117 153 183 230 274 338
#     4  10  18  35  59  82 111 145 184 228 281 324
#
# _framework density 19.408263999999999
#
# number of rings (size 3 to 8) (size 9 to 14) (size 15 to 20)
#    0.000    1.714    2.857    2.571    0.000    3.714 
#    0.000    2.143    0.000   46.286    0.000    0.000 
#    0.000    0.000    0.000    0.000    0.000    0.000 
#
# Total GULP energy -311767.264242 kJ/mol
# GULP energy per Si atom -5567.272576 kJ/mol
# Density = 1.936409 g / cm^3
# Si number density = 19.408264 Si / 1000 Ang^3
#
#
#
# Elastic Constant Matrix: (Units=GPa)
#
#
# Indices 1 2 3 4 5 6 
#
# 1 72.5879 11.4788 55.3112 0.0000 0.0000 0.0000
# 2 11.4788 145.5722 9.9630 0.0000 0.0000 0.0000
# 3 55.3112 9.9630 50.2236 0.0000 0.0000 0.0000
# 4 0.0000 0.0000 0.0000 15.4356 0.0000 0.0000
# 5 0.0000 0.0000 0.0000 0.0000 98.1249 0.0000
# 6 0.0000 0.0000 0.0000 0.0000 0.0000 21.4389
#
#
#
# Elastic Compliance Matrix: (Units=1/GPa)
#
#
# Indices 1 2 3 4 5 6 
#
# 1 0.085674 -0.000302 -0.094293 0.000000 0.000000 0.000000
# 2 -0.000302 0.006965 -0.001049 0.000000 0.000000 0.000000
# 3 -0.094293 -0.001049 0.123964 0.000000 0.000000 0.000000
# 4 0.000000 0.000000 0.000000 0.064785 0.000000 0.000000
# 5 0.000000 0.000000 0.000000 0.000000 0.010191 0.000000
# 6 0.000000 0.000000 0.000000 0.000000 0.000000 0.046644
#
#
# Mechanical properties :
#
#
# Convention : Reuss Voigt Hill
#
# Bulk Modulus (GPa) = 39.50234 46.87664 43.18949
# Shear Modulus (GPa) = 9.29453 39.77527 24.53490
#
# Velocity S-wave (km/s) = 2.19074 4.53194 3.55934
# Velocity P-wave (km/s) = 5.17655 7.18262 6.26046
#
# Compressibility (1/GPa) = 0.02531495
#
# Stress axis : x y z
#
# Youngs Moduli (GPa) = 11.67209 143.57383 8.06687
#
# Poissons Ratio (x) = 0.04340 0.76065
# Poissons Ratio (y) = 0.00353 0.00846
# Poissons Ratio (z) = 1.10060 0.15058
#
# Static dielectric constant tensor:
#      x y z
#    x 1.719630 0.000000 0.000000 
#    y 0.000000 1.758400 0.000000 
#    z 0.000000 0.000000 1.657840 
# 
# From -- ./inp_files/32511.got.cif
#   From: 2010.05.17/outbox.cif.g08.bks.cpg/sg50_17_cif.got.tgz:32511.got - 2010.06.03 11:33:33.
