data_PCOD9395234
_publ_section_title
;
Structure prediction by ZEFSAII (Michael W. Deem and Ramdas Pophale) SiO2 
 PCOD9395234
Probable space group: P C C M
;
_chemical_formula_sum "Si O2"
_cell_formula_units_Z 56
_cell_length_a 21.000000
_cell_length_b 15.000000
_cell_length_c 9.000000
_cell_angle_alpha 90.000000
_cell_angle_beta 90.000000
_cell_angle_gamma 90.000000
_cell_volume 2835.000000
_symmetry_space_group_name_H-M "P C C M"
_symmetry_group_IT_number 49
_symmetry_cell_setting 'orthorhombic'
loop_
_space_group_symop_operation_xyz
x,y,z
-x,-y,z
x,-y,1/2-z
-x,y,1/2-z
-x,-y,-z
x,y,-z
-x,y,1/2+z
x,-y,1/2+z
loop_
_atom_site_type_symbol
_atom_site_label
_atom_site_fract_x
_atom_site_fract_y
_atom_site_fract_z
Si Si1 0.321666 0.909394 0.677836
Si Si2 0.105069 0.412516 0.176394
Si Si3 0.933684 0.789693 0.821963
Si Si4 0.372313 0.408983 0.178207
Si Si5 0.197242 0.838936 0.829113
Si Si6 0.433953 0.775508 0.677681
Si Si7 0.762982 0.631988 0.671187
O O1 0.318835 0.914420 0.500000
O O2 0.251307 0.891855 0.741306
O O3 0.371967 0.832849 0.720391
O O4 0.345824 0.000000 0.750000
O O5 0.075056 0.500000 0.250000
O O6 0.073591 0.316781 0.209941
O O7 0.176299 0.405355 0.241874
O O8 0.106635 0.423406 0.000000
O O9 0.871394 0.835444 0.750291
O O10 0.000000 0.820274 0.750000
O O11 0.933706 0.801091 0.000000
O O12 0.396049 0.500000 0.250000
O O13 0.417321 0.326184 0.217024
O O14 0.302309 0.390233 0.246005
O O15 0.367533 0.415347 0.000000
O O16 0.224153 0.737811 0.831140
O O17 0.191261 0.869230 0.000000
O O18 0.500000 0.804665 0.750000
O O19 0.440068 0.781786 0.500000
O O20 0.761077 0.600088 0.500000
#
# Coordination Sequence:
#
# PCOD9395234 Si02
#       7
#     8   8   8   8   8   8   8
#     4  11  23  42  67  98 128 159 199 247 303 365
#     4  10  20  32  47  70 105 148 195 250 306 358
#     4  10  21  36  55  80 113 156 201 249 302 363
#     4  11  22  37  56  83 117 159 206 254 304 357
#     4  10  20  36  61  90 119 155 198 247 301 359
#     4  10  24  43  64  88 124 165 204 251 305 362
#     4  10  19  32  53  80 110 149 196 248 302 357
#
# _framework density 19.753086
#
# number of rings (size 3 to 8) (size 9 to 14) (size 15 to 20)
#    0.000    1.714    1.429    3.000    0.000    6.000 
#    0.000    4.286    0.000    0.429    0.000    3.000 
#    0.000    0.000    0.000    0.000    0.000    0.000 
#
# Total GULP energy -312882.121442 kJ/mol
# GULP energy per Si atom -5587.180740 kJ/mol
# Density = 1.970813 g / cm^3
# Si number density = 19.753086 Si / 1000 Ang^3
#
#
#
# Elastic Constant Matrix: (Units=GPa)
#
#
# Indices 1 2 3 4 5 6 
#
# 1 121.7603 32.2644 51.4936 0.0000 0.0000 0.0000
# 2 32.2644 63.7581 29.1963 0.0000 0.0000 0.0000
# 3 51.4936 29.1963 76.0003 0.0000 0.0000 0.0000
# 4 0.0000 0.0000 0.0000 36.3443 0.0000 0.0000
# 5 0.0000 0.0000 0.0000 0.0000 30.8075 0.0000
# 6 0.0000 0.0000 0.0000 0.0000 0.0000 -3.3347
#
#
#
# Elastic Compliance Matrix: (Units=1/GPa)
#
#
# Indices 1 2 3 4 5 6 
#
# 1 0.011918 -0.002831 -0.006987 0.000000 0.000000 0.000000
# 2 -0.002831 0.019705 -0.005651 0.000000 0.000000 0.000000
# 3 -0.006987 -0.005651 0.020063 0.000000 0.000000 0.000000
# 4 0.000000 0.000000 0.000000 0.027515 0.000000 0.000000
# 5 0.000000 0.000000 0.000000 0.000000 0.032460 0.000000
# 6 0.000000 0.000000 0.000000 0.000000 0.000000 -0.299880
#
#
# Mechanical properties :
#
#
# Convention : Reuss Voigt Hill
#
# Bulk Modulus (GPa) = 48.20244 54.15858 51.18051
# Shear Modulus (GPa) = -33.25269 22.66773 -5.29248
#
# Velocity S-wave (km/s) = -4.10740 3.39123 -1.63864
# Velocity P-wave (km/s) = 1.40042 6.54303 4.73141
#
# Compressibility (1/GPa) = 0.02074584
#
# Stress axis : x y z
#
# Youngs Moduli (GPa) = 83.90551 50.74845 49.84263
#
# Poissons Ratio (x) = 0.14369 0.34827
# Poissons Ratio (y) = 0.23757 0.28168
# Poissons Ratio (z) = 0.58628 0.28680
#
# Static dielectric constant tensor:
#      x y z
#    x 1.651340 0.000000 0.000000 
#    y 0.000000 1.755780 0.000000 
#    z 0.000000 0.000000 1.661840 
# 
# From -- ./inp_files/5810.got.cif
#   From: 2010.05.17/outbox.ucp.g08.bks.cvg/sg49_3_cif.got.tgz:5810.got - 2010.06.11 16:40:14.
