data_PCOD9395430
_publ_section_title
;
Structure prediction by ZEFSAII (Michael W. Deem and Ramdas Pophale) SiO2 
 PCOD9395430
Probable space group: P B A N
;
_chemical_formula_sum "Si O2"
_cell_formula_units_Z 32
_cell_length_a 32.549499
_cell_length_b 5.398804
_cell_length_c 7.097864
_cell_angle_alpha 90.000000
_cell_angle_beta 90.000000
_cell_angle_gamma 90.000000
_cell_volume 1247.296039
_symmetry_space_group_name_H-M "P B A N"
_symmetry_group_IT_number 50
_space_group.IT_coordinate_system_code '2'
_symmetry_cell_setting 'orthorhombic'
loop_
_space_group_symop_operation_xyz
x,y,z
1/2-x,1/2-y,z
x,1/2-y,-z
1/2-x,y,-z
-x,-y,-z
1/2+x,1/2+y,-z
-x,1/2+y,z
1/2+x,-y,z
loop_
_atom_site_type_symbol
_atom_site_label
_atom_site_fract_x
_atom_site_fract_y
_atom_site_fract_z
Si Si1 0.859924 0.690159 0.285033
Si Si2 0.891436 0.194318 0.275169
Si Si3 0.516683 0.015770 0.785684
Si Si4 0.232421 0.496649 0.714002
O O1 0.873022 0.750000 0.500000
O O2 0.887789 0.474479 0.194758
O O3 0.816057 0.551700 0.291504
O O4 0.860294 0.973620 0.209732
O O5 0.886462 0.250000 0.500000
O O6 0.935910 0.085422 0.231084
O O7 0.492035 0.247208 0.702089
O O8 0.500000 0.000000 0.000000
O O9 0.250000 0.250000 0.803794
O O10 0.250000 0.498696 0.500000
O O11 0.250000 0.750000 0.795446
#
# Coordination Sequence:
#
# PCOD9395430 Si02
#       4
#     8   8   8   8
#     4  10  18  30  43  69 108 145 187 218 261 321
#     4  10  21  32  50  75 107 143 179 224 283 327
#     4  10  21  38  58  77  99 135 180 235 279 338
#     4  10  17  24  41  63  95 147 195 207 243 308
#
# _framework density 25.655495999999999
#
# number of rings (size 3 to 8) (size 9 to 14) (size 15 to 20)
#    0.000    2.000    2.500    3.000    7.000    1.000 
#    0.000    0.000    0.000    0.000    0.000    0.000 
#    0.000    0.000    0.000  315.000    0.000    0.000 
#
# Total GULP energy -178616.615586 kJ/mol
# GULP energy per Si atom -5581.769237 kJ/mol
# Density = 2.559710 g / cm^3
# Si number density = 25.655496 Si / 1000 Ang^3
#
#
#
# Elastic Constant Matrix: (Units=GPa)
#
#
# Indices 1 2 3 4 5 6 
#
# 1 128.1251 69.1707 -3.9291 0.0000 0.0000 0.0000
# 2 69.1707 312.6628 25.3223 0.0000 0.0000 0.0000
# 3 -3.9291 25.3223 117.5921 0.0000 0.0000 0.0000
# 4 0.0000 0.0000 0.0000 -30.5671 0.0000 0.0000
# 5 0.0000 0.0000 0.0000 0.0000 16.5355 0.0000
# 6 0.0000 0.0000 0.0000 0.0000 0.0000 35.0842
#
#
#
# Elastic Compliance Matrix: (Units=1/GPa)
#
#
# Indices 1 2 3 4 5 6 
#
# 1 0.008926 -0.002034 0.000736 0.000000 0.000000 0.000000
# 2 -0.002034 0.003719 -0.000869 0.000000 0.000000 0.000000
# 3 0.000736 -0.000869 0.008716 0.000000 0.000000 0.000000
# 4 0.000000 0.000000 0.000000 -0.032715 0.000000 0.000000
# 5 0.000000 0.000000 0.000000 0.000000 0.060476 0.000000
# 6 0.000000 0.000000 0.000000 0.000000 0.000000 0.028503
#
#
# Mechanical properties :
#
#
# Convention : Reuss Voigt Hill
#
# Bulk Modulus (GPa) = 58.73164 82.16753 70.44958
# Shear Modulus (GPa) = 57.05616 35.39828 46.22722
#
# Velocity S-wave (km/s) = 4.72098 3.71853 4.24942
# Velocity P-wave (km/s) = 7.25665 7.10869 7.18305
#
# Compressibility (1/GPa) = 0.01702660
#
# Stress axis : x y z
#
# Youngs Moduli (GPa) = 112.03615 268.90849 114.73611
#
# Poissons Ratio (x) = 0.54703 -0.08448
# Poissons Ratio (y) = 0.22791 0.09968
# Poissons Ratio (z) = -0.08249 0.23362
#
# Static dielectric constant tensor:
#      x y z
#    x 2.029350 0.000000 0.000000 
#    y 0.000000 2.061740 0.000000 
#    z 0.000000 0.000000 2.007950 
# 
# From -- ./inp_files/8000.got.cif
#   From: 2010.05.17/outbox.cif.g08.bks.cpg/sg50_4_cif.got.tgz:8000.got - 2010.06.03 11:33:33.
