data_PCOD9395324
_publ_section_title
;
Structure prediction by ZEFSAII (Michael W. Deem and Ramdas Pophale) SiO2 
 PCOD9395324
Probable space group: P C C M
;
_chemical_formula_sum "Si O2"
_cell_formula_units_Z 40
_cell_length_a 18.000000
_cell_length_b 15.000000
_cell_length_c 9.000000
_cell_angle_alpha 90.000000
_cell_angle_beta 90.000000
_cell_angle_gamma 90.000000
_cell_volume 2430.000000
_symmetry_space_group_name_H-M "P C C M"
_symmetry_group_IT_number 49
_symmetry_cell_setting 'orthorhombic'
loop_
_space_group_symop_operation_xyz
x,y,z
-x,-y,z
x,-y,1/2-z
-x,y,1/2-z
-x,-y,-z
x,y,-z
-x,y,1/2+z
x,-y,1/2+z
loop_
_atom_site_type_symbol
_atom_site_label
_atom_site_fract_x
_atom_site_fract_y
_atom_site_fract_z
Si Si1 0.694923 0.720955 0.176823
Si Si2 0.418326 0.407837 0.321529
Si Si3 0.159123 0.598096 0.676545
Si Si4 0.078513 0.776862 0.679640
Si Si5 0.781109 0.099306 0.320626
O O1 0.629238 0.677456 0.271359
O O2 0.763297 0.651421 0.197954
O O3 0.720692 0.822136 0.216207
O O4 0.677514 0.720696 0.000000
O O5 0.386589 0.500000 0.250000
O O6 0.500000 0.399391 0.250000
O O7 0.421583 0.416176 0.500000
O O8 0.155954 0.500000 0.750000
O O9 0.149467 0.584954 0.500000
O O10 0.101339 0.675606 0.726700
O O11 0.075427 0.776010 0.500000
O O12 0.141560 0.849987 0.719991
O O13 0.000000 0.800241 0.750000
O O14 0.779722 0.089345 0.500000
O O15 0.773223 0.000000 0.250000
#
# Coordination Sequence:
#
# PCOD9395324 Si02
#       5
#     8   8   8   8   8
#     4   9  18  34  52  72 100 131 163 205 248 290
#     4  11  21  33  51  77 108 140 170 200 236 283
#     4   9  18  31  47  67  94 127 163 199 241 289
#     4   9  19  34  48  67  95 127 160 200 247 295
#     4   9  19  35  54  74  98 126 161 205 253 300
#
# _framework density 16.460905
#
# number of rings (size 3 to 8) (size 9 to 14) (size 15 to 20)
#    0.000    2.600    0.000    5.400    0.000    5.600 
#    0.000    8.000    0.000    0.600    0.000    4.200 
#    0.000    0.000    0.000    0.000    0.000    0.000 
#
# Total GULP energy -222809.120145 kJ/mol
# GULP energy per Si atom -5570.228004 kJ/mol
# Density = 1.642344 g / cm^3
# Si number density = 16.460905 Si / 1000 Ang^3
#
#
#
# Elastic Constant Matrix: (Units=GPa)
#
#
# Indices 1 2 3 4 5 6 
#
# 1 64.7026 50.0220 38.2644 0.0000 0.0000 0.0000
# 2 50.0220 178.4351 55.2970 0.0000 0.0000 0.0000
# 3 38.2644 55.2970 70.4968 0.0000 0.0000 0.0000
# 4 0.0000 0.0000 0.0000 39.6792 0.0000 0.0000
# 5 0.0000 0.0000 0.0000 0.0000 24.8813 0.0000
# 6 0.0000 0.0000 0.0000 0.0000 0.0000 22.9153
#
#
#
# Elastic Compliance Matrix: (Units=1/GPa)
#
#
# Indices 1 2 3 4 5 6 
#
# 1 0.024408 -0.003616 -0.010412 0.000000 0.000000 0.000000
# 2 -0.003616 0.007940 -0.004265 0.000000 0.000000 0.000000
# 3 -0.010412 -0.004265 0.023182 0.000000 0.000000 0.000000
# 4 0.000000 0.000000 0.000000 0.025202 0.000000 0.000000
# 5 0.000000 0.000000 0.000000 0.000000 0.040191 0.000000
# 6 0.000000 0.000000 0.000000 0.000000 0.000000 0.043639
#
#
# Mechanical properties :
#
#
# Convention : Reuss Voigt Hill
#
# Bulk Modulus (GPa) = 52.78779 66.75571 59.77175
# Shear Modulus (GPa) = 24.10063 28.83191 26.46627
#
# Velocity S-wave (km/s) = 3.83052 4.18968 4.01412
# Velocity P-wave (km/s) = 7.19042 8.00292 7.60752
#
# Compressibility (1/GPa) = 0.01894377
#
# Stress axis : x y z
#
# Youngs Moduli (GPa) = 40.96946 125.94891 43.13654
#
# Poissons Ratio (x) = 0.45541 0.44915
# Poissons Ratio (y) = 0.14814 0.18399
# Poissons Ratio (z) = 0.42658 0.53720
#
# Static dielectric constant tensor:
#      x y z
#    x 1.592870 0.000000 0.000000 
#    y 0.000000 1.542640 0.000000 
#    z 0.000000 0.000000 1.551420 
# 
# From -- ./inp_files/2668.got.cif
#   From: 2010.05.17/outbox.ucp.g08.bks.cvg/sg49_2_cif.got.tgz:2668.got - 2010.06.11 16:40:14.
