data_PCOD9395593
_publ_section_title
;
Structure prediction by ZEFSAII (Michael W. Deem and Ramdas Pophale) SiO2 
 PCOD9395593
Probable space group: P B A N
;
_chemical_formula_sum "Si O2"
_cell_formula_units_Z 44
_cell_length_a 14.787706
_cell_length_b 15.312097
_cell_length_c 8.258016
_cell_angle_alpha 90.000000
_cell_angle_beta 90.000000
_cell_angle_gamma 90.000000
_cell_volume 1869.869076
_symmetry_space_group_name_H-M "P B A N"
_symmetry_group_IT_number 50
_space_group.IT_coordinate_system_code '2'
_symmetry_cell_setting 'orthorhombic'
loop_
_space_group_symop_operation_xyz
x,y,z
1/2-x,1/2-y,z
x,1/2-y,-z
1/2-x,y,-z
-x,-y,-z
1/2+x,1/2+y,-z
-x,1/2+y,z
1/2+x,-y,z
loop_
_atom_site_type_symbol
_atom_site_label
_atom_site_fract_x
_atom_site_fract_y
_atom_site_fract_z
Si Si1 0.750000 0.415263 0.000000
Si Si2 0.595860 0.158215 0.548005
Si Si3 0.116109 0.348986 0.474211
Si Si4 0.547682 0.569582 0.172355
Si Si5 0.571495 0.124061 0.917926
Si Si6 0.150808 0.513417 0.686667
O O1 0.835592 0.350768 0.997143
O O2 0.722316 0.467185 0.831333
O O3 0.637764 0.250000 0.500000
O O4 0.493339 0.153990 0.482861
O O5 0.575662 0.156671 0.737593
O O6 0.651322 0.079899 0.466752
O O7 0.147933 0.250000 0.500000
O O8 0.120188 0.389972 0.294629
O O9 0.152611 0.416748 0.608291
O O10 0.585361 0.481355 0.095295
O O11 0.452336 0.532768 0.248549
O O12 0.514411 0.635882 0.032424
#
# Coordination Sequence:
#
# PCOD9395593 Si02
#       6
#     4   8   8   8   8   8
#     4  10  24  34  57  79 118 168 200 232 313 361
#     4  10  19  34  61  89 115 150 199 252 305 358
#     4  10  18  33  60  92 114 147 196 255 304 354
#     4   9  17  33  61  81 113 146 189 249 308 339
#     4  10  18  35  57  83 112 153 192 245 301 365
#     4  10  18  38  55  86 118 153 198 250 287 370
#
# _framework density 23.531058999999999
#
# number of rings (size 3 to 8) (size 9 to 14) (size 15 to 20)
#    0.000    2.182    3.636    1.091    0.000    0.727 
#    0.000   17.273    0.000    4.364    0.000    0.000 
#    0.000    0.000    0.000    0.000    0.000    0.000 
#
# Total GULP energy -245055.883739 kJ/mol
# GULP energy per Si atom -5569.451903 kJ/mol
# Density = 2.347750 g / cm^3
# Si number density = 23.531059 Si / 1000 Ang^3
#
#
#
# Elastic Constant Matrix: (Units=GPa)
#
#
# Indices 1 2 3 4 5 6 
#
# 1 71.5971 14.7711 4.4226 0.0000 0.0000 0.0000
# 2 14.7711 138.6245 61.9491 0.0000 0.0000 0.0000
# 3 4.4226 61.9491 134.4802 0.0000 0.0000 0.0000
# 4 0.0000 0.0000 0.0000 6.0554 0.0000 0.0000
# 5 0.0000 0.0000 0.0000 0.0000 34.6797 0.0000
# 6 0.0000 0.0000 0.0000 0.0000 0.0000 -14.9166
#
#
#
# Elastic Compliance Matrix: (Units=1/GPa)
#
#
# Indices 1 2 3 4 5 6 
#
# 1 0.014290 -0.001653 0.000291 0.000000 0.000000 0.000000
# 2 -0.001653 0.009275 -0.004218 0.000000 0.000000 0.000000
# 3 0.000291 -0.004218 0.009370 0.000000 0.000000 0.000000
# 4 0.000000 0.000000 0.000000 0.165140 0.000000 0.000000
# 5 0.000000 0.000000 0.000000 0.000000 0.028835 0.000000
# 6 0.000000 0.000000 0.000000 0.000000 0.000000 -0.067039
#
#
# Mechanical properties :
#
#
# Convention : Reuss Voigt Hill
#
# Bulk Modulus (GPa) = 45.92363 56.33194 51.12779
# Shear Modulus (GPa) = 28.04442 22.73430 25.38936
#
# Velocity S-wave (km/s) = 3.45600 3.11165 3.28833
# Velocity P-wave (km/s) = 5.95683 6.07464 6.01602
#
# Compressibility (1/GPa) = 0.02177528
#
# Stress axis : x y z
#
# Youngs Moduli (GPa) = 69.97869 107.81787 106.72830
#
# Poissons Ratio (x) = 0.17822 -0.03111
# Poissons Ratio (y) = 0.11567 0.45020
# Poissons Ratio (z) = -0.02040 0.45480
#
# Static dielectric constant tensor:
#      x y z
#    x 1.939060 0.000000 0.000000 
#    y 0.000000 1.910820 0.000000 
#    z 0.000000 0.000000 2.005850 
# 
# From -- ./inp_files/14138.got.cif
#   From: 2010.05.17/outbox.cif.g08.bks.cpg/sg50_8_cif.got.tgz:14138.got - 2010.06.03 11:33:33.
