data_PCOD9395974
_publ_section_title
;
Structure prediction by ZEFSAII (Michael W. Deem and Ramdas Pophale) SiO2 
 PCOD9395974
Probable space group: P B A N
;
_chemical_formula_sum "Si O2"
_cell_formula_units_Z 56
_cell_length_a 27.828947
_cell_length_b 15.051007
_cell_length_c 5.704662
_cell_angle_alpha 90.000000
_cell_angle_beta 90.000000
_cell_angle_gamma 90.000000
_cell_volume 2389.418650
_symmetry_space_group_name_H-M "P B A N"
_symmetry_group_IT_number 50
_space_group.IT_coordinate_system_code '2'
_symmetry_cell_setting 'orthorhombic'
loop_
_space_group_symop_operation_xyz
x,y,z
1/2-x,1/2-y,z
x,1/2-y,-z
1/2-x,y,-z
-x,-y,-z
1/2+x,1/2+y,-z
-x,1/2+y,z
1/2+x,-y,z
loop_
_atom_site_type_symbol
_atom_site_label
_atom_site_fract_x
_atom_site_fract_y
_atom_site_fract_z
Si Si1 0.837752 0.971873 0.220378
Si Si2 0.695148 0.718726 0.249781
Si Si3 0.009055 0.348041 0.410493
Si Si4 0.654098 0.481986 0.717552
Si Si5 0.962564 0.019416 0.207099
Si Si6 0.254797 0.609635 0.749043
Si Si7 0.413093 0.656337 0.101081
O O1 0.804284 0.886721 0.245884
O O2 0.863027 0.975403 0.475080
O O3 0.805864 0.060881 0.230308
O O4 0.857809 0.964206 0.955165
O O5 0.750000 0.750000 0.250091
O O6 0.673166 0.750000 0.500000
O O7 0.673004 0.750000 0.000000
O O8 0.024720 0.250000 0.500000
O O9 0.046391 0.417795 0.292833
O O10 0.987747 0.413854 0.609316
O O11 0.963807 0.331058 0.235759
O O12 0.711276 0.463115 0.729592
O O13 0.626552 0.388188 0.735465
O O14 0.921700 0.083225 0.102452
O O15 0.000000 0.000000 0.000000
O O16 0.250000 0.656766 0.500000
O O17 0.250000 0.655422 0.000000
O O18 0.397611 0.750000 0.000000
#
# Coordination Sequence:
#
# PCOD9395974 Si02
#       7
#     8   8   8   8   8   8   8
#     4  10  20  36  53  82 118 156 217 264 317 380
#     4  10  21  28  51  84 111 139 193 272 340 359
#     4  10  19  36  65  96 127 162 206 264 313 375
#     4  10  22  33  57  82 117 166 202 246 323 381
#     4   9  20  36  59  96 128 158 204 249 319 369
#     4   8  16  29  51  70 106 145 207 249 298 355
#     4  11  22  37  59  93 132 161 205 263 319 387
#
# _framework density 23.436664
#
# number of rings (size 3 to 8) (size 9 to 14) (size 15 to 20)
#    0.000    2.286    1.429    0.857   14.000    0.000 
#    0.000    0.000    0.000    4.714   18.571   10.000 
#    0.000    0.000    0.000    0.000    0.000    0.000 
#
# Total GULP energy -311824.418689 kJ/mol
# GULP energy per Si atom -5568.293191 kJ/mol
# Density = 2.338332 g / cm^3
# Si number density = 23.436664 Si / 1000 Ang^3
#
#
#
# Elastic Constant Matrix: (Units=GPa)
#
#
# Indices 1 2 3 4 5 6 
#
# 1 45.4491 15.0547 8.0082 0.0000 0.0000 0.0000
# 2 15.0547 163.1703 41.9976 0.0000 0.0000 0.0000
# 3 8.0082 41.9976 211.0218 0.0000 0.0000 0.0000
# 4 0.0000 0.0000 0.0000 63.1679 0.0000 0.0000
# 5 0.0000 0.0000 0.0000 0.0000 9.0392 0.0000
# 6 0.0000 0.0000 0.0000 0.0000 0.0000 67.4845
#
#
#
# Elastic Compliance Matrix: (Units=1/GPa)
#
#
# Indices 1 2 3 4 5 6 
#
# 1 0.022740 -0.001977 -0.000469 0.000000 0.000000 0.000000
# 2 -0.001977 0.006631 -0.001245 0.000000 0.000000 0.000000
# 3 -0.000469 -0.001245 0.005004 0.000000 0.000000 0.000000
# 4 0.000000 0.000000 0.000000 0.015831 0.000000 0.000000
# 5 0.000000 0.000000 0.000000 0.000000 0.110630 0.000000
# 6 0.000000 0.000000 0.000000 0.000000 0.000000 0.014818
#
#
# Mechanical properties :
#
#
# Convention : Reuss Voigt Hill
#
# Bulk Modulus (GPa) = 37.04649 61.08471 49.06560
# Shear Modulus (GPa) = 26.03683 51.57701 38.80692
#
# Velocity S-wave (km/s) = 3.33670 4.69625 4.07359
# Velocity P-wave (km/s) = 5.53951 7.45162 6.56555
#
# Compressibility (1/GPa) = 0.02699311
#
# Stress axis : x y z
#
# Youngs Moduli (GPa) = 43.97473 150.79830 199.82444
#
# Poissons Ratio (x) = 0.29817 0.09381
# Poissons Ratio (y) = 0.08695 0.24873
# Poissons Ratio (z) = 0.02064 0.18770
#
# Static dielectric constant tensor:
#      x y z
#    x 1.914160 0.000000 0.000000 
#    y 0.000000 1.817840 0.000000 
#    z 0.000000 0.000000 2.020900 
# 
# From -- ./inp_files/7200.got.cif
#   From: 2010.05.17/outbox.cif.g08.bks.cpg/sg50_4_cif.got.tgz:7200.got - 2010.06.03 11:33:33.
