data_PCOD9395962
_publ_section_title
;
Structure prediction by ZEFSAII (Michael W. Deem and Ramdas Pophale) SiO2 
 PCOD9395962
Probable space group: P B A N
;
_chemical_formula_sum "Si O2"
_cell_formula_units_Z 48
_cell_length_a 27.288172
_cell_length_b 9.203959
_cell_length_c 9.050584
_cell_angle_alpha 90.000000
_cell_angle_beta 90.000000
_cell_angle_gamma 90.000000
_cell_volume 2273.137584
_symmetry_space_group_name_H-M "P B A N"
_symmetry_group_IT_number 50
_space_group.IT_coordinate_system_code '2'
_symmetry_cell_setting 'orthorhombic'
loop_
_space_group_symop_operation_xyz
x,y,z
1/2-x,1/2-y,z
x,1/2-y,-z
1/2-x,y,-z
-x,-y,-z
1/2+x,1/2+y,-z
-x,1/2+y,z
1/2+x,-y,z
loop_
_atom_site_type_symbol
_atom_site_label
_atom_site_fract_x
_atom_site_fract_y
_atom_site_fract_z
Si Si1 0.035820 0.959078 0.367716
Si Si2 0.393756 0.852020 0.139444
Si Si3 0.996827 0.696707 0.160357
Si Si4 0.688077 0.915361 0.843734
Si Si5 0.861452 0.136501 0.610109
Si Si6 0.798438 0.918874 0.801688
O O1 0.012612 0.825284 0.273395
O O2 0.088301 0.935342 0.446579
O O3 0.000000 0.000000 0.500000
O O4 0.038717 0.088519 0.247318
O O5 0.451381 0.885378 0.125110
O O6 0.384856 0.740809 0.269100
O O7 0.359776 0.988233 0.179691
O O8 0.379135 0.750000 0.000000
O O9 0.978379 0.750000 0.000000
O O10 0.741204 0.960258 0.780475
O O11 0.686494 0.750310 0.784168
O O12 0.693211 0.930737 0.021808
O O13 0.835951 0.250000 0.500000
O O14 0.828673 0.019979 0.693068
#
# Coordination Sequence:
#
# PCOD9395962 Si02
#       6
#     8   8   8   8   8   8
#     4  11  22  41  62  87 123 175 217 262 330 402
#     4  10  19  36  61  92 126 166 211 263 323 380
#     4  10  22  38  60  91 127 161 218 284 323 373
#     4   9  18  37  63  93 126 161 212 258 324 385
#     4  11  23  40  59  90 128 163 214 269 320 391
#     4   9  19  37  62  93 126 163 208 269 313 383
#
# _framework density 21.116188000000001
#
# number of rings (size 3 to 8) (size 9 to 14) (size 15 to 20)
#    0.000    2.000    1.667    4.000    0.000    2.000 
#    3.000    4.167    0.000    2.000    0.000    0.000 
#    0.000    0.000    0.000    0.000    0.000    0.000 
#
# Total GULP energy -267364.040072 kJ/mol
# GULP energy per Si atom -5570.084168 kJ/mol
# Density = 2.106813 g / cm^3
# Si number density = 21.116188 Si / 1000 Ang^3
#
#
#
# Elastic Constant Matrix: (Units=GPa)
#
#
# Indices 1 2 3 4 5 6 
#
# 1 70.0001 45.8805 26.4588 0.0000 0.0000 0.0000
# 2 45.8805 72.3317 31.5663 0.0000 0.0000 0.0000
# 3 26.4588 31.5663 60.3741 0.0000 0.0000 0.0000
# 4 0.0000 0.0000 0.0000 34.6350 0.0000 0.0000
# 5 0.0000 0.0000 0.0000 0.0000 30.9903 0.0000
# 6 0.0000 0.0000 0.0000 0.0000 0.0000 153.7472
#
#
#
# Elastic Compliance Matrix: (Units=1/GPa)
#
#
# Indices 1 2 3 4 5 6 
#
# 1 0.024994 -0.014348 -0.003452 0.000000 0.000000 0.000000
# 2 -0.014348 0.026148 -0.007384 0.000000 0.000000 0.000000
# 3 -0.003452 -0.007384 0.021937 0.000000 0.000000 0.000000
# 4 0.000000 0.000000 0.000000 0.028873 0.000000 0.000000
# 5 0.000000 0.000000 0.000000 0.000000 0.032268 0.000000
# 6 0.000000 0.000000 0.000000 0.000000 0.000000 0.006504
#
#
# Mechanical properties :
#
#
# Convention : Reuss Voigt Hill
#
# Bulk Modulus (GPa) = 44.02840 45.61301 44.82071
# Shear Modulus (GPa) = 25.16835 50.46119 37.81477
#
# Velocity S-wave (km/s) = 3.45613 4.89375 4.23637
# Velocity P-wave (km/s) = 6.06814 7.31981 6.72316
#
# Compressibility (1/GPa) = 0.02271261
#
# Stress axis : x y z
#
# Youngs Moduli (GPa) = 40.00889 38.24345 45.58543
#
# Poissons Ratio (x) = 0.54870 0.15737
# Poissons Ratio (y) = 0.57403 0.33659
# Poissons Ratio (z) = 0.13812 0.28238
#
# Static dielectric constant tensor:
#      x y z
#    x 1.885270 0.000000 0.000000 
#    y 0.000000 1.850530 0.000000 
#    z 0.000000 0.000000 1.745560 
# 
# From -- ./inp_files/16969.got.cif
#   From: 2010.05.17/outbox.cif.g08.bks.cpg/sg50_9_cif.got.tgz:16969.got - 2010.06.03 11:33:33.
