data_PCOD9395717
_publ_section_title
;
Structure prediction by ZEFSAII (Michael W. Deem and Ramdas Pophale) SiO2 
 PCOD9395717
Probable space group: P B A N
;
_chemical_formula_sum "Si O2"
_cell_formula_units_Z 40
_cell_length_a 5.153141
_cell_length_b 17.437205
_cell_length_c 22.379974
_cell_angle_alpha 90.000000
_cell_angle_beta 90.000000
_cell_angle_gamma 90.000000
_cell_volume 2010.983359
_symmetry_space_group_name_H-M "P B A N"
_symmetry_group_IT_number 50
_space_group.IT_coordinate_system_code '2'
_symmetry_cell_setting 'orthorhombic'
loop_
_space_group_symop_operation_xyz
x,y,z
1/2-x,1/2-y,z
x,1/2-y,-z
1/2-x,y,-z
-x,-y,-z
1/2+x,1/2+y,-z
-x,1/2+y,z
1/2+x,-y,z
loop_
_atom_site_type_symbol
_atom_site_label
_atom_site_fract_x
_atom_site_fract_y
_atom_site_fract_z
Si Si1 0.875757 0.554360 0.308978
Si Si2 0.997444 0.200490 0.087624
Si Si3 0.656236 0.030507 0.933537
Si Si4 0.726829 0.551598 0.434837
Si Si5 0.999384 0.799829 0.768868
O O1 0.606929 0.507741 0.303204
O O2 0.827601 0.592398 0.374892
O O3 0.954564 0.619454 0.262653
O O4 0.250000 0.250000 0.071610
O O5 0.991879 0.190278 0.159394
O O6 0.750000 0.250000 0.069846
O O7 0.962893 0.115050 0.062889
O O8 0.440393 0.976149 0.903233
O O9 0.750000 0.006059 0.000000
O O10 0.750000 0.589539 0.500000
O O11 0.430848 0.520589 0.433318
O O12 0.750000 0.750000 0.754393
O O13 0.250000 0.750000 0.751128
#
# Coordination Sequence:
#
# PCOD9395717 Si02
#       5
#     8   8   8   8   8
#     4  10  19  31  51  78 101 130 179 222 255 310
#     4  10  21  37  56  78 105 141 182 216 255 315
#     4  10  21  37  56  80 109 137 168 214 270 314
#     4   8  14  25  42  67  97 125 159 209 258 296
#     4  10  21  36  52  74 108 143 172 214 272 317
#
# _framework density 19.890764000000001
#
# number of rings (size 3 to 8) (size 9 to 14) (size 15 to 20)
#    0.000    2.400    0.000    2.400    0.000    2.000 
#    0.000    1.000    0.000    0.600    0.000    1.400 
#    0.000    0.000    0.000    0.000    0.000    0.000 
#
# Total GULP energy -222675.804453 kJ/mol
# GULP energy per Si atom -5566.895111 kJ/mol
# Density = 1.984549 g / cm^3
# Si number density = 19.890764 Si / 1000 Ang^3
#
#
#
# Elastic Constant Matrix: (Units=GPa)
#
#
# Indices 1 2 3 4 5 6 
#
# 1 160.0052 48.1316 19.6917 0.0000 0.0000 0.0000
# 2 48.1316 102.5942 36.9975 0.0000 0.0000 0.0000
# 3 19.6917 36.9975 65.4572 0.0000 0.0000 0.0000
# 4 0.0000 0.0000 0.0000 40.6913 0.0000 0.0000
# 5 0.0000 0.0000 0.0000 0.0000 52.9112 0.0000
# 6 0.0000 0.0000 0.0000 0.0000 0.0000 18.7618
#
#
#
# Elastic Compliance Matrix: (Units=1/GPa)
#
#
# Indices 1 2 3 4 5 6 
#
# 1 0.007282 -0.003299 -0.000326 0.000000 0.000000 0.000000
# 2 -0.003299 0.013737 -0.006772 0.000000 0.000000 0.000000
# 3 -0.000326 -0.006772 0.019203 0.000000 0.000000 0.000000
# 4 0.000000 0.000000 0.000000 0.024575 0.000000 0.000000
# 5 0.000000 0.000000 0.000000 0.000000 0.018900 0.000000
# 6 0.000000 0.000000 0.000000 0.000000 0.000000 0.053300
#
#
# Mechanical properties :
#
#
# Convention : Reuss Voigt Hill
#
# Bulk Modulus (GPa) = 51.47168 59.74425 55.60797
# Shear Modulus (GPa) = 30.43836 37.35525 33.89680
#
# Velocity S-wave (km/s) = 3.91612 4.33831 4.13261
# Velocity P-wave (km/s) = 6.81038 7.42940 7.12662
#
# Compressibility (1/GPa) = 0.01942816
#
# Stress axis : x y z
#
# Youngs Moduli (GPa) = 137.31996 72.79691 52.07546
#
# Poissons Ratio (x) = 0.24014 0.01699
# Poissons Ratio (y) = 0.45299 0.35265
# Poissons Ratio (z) = 0.04480 0.49297
#
# Static dielectric constant tensor:
#      x y z
#    x 1.809330 0.000000 0.000000 
#    y 0.000000 1.502560 0.000000 
#    z 0.000000 0.000000 1.867470 
# 
# From -- ./inp_files/31410.got.cif
#   From: 2010.05.17/outbox.cif.g08.bks.cpg/sg50_16_cif.got.tgz:31410.got - 2010.06.03 11:33:33.
