data_PCOD9395978
_publ_section_title
;
Structure prediction by ZEFSAII (Michael W. Deem and Ramdas Pophale) SiO2 
 PCOD9395978
Probable space group: P B A N
;
_chemical_formula_sum "Si O2"
_cell_formula_units_Z 48
_cell_length_a 5.876919
_cell_length_b 25.926015
_cell_length_c 14.230252
_cell_angle_alpha 90.000000
_cell_angle_beta 90.000000
_cell_angle_gamma 90.000000
_cell_volume 2168.193629
_symmetry_space_group_name_H-M "P B A N"
_symmetry_group_IT_number 50
_space_group.IT_coordinate_system_code '2'
_symmetry_cell_setting 'orthorhombic'
loop_
_space_group_symop_operation_xyz
x,y,z
1/2-x,1/2-y,z
x,1/2-y,-z
1/2-x,y,-z
-x,-y,-z
1/2+x,1/2+y,-z
-x,1/2+y,z
1/2+x,-y,z
loop_
_atom_site_type_symbol
_atom_site_label
_atom_site_fract_x
_atom_site_fract_y
_atom_site_fract_z
Si Si1 0.124605 0.798600 0.153962
Si Si2 0.500000 0.631968 0.750000
Si Si3 0.651409 0.103118 0.399205
Si Si4 0.375395 0.201400 0.346038
Si Si5 0.500000 0.471925 0.750000
Si Si6 0.348590 0.103118 0.100795
O O1 0.250000 0.750000 0.106966
O O2 0.324199 0.834005 0.192543
O O3 0.000000 0.779781 0.250000
O O4 0.957738 0.838675 0.100340
O O5 0.361386 0.602347 0.672251
O O6 0.675801 0.665995 0.692543
O O7 0.638614 0.602347 0.827749
O O8 0.750000 0.089221 0.500000
O O9 0.542262 0.161325 0.399660
O O10 0.486944 0.063759 0.344644
O O11 0.250000 0.250000 0.393034
O O12 0.250000 0.500000 0.750000
O O13 0.513056 0.436241 0.844643
O O14 0.250000 0.089221 0.000000
#
# Coordination Sequence:
#
# PCOD9395978 Si02
#       6
#     8   8   8   8   8   8
#     4  10  19  36  70  99 136 193 239 294 363 446
#     4  10  19  41  66  96 138 188 237 291 362 434
#     4  11  25  45  71 102 146 193 240 306 381 448
#     4  10  19  36  70  99 136 193 239 294 363 446
#     4  12  27  49  78 112 148 190 259 327 384 454
#     4  11  25  45  71 102 146 193 240 306 381 448
#
# _framework density 22.138245999999999
#
# number of rings (size 3 to 8) (size 9 to 14) (size 15 to 20)
#    0.000    1.333    6.667    1.000    0.000    2.667 
#    0.000    5.000    0.000    0.000    0.000    0.000 
#    0.000    0.000    0.000    0.000    0.000    0.000 
#
# Total GULP energy -267494.418655 kJ/mol
# GULP energy per Si atom -5572.800389 kJ/mol
# Density = 2.208786 g / cm^3
# Si number density = 22.138246 Si / 1000 Ang^3
#
#
#
# Elastic Constant Matrix: (Units=GPa)
#
#
# Indices 1 2 3 4 5 6 
#
# 1 123.8039 51.5427 47.3863 0.0000 0.0000 0.0000
# 2 51.5427 107.4363 72.7956 0.0000 0.0000 0.0000
# 3 47.3863 72.7956 133.2359 0.0000 0.0000 0.0000
# 4 0.0000 0.0000 0.0000 5.1665 0.0000 0.0000
# 5 0.0000 0.0000 0.0000 0.0000 26.2904 0.0000
# 6 0.0000 0.0000 0.0000 0.0000 0.0000 41.0111
#
#
#
# Elastic Compliance Matrix: (Units=1/GPa)
#
#
# Indices 1 2 3 4 5 6 
#
# 1 0.010285 -0.003899 -0.001528 0.000000 0.000000 0.000000
# 2 -0.003899 0.016257 -0.007496 0.000000 0.000000 0.000000
# 3 -0.001528 -0.007496 0.012144 0.000000 0.000000 0.000000
# 4 0.000000 0.000000 0.000000 0.193555 0.000000 0.000000
# 5 0.000000 0.000000 0.000000 0.000000 0.038037 0.000000
# 6 0.000000 0.000000 0.000000 0.000000 0.000000 0.024384
#
#
# Mechanical properties :
#
#
# Convention : Reuss Voigt Hill
#
# Bulk Modulus (GPa) = 77.87127 78.65838 78.26482
# Shear Modulus (GPa) = 15.39467 27.34371 21.36919
#
# Velocity S-wave (km/s) = 2.63988 3.51826 3.11024
# Velocity P-wave (km/s) = 6.67408 7.21886 6.95181
#
# Compressibility (1/GPa) = 0.01284171
#
# Stress axis : x y z
#
# Youngs Moduli (GPa) = 97.22537 61.51046 82.34415
#
# Poissons Ratio (x) = 0.23985 0.12579
# Poissons Ratio (y) = 0.37912 0.61722
# Poissons Ratio (z) = 0.14852 0.46106
#
# Static dielectric constant tensor:
#      x y z
#    x 1.733520 0.000000 0.000000 
#    y 0.000000 1.919330 0.000000 
#    z 0.000000 0.000000 1.932180 
# 
# From -- ./inp_files/24074.got.cif
#   From: 2010.05.17/outbox.cif.g08.bks.cpg/sg50_13_cif.got.tgz:24074.got - 2010.06.03 11:33:33.
