data_PCOD9395039
_publ_section_title
;
Structure prediction by ZEFSAII (Michael W. Deem and Ramdas Pophale) SiO2 
 PCOD9395039
Probable space group: P C C M
;
_chemical_formula_sum "Si O2"
_cell_formula_units_Z 48
_cell_length_a 14.943190
_cell_length_b 17.352913
_cell_length_c 9.350298
_cell_angle_alpha 90.000000
_cell_angle_beta 90.000000
_cell_angle_gamma 90.000000
_cell_volume 2424.605914
_symmetry_space_group_name_H-M "P C C M"
_symmetry_group_IT_number 49
_symmetry_cell_setting 'orthorhombic'
loop_
_space_group_symop_operation_xyz
x,y,z
-x,-y,z
x,-y,1/2-z
-x,y,1/2-z
-x,-y,-z
x,y,-z
-x,y,1/2+z
x,-y,1/2+z
loop_
_atom_site_type_symbol
_atom_site_label
_atom_site_fract_x
_atom_site_fract_y
_atom_site_fract_z
Si Si1 0.915028 0.882921 0.000000
Si Si2 0.767098 0.681130 0.333908
Si Si3 0.096247 0.422013 0.174099
Si Si4 0.586398 0.866268 0.838947
Si Si5 0.785188 0.857447 0.743083
Si Si6 0.411917 0.678376 0.666037
Si Si7 0.889542 0.065826 0.000000
O O1 0.858808 0.850340 0.132179
O O2 0.023046 0.877508 0.000000
O O3 0.908459 0.975619 0.000000
O O4 0.775544 0.656731 0.500000
O O5 0.842332 0.646580 0.230482
O O6 0.772330 0.773744 0.327290
O O7 0.673662 0.657272 0.261040
O O8 0.132587 0.500000 0.250000
O O9 0.000000 0.411764 0.250000
O O10 0.090878 0.427370 0.000000
O O11 0.500000 0.892045 0.750000
O O12 0.686750 0.885716 0.788989
O O13 0.585172 0.772226 0.838443
O O14 0.575290 0.893476 0.000000
O O15 0.829996 0.915769 0.635404
O O16 0.500000 0.652016 0.750000
O O17 0.406797 0.652957 0.500000
#
# Coordination Sequence:
#
# PCOD9395039 Si02
#       7
#     4   8   8   8   8   8   4
#     4  11  24  42  63  81 118 152 209 244 307 367
#     4  11  22  37  58  90 124 156 202 249 297 348
#     4  11  23  41  63  87 121 162 203 243 298 360
#     4   9  18  31  54  83 114 150 187 237 297 359
#     4  11  22  39  61  89 121 151 200 255 302 352
#     4   9  17  30  52  83 119 156 194 240 296 351
#     4  11  24  42  61  87 108 164 199 250 301 371
#
# _framework density 19.797031
#
# number of rings (size 3 to 8) (size 9 to 14) (size 15 to 20)
#    0.000    1.667    1.667    4.000    3.500    4.667 
#    0.000    0.000    0.000    3.500    0.000    3.500 
#    0.000    0.000    0.000    0.000    0.000    0.000 
#
# Total GULP energy -267718.628322 kJ/mol
# GULP energy per Si atom -5577.471423 kJ/mol
# Density = 1.975197 g / cm^3
# Si number density = 19.797031 Si / 1000 Ang^3
#
#
#
# Elastic Constant Matrix: (Units=GPa)
#
#
# Indices 1 2 3 4 5 6 
#
# 1 128.0018 13.1303 60.3936 0.0000 0.0000 0.0000
# 2 13.1303 18.7499 11.7570 0.0000 0.0000 0.0000
# 3 60.3936 11.7570 179.0230 0.0000 0.0000 0.0000
# 4 0.0000 0.0000 0.0000 31.1518 0.0000 0.0000
# 5 0.0000 0.0000 0.0000 0.0000 29.0208 0.0000
# 6 0.0000 0.0000 0.0000 0.0000 0.0000 -644.5988
#
#
#
# Elastic Compliance Matrix: (Units=1/GPa)
#
#
# Indices 1 2 3 4 5 6 
#
# 1 0.009713 -0.004951 -0.002951 0.000000 0.000000 0.000000
# 2 -0.004951 0.058148 -0.002149 0.000000 0.000000 0.000000
# 3 -0.002951 -0.002149 0.006723 0.000000 0.000000 0.000000
# 4 0.000000 0.000000 0.000000 0.032101 0.000000 0.000000
# 5 0.000000 0.000000 0.000000 0.000000 0.034458 0.000000
# 6 0.000000 0.000000 0.000000 0.000000 0.000000 -0.001551
#
#
# Mechanical properties :
#
#
# Convention : Reuss Voigt Hill
#
# Bulk Modulus (GPa) = 18.35486 55.14852 36.75169
# Shear Modulus (GPa) = 28.11296 -100.85234 -36.36969
#
# Velocity S-wave (km/s) = 3.77246 -7.14519 -4.29082
# Velocity P-wave (km/s) = 5.31666 6.33674 2.43797
#
# Compressibility (1/GPa) = 0.05448148
#
# Stress axis : x y z
#
# Youngs Moduli (GPa) = 102.95658 17.19745 148.75059
#
# Poissons Ratio (x) = 0.08515 0.43903
# Poissons Ratio (y) = 0.50975 0.31960
# Poissons Ratio (z) = 0.30387 0.03695
#
# Static dielectric constant tensor:
#      x y z
#    x 1.716280 0.000000 0.000000 
#    y 0.000000 1.718070 0.000000 
#    z 0.000000 0.000000 1.713780 
# 
# From -- ./inp_files/3755.got.cif
#   From: 2010.05.17/outbox.cif.g08.bks.cpg/sg49_2_cif.got.tgz:3755.got - 2010.06.03 21:02:19.
