data_PCOD9395961
_publ_section_title
;
Structure prediction by ZEFSAII (Michael W. Deem and Ramdas Pophale) SiO2 
 PCOD9395961
Probable space group: P B A N
;
_chemical_formula_sum "Si O2"
_cell_formula_units_Z 58
_cell_length_a 19.366280
_cell_length_b 17.084012
_cell_length_c 9.170674
_cell_angle_alpha 90.000000
_cell_angle_beta 90.000000
_cell_angle_gamma 90.000000
_cell_volume 3034.151974
_symmetry_space_group_name_H-M "P B A N"
_symmetry_group_IT_number 50
_space_group.IT_coordinate_system_code '2'
_symmetry_cell_setting 'orthorhombic'
loop_
_space_group_symop_operation_xyz
x,y,z
1/2-x,1/2-y,z
x,1/2-y,-z
1/2-x,y,-z
-x,-y,-z
1/2+x,1/2+y,-z
-x,1/2+y,z
1/2+x,-y,z
loop_
_atom_site_type_symbol
_atom_site_label
_atom_site_fract_x
_atom_site_fract_y
_atom_site_fract_z
Si Si1 0.159654 0.624895 0.671573
Si Si2 0.478479 0.590310 0.509049
Si Si3 0.737968 0.010764 0.822894
Si Si4 0.579833 0.053088 0.804474
Si Si5 0.250000 0.750000 0.500000
Si Si6 0.565569 0.166941 0.068190
Si Si7 0.564398 0.868371 0.750774
Si Si8 0.779407 0.831367 0.167319
O O1 0.094052 0.601795 0.573585
O O2 0.208258 0.553945 0.718987
O O3 0.202463 0.693310 0.596005
O O4 0.127218 0.652327 0.821933
O O5 0.500000 0.500000 0.500000
O O6 0.459793 0.601776 0.678467
O O7 0.538334 0.635669 0.418502
O O8 0.741840 0.918641 0.783216
O O9 0.662977 0.048469 0.789683
O O10 0.750000 0.018173 0.000000
O O11 0.560794 0.961129 0.792522
O O12 0.562571 0.095606 0.954664
O O13 0.494558 0.172052 0.155834
O O14 0.578793 0.250000 0.000000
O O15 0.638324 0.834668 0.799972
O O16 0.750000 0.750000 0.232214
O O17 0.750000 0.830537 0.000000
#
# Coordination Sequence:
#
# PCOD9395961 Si02
#       8
#     8   8   8   8   2   8   8   8
#     4  11  24  40  60  87 126 167 218 255 321 381
#     4   9  20  40  63  88 121 162 213 259 317 384
#     4  10  19  36  61  91 125 160 210 259 314 376
#     4  10  19  38  63  86 121 164 205 258 316 370
#     4  12  28  40  66  88 134 184 220 268 320 408
#     4  11  24  36  57  90 122 157 212 263 313 372
#     4   9  20  39  59  90 123 157 206 260 312 391
#     4   9  19  35  62  94 128 156 200 268 324 384
#
# _framework density 19.115721000000001
#
# number of rings (size 3 to 8) (size 9 to 14) (size 15 to 20)
#    0.000    2.069    1.379    1.241    5.793    0.000 
#    0.000    0.000    0.000    0.000    0.000   15.931 
#    0.000    0.000    0.000    0.000    0.000    0.000 
#
# Total GULP energy -323049.567063 kJ/mol
# GULP energy per Si atom -5569.820122 kJ/mol
# Density = 1.907221 g / cm^3
# Si number density = 19.115721 Si / 1000 Ang^3
#
#
#
# Elastic Constant Matrix: (Units=GPa)
#
#
# Indices 1 2 3 4 5 6 
#
# 1 98.0293 45.9485 41.6011 0.0000 0.0000 0.0000
# 2 45.9485 83.5217 31.8265 0.0000 0.0000 0.0000
# 3 41.6011 31.8265 92.2662 0.0000 0.0000 0.0000
# 4 0.0000 0.0000 0.0000 2.7226 0.0000 0.0000
# 5 0.0000 0.0000 0.0000 0.0000 42.3681 0.0000
# 6 0.0000 0.0000 0.0000 0.0000 0.0000 8.5889
#
#
#
# Elastic Compliance Matrix: (Units=1/GPa)
#
#
# Indices 1 2 3 4 5 6 
#
# 1 0.015265 -0.006649 -0.004589 0.000000 0.000000 0.000000
# 2 -0.006649 0.016681 -0.002756 0.000000 0.000000 0.000000
# 3 -0.004589 -0.002756 0.013858 0.000000 0.000000 0.000000
# 4 0.000000 0.000000 0.000000 0.367295 0.000000 0.000000
# 5 0.000000 0.000000 0.000000 0.000000 0.023603 0.000000
# 6 0.000000 0.000000 0.000000 0.000000 0.000000 0.116430
#
#
# Mechanical properties :
#
#
# Convention : Reuss Voigt Hill
#
# Bulk Modulus (GPa) = 56.13087 56.95216 56.54151
# Shear Modulus (GPa) = 8.51703 21.03199 14.77451
#
# Velocity S-wave (km/s) = 2.11310 3.32059 2.78312
# Velocity P-wave (km/s) = 5.94820 6.67531 6.32222
#
# Compressibility (1/GPa) = 0.01781551
#
# Stress axis : x y z
#
# Youngs Moduli (GPa) = 65.50847 59.94799 72.16026
#
# Poissons Ratio (x) = 0.39861 0.33116
# Poissons Ratio (y) = 0.43558 0.19887
# Poissons Ratio (z) = 0.30063 0.16522
#
# Static dielectric constant tensor:
#      x y z
#    x 1.606060 0.000000 0.000000 
#    y 0.000000 1.641690 0.000000 
#    z 0.000000 0.000000 1.684000 
# 
# From -- ./inp_files/14474.got.cif
#   From: 2010.05.17/outbox.cif.g08.bks.cpg/sg50_8_cif.got.tgz:14474.got - 2010.06.03 11:33:33.
