data_PCOD9395495
_publ_section_title
;
Structure prediction by ZEFSAII (Michael W. Deem and Ramdas Pophale) SiO2 
 PCOD9395495
Probable space group: P B A N
;
_chemical_formula_sum "Si O2"
_cell_formula_units_Z 48
_cell_length_a 7.039950
_cell_length_b 27.617779
_cell_length_c 10.339066
_cell_angle_alpha 90.000000
_cell_angle_beta 90.000000
_cell_angle_gamma 90.000000
_cell_volume 2010.201683
_symmetry_space_group_name_H-M "P B A N"
_symmetry_group_IT_number 50
_space_group.IT_coordinate_system_code '2'
_symmetry_cell_setting 'orthorhombic'
loop_
_space_group_symop_operation_xyz
x,y,z
1/2-x,1/2-y,z
x,1/2-y,-z
1/2-x,y,-z
-x,-y,-z
1/2+x,1/2+y,-z
-x,1/2+y,z
1/2+x,-y,z
loop_
_atom_site_type_symbol
_atom_site_label
_atom_site_fract_x
_atom_site_fract_y
_atom_site_fract_z
Si Si1 0.452702 0.222002 0.878752
Si Si2 0.478130 0.931171 0.764743
Si Si3 0.480072 0.403442 0.483712
Si Si4 0.960855 0.795033 0.574380
Si Si5 0.421323 0.042219 0.761434
Si Si6 0.528302 0.612235 0.976597
O O1 0.250000 0.250000 0.875494
O O2 0.487164 0.219499 0.724834
O O3 0.470929 0.166255 0.922340
O O4 0.549615 0.250000 0.000000
O O5 0.426828 0.913194 0.622229
O O6 0.409281 0.985621 0.788631
O O7 0.707544 0.937264 0.757926
O O8 0.433719 0.895376 0.883539
O O9 0.250000 0.403403 0.500000
O O10 0.533364 0.349742 0.437357
O O11 0.513537 0.444777 0.376555
O O12 0.049411 0.750000 0.500000
O O13 0.750000 0.798421 0.500000
O O14 0.529732 0.072033 0.872238
O O15 0.750000 0.601761 0.000000
#
# Coordination Sequence:
#
# PCOD9395495 Si02
#       6
#     8   8   8   8   8   8
#     4  11  19  26  43  67 100 134 165 194 252 321
#     4  10  21  32  53  69 101 137 173 208 257 294
#     4   9  18  29  47  67  99 131 164 206 251 296
#     4  10  18  26  41  65  97 132 164 196 255 310
#     4  10  19  35  48  72  98 137 169 214 249 299
#     4  10  19  30  44  68 100 133 164 204 251 298
#
# _framework density 23.878202000000002
#
# number of rings (size 3 to 8) (size 9 to 14) (size 15 to 20)
#    0.000    2.000    5.000    1.000    4.667    0.000 
#    0.000    0.000    0.000    0.000    0.000    0.000 
#    0.000    8.000    0.000    0.000    0.000    0.000 
#
# Total GULP energy -267563.806707 kJ/mol
# GULP energy per Si atom -5574.245973 kJ/mol
# Density = 2.382385 g / cm^3
# Si number density = 23.878202 Si / 1000 Ang^3
#
#
#
# Elastic Constant Matrix: (Units=GPa)
#
#
# Indices 1 2 3 4 5 6 
#
# 1 75.5174 -7.2101 0.8671 0.0000 0.0000 0.0000
# 2 -7.2101 150.4544 99.6856 0.0000 0.0000 0.0000
# 3 0.8671 99.6856 250.1118 0.0000 0.0000 0.0000
# 4 0.0000 0.0000 0.0000 41.7124 0.0000 0.0000
# 5 0.0000 0.0000 0.0000 0.0000 -26.7309 0.0000
# 6 0.0000 0.0000 0.0000 0.0000 0.0000 -152.7808
#
#
#
# Elastic Compliance Matrix: (Units=1/GPa)
#
#
# Indices 1 2 3 4 5 6 
#
# 1 0.013334 0.000910 -0.000409 0.000000 0.000000 0.000000
# 2 0.000910 0.009094 -0.003628 0.000000 0.000000 0.000000
# 3 -0.000409 -0.003628 0.005445 0.000000 0.000000 0.000000
# 4 0.000000 0.000000 0.000000 0.023974 0.000000 0.000000
# 5 0.000000 0.000000 0.000000 0.000000 -0.037410 0.000000
# 6 0.000000 0.000000 0.000000 0.000000 0.000000 -0.006545
#
#
# Mechanical properties :
#
#
# Convention : Reuss Voigt Hill
#
# Bulk Modulus (GPa) = 46.25450 73.64097 59.94774
# Shear Modulus (GPa) = 234.18523 -2.04378 116.07072
#
# Velocity S-wave (km/s) = 9.91402 -0.92616 6.97961
# Velocity P-wave (km/s) = 12.26636 5.45559 9.49281
#
# Compressibility (1/GPa) = 0.02161952
#
# Stress axis : x y z
#
# Youngs Moduli (GPa) = 74.99885 109.96727 183.63997
#
# Poissons Ratio (x) = -0.10006 0.07508
# Poissons Ratio (y) = -0.06824 0.66616
# Poissons Ratio (z) = 0.03066 0.39891
#
# Static dielectric constant tensor:
#      x y z
#    x 2.010180 0.000000 0.000000 
#    y 0.000000 1.817300 0.000000 
#    z 0.000000 0.000000 1.969200 
# 
# From -- ./inp_files/11525.got.cif
#   From: 2010.05.17/outbox.cif.g08.bks.cpg/sg50_6_cif.got.tgz:11525.got - 2010.06.03 11:33:33.
