data_PCOD9395148
_publ_section_title
;
Structure prediction by ZEFSAII (Michael W. Deem and Ramdas Pophale) SiO2 
 PCOD9395148
Probable space group: P C C M
;
_chemical_formula_sum "Si O2"
_cell_formula_units_Z 64
_cell_length_a 14.706038
_cell_length_b 11.661689
_cell_length_c 16.914584
_cell_angle_alpha 90.000000
_cell_angle_beta 90.000000
_cell_angle_gamma 90.000000
_cell_volume 2900.804498
_symmetry_space_group_name_H-M "P C C M"
_symmetry_group_IT_number 49
_symmetry_cell_setting 'orthorhombic'
loop_
_space_group_symop_operation_xyz
x,y,z
-x,-y,z
x,-y,1/2-z
-x,y,1/2-z
-x,-y,-z
x,y,-z
-x,y,1/2+z
x,-y,1/2+z
loop_
_atom_site_type_symbol
_atom_site_label
_atom_site_fract_x
_atom_site_fract_y
_atom_site_fract_z
Si Si1 0.934731 0.107656 0.912139
Si Si2 0.833978 0.437502 0.411408
Si Si3 0.988872 0.668612 0.658069
Si Si4 0.632350 0.798079 0.408693
Si Si5 0.479263 0.631170 0.343432
Si Si6 0.279756 0.738358 0.341973
Si Si7 0.221271 0.355253 0.332169
Si Si8 0.747310 0.005768 0.158273
O O1 0.992225 0.196522 0.859070
O O2 0.835741 0.063105 0.883465
O O3 0.923764 0.159321 0.000000
O O4 0.000000 0.000000 0.917167
O O5 0.829070 0.485041 0.500000
O O6 0.787354 0.314280 0.406070
O O7 0.773293 0.508697 0.347099
O O8 0.936744 0.407010 0.386230
O O9 0.882986 0.651967 0.640460
O O10 0.000000 0.642946 0.750000
O O11 0.625961 0.829687 0.500000
O O12 0.544724 0.726623 0.381509
O O13 0.713597 0.708803 0.392203
O O14 0.662315 0.910111 0.359361
O O15 0.500000 0.500000 0.372500
O O16 0.500000 0.628763 0.250000
O O17 0.377213 0.677841 0.351518
O O18 0.240891 0.702742 0.253394
O O19 0.279594 0.874203 0.357787
O O20 0.771364 0.000000 0.250000
#
# Coordination Sequence:
#
# PCOD9395148 Si02
#       8
#     8   8   8   8   8   8   8   8
#     4  11  25  41  65  99 143 191 246 310 369 431
#     4  12  28  44  69 107 150 191 240 309 379 440
#     4  12  25  42  69 105 143 193 248 298 358 444
#     4  12  26  46  75 112 148 188 245 310 380 444
#     4  11  24  45  77 111 144 193 244 304 371 455
#     4  12  25  46  75 103 146 188 250 303 369 449
#     4  12  24  46  72 103 141 194 244 299 363 445
#     4  12  24  44  70 103 141 196 249 303 364 446
#
# _framework density 22.062846
#
# number of rings (size 3 to 8) (size 9 to 14) (size 15 to 20)
#    0.000    0.250    5.000    3.375    3.500    5.750 
#    0.000    1.875    0.000    0.000    0.000    0.000 
#    0.000    0.000    0.000    0.000    0.000    0.000 
#
# Total GULP energy -357226.131137 kJ/mol
# GULP energy per Si atom -5581.658299 kJ/mol
# Density = 2.201263 g / cm^3
# Si number density = 22.062846 Si / 1000 Ang^3
#
#
#
# Elastic Constant Matrix: (Units=GPa)
#
#
# Indices 1 2 3 4 5 6 
#
# 1 134.0101 40.9114 14.8330 0.0000 0.0000 0.0000
# 2 40.9114 135.6953 3.9004 0.0000 0.0000 0.0000
# 3 14.8330 3.9004 83.0708 0.0000 0.0000 0.0000
# 4 0.0000 0.0000 0.0000 46.1760 0.0000 0.0000
# 5 0.0000 0.0000 0.0000 0.0000 19.5377 0.0000
# 6 0.0000 0.0000 0.0000 0.0000 0.0000 36.0301
#
#
#
# Elastic Compliance Matrix: (Units=1/GPa)
#
#
# Indices 1 2 3 4 5 6 
#
# 1 0.008373 -0.002485 -0.001378 0.000000 0.000000 0.000000
# 2 -0.002485 0.008117 0.000063 0.000000 0.000000 0.000000
# 3 -0.001378 0.000063 0.012281 0.000000 0.000000 0.000000
# 4 0.000000 0.000000 0.000000 0.021656 0.000000 0.000000
# 5 0.000000 0.000000 0.000000 0.000000 0.051183 0.000000
# 6 0.000000 0.000000 0.000000 0.000000 0.000000 0.027755
#
#
# Mechanical properties :
#
#
# Convention : Reuss Voigt Hill
#
# Bulk Modulus (GPa) = 47.23717 52.45173 49.84445
# Shear Modulus (GPa) = 34.71662 39.89086 37.30374
#
# Velocity S-wave (km/s) = 3.97108 4.25674 4.11639
# Velocity P-wave (km/s) = 6.51788 6.92713 6.72562
#
# Compressibility (1/GPa) = 0.02116977
#
# Stress axis : x y z
#
# Youngs Moduli (GPa) = 119.42728 123.20078 81.42583
#
# Poissons Ratio (x) = 0.30614 0.11224
# Poissons Ratio (y) = 0.29676 -0.00510
# Poissons Ratio (z) = 0.16462 -0.00771
#
# Static dielectric constant tensor:
#      x y z
#    x 1.883390 0.000000 0.000000 
#    y 0.000000 2.165970 0.000000 
#    z 0.000000 0.000000 1.821770 
# 
# From -- ./inp_files/17950.got.cif
#   From: 2010.05.17/outbox.cif.g08.bks.cpg/sg49_9_cif.got.tgz:17950.got - 2010.06.03 21:02:19.
