data_PCOD9395924
_publ_section_title
;
Structure prediction by ZEFSAII (Michael W. Deem and Ramdas Pophale) SiO2 
 PCOD9395924
Probable space group: P B A N
;
_chemical_formula_sum "Si O2"
_cell_formula_units_Z 48
_cell_length_a 25.999333
_cell_length_b 8.415329
_cell_length_c 8.988159
_cell_angle_alpha 90.000000
_cell_angle_beta 90.000000
_cell_angle_gamma 90.000000
_cell_volume 1966.545742
_symmetry_space_group_name_H-M "P B A N"
_symmetry_group_IT_number 50
_space_group.IT_coordinate_system_code '2'
_symmetry_cell_setting 'orthorhombic'
loop_
_space_group_symop_operation_xyz
x,y,z
1/2-x,1/2-y,z
x,1/2-y,-z
1/2-x,y,-z
-x,-y,-z
1/2+x,1/2+y,-z
-x,1/2+y,z
1/2+x,-y,z
loop_
_atom_site_type_symbol
_atom_site_label
_atom_site_fract_x
_atom_site_fract_y
_atom_site_fract_z
Si Si1 0.162744 0.084514 0.470784
Si Si2 0.750000 0.558992 0.000000
Si Si3 0.975052 0.250000 0.500000
Si Si4 0.057495 0.446783 0.677461
Si Si5 0.835931 0.992730 0.194753
Si Si6 0.816840 0.148013 0.777130
Si Si7 0.580849 0.083107 0.041729
O O1 0.191959 0.250000 0.500000
O O2 0.112715 0.124257 0.369651
O O3 0.147962 0.035467 0.636625
O O4 0.188945 0.940367 0.380669
O O5 0.706470 0.625173 0.117453
O O6 0.786120 0.454144 0.103981
O O7 0.944612 0.384601 0.410604
O O8 0.012079 0.340557 0.613930
O O9 0.049034 0.467598 0.853487
O O10 0.807535 0.165039 0.209646
O O11 0.886726 0.006168 0.092396
O O12 0.874885 0.134484 0.839095
O O13 0.555287 0.250000 0.000000
#
# Coordination Sequence:
#
# PCOD9395924 Si02
#       7
#     8   4   4   8   8   8   8
#     4  11  23  38  58  85 120 159 209 242 291 369
#     4  10  19  38  61  90 125 148 205 262 301 346
#     4  10  22  38  68  88 116 160 192 248 308 354
#     4  10  21  40  62  88 121 154 202 241 301 369
#     4  10  19  35  63  89 114 160 199 251 302 342
#     4   9  18  34  59  87 114 156 199 249 296 345
#     4   8  17  33  58  87 117 152 197 238 295 359
#
# _framework density 24.408280000000001
#
# number of rings (size 3 to 8) (size 9 to 14) (size 15 to 20)
#    0.000    2.333    0.833    3.000    7.000    0.667 
#    0.000   12.500    0.000    0.000    0.000    0.000 
#    0.000    0.000    0.000    0.000    0.000    0.000 
#
# Total GULP energy -267805.050255 kJ/mol
# GULP energy per Si atom -5579.271880 kJ/mol
# Density = 2.435273 g / cm^3
# Si number density = 24.408280 Si / 1000 Ang^3
#
#
#
# Elastic Constant Matrix: (Units=GPa)
#
#
# Indices 1 2 3 4 5 6 
#
# 1 36.7486 8.5430 16.0877 0.0000 0.0000 0.0000
# 2 8.5430 73.8611 37.2862 0.0000 0.0000 0.0000
# 3 16.0877 37.2862 185.9412 0.0000 0.0000 0.0000
# 4 0.0000 0.0000 0.0000 14.2043 0.0000 0.0000
# 5 0.0000 0.0000 0.0000 0.0000 15.7014 0.0000
# 6 0.0000 0.0000 0.0000 0.0000 0.0000 18.7388
#
#
#
# Elastic Compliance Matrix: (Units=1/GPa)
#
#
# Indices 1 2 3 4 5 6 
#
# 1 0.028628 -0.002293 -0.002017 0.000000 0.000000 0.000000
# 2 -0.002293 0.015247 -0.002859 0.000000 0.000000 0.000000
# 3 -0.002017 -0.002859 0.006126 0.000000 0.000000 0.000000
# 4 0.000000 0.000000 0.000000 0.070401 0.000000 0.000000
# 5 0.000000 0.000000 0.000000 0.000000 0.063689 0.000000
# 6 0.000000 0.000000 0.000000 0.000000 0.000000 0.053365
#
#
# Mechanical properties :
#
#
# Convention : Reuss Voigt Hill
#
# Bulk Modulus (GPa) = 28.04025 46.70942 37.37484
# Shear Modulus (GPa) = 18.96221 25.37116 22.16668
#
# Velocity S-wave (km/s) = 2.79027 3.22755 3.01684
# Velocity P-wave (km/s) = 4.67908 5.75045 5.24221
#
# Compressibility (1/GPa) = 0.03566301
#
# Stress axis : x y z
#
# Youngs Moduli (GPa) = 34.93083 65.58461 163.24120
#
# Poissons Ratio (x) = 0.15038 0.32928
# Poissons Ratio (y) = 0.08009 0.46673
# Poissons Ratio (z) = 0.07046 0.18752
#
# Static dielectric constant tensor:
#      x y z
#    x 1.954770 0.000000 0.000000 
#    y 0.000000 2.065590 0.000000 
#    z 0.000000 0.000000 1.955190 
# 
# From -- ./inp_files/17004.got.cif
#   From: 2010.05.17/outbox.cif.g08.bks.cpg/sg50_9_cif.got.tgz:17004.got - 2010.06.03 11:33:33.
