data_PCOD9395010
_publ_section_title
;
Structure prediction by ZEFSAII (Michael W. Deem and Ramdas Pophale) SiO2 
 PCOD9395010
Probable space group: P C C M
;
_chemical_formula_sum "Si O2"
_cell_formula_units_Z 58
_cell_length_a 9.446806
_cell_length_b 17.599653
_cell_length_c 17.794248
_cell_angle_alpha 90.000000
_cell_angle_beta 90.000000
_cell_angle_gamma 90.000000
_cell_volume 2958.480704
_symmetry_space_group_name_H-M "P C C M"
_symmetry_group_IT_number 49
_symmetry_cell_setting 'orthorhombic'
loop_
_space_group_symop_operation_xyz
x,y,z
-x,-y,z
x,-y,1/2-z
-x,y,1/2-z
-x,-y,-z
x,y,-z
-x,y,1/2+z
x,-y,1/2+z
loop_
_atom_site_type_symbol
_atom_site_label
_atom_site_fract_x
_atom_site_fract_y
_atom_site_fract_z
Si Si1 0.299923 0.780274 0.839945
Si Si2 0.181521 0.134866 0.808319
Si Si3 0.344067 0.615419 0.778955
Si Si4 0.223864 0.647027 0.622851
Si Si5 0.006127 0.759167 0.086389
Si Si6 0.404540 0.199025 0.911090
Si Si7 0.331394 0.486672 0.580335
Si Si8 0.000000 0.000000 0.750000
O O1 0.239626 0.830326 0.770406
O O2 0.356393 0.700888 0.807859
O O3 0.170846 0.761873 0.895437
O O4 0.435506 0.811464 0.883441
O O5 0.311280 0.138225 0.865857
O O6 0.067980 0.189134 0.849817
O O7 0.103217 0.055675 0.795924
O O8 0.500000 0.590772 0.750000
O O9 0.237427 0.623052 0.709667
O O10 0.294335 0.561951 0.846465
O O11 0.334838 0.717277 0.608398
O O12 0.265141 0.570156 0.581675
O O13 0.072180 0.678975 0.598733
O O14 0.978329 0.783261 0.000000
O O15 0.393457 0.191003 0.000000
O O16 0.500000 0.500000 0.583726
O O17 0.298349 0.448528 0.500000
#
# Coordination Sequence:
#
# PCOD9395010 Si02
#       8
#     8   8   8   8   8   8   8   2
#     4  12  21  41  66  97 130 169 222 275 324 388
#     4  11  22  43  69  97 131 173 216 256 313 394
#     4  12  21  36  59  89 122 168 223 280 331 391
#     4  11  21  37  62  89 126 173 220 275 334 399
#     4  11  23  40  66  96 130 170 216 271 328 394
#     4  11  22  39  68 102 133 170 219 276 331 378
#     4  11  22  34  53  86 129 170 219 283 346 398
#     4  12  24  44  76 104 132 178 220 252 312 404
#
# _framework density 19.604655999999999
#
# number of rings (size 3 to 8) (size 9 to 14) (size 15 to 20)
#    0.000    0.690    6.897    3.724    0.000    2.207 
#    0.000    3.448    0.000    4.138    0.000    0.000 
#    0.000    0.000    0.000    0.000    0.000    0.000 
#
# Total GULP energy -323795.330085 kJ/mol
# GULP energy per Si atom -5582.678105 kJ/mol
# Density = 1.956004 g / cm^3
# Si number density = 19.604656 Si / 1000 Ang^3
#
#
#
# Elastic Constant Matrix: (Units=GPa)
#
#
# Indices 1 2 3 4 5 6 
#
# 1 135.2954 38.9676 55.9958 0.0000 0.0000 0.0000
# 2 38.9676 95.2085 50.7202 0.0000 0.0000 0.0000
# 3 55.9958 50.7202 163.2303 0.0000 0.0000 0.0000
# 4 0.0000 0.0000 0.0000 8.9683 0.0000 0.0000
# 5 0.0000 0.0000 0.0000 0.0000 23.8619 0.0000
# 6 0.0000 0.0000 0.0000 0.0000 0.0000 19.6595
#
#
#
# Elastic Compliance Matrix: (Units=1/GPa)
#
#
# Indices 1 2 3 4 5 6 
#
# 1 0.009072 -0.002463 -0.002347 0.000000 0.000000 0.000000
# 2 -0.002463 0.013255 -0.003274 0.000000 0.000000 0.000000
# 3 -0.002347 -0.003274 0.007949 0.000000 0.000000 0.000000
# 4 0.000000 0.000000 0.000000 0.111504 0.000000 0.000000
# 5 0.000000 0.000000 0.000000 0.000000 0.041908 0.000000
# 6 0.000000 0.000000 0.000000 0.000000 0.000000 0.050866
#
#
# Mechanical properties :
#
#
# Convention : Reuss Voigt Hill
#
# Bulk Modulus (GPa) = 70.87773 76.12236 73.50005
# Shear Modulus (GPa) = 19.57531 27.03465 23.30498
#
# Velocity S-wave (km/s) = 3.16334 3.71751 3.45156
# Velocity P-wave (km/s) = 7.04090 7.57228 7.31142
#
# Compressibility (1/GPa) = 0.01410880
#
# Stress axis : x y z
#
# Youngs Moduli (GPa) = 110.23100 75.44104 125.80671
#
# Poissons Ratio (x) = 0.18579 0.29525
# Poissons Ratio (y) = 0.27147 0.41189
# Poissons Ratio (z) = 0.25869 0.24699
#
# Static dielectric constant tensor:
#      x y z
#    x 1.725090 0.000000 0.000000 
#    y 0.000000 1.689790 0.000000 
#    z 0.000000 0.000000 1.744300 
# 
# From -- ./inp_files/16485.got.cif
#   From: 2010.05.17/outbox.cif.g08.bks.cpg/sg49_9_cif.got.tgz:16485.got - 2010.06.03 21:02:19.
