data_PCOD9395852
_publ_section_title
;
Structure prediction by ZEFSAII (Michael W. Deem and Ramdas Pophale) SiO2 
 PCOD9395852
Probable space group: P B A N
;
_chemical_formula_sum "Si O2"
_cell_formula_units_Z 40
_cell_length_a 19.292525
_cell_length_b 14.855436
_cell_length_c 6.648332
_cell_angle_alpha 90.000000
_cell_angle_beta 90.000000
_cell_angle_gamma 90.000000
_cell_volume 1905.404441
_symmetry_space_group_name_H-M "P B A N"
_symmetry_group_IT_number 50
_space_group.IT_coordinate_system_code '2'
_symmetry_cell_setting 'orthorhombic'
loop_
_space_group_symop_operation_xyz
x,y,z
1/2-x,1/2-y,z
x,1/2-y,-z
1/2-x,y,-z
-x,-y,-z
1/2+x,1/2+y,-z
-x,1/2+y,z
1/2+x,-y,z
loop_
_atom_site_type_symbol
_atom_site_label
_atom_site_fract_x
_atom_site_fract_y
_atom_site_fract_z
Si Si1 0.941169 0.058439 0.885524
Si Si2 0.647807 0.673078 0.870814
Si Si3 0.868588 0.942499 0.528302
Si Si4 0.322504 0.501402 0.883302
Si Si5 0.470065 0.298843 0.687251
O O1 0.976425 0.151194 0.826510
O O2 0.910912 0.006410 0.685556
O O3 0.877381 0.073075 0.036151
O O4 0.000000 0.000000 0.000000
O O5 0.644277 0.591131 0.026645
O O6 0.578750 0.775674 0.206734
O O7 0.683264 0.750000 0.000000
O O8 0.676223 0.625064 0.670342
O O9 0.825256 0.993384 0.356888
O O10 0.922224 0.877711 0.410687
O O11 0.250000 0.511290 0.000000
O O12 0.505590 0.250000 0.500000
#
# Coordination Sequence:
#
# PCOD9395852 Si02
#       5
#     8   8   8   8   8
#     4  11  21  37  61  87 122 161 216 275 322 388
#     4  10  19  35  54  84 126 157 201 257 316 392
#     4  10  20  36  60  84 119 163 210 258 316 390
#     4  11  24  39  59  88 128 174 218 256 321 404
#     4  10  19  34  57  89 122 151 203 265 329 380
#
# _framework density 20.992916999999998
#
# number of rings (size 3 to 8) (size 9 to 14) (size 15 to 20)
#    0.000    1.600    4.000    1.800    0.000    3.600 
#    0.000    0.000    8.800    0.000    0.000    4.200 
#    6.000    0.000    0.000    0.000    0.000    0.000 
#
# Total GULP energy -222890.934004 kJ/mol
# GULP energy per Si atom -5572.273350 kJ/mol
# Density = 2.094514 g / cm^3
# Si number density = 20.992917 Si / 1000 Ang^3
#
#
#
# Elastic Constant Matrix: (Units=GPa)
#
#
# Indices 1 2 3 4 5 6 
#
# 1 107.8758 33.5673 68.9181 0.0000 0.0000 0.0000
# 2 33.5673 33.4200 23.2441 0.0000 0.0000 0.0000
# 3 68.9181 23.2441 168.0584 0.0000 0.0000 0.0000
# 4 0.0000 0.0000 0.0000 36.8098 0.0000 0.0000
# 5 0.0000 0.0000 0.0000 0.0000 19.7927 0.0000
# 6 0.0000 0.0000 0.0000 0.0000 0.0000 -75.6235
#
#
#
# Elastic Compliance Matrix: (Units=1/GPa)
#
#
# Indices 1 2 3 4 5 6 
#
# 1 0.016532 -0.013155 -0.004960 0.000000 0.000000 0.000000
# 2 -0.013155 0.043575 -0.000632 0.000000 0.000000 0.000000
# 3 -0.004960 -0.000632 0.008072 0.000000 0.000000 0.000000
# 4 0.000000 0.000000 0.000000 0.027167 0.000000 0.000000
# 5 0.000000 0.000000 0.000000 0.000000 0.050524 0.000000
# 6 0.000000 0.000000 0.000000 0.000000 0.000000 -0.013223
#
#
# Mechanical properties :
#
#
# Convention : Reuss Voigt Hill
#
# Bulk Modulus (GPa) = 32.59009 62.31257 47.45133
# Shear Modulus (GPa) = 27.72091 8.43743 18.07917
#
# Velocity S-wave (km/s) = 3.63780 2.00696 2.93781
# Velocity P-wave (km/s) = 5.76218 5.92601 5.84467
#
# Compressibility (1/GPa) = 0.03068418
#
# Stress axis : x y z
#
# Youngs Moduli (GPa) = 60.48780 22.94889 123.88818
#
# Poissons Ratio (x) = 0.30190 0.61450
# Poissons Ratio (y) = 0.79574 0.07831
# Poissons Ratio (z) = 0.30003 0.01451
#
# Static dielectric constant tensor:
#      x y z
#    x 1.814570 0.000000 0.000000 
#    y 0.000000 1.873170 0.000000 
#    z 0.000000 0.000000 1.847150 
# 
# From -- ./inp_files/5147.got.cif
#   From: 2010.05.17/outbox.cif.g08.bks.cpg/sg50_3_cif.got.tgz:5147.got - 2010.06.03 11:33:33.
