data_PCOD9395916
_publ_section_title
;
Structure prediction by ZEFSAII (Michael W. Deem and Ramdas Pophale) SiO2 
 PCOD9395916
Probable space group: P B A N
;
_chemical_formula_sum "Si O2"
_cell_formula_units_Z 64
_cell_length_a 9.969487
_cell_length_b 14.350705
_cell_length_c 19.164669
_cell_angle_alpha 90.000000
_cell_angle_beta 90.000000
_cell_angle_gamma 90.000000
_cell_volume 2741.873228
_symmetry_space_group_name_H-M "P B A N"
_symmetry_group_IT_number 50
_space_group.IT_coordinate_system_code '2'
_symmetry_cell_setting 'orthorhombic'
loop_
_space_group_symop_operation_xyz
x,y,z
1/2-x,1/2-y,z
x,1/2-y,-z
1/2-x,y,-z
-x,-y,-z
1/2+x,1/2+y,-z
-x,1/2+y,z
1/2+x,-y,z
loop_
_atom_site_type_symbol
_atom_site_label
_atom_site_fract_x
_atom_site_fract_y
_atom_site_fract_z
Si Si1 0.398627 0.210126 0.568187
Si Si2 0.557034 0.907015 0.082580
Si Si3 0.127481 0.987210 0.288702
Si Si4 0.370038 0.506340 0.450228
Si Si5 0.401678 0.289651 0.285778
Si Si6 0.952938 0.789001 0.144999
Si Si7 0.628923 0.397516 0.952027
Si Si8 0.121234 0.482553 0.193108
O O1 0.250000 0.250000 0.571411
O O2 0.469286 0.250000 0.500000
O O3 0.361275 0.103130 0.563984
O O4 0.466151 0.236631 0.640418
O O5 0.599017 0.802779 0.104006
O O6 0.653209 0.998086 0.078058
O O7 0.444515 0.945379 0.137702
O O8 0.496538 0.899914 0.005093
O O9 0.131880 0.954979 0.370239
O O10 0.111657 0.099572 0.286507
O O11 0.257428 0.974674 0.238645
O O12 0.993659 0.955090 0.249628
O O13 0.250000 0.541093 0.500000
O O14 0.500000 0.500000 0.500000
O O15 0.250000 0.250000 0.279697
O O16 0.481190 0.252183 0.220801
O O17 0.859904 0.881592 0.154945
O O18 0.085409 0.827662 0.107829
O O19 0.750000 0.367235 0.000000
#
# Coordination Sequence:
#
# PCOD9395916 Si02
#       8
#     8   8   8   8   8   8   8   8
#     4   9  17  33  60  91 124 173 229 281 336 398
#     4  10  23  42  64  95 132 169 229 281 341 407
#     4  11  23  41  61  97 138 180 224 288 356 412
#     4  11  22  37  63  97 133 178 233 288 346 418
#     4  10  19  35  61  92 132 167 225 293 335 401
#     4  11  22  40  66 100 129 174 234 281 339 409
#     4  10  24  45  69  93 133 181 221 276 352 421
#     4  11  24  40  67  95 137 179 222 286 351 409
#
# _framework density 23.341705999999999
#
# number of rings (size 3 to 8) (size 9 to 14) (size 15 to 20)
#    0.000    1.625    3.750    1.125    3.500    2.000 
#    2.250    0.000    0.000    0.375    0.000    0.000 
#    0.000    0.000    0.000    0.000    0.000    0.000 
#
# Total GULP energy -356953.507559 kJ/mol
# GULP energy per Si atom -5577.398556 kJ/mol
# Density = 2.328858 g / cm^3
# Si number density = 23.341706 Si / 1000 Ang^3
#
#
#
# Elastic Constant Matrix: (Units=GPa)
#
#
# Indices 1 2 3 4 5 6 
#
# 1 77.2157 0.5284 30.6469 0.0000 0.0000 0.0000
# 2 0.5284 97.9410 23.4390 0.0000 0.0000 0.0000
# 3 30.6469 23.4390 168.2487 0.0000 0.0000 0.0000
# 4 0.0000 0.0000 0.0000 25.7605 0.0000 0.0000
# 5 0.0000 0.0000 0.0000 0.0000 55.5513 0.0000
# 6 0.0000 0.0000 0.0000 0.0000 0.0000 12.9088
#
#
#
# Elastic Compliance Matrix: (Units=1/GPa)
#
#
# Indices 1 2 3 4 5 6 
#
# 1 0.013989 0.000553 -0.002625 0.000000 0.000000 0.000000
# 2 0.000553 0.010584 -0.001575 0.000000 0.000000 0.000000
# 3 -0.002625 -0.001575 0.006641 0.000000 0.000000 0.000000
# 4 0.000000 0.000000 0.000000 0.038819 0.000000 0.000000
# 5 0.000000 0.000000 0.000000 0.000000 0.018001 0.000000
# 6 0.000000 0.000000 0.000000 0.000000 0.000000 0.077467
#
#
# Mechanical properties :
#
#
# Convention : Reuss Voigt Hill
#
# Bulk Modulus (GPa) = 41.80746 50.29269 46.05007
# Shear Modulus (GPa) = 27.65949 38.09684 32.87817
#
# Velocity S-wave (km/s) = 3.44609 4.04435 3.75715
# Velocity P-wave (km/s) = 5.81240 6.58803 6.21233
#
# Compressibility (1/GPa) = 0.02391918
#
# Stress axis : x y z
#
# Youngs Moduli (GPa) = 71.48548 94.48035 150.57533
#
# Poissons Ratio (x) = -0.05222 0.39528
# Poissons Ratio (y) = -0.03951 0.23718
# Poissons Ratio (z) = 0.18766 0.14882
#
# Static dielectric constant tensor:
#      x y z
#    x 2.057750 0.000000 0.000000 
#    y 0.000000 1.897280 0.000000 
#    z 0.000000 0.000000 1.970290 
# 
# From -- ./inp_files/30724.got.cif
#   From: 2010.05.17/outbox.cif.g08.bks.cpg/sg50_16_cif.got.tgz:30724.got - 2010.06.03 11:33:33.
