data_PCOD9395588
_publ_section_title
;
Structure prediction by ZEFSAII (Michael W. Deem and Ramdas Pophale) SiO2 
 PCOD9395588
Probable space group: P B A N
;
_chemical_formula_sum "Si O2"
_cell_formula_units_Z 64
_cell_length_a 7.941371
_cell_length_b 18.616849
_cell_length_c 18.830321
_cell_angle_alpha 90.000000
_cell_angle_beta 90.000000
_cell_angle_gamma 90.000000
_cell_volume 2783.936886
_symmetry_space_group_name_H-M "P B A N"
_symmetry_group_IT_number 50
_space_group.IT_coordinate_system_code '2'
_symmetry_cell_setting 'orthorhombic'
loop_
_space_group_symop_operation_xyz
x,y,z
1/2-x,1/2-y,z
x,1/2-y,-z
1/2-x,y,-z
-x,-y,-z
1/2+x,1/2+y,-z
-x,1/2+y,z
1/2+x,-y,z
loop_
_atom_site_type_symbol
_atom_site_label
_atom_site_fract_x
_atom_site_fract_y
_atom_site_fract_z
Si Si1 0.410955 0.989640 0.771518
Si Si2 0.045263 0.254345 0.739140
Si Si3 0.140912 0.949902 0.669576
Si Si4 0.406496 0.061443 0.453919
Si Si5 0.947803 0.836296 0.997008
Si Si6 0.062880 0.130166 0.154295
Si Si7 0.051663 0.141559 0.850173
Si Si8 0.656237 0.181102 0.391404
O O1 0.457995 0.032178 0.699590
O O2 0.407472 0.046576 0.833511
O O3 0.240224 0.954664 0.744560
O O4 0.528761 0.925878 0.798457
O O5 0.250000 0.250000 0.726433
O O6 0.004488 0.332389 0.772417
O O7 0.981604 0.207184 0.805718
O O8 0.949759 0.219560 0.672260
O O9 0.201319 0.876177 0.634352
O O10 0.159684 0.015680 0.613603
O O11 0.250000 0.088769 0.500000
O O12 0.528413 0.127644 0.432975
O O13 0.500000 0.000000 0.500000
O O14 0.020785 0.866321 0.071021
O O15 0.953441 0.750000 0.000000
O O16 0.750000 0.859233 0.000000
O O17 0.025478 0.857790 0.921123
O O18 0.251250 0.161116 0.143672
O O19 0.750000 0.250000 0.424953
#
# Coordination Sequence:
#
# PCOD9395588 Si02
#       8
#     8   8   8   8   8   8   8   8
#     4  12  22  37  63 100 133 174 229 300 350 417
#     4  10  20  38  65  99 138 179 229 299 359 411
#     4  12  23  44  74 103 139 183 236 286 359 429
#     4  12  25  51  83 110 147 199 237 282 361 452
#     4   9  16  30  52  81 120 177 229 285 354 433
#     4  10  20  33  58  90 129 177 232 288 360 419
#     4  10  18  33  57  87 129 172 233 292 352 421
#     4  12  26  47  76 113 149 187 242 300 351 424
#
# _framework density 22.989027
#
# number of rings (size 3 to 8) (size 9 to 14) (size 15 to 20)
#    0.000    1.125    6.250    0.750    1.750    0.500 
#    2.250    1.250    0.000    0.000    0.000    1.750 
#    0.000    0.000    0.000    0.000    0.000    0.000 
#
# Total GULP energy -356514.659058 kJ/mol
# GULP energy per Si atom -5570.541548 kJ/mol
# Density = 2.293670 g / cm^3
# Si number density = 22.989027 Si / 1000 Ang^3
#
#
#
# Elastic Constant Matrix: (Units=GPa)
#
#
# Indices 1 2 3 4 5 6 
#
# 1 63.8415 32.2321 38.1761 0.0000 0.0000 0.0000
# 2 32.2321 139.8476 42.9376 0.0000 0.0000 0.0000
# 3 38.1761 42.9376 124.6564 0.0000 0.0000 0.0000
# 4 0.0000 0.0000 0.0000 9.6862 0.0000 0.0000
# 5 0.0000 0.0000 0.0000 0.0000 -8.6094 0.0000
# 6 0.0000 0.0000 0.0000 0.0000 0.0000 19.5633
#
#
#
# Elastic Compliance Matrix: (Units=1/GPa)
#
#
# Indices 1 2 3 4 5 6 
#
# 1 0.020309 -0.003099 -0.005152 0.000000 0.000000 0.000000
# 2 -0.003099 0.008469 -0.001968 0.000000 0.000000 0.000000
# 3 -0.005152 -0.001968 0.010278 0.000000 0.000000 0.000000
# 4 0.000000 0.000000 0.000000 0.103240 0.000000 0.000000
# 5 0.000000 0.000000 0.000000 0.000000 -0.116153 0.000000
# 6 0.000000 0.000000 0.000000 0.000000 0.000000 0.051116
#
#
# Mechanical properties :
#
#
# Convention : Reuss Voigt Hill
#
# Bulk Modulus (GPa) = 53.71268 61.67076 57.69172
# Shear Modulus (GPa) = 48.12100 18.46133 33.29116
#
# Velocity S-wave (km/s) = 4.58013 2.83689 3.80956
# Velocity P-wave (km/s) = 7.16836 6.13311 6.67084
#
# Compressibility (1/GPa) = 0.01861758
#
# Stress axis : x y z
#
# Youngs Moduli (GPa) = 49.23829 118.07538 97.29641
#
# Poissons Ratio (x) = 0.36591 0.50130
# Poissons Ratio (y) = 0.15259 0.19149
# Poissons Ratio (z) = 0.25369 0.23239
#
# Static dielectric constant tensor:
#      x y z
#    x 2.004040 0.000000 0.000000 
#    y 0.000000 1.933090 0.000000 
#    z 0.000000 0.000000 1.922120 
# 
# From -- ./inp_files/30741.got.cif
#   From: 2010.05.17/outbox.cif.g08.bks.cpg/sg50_16_cif.got.tgz:30741.got - 2010.06.03 11:33:33.
