data_PCOD9395754
_publ_section_title
;
Structure prediction by ZEFSAII (Michael W. Deem and Ramdas Pophale) SiO2 
 PCOD9395754
Probable space group: P B A N
;
_chemical_formula_sum "Si O2"
_cell_formula_units_Z 64
_cell_length_a 15.674094
_cell_length_b 25.615914
_cell_length_c 8.574203
_cell_angle_alpha 90.000000
_cell_angle_beta 90.000000
_cell_angle_gamma 90.000000
_cell_volume 3442.596041
_symmetry_space_group_name_H-M "P B A N"
_symmetry_group_IT_number 50
_space_group.IT_coordinate_system_code '2'
_symmetry_cell_setting 'orthorhombic'
loop_
_space_group_symop_operation_xyz
x,y,z
1/2-x,1/2-y,z
x,1/2-y,-z
1/2-x,y,-z
-x,-y,-z
1/2+x,1/2+y,-z
-x,1/2+y,z
1/2+x,-y,z
loop_
_atom_site_type_symbol
_atom_site_label
_atom_site_fract_x
_atom_site_fract_y
_atom_site_fract_z
Si Si1 0.752274 0.641370 0.809612
Si Si2 0.941124 0.106087 0.684776
Si Si3 0.066131 0.893256 0.688958
Si Si4 0.476248 0.494010 0.180433
Si Si5 0.776437 0.974664 0.819364
Si Si6 0.249531 0.913321 0.313482
Si Si7 0.570480 0.811392 0.186749
Si Si8 0.070083 0.308093 0.190445
O O1 0.757233 0.580923 0.760251
O O2 0.663298 0.667562 0.760888
O O3 0.836112 0.672315 0.759172
O O4 0.750000 0.640907 0.000000
O O5 0.938380 0.108102 0.498011
O O6 0.842560 0.106810 0.743726
O O7 0.998175 0.153030 0.747565
O O8 0.979854 0.050626 0.739325
O O9 0.164036 0.886021 0.743391
O O10 0.035464 0.950311 0.743625
O O11 0.002546 0.850186 0.756016
O O12 0.378842 0.474289 0.191332
O O13 0.500000 0.500000 0.000000
O O14 0.744990 0.025589 0.729526
O O15 0.750000 0.980393 0.000000
O O16 0.250000 0.908630 0.500000
O O17 0.557078 0.751803 0.238556
O O18 0.569856 0.811024 0.998099
#
# Coordination Sequence:
#
# PCOD9395754 Si02
#       8
#     8   8   8   8   8   8   8   8
#     4   9  18  33  55  83 114 147 187 227 273 330
#     4  10  23  38  56  84 111 146 191 232 281 335
#     4  11  21  38  59  80 113 150 185 233 283 333
#     4  11  21  34  57  84 116 146 186 232 278 333
#     4  10  19  32  52  85 114 145 186 223 270 336
#     4   9  21  39  55  76 112 149 185 227 279 335
#     4  10  20  38  60  85 111 148 193 229 282 329
#     4  10  21  37  60  84 113 148 188 239 275 330
#
# _framework density 18.590622
#
# number of rings (size 3 to 8) (size 9 to 14) (size 15 to 20)
#    0.000    2.000    1.250    2.250    5.250    3.000 
#    0.000    1.250    0.000    5.250    0.000    0.000 
#    0.000    0.000    0.000    0.000    0.000    0.000 
#
# Total GULP energy -357324.686267 kJ/mol
# GULP energy per Si atom -5583.198223 kJ/mol
# Density = 1.854831 g / cm^3
# Si number density = 18.590622 Si / 1000 Ang^3
#
#
#
# Elastic Constant Matrix: (Units=GPa)
#
#
# Indices 1 2 3 4 5 6 
#
# 1 154.9859 96.2143 21.5477 0.0000 0.0000 0.0000
# 2 96.2143 129.9045 15.6701 0.0000 0.0000 0.0000
# 3 21.5477 15.6701 15.1265 0.0000 0.0000 0.0000
# 4 0.0000 0.0000 0.0000 -98.9310 0.0000 0.0000
# 5 0.0000 0.0000 0.0000 0.0000 19.5762 0.0000
# 6 0.0000 0.0000 0.0000 0.0000 0.0000 22.6326
#
#
#
# Elastic Compliance Matrix: (Units=1/GPa)
#
#
# Indices 1 2 3 4 5 6 
#
# 1 0.013113 -0.008524 -0.009849 0.000000 0.000000 0.000000
# 2 -0.008524 0.014339 -0.002711 0.000000 0.000000 0.000000
# 3 -0.009849 -0.002711 0.082947 0.000000 0.000000 0.000000
# 4 0.000000 0.000000 0.000000 -0.010108 0.000000 0.000000
# 5 0.000000 0.000000 0.000000 0.000000 0.051082 0.000000
# 6 0.000000 0.000000 0.000000 0.000000 0.000000 0.044184
#
#
# Mechanical properties :
#
#
# Convention : Reuss Voigt Hill
#
# Bulk Modulus (GPa) = 14.65623 62.98677 38.82150
# Shear Modulus (GPa) = 19.19604 -0.23877 9.47864
#
# Velocity S-wave (km/s) = 3.21684 -0.35877 2.26046
# Velocity P-wave (km/s) = 4.65813 5.81230 5.26693
#
# Compressibility (1/GPa) = 0.06823038
#
# Stress axis : x y z
#
# Youngs Moduli (GPa) = 76.25751 69.74171 12.05583
#
# Poissons Ratio (x) = 0.59451 0.11874
# Poissons Ratio (y) = 0.65005 0.03268
# Poissons Ratio (z) = 0.75108 0.18906
#
# Static dielectric constant tensor:
#      x y z
#    x 1.657350 0.000000 0.000000 
#    y 0.000000 1.616820 0.000000 
#    z 0.000000 0.000000 1.633440 
# 
# From -- ./inp_files/13486.got.cif
#   From: 2010.05.17/outbox.cif.g08.bks.cpg/sg50_7_cif.got.tgz:13486.got - 2010.06.03 11:33:33.
