data_PCOD9395244
_publ_section_title
;
Structure prediction by ZEFSAII (Michael W. Deem and Ramdas Pophale) SiO2 
 PCOD9395244
Probable space group: P C C M
;
_chemical_formula_sum "Si O2"
_cell_formula_units_Z 64
_cell_length_a 21.000000
_cell_length_b 18.000000
_cell_length_c 9.000000
_cell_angle_alpha 90.000000
_cell_angle_beta 90.000000
_cell_angle_gamma 90.000000
_cell_volume 3402.000000
_symmetry_space_group_name_H-M "P C C M"
_symmetry_group_IT_number 49
_symmetry_cell_setting 'orthorhombic'
loop_
_space_group_symop_operation_xyz
x,y,z
-x,-y,z
x,-y,1/2-z
-x,y,1/2-z
-x,-y,-z
x,y,-z
-x,y,1/2+z
x,-y,1/2+z
loop_
_atom_site_type_symbol
_atom_site_label
_atom_site_fract_x
_atom_site_fract_y
_atom_site_fract_z
Si Si1 0.437520 0.081600 0.820629
Si Si2 0.567908 0.417865 0.180674
Si Si3 0.066955 0.179377 0.678244
Si Si4 0.065259 0.355121 0.323722
Si Si5 0.307253 0.842572 0.320963
Si Si6 0.799166 0.579308 0.679582
Si Si7 0.685356 0.670095 0.820251
Si Si8 0.823231 0.080796 0.320165
O O1 0.500000 0.118665 0.750000
O O2 0.373133 0.121375 0.773553
O O3 0.434526 0.000000 0.750000
O O4 0.442396 0.078340 0.000000
O O5 0.579171 0.500000 0.250000
O O6 0.500000 0.393524 0.250000
O O7 0.624319 0.366181 0.240939
O O8 0.565773 0.420779 0.000000
O O9 0.067085 0.168673 0.500000
O O10 0.073929 0.267471 0.708994
O O11 0.122898 0.134741 0.756601
O O12 0.000000 0.155816 0.750000
O O13 0.058239 0.362450 0.500000
O O14 0.129127 0.397102 0.278916
O O15 0.000000 0.381371 0.250000
O O16 0.305912 0.846899 0.500000
O O17 0.308580 0.756593 0.282748
O O18 0.244982 0.886303 0.270226
O O19 0.785766 0.500000 0.750000
O O20 0.793398 0.579518 0.500000
O O21 0.748267 0.633063 0.754013
O O22 0.681188 0.660949 0.000000
O O23 0.825876 0.077805 0.500000
O O24 0.831793 0.000000 0.250000
#
# Coordination Sequence:
#
# PCOD9395244 Si02
#       8
#     8   8   8   8   8   8   8   8
#     4  10  19  35  56  82 112 146 184 225 270 324
#     4  11  22  39  61  87 116 150 188 231 279 334
#     4  10  20  37  59  85 113 146 183 227 276 331
#     4   9  20  37  59  84 114 147 186 230 279 334
#     4   9  21  38  58  82 112 146 186 230 278 331
#     4  11  23  39  57  83 114 149 189 233 279 332
#     4  11  22  39  60  84 113 149 188 233 282 334
#     4  11  22  38  58  83 112 147 186 231 280 332
#
# _framework density 18.812463000000001
#
# number of rings (size 3 to 8) (size 9 to 14) (size 15 to 20)
#    0.000    1.750    0.000    5.250    0.000    2.500 
#    0.000   10.000    0.000    0.000    0.000    0.000 
#    0.000    0.000    0.000    0.000    0.000    0.000 
#
# Total GULP energy -357389.177099 kJ/mol
# GULP energy per Si atom -5584.205892 kJ/mol
# Density = 1.876965 g / cm^3
# Si number density = 18.812463 Si / 1000 Ang^3
#
#
#
# Elastic Constant Matrix: (Units=GPa)
#
#
# Indices 1 2 3 4 5 6 
#
# 1 19.9190 -21.8458 -7.5721 0.0000 0.0000 0.0000
# 2 -21.8458 9.2260 -0.8637 0.0000 0.0000 0.0000
# 3 -7.5721 -0.8637 74.1976 0.0000 0.0000 0.0000
# 4 0.0000 0.0000 0.0000 5.1257 0.0000 0.0000
# 5 0.0000 0.0000 0.0000 0.0000 44.7716 0.0000
# 6 0.0000 0.0000 0.0000 0.0000 0.0000 35.1810
#
#
#
# Elastic Compliance Matrix: (Units=1/GPa)
#
#
# Indices 1 2 3 4 5 6 
#
# 1 -0.030251 -0.071998 -0.003925 0.000000 0.000000 0.000000
# 2 -0.071998 -0.062848 -0.008079 0.000000 0.000000 0.000000
# 3 -0.003925 -0.008079 0.012983 0.000000 0.000000 0.000000
# 4 0.000000 0.000000 0.000000 0.195097 0.000000 0.000000
# 5 0.000000 0.000000 0.000000 0.000000 0.022336 0.000000
# 6 0.000000 0.000000 0.000000 0.000000 0.000000 0.028424
#
#
# Mechanical properties :
#
#
# Convention : Reuss Voigt Hill
#
# Bulk Modulus (GPa) = -4.03028 4.75328 0.36150
# Shear Modulus (GPa) = 19.91724 25.92392 22.92058
#
# Velocity S-wave (km/s) = 3.25734 3.71619 3.49431
# Velocity P-wave (km/s) = 3.46410 4.57664 4.05867
#
# Compressibility (1/GPa) = -0.24812167
#
# Stress axis : x y z
#
# Youngs Moduli (GPa) = -33.05622 -15.91150 77.02442
#
# Poissons Ratio (x) = -1.14560 0.30235
# Poissons Ratio (y) = -2.37999 0.62230
# Poissons Ratio (z) = -0.12976 -0.12855
#
# Static dielectric constant tensor:
#      x y z
#    x 1.663730 0.000000 0.000000 
#    y 0.000000 1.660730 0.000000 
#    z 0.000000 0.000000 1.620750 
# 
# From -- ./inp_files/5977.got.cif
#   From: 2010.05.17/outbox.ucp.g08.bks.cvg/sg49_3_cif.got.tgz:5977.got - 2010.06.11 16:40:14.
