data_PCOD9395305
_publ_section_title
;
Structure prediction by ZEFSAII (Michael W. Deem and Ramdas Pophale) SiO2 
 PCOD9395305
Probable space group: P C C M
;
_chemical_formula_sum "Si O2"
_cell_formula_units_Z 40
_cell_length_a 9.000000
_cell_length_b 12.000000
_cell_length_c 18.000000
_cell_angle_alpha 90.000000
_cell_angle_beta 90.000000
_cell_angle_gamma 90.000000
_cell_volume 1944.000000
_symmetry_space_group_name_H-M "P C C M"
_symmetry_group_IT_number 49
_symmetry_cell_setting 'orthorhombic'
loop_
_space_group_symop_operation_xyz
x,y,z
-x,-y,z
x,-y,1/2-z
-x,y,1/2-z
-x,-y,-z
x,y,-z
-x,y,1/2+z
x,-y,1/2+z
loop_
_atom_site_type_symbol
_atom_site_label
_atom_site_fract_x
_atom_site_fract_y
_atom_site_fract_z
Si Si1 0.433875 0.721530 0.581844
Si Si2 0.960383 0.197093 0.332336
Si Si3 0.727438 0.042883 0.411070
Si Si4 0.283954 0.792882 0.140789
Si Si5 0.272557 0.628716 0.718992
O O1 0.376954 0.690372 0.500000
O O2 0.383645 0.850705 0.596761
O O3 0.609777 0.731883 0.583798
O O4 0.382838 0.642224 0.648917
O O5 0.871843 0.103164 0.376911
O O6 0.875233 0.313575 0.316147
O O7 0.000000 0.152530 0.250000
O O8 0.111316 0.222488 0.374292
O O9 0.736921 0.017938 0.500000
O O10 0.693852 0.928069 0.366437
O O11 0.311974 0.723645 0.218178
O O12 0.264134 0.500000 0.750000
#
# Coordination Sequence:
#
# PCOD9395305 Si02
#       5
#     8   8   8   8   8
#     4  10  22  40  62  90 125 162 202 250 307 369
#     4   9  21  37  59  89 120 159 208 255 304 367
#     4  10  21  38  59  88 131 170 198 243 311 379
#     4  11  21  34  60  93 121 155 202 252 303 362
#     4  10  23  44  63  84 118 164 209 255 310 371
#
# _framework density 20.576132000000001
#
# number of rings (size 3 to 8) (size 9 to 14) (size 15 to 20)
#    0.000    2.000    0.000    2.400    0.000   18.800 
#    0.000    9.000    0.000    1.200    0.000   35.000 
#    0.000    0.000    0.000    0.000    0.000    0.000 
#
# Total GULP energy -222677.128536 kJ/mol
# GULP energy per Si atom -5566.928213 kJ/mol
# Density = 2.052930 g / cm^3
# Si number density = 20.576132 Si / 1000 Ang^3
#
#
#
# Elastic Constant Matrix: (Units=GPa)
#
#
# Indices 1 2 3 4 5 6 
#
# 1 92.4735 8.0140 34.0242 0.0000 0.0000 0.0000
# 2 8.0140 137.5761 65.8048 0.0000 0.0000 0.0000
# 3 34.0242 65.8048 91.5801 0.0000 0.0000 0.0000
# 4 0.0000 0.0000 0.0000 29.5218 0.0000 0.0000
# 5 0.0000 0.0000 0.0000 0.0000 22.9436 0.0000
# 6 0.0000 0.0000 0.0000 0.0000 0.0000 7.4564
#
#
#
# Elastic Compliance Matrix: (Units=1/GPa)
#
#
# Indices 1 2 3 4 5 6 
#
# 1 0.013014 0.002369 -0.006537 0.000000 0.000000 0.000000
# 2 0.002369 0.011506 -0.009148 0.000000 0.000000 0.000000
# 3 -0.006537 -0.009148 0.019921 0.000000 0.000000 0.000000
# 4 0.000000 0.000000 0.000000 0.033873 0.000000 0.000000
# 5 0.000000 0.000000 0.000000 0.000000 0.043585 0.000000
# 6 0.000000 0.000000 0.000000 0.000000 0.000000 0.134112
#
#
# Mechanical properties :
#
#
# Convention : Reuss Voigt Hill
#
# Bulk Modulus (GPa) = 56.15127 59.70175 57.92651
# Shear Modulus (GPa) = 17.32618 26.23682 21.78150
#
# Velocity S-wave (km/s) = 2.90496 3.57474 3.25711
# Velocity P-wave (km/s) = 6.21293 6.79091 6.50834
#
# Compressibility (1/GPa) = 0.01780904
#
# Stress axis : x y z
#
# Youngs Moduli (GPa) = 76.84160 86.90912 50.19785
#
# Poissons Ratio (x) = -0.20586 0.32814
# Poissons Ratio (y) = -0.18201 0.45920
# Poissons Ratio (z) = 0.50231 0.79503
#
# Static dielectric constant tensor:
#      x y z
#    x 1.876640 0.000000 0.000000 
#    y 0.000000 1.696210 0.000000 
#    z 0.000000 0.000000 1.774210 
# 
# From -- ./inp_files/16015.got.cif
#   From: 2010.05.17/outbox.ucp.g08.bks.cvg/sg49_9_cif.got.tgz:16015.got - 2010.06.11 16:40:14.
