data_PCOD9395471
_publ_section_title
;
Structure prediction by ZEFSAII (Michael W. Deem and Ramdas Pophale) SiO2 
 PCOD9395471
Probable space group: P B A N
;
_chemical_formula_sum "Si O2"
_cell_formula_units_Z 64
_cell_length_a 7.692763
_cell_length_b 14.972568
_cell_length_c 23.963257
_cell_angle_alpha 90.000000
_cell_angle_beta 90.000000
_cell_angle_gamma 90.000000
_cell_volume 2760.097937
_symmetry_space_group_name_H-M "P B A N"
_symmetry_group_IT_number 50
_space_group.IT_coordinate_system_code '2'
_symmetry_cell_setting 'orthorhombic'
loop_
_space_group_symop_operation_xyz
x,y,z
1/2-x,1/2-y,z
x,1/2-y,-z
1/2-x,y,-z
-x,-y,-z
1/2+x,1/2+y,-z
-x,1/2+y,z
1/2+x,-y,z
loop_
_atom_site_type_symbol
_atom_site_label
_atom_site_fract_x
_atom_site_fract_y
_atom_site_fract_z
Si Si1 0.239003 0.527365 0.434781
Si Si2 0.483573 0.619834 0.151665
Si Si3 0.929528 0.414504 0.854971
Si Si4 0.568147 0.305852 0.610150
Si Si5 0.968564 0.405910 0.731412
Si Si6 0.053161 0.885174 0.273708
Si Si7 0.091755 0.133417 0.387433
Si Si8 0.038683 0.764124 0.936898
O O1 0.250000 0.508932 0.500000
O O2 0.383263 0.603855 0.421905
O O3 0.255584 0.433818 0.402586
O O4 0.066642 0.575856 0.413518
O O5 0.556180 0.521047 0.140856
O O6 0.273951 0.609270 0.149893
O O7 0.518650 0.650318 0.215011
O O8 0.535424 0.689876 0.104947
O O9 0.017645 0.387164 0.795869
O O10 0.997117 0.359487 0.907984
O O11 0.750000 0.250000 0.614869
O O12 0.504484 0.333116 0.671372
O O13 0.434250 0.232082 0.587902
O O14 0.764050 0.384212 0.726348
O O15 0.994624 0.512046 0.723632
O O16 0.067195 0.362559 0.679502
O O17 0.250000 0.750000 0.937749
O O18 0.978158 0.750000 0.000000
#
# Coordination Sequence:
#
# PCOD9395471 Si02
#       8
#     8   8   8   8   8   8   8   8
#     4  11  23  41  60  84 116 151 186 227 279 331
#     4   9  19  32  53  79 107 148 183 234 284 336
#     4   9  19  32  52  81 108 145 187 233 283 333
#     4  10  20  33  57  87 107 144 190 232 268 335
#     4  10  17  32  55  82 115 142 184 233 285 337
#     4  10  18  32  55  82 115 143 186 230 289 336
#     4  11  21  37  61  85 111 150 188 231 280 330
#     4   9  18  33  52  78 110 148 193 236 280 335
#
# _framework density 23.187583
#
# number of rings (size 3 to 8) (size 9 to 14) (size 15 to 20)
#    0.000    2.125    3.750    0.375    1.750    3.250 
#    0.000    1.250    0.000    1.500    0.000    0.000 
#    0.000    0.000    0.000    0.000    0.000    0.000 
#
# Total GULP energy -357730.723891 kJ/mol
# GULP energy per Si atom -5589.542561 kJ/mol
# Density = 2.313481 g / cm^3
# Si number density = 23.187583 Si / 1000 Ang^3
#
#
#
# Elastic Constant Matrix: (Units=GPa)
#
#
# Indices 1 2 3 4 5 6 
#
# 1 60.5187 3.7087 3.1257 0.0000 0.0000 0.0000
# 2 3.7087 100.0752 46.0622 0.0000 0.0000 0.0000
# 3 3.1257 46.0622 120.4998 0.0000 0.0000 0.0000
# 4 0.0000 0.0000 0.0000 14.5161 0.0000 0.0000
# 5 0.0000 0.0000 0.0000 0.0000 4.9122 0.0000
# 6 0.0000 0.0000 0.0000 0.0000 0.0000 21.3940
#
#
#
# Elastic Compliance Matrix: (Units=1/GPa)
#
#
# Indices 1 2 3 4 5 6 
#
# 1 0.016567 -0.000505 -0.000237 0.000000 0.000000 0.000000
# 2 -0.000505 0.012141 -0.004628 0.000000 0.000000 0.000000
# 3 -0.000237 -0.004628 0.010074 0.000000 0.000000 0.000000
# 4 0.000000 0.000000 0.000000 0.068889 0.000000 0.000000
# 5 0.000000 0.000000 0.000000 0.000000 0.203575 0.000000
# 6 0.000000 0.000000 0.000000 0.000000 0.000000 0.046742
#
#
# Mechanical properties :
#
#
# Convention : Reuss Voigt Hill
#
# Bulk Modulus (GPa) = 35.65970 42.98744 39.32357
# Shear Modulus (GPa) = 13.22486 23.37760 18.30123
#
# Velocity S-wave (km/s) = 2.39077 3.17865 2.81244
# Velocity P-wave (km/s) = 4.79930 5.66136 5.24806
#
# Compressibility (1/GPa) = 0.02804286
#
# Stress axis : x y z
#
# Youngs Moduli (GPa) = 60.36103 82.36286 99.26514
#
# Poissons Ratio (x) = 0.04159 0.02350
# Poissons Ratio (y) = 0.03048 0.45941
# Poissons Ratio (z) = 0.01429 0.38118
#
# Static dielectric constant tensor:
#      x y z
#    x 1.961280 0.000000 0.000000 
#    y 0.000000 1.844200 0.000000 
#    z 0.000000 0.000000 1.824790 
# 
# From -- ./inp_files/31615.got.cif
#   From: 2010.05.17/outbox.cif.g08.bks.cpg/sg50_16_cif.got.tgz:31615.got - 2010.06.03 11:33:33.
