data_PCOD9395597
_publ_section_title
;
Structure prediction by ZEFSAII (Michael W. Deem and Ramdas Pophale) SiO2 
 PCOD9395597
Probable space group: P B A N
;
_chemical_formula_sum "Si O2"
_cell_formula_units_Z 46
_cell_length_a 19.353444
_cell_length_b 23.481528
_cell_length_c 6.591094
_cell_angle_alpha 90.000000
_cell_angle_beta 90.000000
_cell_angle_gamma 90.000000
_cell_volume 2995.312368
_symmetry_space_group_name_H-M "P B A N"
_symmetry_group_IT_number 50
_space_group.IT_coordinate_system_code '2'
_symmetry_cell_setting 'orthorhombic'
loop_
_space_group_symop_operation_xyz
x,y,z
1/2-x,1/2-y,z
x,1/2-y,-z
1/2-x,y,-z
-x,-y,-z
1/2+x,1/2+y,-z
-x,1/2+y,z
1/2+x,-y,z
loop_
_atom_site_type_symbol
_atom_site_label
_atom_site_fract_x
_atom_site_fract_y
_atom_site_fract_z
Si Si1 0.250000 0.059349 0.000000
Si Si2 0.750000 0.750000 0.000000
Si Si3 0.396979 0.024510 0.877821
Si Si4 0.491901 0.580258 0.176410
Si Si5 0.335032 0.343937 0.786662
Si Si6 0.028422 0.184019 0.049698
Si Si7 0.430400 0.124671 0.563314
O O1 0.315378 0.023918 0.920865
O O2 0.213128 0.102218 0.840125
O O3 0.707558 0.789078 0.847034
O O4 0.409099 0.071670 0.703877
O O5 0.429647 0.964266 0.817592
O O6 0.443447 0.046685 0.069227
O O7 0.476749 0.636482 0.041322
O O8 0.516133 0.601676 0.395903
O O9 0.400555 0.335905 0.938150
O O10 0.366245 0.350505 0.563914
O O11 0.015044 0.250000 0.000000
O O12 0.038763 0.172139 0.287082
#
# Coordination Sequence:
#
# PCOD9395597 Si02
#       7
#     4   2   8   8   8   8   8
#     4  11  18  35  46  72 103 130 161 208 252 294
#     4  10  20  36  42  60 114 136 178 204 238 292
#     4  10  19  33  50  71 101 127 168 212 248 306
#     4   9  19  34  50  70  96 134 165 208 258 291
#     4  10  20  33  46  69  99 138 169 205 245 285
#     4  10  19  35  49  71 101 130 171 212 240 297
#     4  10  18  34  52  69  93 135 178 203 254 293
#
# _framework density 15.357329
#
# number of rings (size 3 to 8) (size 9 to 14) (size 15 to 20)
#    0.000    2.087    6.087    0.522    0.000    3.478 
#    0.000    0.870    0.000    0.000    0.000    0.609 
#    0.000    0.000    0.000    0.000    0.000    0.000 
#
# Total GULP energy -256138.482025 kJ/mol
# GULP energy per Si atom -5568.227870 kJ/mol
# Density = 1.532237 g / cm^3
# Si number density = 15.357329 Si / 1000 Ang^3
#
#
#
# Elastic Constant Matrix: (Units=GPa)
#
#
# Indices 1 2 3 4 5 6 
#
# 1 61.5915 53.0386 26.2590 0.0000 0.0000 0.0000
# 2 53.0386 116.7564 45.3938 0.0000 0.0000 0.0000
# 3 26.2590 45.3938 102.2779 0.0000 0.0000 0.0000
# 4 0.0000 0.0000 0.0000 16.4694 0.0000 0.0000
# 5 0.0000 0.0000 0.0000 0.0000 6.2564 0.0000
# 6 0.0000 0.0000 0.0000 0.0000 0.0000 60.3051
#
#
#
# Elastic Compliance Matrix: (Units=1/GPa)
#
#
# Indices 1 2 3 4 5 6 
#
# 1 0.026938 -0.011539 -0.001795 0.000000 0.000000 0.000000
# 2 -0.011539 0.015294 -0.003825 0.000000 0.000000 0.000000
# 3 -0.001795 -0.003825 0.011936 0.000000 0.000000 0.000000
# 4 0.000000 0.000000 0.000000 0.060719 0.000000 0.000000
# 5 0.000000 0.000000 0.000000 0.000000 0.159835 0.000000
# 6 0.000000 0.000000 0.000000 0.000000 0.000000 0.016582
#
#
# Mechanical properties :
#
#
# Convention : Reuss Voigt Hill
#
# Bulk Modulus (GPa) = 50.37943 58.88984 54.63463
# Shear Modulus (GPa) = 15.04940 27.00180 21.02560
#
# Velocity S-wave (km/s) = 3.13381 4.19768 3.70414
# Velocity P-wave (km/s) = 6.78015 7.86916 7.34486
#
# Compressibility (1/GPa) = 0.01984937
#
# Stress axis : x y z
#
# Youngs Moduli (GPa) = 37.12217 65.38500 83.78146
#
# Poissons Ratio (x) = 0.75450 0.15036
# Poissons Ratio (y) = 0.42837 0.32049
# Poissons Ratio (z) = 0.06662 0.25012
#
# Static dielectric constant tensor:
#      x y z
#    x 1.521430 0.000000 0.000000 
#    y 0.000000 1.551560 0.000000 
#    z 0.000000 0.000000 1.537240 
# 
# From -- ./inp_files/4613.got.cif
#   From: 2010.05.17/outbox.cif.g08.bks.cpg/sg50_3_cif.got.tgz:4613.got - 2010.06.03 11:33:33.
