data_PCOD9395486
_publ_section_title
;
Structure prediction by ZEFSAII (Michael W. Deem and Ramdas Pophale) SiO2 
 PCOD9395486
Probable space group: P B A N
;
_chemical_formula_sum "Si O2"
_cell_formula_units_Z 52
_cell_length_a 22.508274
_cell_length_b 14.815918
_cell_length_c 7.915365
_cell_angle_alpha 90.000000
_cell_angle_beta 90.000000
_cell_angle_gamma 90.000000
_cell_volume 2639.621793
_symmetry_space_group_name_H-M "P B A N"
_symmetry_group_IT_number 50
_space_group.IT_coordinate_system_code '2'
_symmetry_cell_setting 'orthorhombic'
loop_
_space_group_symop_operation_xyz
x,y,z
1/2-x,1/2-y,z
x,1/2-y,-z
1/2-x,y,-z
-x,-y,-z
1/2+x,1/2+y,-z
-x,1/2+y,z
1/2+x,-y,z
loop_
_atom_site_type_symbol
_atom_site_label
_atom_site_fract_x
_atom_site_fract_y
_atom_site_fract_z
Si Si1 0.452376 0.228924 0.775526
Si Si2 0.517388 0.412207 0.775923
Si Si3 0.562681 0.157204 0.572715
Si Si4 0.313399 0.439642 0.430611
Si Si5 0.609466 0.497121 0.259271
Si Si6 0.142836 0.250000 0.500000
Si Si7 0.386662 0.450107 0.097597
O O1 0.493630 0.313317 0.839690
O O2 0.498857 0.176496 0.656813
O O3 0.401632 0.272245 0.655814
O O4 0.417628 0.149374 0.878357
O O5 0.548864 0.399596 0.595120
O O6 0.457974 0.468616 0.748651
O O7 0.562691 0.472086 0.884902
O O8 0.588044 0.250000 0.500000
O O9 0.603505 0.109819 0.711148
O O10 0.250000 0.471854 0.500000
O O11 0.360019 0.469670 0.571531
O O12 0.317284 0.331746 0.439375
O O13 0.338339 0.463964 0.245599
O O14 0.638911 0.535123 0.089580
#
# Coordination Sequence:
#
# PCOD9395486 Si02
#       7
#     8   8   8   8   8   4   8
#     4  10  18  32  56  92 126 162 193 236 303 376
#     4  11  18  35  57  87 127 161 189 242 308 377
#     4  10  19  33  57  88 124 160 195 236 303 377
#     4  11  24  42  62  81 117 166 213 257 300 347
#     4  12  22  38  60  88 125 158 201 258 301 366
#     4  10  17  36  58  86 116 162 207 244 288 354
#     4  11  24  37  59  93 125 160 207 247 308 378
#
# _framework density 19.69979
#
# number of rings (size 3 to 8) (size 9 to 14) (size 15 to 20)
#    0.000    1.231    6.923    2.077    0.000    1.231 
#    2.769    0.000    0.000    2.308    0.000    0.000 
#    9.231    0.000    0.000    0.000    0.000    0.000 
#
# Total GULP energy -289831.588061 kJ/mol
# GULP energy per Si atom -5573.684386 kJ/mol
# Density = 1.965495 g / cm^3
# Si number density = 19.699790 Si / 1000 Ang^3
#
#
#
# Elastic Constant Matrix: (Units=GPa)
#
#
# Indices 1 2 3 4 5 6 
#
# 1 37.0880 17.1260 12.2886 0.0000 0.0000 0.0000
# 2 17.1260 79.7212 35.2828 0.0000 0.0000 0.0000
# 3 12.2886 35.2828 104.6372 0.0000 0.0000 0.0000
# 4 0.0000 0.0000 0.0000 27.8444 0.0000 0.0000
# 5 0.0000 0.0000 0.0000 0.0000 13.8872 0.0000
# 6 0.0000 0.0000 0.0000 0.0000 0.0000 9.1239
#
#
#
# Elastic Compliance Matrix: (Units=1/GPa)
#
#
# Indices 1 2 3 4 5 6 
#
# 1 0.030157 -0.005772 -0.001595 0.000000 0.000000 0.000000
# 2 -0.005772 0.015849 -0.004666 0.000000 0.000000 0.000000
# 3 -0.001595 -0.004666 0.011318 0.000000 0.000000 0.000000
# 4 0.000000 0.000000 0.000000 0.035914 0.000000 0.000000
# 5 0.000000 0.000000 0.000000 0.000000 0.072009 0.000000
# 6 0.000000 0.000000 0.000000 0.000000 0.000000 0.109603
#
#
# Mechanical properties :
#
#
# Convention : Reuss Voigt Hill
#
# Bulk Modulus (GPa) = 30.06998 38.98235 34.52616
# Shear Modulus (GPa) = 16.12894 20.62102 18.37498
#
# Velocity S-wave (km/s) = 2.86446 3.23888 3.05741
# Velocity P-wave (km/s) = 5.12225 5.81535 5.47977
#
# Compressibility (1/GPa) = 0.03325576
#
# Stress axis : x y z
#
# Youngs Moduli (GPa) = 33.15982 63.09578 88.35810
#
# Poissons Ratio (x) = 0.36422 0.14095
# Poissons Ratio (y) = 0.19141 0.41230
# Poissons Ratio (z) = 0.05290 0.29442
#
# Static dielectric constant tensor:
#      x y z
#    x 1.668820 0.000000 0.000000 
#    y 0.000000 1.804590 0.000000 
#    z 0.000000 0.000000 1.770900 
# 
# From -- ./inp_files/15286.got.cif
#   From: 2010.05.17/outbox.cif.g08.bks.cpg/sg50_8_cif.got.tgz:15286.got - 2010.06.03 11:33:33.
