data_PCOD9395755
_publ_section_title
;
Structure prediction by ZEFSAII (Michael W. Deem and Ramdas Pophale) SiO2 
 PCOD9395755
Probable space group: P B A N
;
_chemical_formula_sum "Si O2"
_cell_formula_units_Z 48
_cell_length_a 17.507935
_cell_length_b 8.305009
_cell_length_c 14.380834
_cell_angle_alpha 90.000000
_cell_angle_beta 90.000000
_cell_angle_gamma 90.000000
_cell_volume 2091.024427
_symmetry_space_group_name_H-M "P B A N"
_symmetry_group_IT_number 50
_space_group.IT_coordinate_system_code '2'
_symmetry_cell_setting 'orthorhombic'
loop_
_space_group_symop_operation_xyz
x,y,z
1/2-x,1/2-y,z
x,1/2-y,-z
1/2-x,y,-z
-x,-y,-z
1/2+x,1/2+y,-z
-x,1/2+y,z
1/2+x,-y,z
loop_
_atom_site_type_symbol
_atom_site_label
_atom_site_fract_x
_atom_site_fract_y
_atom_site_fract_z
Si Si1 0.612629 0.229586 0.900125
Si Si2 0.537938 0.366274 0.359234
Si Si3 0.172153 0.311969 0.777444
Si Si4 0.975649 0.552153 0.156641
Si Si5 0.324850 0.817222 0.715559
Si Si6 0.886598 0.818250 0.410164
O O1 0.563224 0.386312 0.871198
O O2 0.547632 0.094324 0.906731
O O3 0.667430 0.213618 0.811876
O O4 0.650348 0.250000 0.000000
O O5 0.511738 0.444110 0.260472
O O6 0.597933 0.224079 0.338705
O O7 0.582290 0.501077 0.416782
O O8 0.461363 0.295175 0.401238
O O9 0.250000 0.250000 0.823859
O O10 0.094713 0.319989 0.838522
O O11 0.180974 0.495492 0.740651
O O12 0.157716 0.202622 0.686680
O O13 0.250000 0.750000 0.665903
O O14 0.843957 0.750000 0.500000
#
# Coordination Sequence:
#
# PCOD9395755 Si02
#       6
#     8   8   8   8   8   8
#     4  10  19  32  53  80 107 133 170 221 269 314
#     4  10  19  35  55  79 108 141 181 217 261 324
#     4  10  20  36  55  77 105 141 183 220 262 322
#     4   9  18  33  53  77 104 139 177 212 260 318
#     4  10  21  36  55  77 104 144 184 218 262 320
#     4  11  21  34  56  82 108 136 171 224 273 316
#
# _framework density 22.955255999999999
#
# number of rings (size 3 to 8) (size 9 to 14) (size 15 to 20)
#    0.000    2.000    0.000    7.000    0.000    2.000 
#    0.000    0.000    0.000    6.000    0.000    0.000 
#    0.000    0.000    0.000    0.000    0.000    0.000 
#
# Total GULP energy -268165.122851 kJ/mol
# GULP energy per Si atom -5586.773393 kJ/mol
# Density = 2.290301 g / cm^3
# Si number density = 22.955256 Si / 1000 Ang^3
#
#
#
# Elastic Constant Matrix: (Units=GPa)
#
#
# Indices 1 2 3 4 5 6 
#
# 1 91.6035 6.0510 -6.8787 0.0000 0.0000 0.0000
# 2 6.0510 70.7219 -14.3845 0.0000 0.0000 0.0000
# 3 -6.8787 -14.3845 29.4165 0.0000 0.0000 0.0000
# 4 0.0000 0.0000 0.0000 4.4615 0.0000 0.0000
# 5 0.0000 0.0000 0.0000 0.0000 5.4526 0.0000
# 6 0.0000 0.0000 0.0000 0.0000 0.0000 30.8336
#
#
#
# Elastic Compliance Matrix: (Units=1/GPa)
#
#
# Indices 1 2 3 4 5 6 
#
# 1 0.011126 -0.000469 0.002372 0.000000 0.000000 0.000000
# 2 -0.000469 0.015721 0.007578 0.000000 0.000000 0.000000
# 3 0.002372 0.007578 0.038255 0.000000 0.000000 0.000000
# 4 0.000000 0.000000 0.000000 0.224140 0.000000 0.000000
# 5 0.000000 0.000000 0.000000 0.000000 0.183398 0.000000
# 6 0.000000 0.000000 0.000000 0.000000 0.000000 0.032432
#
#
# Mechanical properties :
#
#
# Convention : Reuss Voigt Hill
#
# Bulk Modulus (GPa) = 11.89586 17.92417 14.91002
# Shear Modulus (GPa) = 9.72514 21.94648 15.83581
#
# Velocity S-wave (km/s) = 2.06052 3.09537 2.62936
# Velocity P-wave (km/s) = 3.29461 4.53876 3.96578
#
# Compressibility (1/GPa) = 0.08406285
#
# Stress axis : x y z
#
# Youngs Moduli (GPa) = 89.88157 63.60774 26.14051
#
# Poissons Ratio (x) = 0.02986 -0.06201
# Poissons Ratio (y) = 0.04220 -0.19809
# Poissons Ratio (z) = -0.21320 -0.48201
#
# Static dielectric constant tensor:
#      x y z
#    x 1.852640 0.000000 0.000000 
#    y 0.000000 1.881620 0.000000 
#    z 0.000000 0.000000 1.928140 
# 
# From -- ./inp_files/24970.got.cif
#   From: 2010.05.17/outbox.cif.g08.bks.cpg/sg50_13_cif.got.tgz:24970.got - 2010.06.03 11:33:33.
