data_PCOD9395101
_publ_section_title
;
Structure prediction by ZEFSAII (Michael W. Deem and Ramdas Pophale) SiO2 
 PCOD9395101
Probable space group: P C C M
;
_chemical_formula_sum "Si O2"
_cell_formula_units_Z 40
_cell_length_a 8.058389
_cell_length_b 12.091802
_cell_length_c 18.754416
_cell_angle_alpha 90.000000
_cell_angle_beta 90.000000
_cell_angle_gamma 90.000000
_cell_volume 1827.438626
_symmetry_space_group_name_H-M "P C C M"
_symmetry_group_IT_number 49
_symmetry_cell_setting 'orthorhombic'
loop_
_space_group_symop_operation_xyz
x,y,z
-x,-y,z
x,-y,1/2-z
-x,y,1/2-z
-x,-y,-z
x,y,-z
-x,y,1/2+z
x,-y,1/2+z
loop_
_atom_site_type_symbol
_atom_site_label
_atom_site_fract_x
_atom_site_fract_y
_atom_site_fract_z
Si Si1 0.312971 0.548816 0.822602
Si Si2 0.905496 0.748049 0.675108
Si Si3 0.385938 0.839278 0.585328
Si Si4 0.182535 0.631394 0.415430
Si Si5 0.754603 0.067026 0.085721
O O1 0.500000 0.500000 0.823463
O O2 0.234611 0.500000 0.750000
O O3 0.266690 0.677823 0.818922
O O4 0.231113 0.489936 0.890208
O O5 0.876345 0.862323 0.633951
O O6 0.000000 0.760825 0.750000
O O7 0.021626 0.673866 0.624876
O O8 0.369789 0.838528 0.500000
O O9 0.326159 0.718947 0.608774
O O10 0.573948 0.876545 0.597621
O O11 0.267443 0.939787 0.609017
O O12 0.162916 0.636152 0.500000
O O13 0.791533 0.072280 0.000000
#
# Coordination Sequence:
#
# PCOD9395101 Si02
#       5
#     8   8   8   8   8
#     4  11  24  43  65  85 118 165 206 252 313 372
#     4  12  24  39  60  89 129 163 202 254 314 375
#     4   8  17  37  64  95 125 159 206 260 305 354
#     4  11  23  39  64  94 124 159 205 257 311 368
#     4   9  18  37  65  92 125 166 210 254 302 363
#
# _framework density 21.888562
#
# number of rings (size 3 to 8) (size 9 to 14) (size 15 to 20)
#    0.000    1.800    2.000    3.600    0.000    3.600 
#    0.000    5.000    0.000    2.400    0.000    0.000 
#    0.000    0.000    0.000    0.000    0.000    0.000 
#
# Total GULP energy -223260.500892 kJ/mol
# GULP energy per Si atom -5581.512522 kJ/mol
# Density = 2.183874 g / cm^3
# Si number density = 21.888562 Si / 1000 Ang^3
#
#
#
# Elastic Constant Matrix: (Units=GPa)
#
#
# Indices 1 2 3 4 5 6 
#
# 1 69.7851 16.2527 34.4299 0.0000 0.0000 0.0000
# 2 16.2527 89.0072 34.2828 0.0000 0.0000 0.0000
# 3 34.4299 34.2828 106.7333 0.0000 0.0000 0.0000
# 4 0.0000 0.0000 0.0000 -46.3928 0.0000 0.0000
# 5 0.0000 0.0000 0.0000 0.0000 23.4430 0.0000
# 6 0.0000 0.0000 0.0000 0.0000 0.0000 21.7065
#
#
#
# Elastic Compliance Matrix: (Units=1/GPa)
#
#
# Indices 1 2 3 4 5 6 
#
# 1 0.017143 -0.001142 -0.005163 0.000000 0.000000 0.000000
# 2 -0.001142 0.012897 -0.003774 0.000000 0.000000 0.000000
# 3 -0.005163 -0.003774 0.012247 0.000000 0.000000 0.000000
# 4 0.000000 0.000000 0.000000 -0.021555 0.000000 0.000000
# 5 0.000000 0.000000 0.000000 0.000000 0.042657 0.000000
# 6 0.000000 0.000000 0.000000 0.000000 0.000000 0.046069
#
#
# Mechanical properties :
#
#
# Convention : Reuss Voigt Hill
#
# Bulk Modulus (GPa) = 45.18987 48.38404 46.78696
# Shear Modulus (GPa) = 36.49826 11.78867 24.14346
#
# Velocity S-wave (km/s) = 4.08788 2.32324 3.32477
# Velocity P-wave (km/s) = 6.55525 5.41750 6.01334
#
# Compressibility (1/GPa) = 0.02212885
#
# Stress axis : x y z
#
# Youngs Moduli (GPa) = 58.33283 77.53579 81.65232
#
# Poissons Ratio (x) = 0.08851 0.42160
# Poissons Ratio (y) = 0.06659 0.30819
# Poissons Ratio (z) = 0.30119 0.29265
#
# Static dielectric constant tensor:
#      x y z
#    x 1.896800 0.000000 0.000000 
#    y 0.000000 1.822890 0.000000 
#    z 0.000000 0.000000 1.755520 
# 
# From -- ./inp_files/15975.got.cif
#   From: 2010.05.17/outbox.cif.g08.bks.cpg/sg49_8_cif.got.tgz:15975.got - 2010.06.03 21:02:19.
