data_PCOD9395628
_publ_section_title
;
Structure prediction by ZEFSAII (Michael W. Deem and Ramdas Pophale) SiO2 
 PCOD9395628
Probable space group: P B A N
;
_chemical_formula_sum "Si O2"
_cell_formula_units_Z 56
_cell_length_a 8.879877
_cell_length_b 19.406952
_cell_length_c 16.995191
_cell_angle_alpha 90.000000
_cell_angle_beta 90.000000
_cell_angle_gamma 90.000000
_cell_volume 2928.804153
_symmetry_space_group_name_H-M "P B A N"
_symmetry_group_IT_number 50
_space_group.IT_coordinate_system_code '2'
_symmetry_cell_setting 'orthorhombic'
loop_
_space_group_symop_operation_xyz
x,y,z
1/2-x,1/2-y,z
x,1/2-y,-z
1/2-x,y,-z
-x,-y,-z
1/2+x,1/2+y,-z
-x,1/2+y,z
1/2+x,-y,z
loop_
_atom_site_type_symbol
_atom_site_label
_atom_site_fract_x
_atom_site_fract_y
_atom_site_fract_z
Si Si1 0.430988 0.168116 0.687612
Si Si2 0.081216 0.922124 0.374535
Si Si3 0.361112 0.436550 0.841627
Si Si4 0.896689 0.677083 0.728729
Si Si5 0.632518 0.023343 0.057839
Si Si6 0.070835 0.673593 0.483361
Si Si7 0.604156 0.459855 0.303105
O O1 0.251628 0.163609 0.675375
O O2 0.443156 0.243200 0.727946
O O3 0.517464 0.163515 0.605114
O O4 0.505996 0.103442 0.731736
O O5 0.031481 0.887365 0.456356
O O6 0.255058 0.935535 0.355151
O O7 0.028940 0.867341 0.308690
O O8 0.999846 0.993872 0.358842
O O9 0.346031 0.358859 0.809808
O O10 0.532290 0.441508 0.874647
O O11 0.234748 0.463123 0.902808
O O12 0.347380 0.489585 0.768059
O O13 0.750000 0.062651 0.000000
O O14 0.500000 0.000000 0.000000
O O15 0.007295 0.750000 0.500000
O O16 0.250000 0.678125 0.500000
#
# Coordination Sequence:
#
# PCOD9395628 Si02
#       7
#     8   8   8   8   8   8   8
#     4  11  22  39  57  85 112 154 210 260 303 379
#     4  11  22  40  57  83 113 156 200 262 320 379
#     4  10  18  36  57  88 124 156 190 245 302 355
#     4  10  22  37  59  85 116 155 207 248 306 367
#     4   9  18  32  58  94 126 154 189 233 292 362
#     4  11  22  40  60  77 109 157 208 261 329 363
#     4  11  22  36  61  86 121 154 202 258 311 369
#
# _framework density 19.120431
#
# number of rings (size 3 to 8) (size 9 to 14) (size 15 to 20)
#    0.000    1.571    2.857    4.286    0.000    1.714 
#    0.000    0.000    0.000    0.000    0.000   73.000 
#    0.000    0.000    0.000    0.000    0.000    0.000 
#
# Total GULP energy -311761.096651 kJ/mol
# GULP energy per Si atom -5567.162440 kJ/mol
# Density = 1.907691 g / cm^3
# Si number density = 19.120431 Si / 1000 Ang^3
#
#
#
# Elastic Constant Matrix: (Units=GPa)
#
#
# Indices 1 2 3 4 5 6 
#
# 1 102.3999 51.3234 21.7889 0.0000 0.0000 0.0000
# 2 51.3234 128.1277 31.6849 0.0000 0.0000 0.0000
# 3 21.7889 31.6849 72.7257 0.0000 0.0000 0.0000
# 4 0.0000 0.0000 0.0000 -30.8372 0.0000 0.0000
# 5 0.0000 0.0000 0.0000 0.0000 30.6735 0.0000
# 6 0.0000 0.0000 0.0000 0.0000 0.0000 19.2693
#
#
#
# Elastic Compliance Matrix: (Units=1/GPa)
#
#
# Indices 1 2 3 4 5 6 
#
# 1 0.012412 -0.004542 -0.001740 0.000000 0.000000 0.000000
# 2 -0.004542 0.010409 -0.003174 0.000000 0.000000 0.000000
# 3 -0.001740 -0.003174 0.015655 0.000000 0.000000 0.000000
# 4 0.000000 0.000000 0.000000 -0.032428 0.000000 0.000000
# 5 0.000000 0.000000 0.000000 0.000000 0.032601 0.000000
# 6 0.000000 0.000000 0.000000 0.000000 0.000000 0.051896
#
#
# Mechanical properties :
#
#
# Convention : Reuss Voigt Hill
#
# Bulk Modulus (GPa) = 51.11470 56.98308 54.04889
# Shear Modulus (GPa) = 43.11177 17.05154 30.08166
#
# Velocity S-wave (km/s) = 4.75357 2.98954 3.97075
# Velocity P-wave (km/s) = 7.54451 6.46400 7.02506
#
# Compressibility (1/GPa) = 0.01956384
#
# Stress axis : x y z
#
# Youngs Moduli (GPa) = 80.56632 96.07210 63.87912
#
# Poissons Ratio (x) = 0.43632 0.11116
# Poissons Ratio (y) = 0.36590 0.20277
# Poissons Ratio (z) = 0.14019 0.30495
#
# Static dielectric constant tensor:
#      x y z
#    x 1.703420 0.000000 0.000000 
#    y 0.000000 1.731180 0.000000 
#    z 0.000000 0.000000 1.753640 
# 
# From -- ./inp_files/28916.got.cif
#   From: 2010.05.17/outbox.cif.g08.bks.cpg/sg50_15_cif.got.tgz:28916.got - 2010.06.03 11:33:33.
