data_PCOD9395512
_publ_section_title
;
Structure prediction by ZEFSAII (Michael W. Deem and Ramdas Pophale) SiO2 
 PCOD9395512
Probable space group: P B A N
;
_chemical_formula_sum "Si O2"
_cell_formula_units_Z 40
_cell_length_a 22.223704
_cell_length_b 6.908025
_cell_length_c 8.934455
_cell_angle_alpha 90.000000
_cell_angle_beta 90.000000
_cell_angle_gamma 90.000000
_cell_volume 1371.634532
_symmetry_space_group_name_H-M "P B A N"
_symmetry_group_IT_number 50
_space_group.IT_coordinate_system_code '2'
_symmetry_cell_setting 'orthorhombic'
loop_
_space_group_symop_operation_xyz
x,y,z
1/2-x,1/2-y,z
x,1/2-y,-z
1/2-x,y,-z
-x,-y,-z
1/2+x,1/2+y,-z
-x,1/2+y,z
1/2+x,-y,z
loop_
_atom_site_type_symbol
_atom_site_label
_atom_site_fract_x
_atom_site_fract_y
_atom_site_fract_z
Si Si1 0.667690 0.477466 0.536371
Si Si2 0.545087 0.394037 0.686224
Si Si3 0.779734 0.463064 0.154380
Si Si4 0.913778 0.473183 0.027429
Si Si5 0.086628 0.051351 0.699176
O O1 0.679813 0.250000 0.500000
O O2 0.598672 0.496618 0.596945
O O3 0.713432 0.532084 0.670677
O O4 0.651588 0.583016 0.378957
O O5 0.540106 0.517007 0.840004
O O6 0.476658 0.370047 0.637068
O O7 0.573912 0.180248 0.693941
O O8 0.750000 0.250000 0.167099
O O9 0.848925 0.457385 0.104498
O O10 0.750000 0.545966 0.000000
O O11 0.930610 0.250000 0.000000
O O12 0.908311 0.593245 0.876484
#
# Coordination Sequence:
#
# PCOD9395512 Si02
#       5
#     8   8   8   8   8
#     4   9  19  30  43  69  98 134 162 207 250 313
#     4   9  18  30  48  68 103 144 171 202 255 298
#     4  10  18  29  46  65  98 137 162 201 273 322
#     4   9  16  29  44  68  97 139 168 209 246 310
#     4  10  18  31  48  71 104 143 168 211 249 305
#
# _framework density 29.162288
#
# number of rings (size 3 to 8) (size 9 to 14) (size 15 to 20)
#    0.000    2.600    2.000    2.400    0.000    0.400 
#    0.000    0.000    0.000    0.000    0.000    0.000 
#    0.000   12.800   36.800    0.000    0.000    0.000 
#
# Total GULP energy -223215.077850 kJ/mol
# GULP energy per Si atom -5580.376946 kJ/mol
# Density = 2.909591 g / cm^3
# Si number density = 29.162288 Si / 1000 Ang^3
#
#
#
# Elastic Constant Matrix: (Units=GPa)
#
#
# Indices 1 2 3 4 5 6 
#
# 1 185.5037 25.5185 67.0155 0.0000 0.0000 0.0000
# 2 25.5185 103.4991 29.6614 0.0000 0.0000 0.0000
# 3 67.0155 29.6614 211.5578 0.0000 0.0000 0.0000
# 4 0.0000 0.0000 0.0000 7.0589 0.0000 0.0000
# 5 0.0000 0.0000 0.0000 0.0000 64.2550 0.0000
# 6 0.0000 0.0000 0.0000 0.0000 0.0000 30.2497
#
#
#
# Elastic Compliance Matrix: (Units=1/GPa)
#
#
# Indices 1 2 3 4 5 6 
#
# 1 0.006186 -0.001004 -0.001819 0.000000 0.000000 0.000000
# 2 -0.001004 0.010229 -0.001116 0.000000 0.000000 0.000000
# 3 -0.001819 -0.001116 0.005459 0.000000 0.000000 0.000000
# 4 0.000000 0.000000 0.000000 0.141664 0.000000 0.000000
# 5 0.000000 0.000000 0.000000 0.000000 0.015563 0.000000
# 6 0.000000 0.000000 0.000000 0.000000 0.000000 0.033058
#
#
# Mechanical properties :
#
#
# Convention : Reuss Voigt Hill
#
# Bulk Modulus (GPa) = 71.44430 82.77238 77.10834
# Shear Modulus (GPa) = 22.25154 45.53708 33.89431
#
# Velocity S-wave (km/s) = 2.76529 3.95588 3.41290
# Velocity P-wave (km/s) = 5.89473 7.02213 6.48298
#
# Compressibility (1/GPa) = 0.01399692
#
# Stress axis : x y z
#
# Youngs Moduli (GPa) = 161.65848 97.75812 183.16814
#
# Poissons Ratio (x) = 0.09814 0.33314
# Poissons Ratio (y) = 0.16230 0.20445
# Poissons Ratio (z) = 0.29402 0.10912
#
# Static dielectric constant tensor:
#      x y z
#    x 2.155420 0.000000 0.000000 
#    y 0.000000 2.326780 0.000000 
#    z 0.000000 0.000000 2.684340 
# 
# From -- ./inp_files/15126.got.cif
#   From: 2010.05.17/outbox.cif.g08.bks.cpg/sg50_8_cif.got.tgz:15126.got - 2010.06.03 11:33:33.
