data_PCOD9395507
_publ_section_title
;
Structure prediction by ZEFSAII (Michael W. Deem and Ramdas Pophale) SiO2 
 PCOD9395507
Probable space group: P B A N
;
_chemical_formula_sum "Si O2"
_cell_formula_units_Z 44
_cell_length_a 11.784043
_cell_length_b 28.993418
_cell_length_c 5.574040
_cell_angle_alpha 90.000000
_cell_angle_beta 90.000000
_cell_angle_gamma 90.000000
_cell_volume 1904.424747
_symmetry_space_group_name_H-M "P B A N"
_symmetry_group_IT_number 50
_space_group.IT_coordinate_system_code '2'
_symmetry_cell_setting 'orthorhombic'
loop_
_space_group_symop_operation_xyz
x,y,z
1/2-x,1/2-y,z
x,1/2-y,-z
1/2-x,y,-z
-x,-y,-z
1/2+x,1/2+y,-z
-x,1/2+y,z
1/2+x,-y,z
loop_
_atom_site_type_symbol
_atom_site_label
_atom_site_fract_x
_atom_site_fract_y
_atom_site_fract_z
Si Si1 0.549415 0.250000 0.000000
Si Si2 0.078645 0.336093 0.111726
Si Si3 0.365563 0.697939 0.603695
Si Si4 0.094035 0.361355 0.599979
Si Si5 0.125405 0.588838 0.928201
Si Si6 0.456781 0.949801 0.427046
O O1 0.465071 0.216201 0.142939
O O2 0.629603 0.287524 0.121685
O O3 0.972956 0.372338 0.083394
O O4 0.148405 0.350349 0.345046
O O5 0.134517 0.341445 0.851765
O O6 0.378563 0.750000 0.500000
O O7 0.250000 0.678409 0.500000
O O8 0.470551 0.664465 0.567860
O O9 0.064292 0.415179 0.598649
O O10 0.117638 0.566609 0.660355
O O11 0.250000 0.607259 0.000000
O O12 0.098508 0.555489 0.160010
O O13 0.500000 0.000000 0.500000
#
# Coordination Sequence:
#
# PCOD9395507 Si02
#       6
#     4   8   8   8   8   8
#     4  10  18  29  34  50  78 110 148 178 213 248
#     4   9  18  28  42  56  83 112 146 186 224 251
#     4  10  19  28  35  53  79 112 147 179 220 242
#     4   9  18  31  40  57  78 108 149 190 219 258
#     4  10  20  34  48  70  91 116 151 204 241 272
#     4  10  20  34  51  66  88 120 159 197 239 289
#
# _framework density 23.104091
#
# number of rings (size 3 to 8) (size 9 to 14) (size 15 to 20)
#    0.000    2.364    1.818    1.091    0.000   10.182 
#    0.000    0.000    0.000    0.000    0.000    0.000 
#    0.000    0.000    0.000    0.000    0.000    5.455 
#
# Total GULP energy -245032.994646 kJ/mol
# GULP energy per Si atom -5568.931696 kJ/mol
# Density = 2.305150 g / cm^3
# Si number density = 23.104091 Si / 1000 Ang^3
#
#
#
# Elastic Constant Matrix: (Units=GPa)
#
#
# Indices 1 2 3 4 5 6 
#
# 1 61.6004 3.2171 23.3378 0.0000 0.0000 0.0000
# 2 3.2171 97.6290 20.1909 0.0000 0.0000 0.0000
# 3 23.3378 20.1909 189.0652 0.0000 0.0000 0.0000
# 4 0.0000 0.0000 0.0000 22.6722 0.0000 0.0000
# 5 0.0000 0.0000 0.0000 0.0000 27.6952 0.0000
# 6 0.0000 0.0000 0.0000 0.0000 0.0000 -9.2093
#
#
#
# Elastic Compliance Matrix: (Units=1/GPa)
#
#
# Indices 1 2 3 4 5 6 
#
# 1 0.017032 -0.000129 -0.002089 0.000000 0.000000 0.000000
# 2 -0.000129 0.010475 -0.001103 0.000000 0.000000 0.000000
# 3 -0.002089 -0.001103 0.005665 0.000000 0.000000 0.000000
# 4 0.000000 0.000000 0.000000 0.044107 0.000000 0.000000
# 5 0.000000 0.000000 0.000000 0.000000 0.036107 0.000000
# 6 0.000000 0.000000 0.000000 0.000000 0.000000 -0.108586
#
#
# Mechanical properties :
#
#
# Convention : Reuss Voigt Hill
#
# Bulk Modulus (GPa) = 37.69251 49.08738 43.38994
# Shear Modulus (GPa) = 246.49571 28.33487 137.41529
#
# Velocity S-wave (km/s) = 10.34025 3.50580 7.72047
# Velocity P-wave (km/s) = 12.60598 6.13839 9.91440
#
# Compressibility (1/GPa) = 0.02653047
#
# Stress axis : x y z
#
# Youngs Moduli (GPa) = 58.71408 95.46384 176.53034
#
# Poissons Ratio (x) = 0.01234 0.36869
# Poissons Ratio (y) = 0.00759 0.19466
# Poissons Ratio (z) = 0.12263 0.10527
#
# Static dielectric constant tensor:
#      x y z
#    x 1.845010 0.000000 0.000000 
#    y 0.000000 1.815560 0.000000 
#    z 0.000000 0.000000 2.146530 
# 
# From -- ./inp_files/3515.got.cif
#   From: 2010.05.17/outbox.cif.g08.bks.cpg/sg50_2_cif.got.tgz:3515.got - 2010.06.03 11:33:33.
