data_PCOD9395641
_publ_section_title
;
Structure prediction by ZEFSAII (Michael W. Deem and Ramdas Pophale) SiO2 
 PCOD9395641
Probable space group: P B A N
;
_chemical_formula_sum "Si O2"
_cell_formula_units_Z 58
_cell_length_a 8.947618
_cell_length_b 19.668240
_cell_length_c 16.381990
_cell_angle_alpha 90.000000
_cell_angle_beta 90.000000
_cell_angle_gamma 90.000000
_cell_volume 2882.966461
_symmetry_space_group_name_H-M "P B A N"
_symmetry_group_IT_number 50
_space_group.IT_coordinate_system_code '2'
_symmetry_cell_setting 'orthorhombic'
loop_
_space_group_symop_operation_xyz
x,y,z
1/2-x,1/2-y,z
x,1/2-y,-z
1/2-x,y,-z
-x,-y,-z
1/2+x,1/2+y,-z
-x,1/2+y,z
1/2+x,-y,z
loop_
_atom_site_type_symbol
_atom_site_label
_atom_site_fract_x
_atom_site_fract_y
_atom_site_fract_z
Si Si1 0.078796 0.663618 0.134188
Si Si2 0.554555 0.520993 0.322755
Si Si3 0.113634 0.043369 0.056145
Si Si4 0.052569 0.637411 0.589773
Si Si5 0.750000 0.250000 0.000000
Si Si6 0.571718 0.239875 0.712538
Si Si7 0.589241 0.117717 0.596025
Si Si8 0.787925 0.049126 0.794332
O O1 0.016346 0.720968 0.196579
O O2 0.205572 0.619102 0.182158
O O3 0.965328 0.606292 0.101591
O O4 0.151511 0.702207 0.058250
O O5 0.568351 0.580332 0.388023
O O6 0.519300 0.454031 0.376818
O O7 0.683550 0.496207 0.263409
O O8 0.435912 0.553346 0.259553
O O9 0.176421 0.991463 0.123557
O O10 0.250000 0.067399 0.000000
O O11 0.000000 0.000000 0.000000
O O12 0.025091 0.698838 0.652743
O O13 0.047366 0.647094 0.492556
O O14 0.227774 0.613240 0.600360
O O15 0.750000 0.250000 0.721032
O O16 0.540655 0.172080 0.662147
#
# Coordination Sequence:
#
# PCOD9395641 Si02
#       8
#     8   8   8   8   2   8   8   8
#     4  12  23  42  65  96 132 168 223 277 338 410
#     4  12  21  37  60  96 129 169 210 266 331 388
#     4  12  23  43  68 100 132 166 217 284 353 411
#     4  10  21  34  59  92 127 171 214 269 325 388
#     4  12  28  40  70  92 130 180 222 286 328 416
#     4  10  18  37  60  90 125 168 215 268 324 390
#     4  10  19  36  58  92 130 163 218 272 324 381
#     4  12  22  39  66  94 126 165 212 272 337 402
#
# _framework density 20.118167
#
# number of rings (size 3 to 8) (size 9 to 14) (size 15 to 20)
#    0.000    0.828    6.207    2.483    0.000    1.655 
#    0.000    0.345    0.000    2.483    0.000    3.862 
#    0.000    0.000    0.000    0.000    0.000    0.000 
#
# Total GULP energy -323435.136937 kJ/mol
# GULP energy per Si atom -5576.467878 kJ/mol
# Density = 2.007238 g / cm^3
# Si number density = 20.118167 Si / 1000 Ang^3
#
#
#
# Elastic Constant Matrix: (Units=GPa)
#
#
# Indices 1 2 3 4 5 6 
#
# 1 12.0207 1.9645 13.1294 0.0000 0.0000 0.0000
# 2 1.9645 112.6333 49.6182 0.0000 0.0000 0.0000
# 3 13.1294 49.6182 144.7758 0.0000 0.0000 0.0000
# 4 0.0000 0.0000 0.0000 42.3334 0.0000 0.0000
# 5 0.0000 0.0000 0.0000 0.0000 31.4918 0.0000
# 6 0.0000 0.0000 0.0000 0.0000 0.0000 15.8609
#
#
#
# Elastic Compliance Matrix: (Units=1/GPa)
#
#
# Indices 1 2 3 4 5 6 
#
# 1 0.092912 0.002463 -0.009270 0.000000 0.000000 0.000000
# 2 0.002463 0.010523 -0.003830 0.000000 0.000000 0.000000
# 3 -0.009270 -0.003830 0.009060 0.000000 0.000000 0.000000
# 4 0.000000 0.000000 0.000000 0.023622 0.000000 0.000000
# 5 0.000000 0.000000 0.000000 0.000000 0.031754 0.000000
# 6 0.000000 0.000000 0.000000 0.000000 0.000000 0.063048
#
#
# Mechanical properties :
#
#
# Convention : Reuss Voigt Hill
#
# Bulk Modulus (GPa) = 10.96228 44.31710 27.63969
# Shear Modulus (GPa) = 17.69283 31.58506 24.63894
#
# Velocity S-wave (km/s) = 2.96876 3.96659 3.50338
# Velocity P-wave (km/s) = 4.14875 6.56161 5.48939
#
# Compressibility (1/GPa) = 0.09122193
#
# Stress axis : x y z
#
# Youngs Moduli (GPa) = 10.76285 95.03444 110.36967
#
# Poissons Ratio (x) = -0.23410 1.02315
# Poissons Ratio (y) = -0.02651 0.42268
# Poissons Ratio (z) = 0.09977 0.36395
#
# Static dielectric constant tensor:
#      x y z
#    x 1.733200 0.000000 0.000000 
#    y 0.000000 1.737840 0.000000 
#    z 0.000000 0.000000 1.756300 
# 
# From -- ./inp_files/28898.got.cif
#   From: 2010.05.17/outbox.cif.g08.bks.cpg/sg50_15_cif.got.tgz:28898.got - 2010.06.03 11:33:33.
