data_PCOD9395346
_publ_section_title
;
Structure prediction by ZEFSAII (Michael W. Deem and Ramdas Pophale) SiO2 
 PCOD9395346
Probable space group: P B A N
;
_chemical_formula_sum "Si O2"
_cell_formula_units_Z 56
_cell_length_a 21.738189
_cell_length_b 8.184067
_cell_length_c 14.410089
_cell_angle_alpha 90.000000
_cell_angle_beta 90.000000
_cell_angle_gamma 90.000000
_cell_volume 2563.652753
_symmetry_space_group_name_H-M "P B A N"
_symmetry_group_IT_number 50
_space_group.IT_coordinate_system_code '2'
_symmetry_cell_setting 'orthorhombic'
loop_
_space_group_symop_operation_xyz
x,y,z
1/2-x,1/2-y,z
x,1/2-y,-z
1/2-x,y,-z
-x,-y,-z
1/2+x,1/2+y,-z
-x,1/2+y,z
1/2+x,-y,z
loop_
_atom_site_type_symbol
_atom_site_label
_atom_site_fract_x
_atom_site_fract_y
_atom_site_fract_z
Si Si1 0.750000 0.750000 0.727749
Si Si2 0.147356 0.320304 0.139499
Si Si3 0.431307 0.815927 0.900731
Si Si4 0.008779 0.250000 0.500000
Si Si5 0.807767 0.920652 0.557005
Si Si6 0.530283 0.632750 0.802775
Si Si7 0.068744 0.533446 0.608949
Si Si8 0.820164 0.012875 0.968600
O O1 0.799689 0.647144 0.785780
O O2 0.787978 0.863149 0.658816
O O3 0.081079 0.275185 0.181037
O O4 0.174286 0.153553 0.091824
O O5 0.143994 0.461070 0.062736
O O6 0.462275 0.704239 0.820982
O O7 0.457168 0.996219 0.880557
O O8 0.357787 0.848781 0.912607
O O9 0.453008 0.750000 0.000000
O O10 0.967563 0.302927 0.413065
O O11 0.048290 0.401147 0.532173
O O12 0.823908 0.750000 0.500000
O O13 0.750000 0.987646 0.500000
O O14 0.860589 0.047819 0.581417
O O15 0.549372 0.544098 0.706955
O O16 0.750000 0.045151 0.000000
#
# Coordination Sequence:
#
# PCOD9395346 Si02
#       8
#     4   8   8   4   8   8   8   8
#     4  10  15  31  56  92 120 154 206 263 313 364
#     4  10  18  31  58  92 116 160 209 265 307 375
#     4  11  26  42  60  88 124 171 213 266 320 382
#     4  10  24  36  64  86 128 166 202 250 336 378
#     4   9  19  33  60  94 124 159 206 257 317 383
#     4  11  24  38  64  90 125 162 216 268 318 373
#     4  11  20  42  60  95 124 163 208 264 313 396
#     4  10  20  35  57  85 125 161 215 255 317 378
#
# _framework density 21.843831999999999
#
# number of rings (size 3 to 8) (size 9 to 14) (size 15 to 20)
#    0.000    1.857    3.571    1.714    6.000    0.286 
#    0.000    0.357    6.286    0.000    3.714    0.000 
#    0.000    0.000    0.000    0.000    0.000    0.000 
#
# Total GULP energy -312216.046323 kJ/mol
# GULP energy per Si atom -5575.286541 kJ/mol
# Density = 2.179411 g / cm^3
# Si number density = 21.843832 Si / 1000 Ang^3
#
#
#
# Elastic Constant Matrix: (Units=GPa)
#
#
# Indices 1 2 3 4 5 6 
#
# 1 106.6572 13.8999 22.9526 0.0000 0.0000 0.0000
# 2 13.8999 34.7990 -2.1295 0.0000 0.0000 0.0000
# 3 22.9526 -2.1295 83.5661 0.0000 0.0000 0.0000
# 4 0.0000 0.0000 0.0000 14.9394 0.0000 0.0000
# 5 0.0000 0.0000 0.0000 0.0000 1.7578 0.0000
# 6 0.0000 0.0000 0.0000 0.0000 0.0000 2.9618
#
#
#
# Elastic Compliance Matrix: (Units=1/GPa)
#
#
# Indices 1 2 3 4 5 6 
#
# 1 0.010603 -0.004420 -0.003025 0.000000 0.000000 0.000000
# 2 -0.004420 0.030624 0.001994 0.000000 0.000000 0.000000
# 3 -0.003025 0.001994 0.012848 0.000000 0.000000 0.000000
# 4 0.000000 0.000000 0.000000 0.066937 0.000000 0.000000
# 5 0.000000 0.000000 0.000000 0.000000 0.568905 0.000000
# 6 0.000000 0.000000 0.000000 0.000000 0.000000 0.337634
#
#
# Mechanical properties :
#
#
# Convention : Reuss Voigt Hill
#
# Bulk Modulus (GPa) = 23.16214 32.71871 27.94042
# Shear Modulus (GPa) = 4.74904 16.61842 10.68373
#
# Velocity S-wave (km/s) = 1.47608 2.76122 2.21395
# Velocity P-wave (km/s) = 3.67853 5.01765 4.39934
#
# Compressibility (1/GPa) = 0.04317390
#
# Stress axis : x y z
#
# Youngs Moduli (GPa) = 94.31438 32.65401 77.83184
#
# Poissons Ratio (x) = 0.14434 0.23543
# Poissons Ratio (y) = 0.41689 -0.15523
# Poissons Ratio (z) = 0.28529 -0.06513
#
# Static dielectric constant tensor:
#      x y z
#    x 1.896870 0.000000 0.000000 
#    y 0.000000 1.545230 0.000000 
#    z 0.000000 0.000000 1.821280 
# 
# From -- ./inp_files/27284.got.cif
#   From: 2010.05.17/outbox.cif.g08.bks.cpg/sg50_14_cif.got.tgz:27284.got - 2010.06.03 11:33:33.
