data_PCOD9395624
_publ_section_title
;
Structure prediction by ZEFSAII (Michael W. Deem and Ramdas Pophale) SiO2 
 PCOD9395624
Probable space group: P B A N
;
_chemical_formula_sum "Si O2"
_cell_formula_units_Z 40
_cell_length_a 8.772588
_cell_length_b 15.103464
_cell_length_c 11.328533
_cell_angle_alpha 90.000000
_cell_angle_beta 90.000000
_cell_angle_gamma 90.000000
_cell_volume 1500.990599
_symmetry_space_group_name_H-M "P B A N"
_symmetry_group_IT_number 50
_space_group.IT_coordinate_system_code '2'
_symmetry_cell_setting 'orthorhombic'
loop_
_space_group_symop_operation_xyz
x,y,z
1/2-x,1/2-y,z
x,1/2-y,-z
1/2-x,y,-z
-x,-y,-z
1/2+x,1/2+y,-z
-x,1/2+y,z
1/2+x,-y,z
loop_
_atom_site_type_symbol
_atom_site_label
_atom_site_fract_x
_atom_site_fract_y
_atom_site_fract_z
Si Si1 0.372980 0.599346 0.097862
Si Si2 0.935958 0.619726 0.583156
Si Si3 0.575730 0.674978 0.673560
Si Si4 0.763089 0.347206 0.334358
Si Si5 0.201982 0.077104 0.820878
O O1 0.350849 0.661093 0.210511
O O2 0.304206 0.504676 0.138393
O O3 0.558214 0.592012 0.090386
O O4 0.250000 0.628818 0.000000
O O5 0.920399 0.722226 0.631890
O O6 0.883277 0.623073 0.448017
O O7 0.869230 0.561601 0.689553
O O8 0.118479 0.600137 0.584285
O O9 0.409940 0.634588 0.698449
O O10 0.680409 0.655119 0.786434
O O11 0.750000 0.250000 0.386110
#
# Coordination Sequence:
#
# PCOD9395624 Si02
#       5
#     8   8   8   8   8
#     4  11  24  42  59  78 110 155 203 259 317 357
#     4   9  19  35  60  90 125 160 187 228 296 366
#     4  10  18  35  61  91 124 155 188 236 294 364
#     4   9  19  37  62  90 117 150 196 242 294 367
#     4  11  22  37  58  84 112 153 201 243 296 363
#
# _framework density 26.649068
#
# number of rings (size 3 to 8) (size 9 to 14) (size 15 to 20)
#    0.000    2.000    0.000    3.600    0.000    4.400 
#    0.000   18.000    0.000   12.000    0.000    0.000 
#    0.000    0.000    0.000    0.000    0.000    0.000 
#
# Total GULP energy -223073.415001 kJ/mol
# GULP energy per Si atom -5576.835375 kJ/mol
# Density = 2.658841 g / cm^3
# Si number density = 26.649068 Si / 1000 Ang^3
#
#
#
# Elastic Constant Matrix: (Units=GPa)
#
#
# Indices 1 2 3 4 5 6 
#
# 1 160.6461 4.9508 19.0435 0.0000 0.0000 0.0000
# 2 4.9508 76.1029 18.5094 0.0000 0.0000 0.0000
# 3 19.0435 18.5094 111.8395 0.0000 0.0000 0.0000
# 4 0.0000 0.0000 0.0000 -58.4679 0.0000 0.0000
# 5 0.0000 0.0000 0.0000 0.0000 53.0131 0.0000
# 6 0.0000 0.0000 0.0000 0.0000 0.0000 33.0711
#
#
#
# Elastic Compliance Matrix: (Units=1/GPa)
#
#
# Indices 1 2 3 4 5 6 
#
# 1 0.006355 -0.000157 -0.001056 0.000000 0.000000 0.000000
# 2 -0.000157 0.013695 -0.002240 0.000000 0.000000 0.000000
# 3 -0.001056 -0.002240 0.009492 0.000000 0.000000 0.000000
# 4 0.000000 0.000000 0.000000 -0.017103 0.000000 0.000000
# 5 0.000000 0.000000 0.000000 0.000000 0.018863 0.000000
# 6 0.000000 0.000000 0.000000 0.000000 0.000000 0.030238
#
#
# Mechanical properties :
#
#
# Convention : Reuss Voigt Hill
#
# Bulk Modulus (GPa) = 44.17603 48.17732 46.17667
# Shear Modulus (GPa) = 65.79779 25.92890 45.86335
#
# Velocity S-wave (km/s) = 4.97434 3.12264 4.15301
# Velocity P-wave (km/s) = 7.04308 5.57843 6.35310
#
# Compressibility (1/GPa) = 0.02263671
#
# Stress axis : x y z
#
# Youngs Moduli (GPa) = 157.35919 73.01905 105.35268
#
# Poissons Ratio (x) = 0.01143 0.11127
# Poissons Ratio (y) = 0.02463 0.23598
# Poissons Ratio (z) = 0.16620 0.16355
#
# Static dielectric constant tensor:
#      x y z
#    x 2.380450 0.000000 0.000000 
#    y 0.000000 2.148100 0.000000 
#    z 0.000000 0.000000 2.082400 
# 
# From -- ./inp_files/18723.got.cif
#   From: 2010.05.17/outbox.cif.g08.bks.cpg/sg50_10_cif.got.tgz:18723.got - 2010.06.03 11:33:33.
