data_PCOD9395328
_publ_section_title
;
Structure prediction by ZEFSAII (Michael W. Deem and Ramdas Pophale) SiO2 
 PCOD9395328
Probable space group: P C C M
;
_chemical_formula_sum "Si O2"
_cell_formula_units_Z 48
_cell_length_a 9.000000
_cell_length_b 18.000000
_cell_length_c 15.000000
_cell_angle_alpha 90.000000
_cell_angle_beta 90.000000
_cell_angle_gamma 90.000000
_cell_volume 2430.000000
_symmetry_space_group_name_H-M "P C C M"
_symmetry_group_IT_number 49
_symmetry_cell_setting 'orthorhombic'
loop_
_space_group_symop_operation_xyz
x,y,z
-x,-y,z
x,-y,1/2-z
-x,y,1/2-z
-x,-y,-z
x,y,-z
-x,y,1/2+z
x,-y,1/2+z
loop_
_atom_site_type_symbol
_atom_site_label
_atom_site_fract_x
_atom_site_fract_y
_atom_site_fract_z
Si Si1 0.027845 0.587411 0.500000
Si Si2 0.609269 0.573268 0.000000
Si Si3 0.694497 0.194919 0.104929
Si Si4 0.359734 0.348984 0.187162
Si Si5 0.875592 0.662219 0.322090
Si Si6 0.178370 0.911809 0.748047
Si Si7 0.665218 0.806538 0.105701
O O1 0.208731 0.585228 0.500000
O O2 0.000000 0.500000 0.500000
O O3 0.953239 0.623323 0.409347
O O4 0.500000 0.500000 0.000000
O O5 0.580953 0.609450 0.901915
O O6 0.775324 0.269739 0.140557
O O7 0.756197 0.128240 0.164747
O O8 0.514968 0.193923 0.114165
O O9 0.727899 0.187447 0.000000
O O10 0.500000 0.333221 0.250000
O O11 0.237517 0.383818 0.255899
O O12 0.290665 0.272540 0.148532
O O13 0.000000 0.686701 0.250000
O O14 0.255450 0.870718 0.663412
O O15 0.000000 0.901427 0.750000
O O16 0.209057 0.000000 0.750000
O O17 0.701000 0.809994 0.000000
#
# Coordination Sequence:
#
# PCOD9395328 Si02
#       7
#     4   4   8   8   8   8   8
#     4  12  30  50  70 102 149 184 235 304 360 435
#     4  12  30  50  70 106 143 188 237 296 368 429
#     4  11  23  40  69 102 136 183 237 292 353 427
#     4  12  24  44  75 105 139 186 242 292 352 433
#     4  12  24  45  74 105 140 187 239 291 358 425
#     4  11  25  44  64  97 143 187 235 297 366 433
#     4  11  23  41  70 103 136 182 238 294 354 424
#
# _framework density 19.753086
#
# number of rings (size 3 to 8) (size 9 to 14) (size 15 to 20)
#    0.000    0.500    6.667    1.000    2.333    3.333 
#    0.000    3.333    0.000    0.000    0.000    0.000 
#    0.000    0.000    0.000    0.000    0.000    0.000 
#
# Total GULP energy -267831.392442 kJ/mol
# GULP energy per Si atom -5579.820676 kJ/mol
# Density = 1.970813 g / cm^3
# Si number density = 19.753086 Si / 1000 Ang^3
#
#
#
# Elastic Constant Matrix: (Units=GPa)
#
#
# Indices 1 2 3 4 5 6 
#
# 1 103.2870 48.0074 71.3277 0.0000 0.0000 0.0000
# 2 48.0074 122.9281 81.8612 0.0000 0.0000 0.0000
# 3 71.3277 81.8612 223.8224 0.0000 0.0000 0.0000
# 4 0.0000 0.0000 0.0000 36.5683 0.0000 0.0000
# 5 0.0000 0.0000 0.0000 0.0000 40.4587 0.0000
# 6 0.0000 0.0000 0.0000 0.0000 0.0000 34.0260
#
#
#
# Elastic Compliance Matrix: (Units=1/GPa)
#
#
# Indices 1 2 3 4 5 6 
#
# 1 0.013265 -0.003127 -0.003084 0.000000 0.000000 0.000000
# 2 -0.003127 0.011491 -0.003206 0.000000 0.000000 0.000000
# 3 -0.003084 -0.003206 0.006623 0.000000 0.000000 0.000000
# 4 0.000000 0.000000 0.000000 0.027346 0.000000 0.000000
# 5 0.000000 0.000000 0.000000 0.000000 0.024717 0.000000
# 6 0.000000 0.000000 0.000000 0.000000 0.000000 0.029389
#
#
# Mechanical properties :
#
#
# Convention : Reuss Voigt Hill
#
# Bulk Modulus (GPa) = 79.71002 94.71446 87.21224
# Shear Modulus (GPa) = 36.80640 38.80002 37.80321
#
# Velocity S-wave (km/s) = 4.32131 4.43680 4.37943
# Velocity P-wave (km/s) = 8.08326 8.61975 8.35581
#
# Compressibility (1/GPa) = 0.01254547
#
# Stress axis : x y z
#
# Youngs Moduli (GPa) = 75.38913 87.02350 150.98496
#
# Poissons Ratio (x) = 0.27211 0.46557
# Poissons Ratio (y) = 0.23573 0.48411
# Poissons Ratio (z) = 0.23246 0.27903
#
# Static dielectric constant tensor:
#      x y z
#    x 1.761590 0.000000 0.000000 
#    y 0.000000 1.699360 0.000000 
#    z 0.000000 0.000000 1.704880 
# 
# From -- ./inp_files/11871.got.cif
#   From: 2010.05.17/outbox.ucp.g08.bks.cvg/sg49_6_cif.got.tgz:11871.got - 2010.06.11 16:40:14.
