data_PCOD9395772
_publ_section_title
;
Structure prediction by ZEFSAII (Michael W. Deem and Ramdas Pophale) SiO2 
 PCOD9395772
Probable space group: P B A N
;
_chemical_formula_sum "Si O2"
_cell_formula_units_Z 48
_cell_length_a 31.180079
_cell_length_b 9.040736
_cell_length_c 8.488117
_cell_angle_alpha 90.000000
_cell_angle_beta 90.000000
_cell_angle_gamma 90.000000
_cell_volume 2392.722624
_symmetry_space_group_name_H-M "P B A N"
_symmetry_group_IT_number 50
_space_group.IT_coordinate_system_code '2'
_symmetry_cell_setting 'orthorhombic'
loop_
_space_group_symop_operation_xyz
x,y,z
1/2-x,1/2-y,z
x,1/2-y,-z
1/2-x,y,-z
-x,-y,-z
1/2+x,1/2+y,-z
-x,1/2+y,z
1/2+x,-y,z
loop_
_atom_site_type_symbol
_atom_site_label
_atom_site_fract_x
_atom_site_fract_y
_atom_site_fract_z
Si Si1 0.044358 0.806475 0.171278
Si Si2 0.410409 0.250000 0.500000
Si Si3 0.985962 0.584379 0.342276
Si Si4 0.728612 0.409891 0.847382
Si Si5 0.655433 0.001233 0.568670
Si Si6 0.643387 0.301432 0.746585
Si Si7 0.250000 0.036316 0.500000
O O1 0.095413 0.807925 0.191086
O O2 0.023902 0.692895 0.294880
O O3 0.024320 0.964634 0.209858
O O4 0.032618 0.750000 0.000000
O O5 0.442560 0.174321 0.623590
O O6 0.381059 0.376899 0.578294
O O7 0.000000 0.500000 0.500000
O O8 0.750000 0.250000 0.842045
O O9 0.678001 0.378100 0.861134
O O10 0.737490 0.468949 0.671580
O O11 0.750000 0.488099 0.000000
O O12 0.655786 0.131085 0.701522
O O13 0.646060 0.099254 0.412231
O O14 0.701302 0.917826 0.550457
#
# Coordination Sequence:
#
# PCOD9395772 Si02
#       7
#     8   4   8   8   8   8   4
#     4  12  26  41  64  97 132 163 208 275 335 383
#     4  12  22  39  66  92 122 162 225 258 316 384
#     4  12  24  45  67  90 122 173 218 263 318 395
#     4  10  19  32  57  92 127 159 205 260 316 364
#     4  10  21  35  62  92 125 163 213 264 306 382
#     4  10  21  36  60  94 125 163 211 260 319 376
#     4  10  19  37  56  88 132 166 208 260 322 368
#
# _framework density 20.060829999999999
#
# number of rings (size 3 to 8) (size 9 to 14) (size 15 to 20)
#    0.000    1.167    5.000    1.750    4.667    0.333 
#    0.000    0.000    0.000    0.000    0.000    5.833 
#    0.000    0.000    0.000    0.000    0.000    0.000 
#
# Total GULP energy -267390.215890 kJ/mol
# GULP energy per Si atom -5570.629498 kJ/mol
# Density = 2.001517 g / cm^3
# Si number density = 20.060830 Si / 1000 Ang^3
#
#
#
# Elastic Constant Matrix: (Units=GPa)
#
#
# Indices 1 2 3 4 5 6 
#
# 1 141.9359 39.5676 22.8675 0.0000 0.0000 0.0000
# 2 39.5676 81.4774 22.6763 0.0000 0.0000 0.0000
# 3 22.8675 22.6763 89.6335 0.0000 0.0000 0.0000
# 4 0.0000 0.0000 0.0000 24.3390 0.0000 0.0000
# 5 0.0000 0.0000 0.0000 0.0000 0.7981 0.0000
# 6 0.0000 0.0000 0.0000 0.0000 0.0000 -30.0821
#
#
#
# Elastic Compliance Matrix: (Units=1/GPa)
#
#
# Indices 1 2 3 4 5 6 
#
# 1 0.008262 -0.003685 -0.001176 0.000000 0.000000 0.000000
# 2 -0.003685 0.014847 -0.002816 0.000000 0.000000 0.000000
# 3 -0.001176 -0.002816 0.012169 0.000000 0.000000 0.000000
# 4 0.000000 0.000000 0.000000 0.041086 0.000000 0.000000
# 5 0.000000 0.000000 0.000000 0.000000 1.253000 0.000000
# 6 0.000000 0.000000 0.000000 0.000000 0.000000 -0.033242
#
#
# Mechanical properties :
#
#
# Convention : Reuss Voigt Hill
#
# Bulk Modulus (GPa) = 50.18950 53.69660 51.94305
# Shear Modulus (GPa) = 3.79329 14.20669 8.99999
#
# Velocity S-wave (km/s) = 1.37659 2.66405 2.12040
# Velocity P-wave (km/s) = 5.25354 6.02394 5.65188
#
# Compressibility (1/GPa) = 0.01992449
#
# Stress axis : x y z
#
# Youngs Moduli (GPa) = 121.03398 67.35527 82.17710
#
# Poissons Ratio (x) = 0.24821 0.09660
# Poissons Ratio (y) = 0.44603 0.23140
# Poissons Ratio (z) = 0.14228 0.18966
#
# Static dielectric constant tensor:
#      x y z
#    x 1.716200 0.000000 0.000000 
#    y 0.000000 1.618850 0.000000 
#    z 0.000000 0.000000 1.873330 
# 
# From -- ./inp_files/10138.got.cif
#   From: 2010.05.17/outbox.cif.g08.bks.cpg/sg50_6_cif.got.tgz:10138.got - 2010.06.03 11:33:33.
