data_PCOD9395517
_publ_section_title
;
Structure prediction by ZEFSAII (Michael W. Deem and Ramdas Pophale) SiO2 
 PCOD9395517
Probable space group: P B A N
;
_chemical_formula_sum "Si O2"
_cell_formula_units_Z 48
_cell_length_a 5.114516
_cell_length_b 24.036457
_cell_length_c 21.529869
_cell_angle_alpha 90.000000
_cell_angle_beta 90.000000
_cell_angle_gamma 90.000000
_cell_volume 2646.771085
_symmetry_space_group_name_H-M "P B A N"
_symmetry_group_IT_number 50
_space_group.IT_coordinate_system_code '2'
_symmetry_cell_setting 'orthorhombic'
loop_
_space_group_symop_operation_xyz
x,y,z
1/2-x,1/2-y,z
x,1/2-y,-z
1/2-x,y,-z
-x,-y,-z
1/2+x,1/2+y,-z
-x,1/2+y,z
1/2+x,-y,z
loop_
_atom_site_type_symbol
_atom_site_label
_atom_site_fract_x
_atom_site_fract_y
_atom_site_fract_z
Si Si1 0.253787 0.817207 0.850716
Si Si2 0.782485 0.347748 0.708506
Si Si3 0.995828 0.592113 0.540591
Si Si4 0.258028 0.317726 0.071331
Si Si5 0.302318 0.187765 0.366329
Si Si6 0.089803 0.533123 0.664564
O O1 0.250000 0.750000 0.847438
O O2 0.199445 0.837912 0.781552
O O3 0.523159 0.834786 0.883236
O O4 0.025297 0.834975 0.896784
O O5 0.547205 0.310388 0.680875
O O6 0.688477 0.410631 0.696180
O O7 0.047914 0.334802 0.670629
O O8 0.750000 0.572408 0.500000
O O9 0.887245 0.644915 0.579909
O O10 0.250000 0.607032 0.500000
O O11 0.086826 0.547179 0.591274
O O12 0.250000 0.250000 0.069356
O O13 0.250000 0.336741 0.000000
O O14 0.250000 0.250000 0.389723
O O15 0.295888 0.484929 0.679877
#
# Coordination Sequence:
#
# PCOD9395517 Si02
#       6
#     8   8   8   8   8   8
#     4  10  18  29  49  75 105 142 175 208 249 298
#     4  11  22  37  56  81 108 135 183 224 258 321
#     4  11  23  39  57  81 104 130 175 215 255 326
#     4   9  17  28  43  69 108 148 179 205 239 288
#     4  11  22  38  57  78 110 145 170 211 265 310
#     4  11  23  40  59  77 102 134 167 222 284 318
#
# _framework density 18.135306
#
# number of rings (size 3 to 8) (size 9 to 14) (size 15 to 20)
#    0.000    1.500    0.000    8.000    0.000    5.667 
#    0.000    2.500    0.000    0.000    0.000    0.000 
#    0.000   13.333    0.000    0.000    0.000    0.000 
#
# Total GULP energy -268061.587876 kJ/mol
# GULP energy per Si atom -5584.616414 kJ/mol
# Density = 1.809403 g / cm^3
# Si number density = 18.135306 Si / 1000 Ang^3
#
#
#
# Elastic Constant Matrix: (Units=GPa)
#
#
# Indices 1 2 3 4 5 6 
#
# 1 117.8607 14.8324 33.1176 0.0000 0.0000 0.0000
# 2 14.8324 36.8821 -2.8973 0.0000 0.0000 0.0000
# 3 33.1176 -2.8973 72.0355 0.0000 0.0000 0.0000
# 4 0.0000 0.0000 0.0000 10.6864 0.0000 0.0000
# 5 0.0000 0.0000 0.0000 0.0000 26.5200 0.0000
# 6 0.0000 0.0000 0.0000 0.0000 0.0000 20.5155
#
#
#
# Elastic Compliance Matrix: (Units=1/GPa)
#
#
# Indices 1 2 3 4 5 6 
#
# 1 0.010468 -0.004602 -0.004998 0.000000 0.000000 0.000000
# 2 -0.004602 0.029223 0.003291 0.000000 0.000000 0.000000
# 3 -0.004998 0.003291 0.016312 0.000000 0.000000 0.000000
# 4 0.000000 0.000000 0.000000 0.093577 0.000000 0.000000
# 5 0.000000 0.000000 0.000000 0.000000 0.037707 0.000000
# 6 0.000000 0.000000 0.000000 0.000000 0.000000 0.048744
#
#
# Mechanical properties :
#
#
# Convention : Reuss Voigt Hill
#
# Bulk Modulus (GPa) = 23.04925 35.20929 29.12927
# Shear Modulus (GPa) = 19.00341 23.65941 21.33141
#
# Velocity S-wave (km/s) = 3.24059 3.61585 3.43335
# Velocity P-wave (km/s) = 5.17099 6.07367 5.64041
#
# Compressibility (1/GPa) = 0.04338537
#
# Stress axis : x y z
#
# Youngs Moduli (GPa) = 95.52825 34.21972 61.30423
#
# Poissons Ratio (x) = 0.15749 0.30638
# Poissons Ratio (y) = 0.43966 -0.20177
# Poissons Ratio (z) = 0.47742 -0.11263
#
# Static dielectric constant tensor:
#      x y z
#    x 1.639200 0.000000 0.000000 
#    y 0.000000 1.634450 0.000000 
#    z 0.000000 0.000000 1.613100 
# 
# From -- ./inp_files/28283.got.cif
#   From: 2010.05.17/outbox.cif.g08.bks.cpg/sg50_15_cif.got.tgz:28283.got - 2010.06.03 11:33:33.
