data_PCOD9395692
_publ_section_title
;
Structure prediction by ZEFSAII (Michael W. Deem and Ramdas Pophale) SiO2 
 PCOD9395692
Probable space group: P B A N
;
_chemical_formula_sum "Si O2"
_cell_formula_units_Z 44
_cell_length_a 12.410177
_cell_length_b 18.054651
_cell_length_c 9.535894
_cell_angle_alpha 90.000000
_cell_angle_beta 90.000000
_cell_angle_gamma 90.000000
_cell_volume 2136.625899
_symmetry_space_group_name_H-M "P B A N"
_symmetry_group_IT_number 50
_space_group.IT_coordinate_system_code '2'
_symmetry_cell_setting 'orthorhombic'
loop_
_space_group_symop_operation_xyz
x,y,z
1/2-x,1/2-y,z
x,1/2-y,-z
1/2-x,y,-z
-x,-y,-z
1/2+x,1/2+y,-z
-x,1/2+y,z
1/2+x,-y,z
loop_
_atom_site_type_symbol
_atom_site_label
_atom_site_fract_x
_atom_site_fract_y
_atom_site_fract_z
Si Si1 0.730028 0.670277 0.231469
Si Si2 0.704345 0.424888 0.652440
Si Si3 0.522591 0.891706 0.654155
Si Si4 0.093142 0.537909 0.173013
Si Si5 0.091280 0.413374 0.655998
Si Si6 0.750000 0.956626 0.000000
O O1 0.750000 0.750000 0.166421
O O2 0.611621 0.666248 0.297034
O O3 0.822650 0.652591 0.343651
O O4 0.748905 0.600554 0.128472
O O5 0.750000 0.406236 0.500000
O O6 0.600639 0.376829 0.693685
O O7 0.802104 0.424068 0.760088
O O8 0.657307 0.509202 0.647404
O O9 0.525106 0.906338 0.487949
O O10 0.562329 0.966364 0.732603
O O11 0.988203 0.587226 0.208220
O O12 0.142109 0.506804 0.025760
#
# Coordination Sequence:
#
# PCOD9395692 Si02
#       6
#     8   8   8   8   8   4
#     4  11  23  38  52  73 109 153 193 227 257 325
#     4  11  15  30  53  80 113 134 162 219 291 340
#     4  10  19  30  52  82 108 138 174 215 284 337
#     4  10  19  31  52  82 110 141 166 225 279 338
#     4  11  18  31  53  82 111 134 175 220 285 338
#     4  10  21  38  52  76 110 147 190 224 278 320
#
# _framework density 20.593216000000002
#
# number of rings (size 3 to 8) (size 9 to 14) (size 15 to 20)
#    0.000    1.455    7.273    1.909    0.000    2.182 
#    3.273    0.000    0.000    1.091    0.000    0.000 
#    0.000    0.000    0.000    0.000    0.000    0.000 
#
# Total GULP energy -245172.880506 kJ/mol
# GULP energy per Si atom -5572.110921 kJ/mol
# Density = 2.054634 g / cm^3
# Si number density = 20.593216 Si / 1000 Ang^3
#
#
#
# Elastic Constant Matrix: (Units=GPa)
#
#
# Indices 1 2 3 4 5 6 
#
# 1 168.8798 26.5276 27.2091 0.0000 0.0000 0.0000
# 2 26.5276 31.1749 2.9297 0.0000 0.0000 0.0000
# 3 27.2091 2.9297 56.9100 0.0000 0.0000 0.0000
# 4 0.0000 0.0000 0.0000 0.2679 0.0000 0.0000
# 5 0.0000 0.0000 0.0000 0.0000 34.9259 0.0000
# 6 0.0000 0.0000 0.0000 0.0000 0.0000 10.5048
#
#
#
# Elastic Compliance Matrix: (Units=1/GPa)
#
#
# Indices 1 2 3 4 5 6 
#
# 1 0.007379 -0.005976 -0.003220 0.000000 0.000000 0.000000
# 2 -0.005976 0.037073 0.000949 0.000000 0.000000 0.000000
# 3 -0.003220 0.000949 0.019062 0.000000 0.000000 0.000000
# 4 0.000000 0.000000 0.000000 3.732256 0.000000 0.000000
# 5 0.000000 0.000000 0.000000 0.000000 0.028632 0.000000
# 6 0.000000 0.000000 0.000000 0.000000 0.000000 0.095195
#
#
# Mechanical properties :
#
#
# Convention : Reuss Voigt Hill
#
# Bulk Modulus (GPa) = 21.26793 41.14415 31.20604
# Shear Modulus (GPa) = 1.26526 22.49294 11.87910
#
# Velocity S-wave (km/s) = 0.78469 3.30851 2.40437
# Velocity P-wave (km/s) = 3.34231 5.88369 4.78481
#
# Compressibility (1/GPa) = 0.04701915
#
# Stress axis : x y z
#
# Youngs Moduli (GPa) = 135.52027 26.97354 52.45931
#
# Poissons Ratio (x) = 0.16120 0.16893
# Poissons Ratio (y) = 0.80992 -0.04978
# Poissons Ratio (z) = 0.43641 -0.02559
#
# Static dielectric constant tensor:
#      x y z
#    x 1.836290 0.000000 0.000000 
#    y 0.000000 1.727410 0.000000 
#    z 0.000000 0.000000 1.829110 
# 
# From -- ./inp_files/20137.got.cif
#   From: 2010.05.17/outbox.cif.g08.bks.cpg/sg50_11_cif.got.tgz:20137.got - 2010.06.03 11:33:33.
