data_PCOD9395191
_publ_section_title
;
Structure prediction by ZEFSAII (Michael W. Deem and Ramdas Pophale) SiO2 
 PCOD9395191
Probable space group: P C C M
;
_chemical_formula_sum "Si O2"
_cell_formula_units_Z 32
_cell_length_a 6.936515
_cell_length_b 13.069168
_cell_length_c 14.152975
_cell_angle_alpha 90.000000
_cell_angle_beta 90.000000
_cell_angle_gamma 90.000000
_cell_volume 1283.030587
_symmetry_space_group_name_H-M "P C C M"
_symmetry_group_IT_number 49
_symmetry_cell_setting 'orthorhombic'
loop_
_space_group_symop_operation_xyz
x,y,z
-x,-y,z
x,-y,1/2-z
-x,y,1/2-z
-x,-y,-z
x,y,-z
-x,y,1/2+z
x,-y,1/2+z
loop_
_atom_site_type_symbol
_atom_site_label
_atom_site_fract_x
_atom_site_fract_y
_atom_site_fract_z
Si Si1 0.298491 0.537177 0.108792
Si Si2 0.268601 0.828655 0.261394
Si Si3 0.730425 0.979178 0.606908
Si Si4 0.955310 0.668572 0.889560
O O1 0.500000 0.500000 0.150630
O O2 0.166640 0.436683 0.108753
O O3 0.167934 0.631015 0.144748
O O4 0.339232 0.566973 0.000000
O O5 0.500000 0.809336 0.250000
O O6 0.220038 0.871584 0.156781
O O7 0.158767 0.742081 0.319609
O O8 0.214680 0.927022 0.326430
O O9 0.797768 0.982724 0.500000
O O10 0.500000 0.000000 0.604597
O O11 0.963357 0.703679 0.000000
#
# Coordination Sequence:
#
# PCOD9395191 Si02
#       4
#     8   8   8   8
#     4   8  15  29  50  80 117 154 197 257 335 417
#     4   9  16  25  42  74 118 165 220 280 335 409
#     4   8  14  25  41  67 112 169 221 276 343 404
#     4   9  16  27  49  82 119 159 204 263 336 410
#
# _framework density 24.940950000000001
#
# number of rings (size 3 to 8) (size 9 to 14) (size 15 to 20)
#    0.000    3.500    0.000    3.750    0.000    1.000 
#    0.000    0.000    0.000    2.250    0.000   14.000 
#    0.000   32.000    0.000  328.500    0.000    0.000 
#
# Total GULP energy -178605.831323 kJ/mol
# GULP energy per Si atom -5581.432229 kJ/mol
# Density = 2.488418 g / cm^3
# Si number density = 24.940950 Si / 1000 Ang^3
#
#
#
# Elastic Constant Matrix: (Units=GPa)
#
#
# Indices 1 2 3 4 5 6 
#
# 1 199.8252 58.5286 57.9665 0.0000 0.0000 0.0000
# 2 58.5286 131.4669 80.2940 0.0000 0.0000 0.0000
# 3 57.9665 80.2940 195.5745 0.0000 0.0000 0.0000
# 4 0.0000 0.0000 0.0000 3.3848 0.0000 0.0000
# 5 0.0000 0.0000 0.0000 0.0000 14.0677 0.0000
# 6 0.0000 0.0000 0.0000 0.0000 0.0000 36.2942
#
#
#
# Elastic Compliance Matrix: (Units=1/GPa)
#
#
# Indices 1 2 3 4 5 6 
#
# 1 0.005869 -0.002069 -0.000890 0.000000 0.000000 0.000000
# 2 -0.002069 0.010882 -0.003854 0.000000 0.000000 0.000000
# 3 -0.000890 -0.003854 0.006959 0.000000 0.000000 0.000000
# 4 0.000000 0.000000 0.000000 0.295440 0.000000 0.000000
# 5 0.000000 0.000000 0.000000 0.000000 0.071085 0.000000
# 6 0.000000 0.000000 0.000000 0.000000 0.000000 0.027553
#
#
# Mechanical properties :
#
#
# Convention : Reuss Voigt Hill
#
# Bulk Modulus (GPa) = 99.17755 102.27165 100.72460
# Shear Modulus (GPa) = 11.50023 32.75452 22.12737
#
# Velocity S-wave (km/s) = 2.14965 3.62786 2.98181
# Velocity P-wave (km/s) = 6.78326 7.65787 7.23379
#
# Compressibility (1/GPa) = 0.01008293
#
# Stress axis : x y z
#
# Youngs Moduli (GPa) = 170.39915 91.89785 143.69332
#
# Poissons Ratio (x) = 0.19015 0.12787
# Poissons Ratio (y) = 0.35258 0.55383
# Poissons Ratio (z) = 0.15164 0.35420
#
# Static dielectric constant tensor:
#      x y z
#    x 1.758320 0.000000 0.000000 
#    y 0.000000 1.968400 0.000000 
#    z 0.000000 0.000000 1.988890 
# 
# From -- ./inp_files/11292.got.cif
#   From: 2010.05.17/outbox.cif.g08.bks.cpg/sg49_6_cif.got.tgz:11292.got - 2010.06.03 21:02:19.
