data_PCOD9395590
_publ_section_title
;
Structure prediction by ZEFSAII (Michael W. Deem and Ramdas Pophale) SiO2 
 PCOD9395590
Probable space group: P B A N
;
_chemical_formula_sum "Si O2"
_cell_formula_units_Z 64
_cell_length_a 15.708733
_cell_length_b 25.844406
_cell_length_c 8.055629
_cell_angle_alpha 90.000000
_cell_angle_beta 90.000000
_cell_angle_gamma 90.000000
_cell_volume 3270.447408
_symmetry_space_group_name_H-M "P B A N"
_symmetry_group_IT_number 50
_space_group.IT_coordinate_system_code '2'
_symmetry_cell_setting 'orthorhombic'
loop_
_space_group_symop_operation_xyz
x,y,z
1/2-x,1/2-y,z
x,1/2-y,-z
1/2-x,y,-z
-x,-y,-z
1/2+x,1/2+y,-z
-x,1/2+y,z
1/2+x,-y,z
loop_
_atom_site_type_symbol
_atom_site_label
_atom_site_fract_x
_atom_site_fract_y
_atom_site_fract_z
Si Si1 0.934734 0.893166 0.704054
Si Si2 0.249335 0.410771 0.703418
Si Si3 0.427276 0.694241 0.202758
Si Si4 0.423786 0.811028 0.193004
Si Si5 0.475925 0.504880 0.694326
Si Si6 0.439110 0.391533 0.697025
Si Si7 0.776325 0.025711 0.306127
Si Si8 0.253939 0.638608 0.301486
O O1 0.837480 0.883276 0.756594
O O2 0.936251 0.895591 0.503251
O O3 0.001982 0.849991 0.754262
O O4 0.965109 0.949872 0.765853
O O5 0.250000 0.411251 0.500000
O O6 0.340893 0.388622 0.755158
O O7 0.244522 0.470693 0.760687
O O8 0.435309 0.753223 0.264134
O O9 0.502882 0.656786 0.259447
O O10 0.337366 0.670436 0.257034
O O11 0.426908 0.693868 0.004409
O O12 0.332214 0.834027 0.242149
O O13 0.500000 0.500000 0.500000
O O14 0.478433 0.446151 0.760999
O O15 0.378548 0.524049 0.704344
O O16 0.750000 0.025253 0.500000
O O17 0.742511 0.079584 0.234235
O O18 0.250000 0.635014 0.500000
#
# Coordination Sequence:
#
# PCOD9395590 Si02
#       8
#     8   8   8   8   8   8   8   8
#     4  10  18  33  60  84 114 146 185 238 278 336
#     4   8  16  31  54  85 119 145 174 226 288 332
#     4  11  25  40  59  73 114 158 188 240 282 339
#     4  11  24  43  54  79 111 155 197 226 292 338
#     4   9  16  27  52  84 118 142 177 227 280 331
#     4   9  19  34  57  89 110 144 191 232 281 335
#     4   9  16  27  48  85 119 142 176 217 272 342
#     4  11  22  35  61  89 112 143 188 237 277 334
#
# _framework density 19.569188
#
# number of rings (size 3 to 8) (size 9 to 14) (size 15 to 20)
#    0.000    2.250    1.250    3.750    7.000    3.500 
#    0.000    1.875    0.000    3.750    0.000    0.000 
#    0.000    0.000    0.000    0.000    0.000    0.000 
#
# Total GULP energy -357066.338567 kJ/mol
# GULP energy per Si atom -5579.161540 kJ/mol
# Density = 1.952465 g / cm^3
# Si number density = 19.569188 Si / 1000 Ang^3
#
#
#
# Elastic Constant Matrix: (Units=GPa)
#
#
# Indices 1 2 3 4 5 6 
#
# 1 164.3130 90.3517 10.1428 0.0000 0.0000 0.0000
# 2 90.3517 126.7024 3.9967 0.0000 0.0000 0.0000
# 3 10.1428 3.9967 16.4553 0.0000 0.0000 0.0000
# 4 0.0000 0.0000 0.0000 32.3732 0.0000 0.0000
# 5 0.0000 0.0000 0.0000 0.0000 -1.6879 0.0000
# 6 0.0000 0.0000 0.0000 0.0000 0.0000 25.0738
#
#
#
# Elastic Compliance Matrix: (Units=1/GPa)
#
#
# Indices 1 2 3 4 5 6 
#
# 1 0.010349 -0.007234 -0.004622 0.000000 0.000000 0.000000
# 2 -0.007234 0.013010 0.001299 0.000000 0.000000 0.000000
# 3 -0.004622 0.001299 0.063304 0.000000 0.000000 0.000000
# 4 0.000000 0.000000 0.000000 0.030890 0.000000 0.000000
# 5 0.000000 0.000000 0.000000 0.000000 -0.592448 0.000000
# 6 0.000000 0.000000 0.000000 0.000000 0.000000 0.039882
#
#
# Mechanical properties :
#
#
# Convention : Reuss Voigt Hill
#
# Bulk Modulus (GPa) = 15.25567 57.38369 36.31968
# Shear Modulus (GPa) = -12.75353 24.68378 5.96512
#
# Velocity S-wave (km/s) = -2.55564 3.55542 1.74781
# Velocity P-wave (km/s) = 0.94642 6.80013 4.76162
#
# Compressibility (1/GPa) = 0.06554942
#
# Stress axis : x y z
#
# Youngs Moduli (GPa) = 96.62599 76.86239 15.79672
#
# Poissons Ratio (x) = 0.55604 0.07301
# Poissons Ratio (y) = 0.69901 -0.02052
# Poissons Ratio (z) = 0.44661 -0.09985
#
# Static dielectric constant tensor:
#      x y z
#    x 1.594710 0.000000 0.000000 
#    y 0.000000 1.705140 0.000000 
#    z 0.000000 0.000000 1.691230 
# 
# From -- ./inp_files/13462.got.cif
#   From: 2010.05.17/outbox.cif.g08.bks.cpg/sg50_7_cif.got.tgz:13462.got - 2010.06.03 11:33:33.
