data_PCOD9395724
_publ_section_title
;
Structure prediction by ZEFSAII (Michael W. Deem and Ramdas Pophale) SiO2 
 PCOD9395724
Probable space group: P B A N
;
_chemical_formula_sum "Si O2"
_cell_formula_units_Z 60
_cell_length_a 26.948659
_cell_length_b 5.230779
_cell_length_c 21.171665
_cell_angle_alpha 90.000000
_cell_angle_beta 90.000000
_cell_angle_gamma 90.000000
_cell_volume 2984.410395
_symmetry_space_group_name_H-M "P B A N"
_symmetry_group_IT_number 50
_space_group.IT_coordinate_system_code '2'
_symmetry_cell_setting 'orthorhombic'
loop_
_space_group_symop_operation_xyz
x,y,z
1/2-x,1/2-y,z
x,1/2-y,-z
1/2-x,y,-z
-x,-y,-z
1/2+x,1/2+y,-z
-x,1/2+y,z
1/2+x,-y,z
loop_
_atom_site_type_symbol
_atom_site_label
_atom_site_fract_x
_atom_site_fract_y
_atom_site_fract_z
Si Si1 0.966461 0.250000 0.000000
Si Si2 0.431952 0.920148 0.134317
Si Si3 0.114536 0.410537 0.818167
Si Si4 0.642103 0.813311 0.574704
Si Si5 0.281307 0.511087 0.237997
Si Si6 0.805623 0.180473 0.623495
Si Si7 0.016508 0.411921 0.756892
Si Si8 0.030096 0.256843 0.423270
O O1 0.938741 0.294852 0.934299
O O2 0.000000 0.500000 0.000000
O O3 0.399430 0.704217 0.168222
O O4 0.483565 0.945923 0.176063
O O5 0.404002 0.193482 0.132152
O O6 0.171898 0.408184 0.801815
O O7 0.074070 0.345587 0.764065
O O8 0.642061 0.750000 0.500000
O O9 0.678209 0.598983 0.602061
O O10 0.586472 0.769558 0.599726
O O11 0.659801 0.096205 0.595067
O O12 0.250000 0.750000 0.208099
O O13 0.303246 0.650370 0.300589
O O14 0.250000 0.250000 0.252878
O O15 0.750000 0.250000 0.602608
O O16 0.010937 0.681499 0.724912
O O17 0.033320 0.250000 0.500000
O O18 0.999256 0.504911 0.405778
#
# Coordination Sequence:
#
# PCOD9395724 Si02
#       8
#     4   8   8   8   8   8   8   8
#     4  12  20  30  50  84 131 170 195 232 278 352
#     4  10  19  31  51  84 120 155 190 225 283 352
#     4  10  19  34  55  77 106 146 192 244 286 334
#     4  11  22  36  59  88 116 152 190 224 282 363
#     4  11  23  41  62  84 106 143 200 258 311 353
#     4  11  23  39  57  82 117 148 183 241 304 360
#     4   8  14  26  44  70 104 140 176 210 263 332
#     4   9  17  31  52  77 105 140 181 222 256 299
#
# _framework density 20.104474
#
# number of rings (size 3 to 8) (size 9 to 14) (size 15 to 20)
#    0.000    1.867    0.000    7.200    0.000    3.733 
#    0.000    0.000    0.000   14.400    0.000    7.000 
#    0.000    0.000    0.000    0.000    0.000    0.000 
#
# Total GULP energy -334234.482310 kJ/mol
# GULP energy per Si atom -5570.574705 kJ/mol
# Density = 2.005872 g / cm^3
# Si number density = 20.104474 Si / 1000 Ang^3
#
#
#
# Elastic Constant Matrix: (Units=GPa)
#
#
# Indices 1 2 3 4 5 6 
#
# 1 84.1540 8.3840 20.8943 0.0000 0.0000 0.0000
# 2 8.3840 107.8127 4.5009 0.0000 0.0000 0.0000
# 3 20.8943 4.5009 47.4905 0.0000 0.0000 0.0000
# 4 0.0000 0.0000 0.0000 28.0438 0.0000 0.0000
# 5 0.0000 0.0000 0.0000 0.0000 15.4232 0.0000
# 6 0.0000 0.0000 0.0000 0.0000 0.0000 60.7829
#
#
#
# Elastic Compliance Matrix: (Units=1/GPa)
#
#
# Indices 1 2 3 4 5 6 
#
# 1 0.013409 -0.000800 -0.005824 0.000000 0.000000 0.000000
# 2 -0.000800 0.009360 -0.000535 0.000000 0.000000 0.000000
# 3 -0.005824 -0.000535 0.023670 0.000000 0.000000 0.000000
# 4 0.000000 0.000000 0.000000 0.035658 0.000000 0.000000
# 5 0.000000 0.000000 0.000000 0.000000 0.064838 0.000000
# 6 0.000000 0.000000 0.000000 0.000000 0.000000 0.016452
#
#
# Mechanical properties :
#
#
# Convention : Reuss Voigt Hill
#
# Bulk Modulus (GPa) = 31.13198 34.11284 32.62241
# Shear Modulus (GPa) = 26.53785 34.56184 30.54985
#
# Velocity S-wave (km/s) = 3.63712 4.15072 3.90238
# Velocity P-wave (km/s) = 5.75820 6.32265 6.04701
#
# Compressibility (1/GPa) = 0.03212131
#
# Stress axis : x y z
#
# Youngs Moduli (GPa) = 74.57938 106.83904 42.24807
#
# Poissons Ratio (x) = 0.08543 0.24603
# Poissons Ratio (y) = 0.05963 0.02261
# Poissons Ratio (z) = 0.43432 0.05719
#
# Static dielectric constant tensor:
#      x y z
#    x 1.737930 0.000000 0.000000 
#    y 0.000000 1.799880 0.000000 
#    z 0.000000 0.000000 1.930420 
# 
# From -- ./inp_files/31255.got.cif
#   From: 2010.05.17/outbox.cif.g08.bks.cpg/sg50_16_cif.got.tgz:31255.got - 2010.06.03 11:33:33.
