data_PCOD9395351
_publ_section_title
;
Structure prediction by ZEFSAII (Michael W. Deem and Ramdas Pophale) SiO2 
 PCOD9395351
Probable space group: P B A N
;
_chemical_formula_sum "Si O2"
_cell_formula_units_Z 38
_cell_length_a 5.437916
_cell_length_b 14.505773
_cell_length_c 19.655745
_cell_angle_alpha 90.000000
_cell_angle_beta 90.000000
_cell_angle_gamma 90.000000
_cell_volume 1550.468263
_symmetry_space_group_name_H-M "P B A N"
_symmetry_group_IT_number 50
_space_group.IT_coordinate_system_code '2'
_symmetry_cell_setting 'orthorhombic'
loop_
_space_group_symop_operation_xyz
x,y,z
1/2-x,1/2-y,z
x,1/2-y,-z
1/2-x,y,-z
-x,-y,-z
1/2+x,1/2+y,-z
-x,1/2+y,z
1/2+x,-y,z
loop_
_atom_site_type_symbol
_atom_site_label
_atom_site_fract_x
_atom_site_fract_y
_atom_site_fract_z
Si Si1 0.750000 0.112614 0.205602
Si Si2 0.250000 0.092112 0.150915
Si Si3 0.250000 0.750000 0.000000
Si Si4 0.250000 0.404702 0.579938
Si Si5 0.750000 0.387388 0.635194
Si Si6 0.250000 0.381982 0.000000
O O1 0.499540 0.144407 0.170133
O O2 0.750000 0.132513 0.285150
O O3 0.000460 0.144407 0.170133
O O4 0.750000 0.001671 0.194664
O O5 0.250000 0.066719 0.071972
O O6 0.482549 0.672041 1.000000
O O7 0.250000 0.425625 0.500000
O O8 0.499456 0.354969 0.600799
O O9 0.250000 0.501843 0.620795
O O10 0.000544 0.354969 0.600799
#
# Coordination Sequence:
#
# PCOD9395351 Si02
#       6
#     8   8   2   8   8   4
#     4  10  19  29  44  70 100 122 148 183 220 285
#     4  10  19  31  48  70  92 119 146 177 229 273
#     4  10  24  42  54  70  86 110 148 190 238 264
#     4  10  16  22  33  48  69 110 168 209 214 224
#     4  10  16  25  35  50  83 117 145 195 225 235
#     4  11  22  38  57  70  89 114 146 195 226 274
#
# _framework density 24.508727
#
# number of rings (size 3 to 8) (size 9 to 14) (size 15 to 20)
#    0.000    1.895    0.000   10.737    0.000    3.368 
#    0.000    0.000    0.000    0.000    0.000    0.000 
#    0.000    0.000    0.000    0.000    0.000    0.000 
#
# Total GULP energy -211702.639960 kJ/mol
# GULP energy per Si atom -5571.122104 kJ/mol
# Density = 2.445294 g / cm^3
# Si number density = 24.508727 Si / 1000 Ang^3
#
#
#
# Elastic Constant Matrix: (Units=GPa)
#
#
# Indices 1 2 3 4 5 6 
#
# 1 318.3565 10.7512 50.1879 0.0000 0.0000 0.0000
# 2 10.7512 85.0614 -14.2354 0.0000 0.0000 0.0000
# 3 50.1879 -14.2354 176.0528 0.0000 0.0000 0.0000
# 4 0.0000 0.0000 0.0000 -28.1234 0.0000 0.0000
# 5 0.0000 0.0000 0.0000 0.0000 98.0743 0.0000
# 6 0.0000 0.0000 0.0000 0.0000 0.0000 -13.8328
#
#
#
# Elastic Compliance Matrix: (Units=1/GPa)
#
#
# Indices 1 2 3 4 5 6 
#
# 1 0.003317 -0.000585 -0.000993 0.000000 0.000000 0.000000
# 2 -0.000585 0.012021 0.001139 0.000000 0.000000 0.000000
# 3 -0.000993 0.001139 0.006055 0.000000 0.000000 0.000000
# 4 0.000000 0.000000 0.000000 -0.035558 0.000000 0.000000
# 5 0.000000 0.000000 0.000000 0.000000 0.010196 0.000000
# 6 0.000000 0.000000 0.000000 0.000000 0.000000 -0.072292
#
#
# Mechanical properties :
#
#
# Convention : Reuss Voigt Hill
#
# Bulk Modulus (GPa) = 48.74662 74.76422 61.75542
# Shear Modulus (GPa) = -72.94784 46.74141 -13.10321
#
# Velocity S-wave (km/s) = -5.46156 4.37181 -2.31473
# Velocity P-wave (km/s) = 4.45408 7.48699 4.25536
#
# Compressibility (1/GPa) = 0.02051424
#
# Stress axis : x y z
#
# Youngs Moduli (GPa) = 301.43560 83.18907 165.14462
#
# Poissons Ratio (x) = 0.04871 0.16400
# Poissons Ratio (y) = 0.17649 -0.18808
# Poissons Ratio (z) = 0.29934 -0.09474
#
# Static dielectric constant tensor:
#      x y z
#    x 2.117290 0.000000 0.000000 
#    y 0.000000 1.957580 0.000000 
#    z 0.000000 0.000000 1.831620 
# 
# From -- ./inp_files/28174.got.cif
#   From: 2010.05.17/outbox.cif.g08.bks.cpg/sg50_15_cif.got.tgz:28174.got - 2010.06.03 11:33:33.
