data_PCOD9395566
_publ_section_title
;
Structure prediction by ZEFSAII (Michael W. Deem and Ramdas Pophale) SiO2 
 PCOD9395566
Probable space group: P B A N
;
_chemical_formula_sum "Si O2"
_cell_formula_units_Z 54
_cell_length_a 5.668891
_cell_length_b 31.529166
_cell_length_c 14.027651
_cell_angle_alpha 90.000000
_cell_angle_beta 90.000000
_cell_angle_gamma 90.000000
_cell_volume 2507.237888
_symmetry_space_group_name_H-M "P B A N"
_symmetry_group_IT_number 50
_space_group.IT_coordinate_system_code '2'
_symmetry_cell_setting 'orthorhombic'
loop_
_space_group_symop_operation_xyz
x,y,z
1/2-x,1/2-y,z
x,1/2-y,-z
1/2-x,y,-z
-x,-y,-z
1/2+x,1/2+y,-z
-x,1/2+y,z
1/2+x,-y,z
loop_
_atom_site_type_symbol
_atom_site_label
_atom_site_fract_x
_atom_site_fract_y
_atom_site_fract_z
Si Si1 0.750000 0.750000 0.800273
Si Si2 0.590662 0.014932 0.141838
Si Si3 0.250000 0.750000 0.500000
Si Si4 0.640396 0.982553 0.358606
Si Si5 0.485893 0.825185 0.800370
Si Si6 0.629443 0.609282 0.722938
Si Si7 0.760542 0.398710 0.887209
Si Si8 0.411875 0.805456 0.335135
O O1 0.606220 0.786155 0.854438
O O2 0.586431 0.720129 0.734261
O O3 0.576374 0.065541 0.146381
O O4 0.349375 0.996377 0.098781
O O5 0.617766 0.999291 0.249895
O O6 0.403375 0.781078 0.434070
O O7 0.669295 0.931780 0.343291
O O8 0.383178 0.996916 0.399432
O O9 0.653300 0.862020 0.758645
O O10 0.307142 0.850573 0.865931
O O11 0.346436 0.804463 0.712397
O O12 0.488384 0.594596 0.819019
O O13 0.478222 0.644849 0.665810
O O14 0.750000 0.404462 0.000000
#
# Coordination Sequence:
#
# PCOD9395566 Si02
#       8
#     4   8   2   8   8   8   8   8
#     4  10  18  39  62  87 108 162 188 232 307 375
#     4  10  19  34  51  80 115 162 205 267 318 365
#     4  12  20  42  64 104 128 140 176 238 312 388
#     4  10  18  32  56  82 116 162 217 264 297 361
#     4  10  20  38  57  81 114 156 201 242 307 368
#     4  10  21  37  56  83 120 165 205 250 310 359
#     4  11  23  35  53  79 118 162 213 268 313 353
#     4  10  22  36  63  91 126 153 179 237 306 387
#
# _framework density 21.537645999999999
#
# number of rings (size 3 to 8) (size 9 to 14) (size 15 to 20)
#    0.000    1.778    4.444    1.778    2.074    1.481 
#    0.000    0.000    0.000   25.778    0.000    1.037 
#    0.000    0.000    0.000    0.000    0.000    0.000 
#
# Total GULP energy -300789.124410 kJ/mol
# GULP energy per Si atom -5570.168971 kJ/mol
# Density = 2.148863 g / cm^3
# Si number density = 21.537646 Si / 1000 Ang^3
#
#
#
# Elastic Constant Matrix: (Units=GPa)
#
#
# Indices 1 2 3 4 5 6 
#
# 1 115.9819 27.7027 10.6370 0.0000 0.0000 0.0000
# 2 27.7027 133.1644 16.8449 0.0000 0.0000 0.0000
# 3 10.6370 16.8449 42.2507 0.0000 0.0000 0.0000
# 4 0.0000 0.0000 0.0000 13.1969 0.0000 0.0000
# 5 0.0000 0.0000 0.0000 0.0000 10.0686 0.0000
# 6 0.0000 0.0000 0.0000 0.0000 0.0000 44.7444
#
#
#
# Elastic Compliance Matrix: (Units=1/GPa)
#
#
# Indices 1 2 3 4 5 6 
#
# 1 0.009178 -0.001703 -0.001632 0.000000 0.000000 0.000000
# 2 -0.001703 0.008224 -0.002850 0.000000 0.000000 0.000000
# 3 -0.001632 -0.002850 0.025215 0.000000 0.000000 0.000000
# 4 0.000000 0.000000 0.000000 0.075775 0.000000 0.000000
# 5 0.000000 0.000000 0.000000 0.000000 0.099319 0.000000
# 6 0.000000 0.000000 0.000000 0.000000 0.000000 0.022349
#
#
# Mechanical properties :
#
#
# Convention : Reuss Voigt Hill
#
# Bulk Modulus (GPa) = 33.05982 44.64069 38.85026
# Shear Modulus (GPa) = 19.04658 29.34947 24.19802
#
# Velocity S-wave (km/s) = 2.97701 3.69549 3.35553
# Velocity P-wave (km/s) = 5.21535 6.24345 5.75242
#
# Compressibility (1/GPa) = 0.03024820
#
# Stress axis : x y z
#
# Youngs Moduli (GPa) = 108.95069 121.59025 39.65829
#
# Poissons Ratio (x) = 0.20707 0.06471
# Poissons Ratio (y) = 0.18555 0.11303
# Poissons Ratio (z) = 0.17778 0.34656
#
# Static dielectric constant tensor:
#      x y z
#    x 1.968830 0.000000 0.000000 
#    y 0.000000 1.826450 0.000000 
#    z 0.000000 0.000000 1.768600 
# 
# From -- ./inp_files/24225.got.cif
#   From: 2010.05.17/outbox.cif.g08.bks.cpg/sg50_13_cif.got.tgz:24225.got - 2010.06.03 11:33:33.
