data_PCOD9395795
_publ_section_title
;
Structure prediction by ZEFSAII (Michael W. Deem and Ramdas Pophale) SiO2 
 PCOD9395795
Probable space group: P B A N
;
_chemical_formula_sum "Si O2"
_cell_formula_units_Z 48
_cell_length_a 18.290331
_cell_length_b 14.789182
_cell_length_c 7.757806
_cell_angle_alpha 90.000000
_cell_angle_beta 90.000000
_cell_angle_gamma 90.000000
_cell_volume 2098.479029
_symmetry_space_group_name_H-M "P B A N"
_symmetry_group_IT_number 50
_space_group.IT_coordinate_system_code '2'
_symmetry_cell_setting 'orthorhombic'
loop_
_space_group_symop_operation_xyz
x,y,z
1/2-x,1/2-y,z
x,1/2-y,-z
1/2-x,y,-z
-x,-y,-z
1/2+x,1/2+y,-z
-x,1/2+y,z
1/2+x,-y,z
loop_
_atom_site_type_symbol
_atom_site_label
_atom_site_fract_x
_atom_site_fract_y
_atom_site_fract_z
Si Si1 0.361598 0.152024 0.555715
Si Si2 0.169892 0.951963 0.455562
Si Si3 0.982514 0.396141 0.451996
Si Si4 0.634468 0.646428 0.945188
Si Si5 0.528454 0.354568 0.957178
Si Si6 0.671641 0.041380 0.040162
O O1 0.334406 0.250000 0.500000
O O2 0.450126 0.154656 0.539970
O O3 0.338542 0.145012 0.751790
O O4 0.338372 0.055690 0.473384
O O5 0.250000 0.917791 0.500000
O O6 0.101865 0.889006 0.511571
O O7 0.163574 0.958560 0.247893
O O8 0.984265 0.373069 0.247576
O O9 0.000000 0.500000 0.500000
O O10 0.671301 0.560745 0.035695
O O11 0.643569 0.750000 0.000000
O O12 0.548264 0.622504 0.952834
O O13 0.598489 0.409416 0.021967
O O14 0.541567 0.250000 0.000000
O O15 0.750000 0.084083 0.000000
#
# Coordination Sequence:
#
# PCOD9395795 Si02
#       6
#     8   8   8   8   8   8
#     4  10  19  33  55  82 108 140 182 230 282 340
#     4   9  20  36  53  77 108 142 183 227 281 342
#     4   9  19  36  57  82 110 143 185 236 289 346
#     4  10  21  36  55  83 115 149 190 237 289 350
#     4  10  20  37  60  86 114 148 192 244 298 357
#     4  10  22  36  54  81 114 151 190 233 290 350
#
# _framework density 22.873709000000002
#
# number of rings (size 3 to 8) (size 9 to 14) (size 15 to 20)
#    0.000    2.333    0.000    3.500    0.000    6.333 
#    0.000    3.333    0.000    2.500    0.000    0.000 
#    0.000    0.000    0.000    0.000    0.000    0.000 
#
# Total GULP energy -267647.737083 kJ/mol
# GULP energy per Si atom -5575.994523 kJ/mol
# Density = 2.282165 g / cm^3
# Si number density = 22.873709 Si / 1000 Ang^3
#
#
#
# Elastic Constant Matrix: (Units=GPa)
#
#
# Indices 1 2 3 4 5 6 
#
# 1 102.2502 15.8815 -24.4606 0.0000 0.0000 0.0000
# 2 15.8815 66.4990 9.8952 0.0000 0.0000 0.0000
# 3 -24.4606 9.8952 48.7799 0.0000 0.0000 0.0000
# 4 0.0000 0.0000 0.0000 23.6162 0.0000 0.0000
# 5 0.0000 0.0000 0.0000 0.0000 -12.5984 0.0000
# 6 0.0000 0.0000 0.0000 0.0000 0.0000 -77.5853
#
#
#
# Elastic Compliance Matrix: (Units=1/GPa)
#
#
# Indices 1 2 3 4 5 6 
#
# 1 0.012012 -0.003882 0.006811 0.000000 0.000000 0.000000
# 2 -0.003882 0.016761 -0.005347 0.000000 0.000000 0.000000
# 3 0.006811 -0.005347 0.025000 0.000000 0.000000 0.000000
# 4 0.000000 0.000000 0.000000 0.042344 0.000000 0.000000
# 5 0.000000 0.000000 0.000000 0.000000 -0.079375 0.000000
# 6 0.000000 0.000000 0.000000 0.000000 0.000000 -0.012889
#
#
# Mechanical properties :
#
#
# Convention : Reuss Voigt Hill
#
# Bulk Modulus (GPa) = 20.43432 24.46235 22.44833
# Shear Modulus (GPa) = 199.98858 1.10068 100.54463
#
# Velocity S-wave (km/s) = 9.36063 0.69444 6.63716
# Velocity P-wave (km/s) = 11.21524 3.37057 8.28077
#
# Compressibility (1/GPa) = 0.04893729
#
# Stress axis : x y z
#
# Youngs Moduli (GPa) = 83.24802 59.66370 39.99956
#
# Poissons Ratio (x) = 0.23163 -0.27244
# Poissons Ratio (y) = 0.32319 0.21387
# Poissons Ratio (z) = -0.56701 0.31901
#
# Static dielectric constant tensor:
#      x y z
#    x 1.887530 0.000000 0.000000 
#    y 0.000000 2.411880 0.000000 
#    z 0.000000 0.000000 1.859870 
# 
# From -- ./inp_files/13140.got.cif
#   From: 2010.05.17/outbox.cif.g08.bks.cpg/sg50_7_cif.got.tgz:13140.got - 2010.06.03 11:33:33.
