data_PCOD9395457
_publ_section_title
;
Structure prediction by ZEFSAII (Michael W. Deem and Ramdas Pophale) SiO2 
 PCOD9395457
Probable space group: P B A N
;
_chemical_formula_sum "Si O2"
_cell_formula_units_Z 48
_cell_length_a 12.858548
_cell_length_b 18.253256
_cell_length_c 11.558770
_cell_angle_alpha 90.000000
_cell_angle_beta 90.000000
_cell_angle_gamma 90.000000
_cell_volume 2712.963165
_symmetry_space_group_name_H-M "P B A N"
_symmetry_group_IT_number 50
_space_group.IT_coordinate_system_code '2'
_symmetry_cell_setting 'orthorhombic'
loop_
_space_group_symop_operation_xyz
x,y,z
1/2-x,1/2-y,z
x,1/2-y,-z
1/2-x,y,-z
-x,-y,-z
1/2+x,1/2+y,-z
-x,1/2+y,z
1/2+x,-y,z
loop_
_atom_site_type_symbol
_atom_site_label
_atom_site_fract_x
_atom_site_fract_y
_atom_site_fract_z
Si Si1 0.483293 0.253771 0.134899
Si Si2 0.728313 0.601835 0.634927
Si Si3 0.162641 0.812184 0.282325
Si Si4 0.211985 0.945405 0.633737
Si Si5 0.951060 0.250000 0.500000
Si Si6 0.493988 0.369976 0.326884
Si Si7 0.750000 0.750000 0.780305
O O1 0.562146 0.198347 0.200704
O O2 0.503051 0.330661 0.202451
O O3 0.359176 0.242920 0.151689
O O4 0.507633 0.250000 0.000000
O O5 0.750000 0.614196 0.500000
O O6 0.790544 0.529780 0.672616
O O7 0.607856 0.582029 0.658079
O O8 0.746473 0.676502 0.703599
O O9 0.250000 0.750000 0.253600
O O10 0.214618 0.891699 0.291057
O O11 0.121606 0.793348 0.410984
O O12 0.250000 0.944994 0.500000
O O13 0.098283 0.911251 0.642105
O O14 0.017356 0.195921 0.420415
#
# Coordination Sequence:
#
# PCOD9395457 Si02
#       7
#     8   8   8   8   4   8   4
#     4  10  22  37  61  85 107 154 200 241 276 331
#     4  10  24  34  55  87 116 150 189 237 280 347
#     4  11  18  32  57  87 114 147 182 230 285 348
#     4  11  20  35  54  86 125 150 181 223 295 358
#     4  10  17  30  57  78 116 151 180 218 287 350
#     4  10  21  35  55  83 119 150 188 239 280 349
#     4  10  22  42  58  76 112 157 199 236 286 340
#
# _framework density 17.692831999999999
#
# number of rings (size 3 to 8) (size 9 to 14) (size 15 to 20)
#    0.000    1.667    5.000    0.750    7.000    4.333 
#    0.000    0.000    0.000   13.000    0.000    0.000 
#    0.000    0.000    0.000    0.000    0.000    0.000 
#
# Total GULP energy -267583.510812 kJ/mol
# GULP energy per Si atom -5574.656475 kJ/mol
# Density = 1.765256 g / cm^3
# Si number density = 17.692832 Si / 1000 Ang^3
#
#
#
# Elastic Constant Matrix: (Units=GPa)
#
#
# Indices 1 2 3 4 5 6 
#
# 1 77.7667 19.7569 34.1823 0.0000 0.0000 0.0000
# 2 19.7569 82.3681 30.7009 0.0000 0.0000 0.0000
# 3 34.1823 30.7009 101.3432 0.0000 0.0000 0.0000
# 4 0.0000 0.0000 0.0000 1.8866 0.0000 0.0000
# 5 0.0000 0.0000 0.0000 0.0000 14.4225 0.0000
# 6 0.0000 0.0000 0.0000 0.0000 0.0000 12.0727
#
#
#
# Elastic Compliance Matrix: (Units=1/GPa)
#
#
# Indices 1 2 3 4 5 6 
#
# 1 0.015378 -0.001979 -0.004587 0.000000 0.000000 0.000000
# 2 -0.001979 0.013941 -0.003556 0.000000 0.000000 0.000000
# 3 -0.004587 -0.003556 0.012492 0.000000 0.000000 0.000000
# 4 0.000000 0.000000 0.000000 0.530047 0.000000 0.000000
# 5 0.000000 0.000000 0.000000 0.000000 0.069336 0.000000
# 6 0.000000 0.000000 0.000000 0.000000 0.000000 0.082831
#
#
# Mechanical properties :
#
#
# Convention : Reuss Voigt Hill
#
# Bulk Modulus (GPa) = 46.36772 47.86200 47.11486
# Shear Modulus (GPa) = 6.65373 17.46557 12.05965
#
# Velocity S-wave (km/s) = 1.94135 3.14531 2.61360
# Velocity P-wave (km/s) = 5.59367 6.34831 5.98290
#
# Compressibility (1/GPa) = 0.02156673
#
# Stress axis : x y z
#
# Youngs Moduli (GPa) = 65.02757 71.73313 80.05151
#
# Poissons Ratio (x) = 0.14194 0.36723
# Poissons Ratio (y) = 0.12867 0.28464
# Poissons Ratio (z) = 0.29831 0.25506
#
# Static dielectric constant tensor:
#      x y z
#    x 1.639120 0.000000 0.000000 
#    y 0.000000 1.619420 0.000000 
#    z 0.000000 0.000000 1.575860 
# 
# From -- ./inp_files/20339.got.cif
#   From: 2010.05.17/outbox.cif.g08.bks.cpg/sg50_11_cif.got.tgz:20339.got - 2010.06.03 11:33:33.
