data_PCOD9395513
_publ_section_title
;
Structure prediction by ZEFSAII (Michael W. Deem and Ramdas Pophale) SiO2 
 PCOD9395513
Probable space group: P B A N
;
_chemical_formula_sum "Si O2"
_cell_formula_units_Z 64
_cell_length_a 23.275804
_cell_length_b 10.521313
_cell_length_c 16.949736
_cell_angle_alpha 90.000000
_cell_angle_beta 90.000000
_cell_angle_gamma 90.000000
_cell_volume 4150.855074
_symmetry_space_group_name_H-M "P B A N"
_symmetry_group_IT_number 50
_space_group.IT_coordinate_system_code '2'
_symmetry_cell_setting 'orthorhombic'
loop_
_space_group_symop_operation_xyz
x,y,z
1/2-x,1/2-y,z
x,1/2-y,-z
1/2-x,y,-z
-x,-y,-z
1/2+x,1/2+y,-z
-x,1/2+y,z
1/2+x,-y,z
loop_
_atom_site_type_symbol
_atom_site_label
_atom_site_fract_x
_atom_site_fract_y
_atom_site_fract_z
Si Si1 0.571208 0.749999 0.091046
Si Si2 0.930489 0.000994 0.188404
Si Si3 0.250000 0.904398 0.408933
Si Si4 0.049906 0.896473 0.500000
Si Si5 0.126842 0.599039 0.656728
Si Si6 0.068135 0.749999 0.910434
Si Si7 0.626842 0.099040 0.656729
Si Si8 0.069511 0.999007 0.188404
O O1 0.586794 0.624657 0.140381
O O2 0.501524 0.749997 0.086817
O O3 0.586792 0.875341 0.140381
O O4 0.591704 0.750000 0.000000
O O5 0.915163 0.123590 0.135939
O O6 0.900657 0.019327 0.272583
O O7 1.000000 0.999999 0.198878
O O8 0.250000 0.750000 0.412137
O O9 0.250000 0.948492 0.500000
O O10 0.191625 0.940693 0.364710
O O11 0.308375 0.940693 0.364710
O O12 0.028246 0.750000 0.500000
O O13 0.089069 0.912361 0.422461
O O14 0.089069 0.912360 0.577539
O O15 0.000000 0.000000 0.500000
O O16 0.126643 0.750000 0.677948
O O17 0.099343 0.519326 0.727416
O O18 0.084839 0.623588 0.864061
O O19 0.089290 0.750000 0.000000
#
# Coordination Sequence:
#
# PCOD9395513 Si02
#       8
#     8   8   8   8   8   8   8   8
#     4   9  18  30  46  70  99 134 166 194 237 303
#     4  10  18  29  46  72 104 130 163 201 244 296
#     4   9  16  30  52  73  92 125 169 217 247 279
#     4  10  20  33  49  73 105 136 163 192 242 304
#     4  10  18  31  50  73  99 129 167 208 248 284
#     4   9  16  28  46  68  99 132 160 200 249 293
#     4  10  18  31  50  73  99 129 167 208 248 284
#     4  10  18  29  46  72 104 130 163 201 244 296
#
# _framework density 15.418509
#
# number of rings (size 3 to 8) (size 9 to 14) (size 15 to 20)
#    0.000    2.375    2.500    1.500    0.000    3.000 
#    2.250    0.000    0.000    0.750    0.000    7.000 
#    0.000    0.000    0.000    0.000    0.000    0.000 
#
# Total GULP energy -356646.195047 kJ/mol
# GULP energy per Si atom -5572.596798 kJ/mol
# Density = 1.538342 g / cm^3
# Si number density = 15.418509 Si / 1000 Ang^3
#
#
#
# Elastic Constant Matrix: (Units=GPa)
#
#
# Indices 1 2 3 4 5 6 
#
# 1 74.1274 42.9206 48.4193 0.0000 0.0000 0.0000
# 2 42.9206 112.7414 74.5273 0.0000 0.0000 0.0000
# 3 48.4193 74.5273 155.9162 0.0000 0.0000 0.0000
# 4 0.0000 0.0000 0.0000 25.2688 0.0000 0.0000
# 5 0.0000 0.0000 0.0000 0.0000 2.3915 0.0000
# 6 0.0000 0.0000 0.0000 0.0000 0.0000 9.8349
#
#
#
# Elastic Compliance Matrix: (Units=1/GPa)
#
#
# Indices 1 2 3 4 5 6 
#
# 1 0.018512 -0.004747 -0.003480 0.000000 0.000000 0.000000
# 2 -0.004747 0.014185 -0.005306 0.000000 0.000000 0.000000
# 3 -0.003480 -0.005306 0.010031 0.000000 0.000000 0.000000
# 4 0.000000 0.000000 0.000000 0.039574 0.000000 0.000000
# 5 0.000000 0.000000 0.000000 0.000000 0.418148 0.000000
# 6 0.000000 0.000000 0.000000 0.000000 0.000000 0.101678
#
#
# Mechanical properties :
#
#
# Convention : Reuss Voigt Hill
#
# Bulk Modulus (GPa) = 63.85158 74.94662 69.39910
# Shear Modulus (GPa) = 7.88129 19.29357 13.58743
#
# Velocity S-wave (km/s) = 2.26333 3.54124 2.97179
# Velocity P-wave (km/s) = 6.95215 8.08915 7.54211
#
# Compressibility (1/GPa) = 0.01566132
#
# Stress axis : x y z
#
# Youngs Moduli (GPa) = 54.01934 70.49888 99.69585
#
# Poissons Ratio (x) = 0.33468 0.34691
# Poissons Ratio (y) = 0.25644 0.52898
# Poissons Ratio (z) = 0.18797 0.37406
#
# Static dielectric constant tensor:
#      x y z
#    x 1.489660 0.000000 0.000000 
#    y 0.000000 1.508600 0.000000 
#    z 0.000000 0.000000 1.507310 
# 
# From -- ./inp_files/29862.got.cif
#   From: 2010.05.17/outbox.cif.g08.bks.cpg/sg50_15_cif.got.tgz:29862.got - 2010.06.03 11:33:33.
