data_PCOD9395569
_publ_section_title
;
Structure prediction by ZEFSAII (Michael W. Deem and Ramdas Pophale) SiO2 
 PCOD9395569
Probable space group: P B A N
;
_chemical_formula_sum "Si O2"
_cell_formula_units_Z 48
_cell_length_a 9.177195
_cell_length_b 17.398348
_cell_length_c 14.224775
_cell_angle_alpha 90.000000
_cell_angle_beta 90.000000
_cell_angle_gamma 90.000000
_cell_volume 2271.241834
_symmetry_space_group_name_H-M "P B A N"
_symmetry_group_IT_number 50
_space_group.IT_coordinate_system_code '2'
_symmetry_cell_setting 'orthorhombic'
loop_
_space_group_symop_operation_xyz
x,y,z
1/2-x,1/2-y,z
x,1/2-y,-z
1/2-x,y,-z
-x,-y,-z
1/2+x,1/2+y,-z
-x,1/2+y,z
1/2+x,-y,z
loop_
_atom_site_type_symbol
_atom_site_label
_atom_site_fract_x
_atom_site_fract_y
_atom_site_fract_z
Si Si1 0.797781 0.141818 0.107044
Si Si2 0.997486 0.354884 0.190005
Si Si3 0.795839 0.541944 0.898526
Si Si4 0.250000 0.250000 0.246056
Si Si5 0.250000 0.001047 0.500000
Si Si6 0.437210 0.113400 0.756161
Si Si7 0.497387 0.462319 0.634199
O O1 0.661311 0.173411 0.165607
O O2 0.944927 0.149954 0.170443
O O3 0.795783 0.049080 0.103661
O O4 0.750000 0.165113 0.000000
O O5 0.044832 0.423728 0.120497
O O6 0.128531 0.294684 0.185586
O O7 0.996268 0.395461 0.290384
O O8 0.684833 0.570677 0.819118
O O9 0.750000 0.570666 0.000000
O O10 0.348158 0.316853 0.294208
O O11 0.351936 0.045479 0.426937
O O12 0.134656 0.956708 0.435216
O O13 0.499563 0.046529 0.686966
#
# Coordination Sequence:
#
# PCOD9395569 Si02
#       7
#     8   8   8   4   4   8   8
#     4  11  20  33  58  89 118 159 215 255 286 337
#     4  11  21  39  60  89 121 168 193 253 292 367
#     4  10  18  32  56  90 122 155 203 251 291 339
#     4  10  26  40  59  83 126 160 210 236 316 349
#     4  10  22  34  60 100 116 144 186 268 286 362
#     4  11  21  39  60  89 121 168 193 253 292 367
#     4  11  20  38  65  90 124 146 203 234 314 353
#
# _framework density 21.133814000000001
#
# number of rings (size 3 to 8) (size 9 to 14) (size 15 to 20)
#    0.000    1.333    3.333    4.000    0.000    3.333 
#    0.000   15.833    0.000   19.000    0.000    0.000 
#    0.000    0.000    0.000    0.000    0.000    0.000 
#
# Total GULP energy -267552.833399 kJ/mol
# GULP energy per Si atom -5574.017362 kJ/mol
# Density = 2.108571 g / cm^3
# Si number density = 21.133814 Si / 1000 Ang^3
#
#
#
# Elastic Constant Matrix: (Units=GPa)
#
#
# Indices 1 2 3 4 5 6 
#
# 1 122.6570 35.4770 30.9577 0.0000 0.0000 0.0000
# 2 35.4770 88.1921 21.0275 0.0000 0.0000 0.0000
# 3 30.9577 21.0275 99.1211 0.0000 0.0000 0.0000
# 4 0.0000 0.0000 0.0000 -14.2270 0.0000 0.0000
# 5 0.0000 0.0000 0.0000 0.0000 29.3270 0.0000
# 6 0.0000 0.0000 0.0000 0.0000 0.0000 -0.0456
#
#
#
# Elastic Compliance Matrix: (Units=1/GPa)
#
#
# Indices 1 2 3 4 5 6 
#
# 1 0.009708 -0.003352 -0.002321 0.000000 0.000000 0.000000
# 2 -0.003352 0.013100 -0.001732 0.000000 0.000000 0.000000
# 3 -0.002321 -0.001732 0.011181 0.000000 0.000000 0.000000
# 4 0.000000 0.000000 0.000000 -0.070289 0.000000 0.000000
# 5 0.000000 0.000000 0.000000 0.000000 0.034098 0.000000
# 6 0.000000 0.000000 0.000000 0.000000 0.000000-21.943968
#
#
# Mechanical properties :
#
#
# Convention : Reuss Voigt Hill
#
# Bulk Modulus (GPa) = 52.13975 53.87717 53.00846
# Shear Modulus (GPa) = -0.22805 17.84477 8.80836
#
# Velocity S-wave (km/s) = -0.32885 2.90896 2.04376
# Velocity P-wave (km/s) = 4.95788 6.06889 5.54130
#
# Compressibility (1/GPa) = 0.01917922
#
# Stress axis : x y z
#
# Youngs Moduli (GPa) = 103.00670 76.33435 89.43715
#
# Poissons Ratio (x) = 0.25586 0.20758
# Poissons Ratio (y) = 0.34527 0.15492
# Poissons Ratio (z) = 0.23908 0.13223
#
# Static dielectric constant tensor:
#      x y z
#    x 1.810090 0.000000 0.000000 
#    y 0.000000 1.826100 0.000000 
#    z 0.000000 0.000000 1.767620 
# 
# From -- ./inp_files/25042.got.cif
#   From: 2010.05.17/outbox.cif.g08.bks.cpg/sg50_13_cif.got.tgz:25042.got - 2010.06.03 11:33:33.
