data_PCOD9395932
_publ_section_title
;
Structure prediction by ZEFSAII (Michael W. Deem and Ramdas Pophale) SiO2 
 PCOD9395932
Probable space group: P B A N
;
_chemical_formula_sum "Si O2"
_cell_formula_units_Z 52
_cell_length_a 9.077991
_cell_length_b 21.784095
_cell_length_c 12.832606
_cell_angle_alpha 90.000000
_cell_angle_beta 90.000000
_cell_angle_gamma 90.000000
_cell_volume 2537.722501
_symmetry_space_group_name_H-M "P B A N"
_symmetry_group_IT_number 50
_space_group.IT_coordinate_system_code '2'
_symmetry_cell_setting 'orthorhombic'
loop_
_space_group_symop_operation_xyz
x,y,z
1/2-x,1/2-y,z
x,1/2-y,-z
1/2-x,y,-z
-x,-y,-z
1/2+x,1/2+y,-z
-x,1/2+y,z
1/2+x,-y,z
loop_
_atom_site_type_symbol
_atom_site_label
_atom_site_fract_x
_atom_site_fract_y
_atom_site_fract_z
Si Si1 0.010031 0.804851 0.582955
Si Si2 0.250000 0.900934 0.500000
Si Si3 0.239463 0.101239 0.383563
Si Si4 0.362871 0.018094 0.809046
Si Si5 0.297998 0.687951 0.781791
Si Si6 0.068303 0.595876 0.686162
Si Si7 0.131960 0.932674 0.906460
O O1 0.006823 0.750000 0.500000
O O2 0.117637 0.857791 0.538536
O O3 0.089431 0.789960 0.691962
O O4 0.853608 0.836505 0.602153
O O5 0.324982 0.933651 0.597245
O O6 0.250000 0.071865 0.500000
O O7 0.161620 0.063000 0.290144
O O8 0.407713 0.113189 0.352479
O O9 0.459186 0.048342 0.902171
O O10 0.445562 0.956816 0.770800
O O11 0.209986 0.988246 0.844349
O O12 0.250000 0.750000 0.839499
O O13 0.158566 0.653978 0.728136
O O14 0.365648 0.632899 0.848397
O O15 0.250000 0.925267 0.000000
#
# Coordination Sequence:
#
# PCOD9395932 Si02
#       7
#     8   4   8   8   8   8   8
#     4  11  21  37  56  83 124 171 215 251 303 372
#     4  10  19  36  52  82 112 166 217 244 290 370
#     4  12  24  37  56  93 131 172 217 258 316 388
#     4  11  23  42  62  94 133 161 211 278 329 397
#     4  10  22  41  63  88 127 168 210 273 318 387
#     4  10  22  38  58  87 130 174 213 261 323 378
#     4  11  23  43  71  96 122 164 217 279 345 391
#
# _framework density 20.490815000000001
#
# number of rings (size 3 to 8) (size 9 to 14) (size 15 to 20)
#    0.000    1.231    4.615    2.538    1.077    1.231 
#    0.000    0.000    0.000    0.000    0.000    0.000 
#    4.615    0.000    0.000    0.000    0.000    0.000 
#
# Total GULP energy -289832.646262 kJ/mol
# GULP energy per Si atom -5573.704736 kJ/mol
# Density = 2.044418 g / cm^3
# Si number density = 20.490815 Si / 1000 Ang^3
#
#
#
# Elastic Constant Matrix: (Units=GPa)
#
#
# Indices 1 2 3 4 5 6 
#
# 1 108.5304 33.3343 0.7925 0.0000 0.0000 0.0000
# 2 33.3343 88.9513 25.7899 0.0000 0.0000 0.0000
# 3 0.7925 25.7899 44.2218 0.0000 0.0000 0.0000
# 4 0.0000 0.0000 0.0000 -28.9084 0.0000 0.0000
# 5 0.0000 0.0000 0.0000 0.0000 25.7735 0.0000
# 6 0.0000 0.0000 0.0000 0.0000 0.0000 -12.7106
#
#
#
# Elastic Compliance Matrix: (Units=1/GPa)
#
#
# Indices 1 2 3 4 5 6 
#
# 1 0.010650 -0.004737 0.002572 0.000000 0.000000 0.000000
# 2 -0.004737 0.015636 -0.009034 0.000000 0.000000 0.000000
# 3 0.002572 -0.009034 0.027836 0.000000 0.000000 0.000000
# 4 0.000000 0.000000 0.000000 -0.034592 0.000000 0.000000
# 5 0.000000 0.000000 0.000000 0.000000 0.038800 0.000000
# 6 0.000000 0.000000 0.000000 0.000000 0.000000 -0.078675
#
#
# Mechanical properties :
#
#
# Convention : Reuss Voigt Hill
#
# Bulk Modulus (GPa) = 31.52212 40.17075 35.84644
# Shear Modulus (GPa) = 395.93446 8.95004 202.44225
#
# Velocity S-wave (km/s) = 13.91563 2.09220 9.95043
# Velocity P-wave (km/s) = 16.54116 5.04809 12.22893
#
# Compressibility (1/GPa) = 0.03172376
#
# Stress axis : x y z
#
# Youngs Moduli (GPa) = 93.89615 63.95303 35.92486
#
# Poissons Ratio (x) = 0.30292 -0.09238
# Poissons Ratio (y) = 0.44475 0.32455
# Poissons Ratio (z) = -0.24146 0.57777
#
# Static dielectric constant tensor:
#      x y z
#    x 2.137570 0.000000 0.000000 
#    y 0.000000 1.718350 0.000000 
#    z 0.000000 0.000000 1.879070 
# 
# From -- ./inp_files/25186.got.cif
#   From: 2010.05.17/outbox.cif.g08.bks.cpg/sg50_13_cif.got.tgz:25186.got - 2010.06.03 11:33:33.
