data_PCOD9395677
_publ_section_title
;
Structure prediction by ZEFSAII (Michael W. Deem and Ramdas Pophale) SiO2 
 PCOD9395677
Probable space group: P B A N
;
_chemical_formula_sum "Si O2"
_cell_formula_units_Z 44
_cell_length_a 26.924781
_cell_length_b 18.814402
_cell_length_c 5.247111
_cell_angle_alpha 90.000000
_cell_angle_beta 90.000000
_cell_angle_gamma 90.000000
_cell_volume 2658.048190
_symmetry_space_group_name_H-M "P B A N"
_symmetry_group_IT_number 50
_space_group.IT_coordinate_system_code '2'
_symmetry_cell_setting 'orthorhombic'
loop_
_space_group_symop_operation_xyz
x,y,z
1/2-x,1/2-y,z
x,1/2-y,-z
1/2-x,y,-z
-x,-y,-z
1/2+x,1/2+y,-z
-x,1/2+y,z
1/2+x,-y,z
loop_
_atom_site_type_symbol
_atom_site_label
_atom_site_fract_x
_atom_site_fract_y
_atom_site_fract_z
Si Si1 0.068877 0.814092 0.150113
Si Si2 0.445715 0.449764 0.211173
Si Si3 0.012438 0.091009 0.711372
Si Si4 0.153413 0.750000 0.500000
Si Si5 0.192197 0.596915 0.472857
Si Si6 0.367462 0.941875 0.983795
O O1 0.116051 0.777962 0.284043
O O2 0.091115 0.879316 0.984685
O O3 0.030329 0.851358 0.340708
O O4 0.043928 0.750000 0.000000
O O5 0.447209 0.414103 0.488403
O O6 0.484209 0.515393 0.254581
O O7 0.396730 0.487499 0.100326
O O8 0.465056 0.397714 0.991245
O O9 0.185091 0.681485 0.419680
O O10 0.250000 0.580090 0.500000
O O11 0.165669 0.579634 0.740453
O O12 0.164492 0.556883 0.241112
#
# Coordination Sequence:
#
# PCOD9395677 Si02
#       6
#     8   8   8   4   8   8
#     4  10  19  30  45  64  91 122 157 189 237 275
#     4   9  17  31  44  64  82 109 146 192 239 271
#     4   9  18  27  46  64  85 108 148 193 225 275
#     4  10  21  32  44  60  94 126 158 194 235 270
#     4  11  21  33  47  66  86 118 160 201 241 282
#     4  10  20  33  49  62  87 117 152 199 245 283
#
# _framework density 16.553498999999999
#
# number of rings (size 3 to 8) (size 9 to 14) (size 15 to 20)
#    0.000    2.182    1.818    1.909    2.545    4.364 
#    0.000    1.818    0.000    0.000    0.000    0.000 
#    0.000    0.000    0.000    0.000    0.000   25.455 
#
# Total GULP energy -245071.655311 kJ/mol
# GULP energy per Si atom -5569.810348 kJ/mol
# Density = 1.651582 g / cm^3
# Si number density = 16.553499 Si / 1000 Ang^3
#
#
#
# Elastic Constant Matrix: (Units=GPa)
#
#
# Indices 1 2 3 4 5 6 
#
# 1 59.3071 20.2844 26.4968 0.0000 0.0000 0.0000
# 2 20.2844 18.5203 15.9014 0.0000 0.0000 0.0000
# 3 26.4968 15.9014 94.4070 0.0000 0.0000 0.0000
# 4 0.0000 0.0000 0.0000 12.7258 0.0000 0.0000
# 5 0.0000 0.0000 0.0000 0.0000 114.4975 0.0000
# 6 0.0000 0.0000 0.0000 0.0000 0.0000 16.6477
#
#
#
# Elastic Compliance Matrix: (Units=1/GPa)
#
#
# Indices 1 2 3 4 5 6 
#
# 1 0.027724 -0.027688 -0.003118 0.000000 0.000000 0.000000
# 2 -0.027688 0.090776 -0.007519 0.000000 0.000000 0.000000
# 3 -0.003118 -0.007519 0.012734 0.000000 0.000000 0.000000
# 4 0.000000 0.000000 0.000000 0.078581 0.000000 0.000000
# 5 0.000000 0.000000 0.000000 0.000000 0.008734 0.000000
# 6 0.000000 0.000000 0.000000 0.000000 0.000000 0.060069
#
#
# Mechanical properties :
#
#
# Convention : Reuss Voigt Hill
#
# Bulk Modulus (GPa) = 18.32007 33.06662 25.69334
# Shear Modulus (GPa) = 13.38829 36.07765 24.73297
#
# Velocity S-wave (km/s) = 2.84701 4.67353 3.86958
# Velocity P-wave (km/s) = 4.67958 7.01010 5.95986
#
# Compressibility (1/GPa) = 0.05458496
#
# Stress axis : x y z
#
# Youngs Moduli (GPa) = 36.06953 11.01616 78.53101
#
# Poissons Ratio (x) = 0.30502 0.24483
# Poissons Ratio (y) = 0.99870 0.59044
# Poissons Ratio (z) = 0.11245 0.08283
#
# Static dielectric constant tensor:
#      x y z
#    x 1.560760 0.000000 0.000000 
#    y 0.000000 1.572780 0.000000 
#    z 0.000000 0.000000 1.607330 
# 
# From -- ./inp_files/5969.got.cif
#   From: 2010.05.17/outbox.cif.g08.bks.cpg/sg50_3_cif.got.tgz:5969.got - 2010.06.03 11:33:33.
