data_PCOD9395873
_publ_section_title
;
Structure prediction by ZEFSAII (Michael W. Deem and Ramdas Pophale) SiO2 
 PCOD9395873
Probable space group: P B A N
;
_chemical_formula_sum "Si O2"
_cell_formula_units_Z 34
_cell_length_a 9.010237
_cell_length_b 20.999405
_cell_length_c 9.312194
_cell_angle_alpha 90.000000
_cell_angle_beta 90.000000
_cell_angle_gamma 90.000000
_cell_volume 1761.956650
_symmetry_space_group_name_H-M "P B A N"
_symmetry_group_IT_number 50
_space_group.IT_coordinate_system_code '2'
_symmetry_cell_setting 'orthorhombic'
loop_
_space_group_symop_operation_xyz
x,y,z
1/2-x,1/2-y,z
x,1/2-y,-z
1/2-x,y,-z
-x,-y,-z
1/2+x,1/2+y,-z
-x,1/2+y,z
1/2+x,-y,z
loop_
_atom_site_type_symbol
_atom_site_label
_atom_site_fract_x
_atom_site_fract_y
_atom_site_fract_z
Si Si1 0.746259 0.534589 0.672810
Si Si2 0.746668 0.325286 0.161377
Si Si3 0.250000 0.250000 0.500000
Si Si4 0.468325 0.357103 0.362628
Si Si5 0.440470 0.912190 0.672683
O O1 0.750000 0.539055 0.500000
O O2 0.631476 0.589450 0.715002
O O3 0.688122 0.464021 0.699569
O O4 0.909195 0.553491 0.722516
O O5 0.750000 0.250000 0.151419
O O6 0.603312 0.340174 0.258696
O O7 0.892644 0.350503 0.241216
O O8 0.750000 0.352449 0.000000
O O9 0.360149 0.298256 0.411364
O O10 0.535409 0.389997 0.507699
#
# Coordination Sequence:
#
# PCOD9395873 Si02
#       5
#     8   8   2   8   8
#     4  10  19  34  62  95 127 153 199 255 314 365
#     4  11  25  42  60  84 124 168 210 254 313 375
#     4  12  20  36  66 102 124 156 216 274 312 364
#     4  11  21  37  63  93 124 155 206 257 308 371
#     4  11  20  39  63  96 122 164 204 258 311 369
#
# _framework density 19.296728000000002
#
# number of rings (size 3 to 8) (size 9 to 14) (size 15 to 20)
#    0.000    1.176    3.529    7.765    0.000    0.941 
#    0.000    5.882    0.000    0.000    0.000    0.000 
#    0.000    0.000    0.000    0.000    0.000    0.000 
#
# Total GULP energy -189645.417029 kJ/mol
# GULP energy per Si atom -5577.806383 kJ/mol
# Density = 1.925281 g / cm^3
# Si number density = 19.296728 Si / 1000 Ang^3
#
#
#
# Elastic Constant Matrix: (Units=GPa)
#
#
# Indices 1 2 3 4 5 6 
#
# 1 105.2679 43.0816 46.7543 0.0000 0.0000 0.0000
# 2 43.0816 101.2704 22.2457 0.0000 0.0000 0.0000
# 3 46.7543 22.2457 63.5196 0.0000 0.0000 0.0000
# 4 0.0000 0.0000 0.0000 4.1685 0.0000 0.0000
# 5 0.0000 0.0000 0.0000 0.0000 -2.2311 0.0000
# 6 0.0000 0.0000 0.0000 0.0000 0.0000 40.1234
#
#
#
# Elastic Compliance Matrix: (Units=1/GPa)
#
#
# Indices 1 2 3 4 5 6 
#
# 1 0.015817 -0.004519 -0.010060 0.000000 0.000000 0.000000
# 2 -0.004519 0.011989 -0.000872 0.000000 0.000000 0.000000
# 3 -0.010060 -0.000872 0.023453 0.000000 0.000000 0.000000
# 4 0.000000 0.000000 0.000000 0.239894 0.000000 0.000000
# 5 0.000000 0.000000 0.000000 0.000000 -0.448210 0.000000
# 6 0.000000 0.000000 0.000000 0.000000 0.000000 0.024923
#
#
# Mechanical properties :
#
#
# Convention : Reuss Voigt Hill
#
# Bulk Modulus (GPa) = 49.12362 54.91346 52.01854
# Shear Modulus (GPa) = -52.93962 18.94392 -16.99785
#
# Velocity S-wave (km/s) = -5.24348 3.13664 -2.97116
# Velocity P-wave (km/s) = 3.33864 6.45269 3.90452
#
# Compressibility (1/GPa) = 0.02035681
#
# Stress axis : x y z
#
# Youngs Moduli (GPa) = 63.22351 83.41259 42.63813
#
# Poissons Ratio (x) = 0.37694 0.42892
# Poissons Ratio (y) = 0.28570 0.03720
# Poissons Ratio (z) = 0.63600 0.07277
#
# Static dielectric constant tensor:
#      x y z
#    x 1.720710 0.000000 0.000000 
#    y 0.000000 1.765220 0.000000 
#    z 0.000000 0.000000 1.650350 
# 
# From -- ./inp_files/18628.got.cif
#   From: 2010.05.17/outbox.cif.g08.bks.cpg/sg50_10_cif.got.tgz:18628.got - 2010.06.03 11:33:33.
