data_PCOD9395504
_publ_section_title
;
Structure prediction by ZEFSAII (Michael W. Deem and Ramdas Pophale) SiO2 
 PCOD9395504
Probable space group: P B A N
;
_chemical_formula_sum "Si O2"
_cell_formula_units_Z 48
_cell_length_a 17.136670
_cell_length_b 9.152884
_cell_length_c 16.175563
_cell_angle_alpha 90.000000
_cell_angle_beta 90.000000
_cell_angle_gamma 90.000000
_cell_volume 2537.136291
_symmetry_space_group_name_H-M "P B A N"
_symmetry_group_IT_number 50
_space_group.IT_coordinate_system_code '2'
_symmetry_cell_setting 'orthorhombic'
loop_
_space_group_symop_operation_xyz
x,y,z
1/2-x,1/2-y,z
x,1/2-y,-z
1/2-x,y,-z
-x,-y,-z
1/2+x,1/2+y,-z
-x,1/2+y,z
1/2+x,-y,z
loop_
_atom_site_type_symbol
_atom_site_label
_atom_site_fract_x
_atom_site_fract_y
_atom_site_fract_z
Si Si1 0.457751 0.116095 0.151177
Si Si2 0.090136 0.693822 0.085800
Si Si3 0.405379 0.815985 0.581569
Si Si4 0.428770 0.341028 0.421898
Si Si5 0.163168 0.305458 0.748026
Si Si6 0.618593 0.377043 0.764710
O O1 0.506773 0.222876 0.092408
O O2 0.387933 0.202172 0.193509
O O3 0.525525 0.082417 0.220686
O O4 0.427539 0.975040 0.102439
O O5 0.135141 0.757401 0.165611
O O6 0.125641 0.750000 0.000000
O O7 0.363952 0.750000 0.500000
O O8 0.483634 0.718912 0.590863
O O9 0.367093 0.819436 0.672231
O O10 0.426800 0.985137 0.563991
O O11 0.397618 0.250000 0.500000
O O12 0.379151 0.309630 0.340560
O O13 0.250000 0.250000 0.740424
O O14 0.162214 0.471971 0.779615
#
# Coordination Sequence:
#
# PCOD9395504 Si02
#       6
#     8   8   8   8   8   8
#     4  10  18  34  57  84 113 142 187 239 270 335
#     4  10  19  32  61  88 109 141 191 242 283 323
#     4  10  18  28  51  82 111 143 181 235 275 316
#     4  10  19  31  50  79 109 142 190 232 276 330
#     4  11  22  37  56  82 115 155 186 231 293 339
#     4   9  19  35  55  84 115 141 196 229 273 345
#
# _framework density 18.918969000000001
#
# number of rings (size 3 to 8) (size 9 to 14) (size 15 to 20)
#    1.000    1.000    3.333    2.500    2.333    1.667 
#    0.000    0.833    0.000    5.500    0.000   10.500 
#    0.000    0.000    0.000    0.000    0.000    0.000 
#
# Total GULP energy -267361.155174 kJ/mol
# GULP energy per Si atom -5570.024066 kJ/mol
# Density = 1.887591 g / cm^3
# Si number density = 18.918969 Si / 1000 Ang^3
#
#
#
# Elastic Constant Matrix: (Units=GPa)
#
#
# Indices 1 2 3 4 5 6 
#
# 1 18.6345 6.2894 -1.8891 0.0000 0.0000 0.0000
# 2 6.2894 117.7586 47.6731 0.0000 0.0000 0.0000
# 3 -1.8891 47.6731 108.3286 0.0000 0.0000 0.0000
# 4 0.0000 0.0000 0.0000 66.7270 0.0000 0.0000
# 5 0.0000 0.0000 0.0000 0.0000 -0.5820 0.0000
# 6 0.0000 0.0000 0.0000 0.0000 0.0000 -4.6510
#
#
#
# Elastic Compliance Matrix: (Units=1/GPa)
#
#
# Indices 1 2 3 4 5 6 
#
# 1 0.055317 -0.004070 0.002756 0.000000 0.000000 0.000000
# 2 -0.004070 0.010632 -0.004750 0.000000 0.000000 0.000000
# 3 0.002756 -0.004750 0.011370 0.000000 0.000000 0.000000
# 4 0.000000 0.000000 0.000000 0.014986 0.000000 0.000000
# 5 0.000000 0.000000 0.000000 0.000000 -1.718169 0.000000
# 6 0.000000 0.000000 0.000000 0.000000 0.000000 -0.215006
#
#
# Mechanical properties :
#
#
# Convention : Reuss Voigt Hill
#
# Bulk Modulus (GPa) = 15.33971 38.76315 27.05143
# Shear Modulus (GPa) = -2.76700 25.14201 11.18750
#
# Velocity S-wave (km/s) = -1.21067 3.64941 2.43438
# Velocity P-wave (km/s) = 2.48423 6.18798 4.71500
#
# Compressibility (1/GPa) = 0.06519028
#
# Stress axis : x y z
#
# Youngs Moduli (GPa) = 18.07764 94.05284 87.95377
#
# Poissons Ratio (x) = 0.38280 -0.24238
# Poissons Ratio (y) = 0.07358 0.41778
# Poissons Ratio (z) = -0.04982 0.44675
#
# Static dielectric constant tensor:
#      x y z
#    x 1.620910 0.000000 0.000000 
#    y 0.000000 1.678460 0.000000 
#    z 0.000000 0.000000 1.715250 
# 
# From -- ./inp_files/27144.got.cif
#   From: 2010.05.17/outbox.cif.g08.bks.cpg/sg50_14_cif.got.tgz:27144.got - 2010.06.03 11:33:33.
