data_PCOD9395769
_publ_section_title
;
Structure prediction by ZEFSAII (Michael W. Deem and Ramdas Pophale) SiO2 
 PCOD9395769
Probable space group: P B A N
;
_chemical_formula_sum "Si O2"
_cell_formula_units_Z 56
_cell_length_a 16.789738
_cell_length_b 33.452007
_cell_length_c 5.059122
_cell_angle_alpha 90.000000
_cell_angle_beta 90.000000
_cell_angle_gamma 90.000000
_cell_volume 2841.458062
_symmetry_space_group_name_H-M "P B A N"
_symmetry_group_IT_number 50
_space_group.IT_coordinate_system_code '2'
_symmetry_cell_setting 'orthorhombic'
loop_
_space_group_symop_operation_xyz
x,y,z
1/2-x,1/2-y,z
x,1/2-y,-z
1/2-x,y,-z
-x,-y,-z
1/2+x,1/2+y,-z
-x,1/2+y,z
1/2+x,-y,z
loop_
_atom_site_type_symbol
_atom_site_label
_atom_site_fract_x
_atom_site_fract_y
_atom_site_fract_z
Si Si1 0.194450 0.433577 0.240279
Si Si2 0.477097 0.473363 0.746394
Si Si3 0.473033 0.316881 0.583247
Si Si4 0.936959 0.105234 0.544176
Si Si5 0.804617 0.659317 0.755368
Si Si6 0.571370 0.207551 0.902653
Si Si7 0.842118 0.128732 0.053354
O O1 0.250000 0.435237 0.500000
O O2 0.115051 0.459852 0.253659
O O3 0.171058 0.386959 0.185927
O O4 0.250000 0.446949 0.000000
O O5 0.500000 0.500000 0.500000
O O6 0.526905 0.433254 0.686464
O O7 0.500000 0.500000 0.000000
O O8 0.493268 0.362397 0.491066
O O9 0.381265 0.315320 0.668317
O O10 0.511065 0.290823 0.346785
O O11 0.519857 0.307768 0.850770
O O12 0.886435 0.101183 0.273271
O O13 0.880664 0.123830 0.766534
O O14 0.750000 0.657487 0.500000
O O15 0.750000 0.673523 0.000000
O O16 0.638080 0.173943 0.848656
O O17 0.604033 0.250000 0.000000
O O18 0.750000 0.121136 0.000000
#
# Coordination Sequence:
#
# PCOD9395769 Si02
#       7
#     8   8   8   8   8   8   8
#     4  10  21  38  59  84 116 146 190 253 304 343
#     4  12  24  40  61  87 120 161 201 244 301 369
#     4  10  19  36  58  82 117 150 192 248 287 356
#     4  10  21  39  58  84 114 151 201 243 299 356
#     4  10  19  32  57  87 110 142 189 246 297 336
#     4  10  21  35  58  87 118 157 196 242 301 352
#     4  10  21  38  62  86 117 156 200 251 298 354
#
# _framework density 19.708190999999999
#
# number of rings (size 3 to 8) (size 9 to 14) (size 15 to 20)
#    0.000    1.714    1.429    3.429    0.000    0.286 
#    0.000    7.143    0.000   11.571    0.000    0.000 
#    0.000    0.000    0.000    0.000    0.000    0.000 
#
# Total GULP energy -312247.168040 kJ/mol
# GULP energy per Si atom -5575.842286 kJ/mol
# Density = 1.966333 g / cm^3
# Si number density = 19.708191 Si / 1000 Ang^3
#
#
#
# Elastic Constant Matrix: (Units=GPa)
#
#
# Indices 1 2 3 4 5 6 
#
# 1 81.5986 -4.3551 23.8431 0.0000 0.0000 0.0000
# 2 -4.3551 40.0591 -4.3641 0.0000 0.0000 0.0000
# 3 23.8431 -4.3641 129.2469 0.0000 0.0000 0.0000
# 4 0.0000 0.0000 0.0000 32.9427 0.0000 0.0000
# 5 0.0000 0.0000 0.0000 0.0000 30.1808 0.0000
# 6 0.0000 0.0000 0.0000 0.0000 0.0000 4.4551
#
#
#
# Elastic Compliance Matrix: (Units=1/GPa)
#
#
# Indices 1 2 3 4 5 6 
#
# 1 0.013007 0.001157 -0.002360 0.000000 0.000000 0.000000
# 2 0.001157 0.025158 0.000636 0.000000 0.000000 0.000000
# 3 -0.002360 0.000636 0.008194 0.000000 0.000000 0.000000
# 4 0.000000 0.000000 0.000000 0.030356 0.000000 0.000000
# 5 0.000000 0.000000 0.000000 0.000000 0.033134 0.000000
# 6 0.000000 0.000000 0.000000 0.000000 0.000000 0.224459
#
#
# Mechanical properties :
#
#
# Convention : Reuss Voigt Hill
#
# Bulk Modulus (GPa) = 22.11214 31.23915 26.67565
# Shear Modulus (GPa) = 14.26464 29.23443 21.74953
#
# Velocity S-wave (km/s) = 2.69326 3.85563 3.32562
# Velocity P-wave (km/s) = 4.57336 5.97548 5.32081
#
# Compressibility (1/GPa) = 0.04522402
#
# Stress axis : x y z
#
# Youngs Moduli (GPa) = 76.88429 39.74846 122.03999
#
# Poissons Ratio (x) = -0.04598 0.28806
# Poissons Ratio (y) = -0.08895 -0.07763
# Poissons Ratio (z) = 0.18147 -0.02528
#
# Static dielectric constant tensor:
#      x y z
#    x 1.699970 0.000000 0.000000 
#    y 0.000000 1.830260 0.000000 
#    z 0.000000 0.000000 1.692760 
# 
# From -- ./inp_files/3760.got.cif
#   From: 2010.05.17/outbox.cif.g08.bks.cpg/sg50_2_cif.got.tgz:3760.got - 2010.06.03 11:33:33.
