data_PCOD9395247
_publ_section_title
;
Structure prediction by ZEFSAII (Michael W. Deem and Ramdas Pophale) SiO2 
 PCOD9395247
Probable space group: P C C M
;
_chemical_formula_sum "Si O2"
_cell_formula_units_Z 56
_cell_length_a 21.000000
_cell_length_b 15.000000
_cell_length_c 9.000000
_cell_angle_alpha 90.000000
_cell_angle_beta 90.000000
_cell_angle_gamma 90.000000
_cell_volume 2835.000000
_symmetry_space_group_name_H-M "P C C M"
_symmetry_group_IT_number 49
_symmetry_cell_setting 'orthorhombic'
loop_
_space_group_symop_operation_xyz
x,y,z
-x,-y,z
x,-y,1/2-z
-x,y,1/2-z
-x,-y,-z
x,y,-z
-x,y,1/2+z
x,-y,1/2+z
loop_
_atom_site_type_symbol
_atom_site_label
_atom_site_fract_x
_atom_site_fract_y
_atom_site_fract_z
Si Si1 0.118913 0.406970 0.323882
Si Si2 0.934405 0.768292 0.821739
Si Si3 0.402257 0.589004 0.828740
Si Si4 0.737265 0.654872 0.329057
Si Si5 0.695618 0.831626 0.176103
Si Si6 0.565795 0.790041 0.679000
Si Si7 0.172907 0.910142 0.321880
O O1 0.101815 0.500000 0.250000
O O2 0.106975 0.406983 0.500000
O O3 0.081082 0.328019 0.245171
O O4 0.194911 0.389962 0.301846
O O5 0.874110 0.829916 0.781139
O O6 0.000000 0.801839 0.750000
O O7 0.939814 0.765107 0.000000
O O8 0.424793 0.500000 0.750000
O O9 0.325080 0.593151 0.820994
O O10 0.425310 0.685731 0.772752
O O11 0.421051 0.584198 0.000000
O O12 0.737845 0.690596 0.500000
O O13 0.723465 0.733852 0.214681
O O14 0.628873 0.839459 0.261597
O O15 0.754007 0.893845 0.225420
O O16 0.685226 0.840566 0.000000
O O17 0.500000 0.822833 0.750000
O O18 0.564142 0.793069 0.500000
O O19 0.173020 0.916204 0.500000
O O20 0.148408 0.000000 0.250000
#
# Coordination Sequence:
#
# PCOD9395247 Si02
#       7
#     8   8   8   8   8   8   8
#     4  11  22  36  58  87 120 163 208 256 307 359
#     4  11  24  44  64  90 125 163 206 252 303 362
#     4   9  18  30  44  68 103 142 189 240 291 345
#     4   9  18  32  51  78 111 150 196 243 297 354
#     4  10  19  35  59  87 117 152 192 242 296 350
#     4  10  21  36  53  78 110 151 198 243 295 360
#     4  10  23  41  66  97 127 157 197 244 300 366
#
# _framework density 19.753086
#
# number of rings (size 3 to 8) (size 9 to 14) (size 15 to 20)
#    0.000    2.000    1.429    3.000    0.000    6.571 
#    0.000    4.286    0.000    0.429    0.000    3.000 
#    0.000    0.000    0.000    0.000    0.000    0.000 
#
# Total GULP energy -312595.925986 kJ/mol
# GULP energy per Si atom -5582.070107 kJ/mol
# Density = 1.970813 g / cm^3
# Si number density = 19.753086 Si / 1000 Ang^3
#
#
#
# Elastic Constant Matrix: (Units=GPa)
#
#
# Indices 1 2 3 4 5 6 
#
# 1 115.8483 29.1016 41.0619 0.0000 0.0000 0.0000
# 2 29.1016 66.3663 26.2670 0.0000 0.0000 0.0000
# 3 41.0619 26.2670 45.4172 0.0000 0.0000 0.0000
# 4 0.0000 0.0000 0.0000 23.1751 0.0000 0.0000
# 5 0.0000 0.0000 0.0000 0.0000 30.6911 0.0000
# 6 0.0000 0.0000 0.0000 0.0000 0.0000 -2.7145
#
#
#
# Elastic Compliance Matrix: (Units=1/GPa)
#
#
# Indices 1 2 3 4 5 6 
#
# 1 0.012794 -0.001338 -0.010793 0.000000 0.000000 0.000000
# 2 -0.001338 0.019681 -0.010172 0.000000 0.000000 0.000000
# 3 -0.010793 -0.010172 0.037659 0.000000 0.000000 0.000000
# 4 0.000000 0.000000 0.000000 0.043150 0.000000 0.000000
# 5 0.000000 0.000000 0.000000 0.000000 0.032583 0.000000
# 6 0.000000 0.000000 0.000000 0.000000 0.000000 -0.368397
#
#
# Mechanical properties :
#
#
# Convention : Reuss Voigt Hill
#
# Bulk Modulus (GPa) = 39.17489 46.72142 42.94816
# Shear Modulus (GPa) = -29.51327 18.97709 -5.26809
#
# Velocity S-wave (km/s) = -3.86956 3.10290 -1.63486
# Velocity P-wave (km/s) = 0.29894 6.04495 4.26919
#
# Compressibility (1/GPa) = 0.02552655
#
# Stress axis : x y z
#
# Youngs Moduli (GPa) = 78.16399 50.81078 26.55405
#
# Poissons Ratio (x) = 0.06800 0.28659
# Poissons Ratio (y) = 0.10461 0.27012
# Poissons Ratio (z) = 0.84360 0.51687
#
# Static dielectric constant tensor:
#      x y z
#    x 1.708210 0.000000 0.000000 
#    y 0.000000 1.687960 0.000000 
#    z 0.000000 0.000000 1.550570 
# 
# From -- ./inp_files/5773.got.cif
#   From: 2010.05.17/outbox.ucp.g08.bks.cvg/sg49_3_cif.got.tgz:5773.got - 2010.06.11 16:40:14.
