data_PCOD9395374
_publ_section_title
;
Structure prediction by ZEFSAII (Michael W. Deem and Ramdas Pophale) SiO2 
 PCOD9395374
Probable space group: P B A N
;
_chemical_formula_sum "Si O2"
_cell_formula_units_Z 56
_cell_length_a 26.794859
_cell_length_b 5.252319
_cell_length_c 24.849225
_cell_angle_alpha 90.000000
_cell_angle_beta 90.000000
_cell_angle_gamma 90.000000
_cell_volume 3497.159334
_symmetry_space_group_name_H-M "P B A N"
_symmetry_group_IT_number 50
_space_group.IT_coordinate_system_code '2'
_symmetry_cell_setting 'orthorhombic'
loop_
_space_group_symop_operation_xyz
x,y,z
1/2-x,1/2-y,z
x,1/2-y,-z
1/2-x,y,-z
-x,-y,-z
1/2+x,1/2+y,-z
-x,1/2+y,z
1/2+x,-y,z
loop_
_atom_site_type_symbol
_atom_site_label
_atom_site_fract_x
_atom_site_fract_y
_atom_site_fract_z
Si Si1 0.692788 0.244235 0.065341
Si Si2 0.532043 0.672295 0.746733
Si Si3 0.227646 0.501402 0.561125
Si Si4 0.466470 0.136660 0.868154
Si Si5 0.611134 0.499927 0.536292
Si Si6 0.131429 0.252923 0.064950
Si Si7 0.034774 0.466773 0.634178
O O1 0.750000 0.250000 0.084375
O O2 0.658432 0.483946 0.081100
O O3 0.666980 0.980975 0.080651
O O4 0.694589 0.250000 0.000000
O O5 0.486444 0.465169 0.744253
O O6 0.553434 0.641208 0.806412
O O7 0.560293 0.587004 0.692573
O O8 0.250000 0.250000 0.587192
O O9 0.250000 0.500866 0.500000
O O10 0.168437 0.509988 0.556121
O O11 0.250000 0.750000 0.588136
O O12 0.507734 0.360758 0.874960
O O13 0.421763 0.201893 0.908105
O O14 0.605813 0.750000 0.500000
O O15 0.573956 0.525299 0.586142
O O16 0.601335 0.250000 0.500000
O O17 0.126089 0.250000 0.000000
O O18 0.004024 0.730706 0.630858
#
# Coordination Sequence:
#
# PCOD9395374 Si02
#       7
#     8   8   8   8   8   8   8
#     4   9  17  30  46  64  92 125 160 196 230 276
#     4   8  16  32  50  63  83 118 160 194 217 252
#     4  10  16  30  46  63  87 115 146 185 209 245
#     4  10  19  31  48  69  93 125 160 191 227 278
#     4  12  21  30  48  70  93 121 151 175 224 282
#     4  10  19  29  44  70  99 124 154 193 240 286
#     4  10  21  35  47  66  95 123 150 186 224 266
#
# _framework density 16.012996999999999
#
# number of rings (size 3 to 8) (size 9 to 14) (size 15 to 20)
#    0.000    2.143    2.857    2.143    0.000    4.000 
#    0.000    0.000    0.000    0.000    0.000    3.000 
#    0.000    0.000    0.000    0.000    0.000    0.000 
#
# Total GULP energy -311739.968204 kJ/mol
# GULP energy per Si atom -5566.785147 kJ/mol
# Density = 1.597655 g / cm^3
# Si number density = 16.012997 Si / 1000 Ang^3
#
#
#
# Elastic Constant Matrix: (Units=GPa)
#
#
# Indices 1 2 3 4 5 6 
#
# 1 66.8916 21.6373 40.6667 0.0000 0.0000 0.0000
# 2 21.6373 124.4457 25.0279 0.0000 0.0000 0.0000
# 3 40.6667 25.0279 60.6362 0.0000 0.0000 0.0000
# 4 0.0000 0.0000 0.0000 15.5045 0.0000 0.0000
# 5 0.0000 0.0000 0.0000 0.0000 -2.6942 0.0000
# 6 0.0000 0.0000 0.0000 0.0000 0.0000 15.8133
#
#
#
# Elastic Compliance Matrix: (Units=1/GPa)
#
#
# Indices 1 2 3 4 5 6 
#
# 1 0.025373 -0.001079 -0.016572 0.000000 0.000000 0.000000
# 2 -0.001079 0.008809 -0.002912 0.000000 0.000000 0.000000
# 3 -0.016572 -0.002912 0.028808 0.000000 0.000000 0.000000
# 4 0.000000 0.000000 0.000000 0.064497 0.000000 0.000000
# 5 0.000000 0.000000 0.000000 0.000000 -0.371174 0.000000
# 6 0.000000 0.000000 0.000000 0.000000 0.000000 0.063238
#
#
# Mechanical properties :
#
#
# Convention : Reuss Voigt Hill
#
# Bulk Modulus (GPa) = 45.73660 47.40415 46.57038
# Shear Modulus (GPa) = -37.86886 16.70084 -10.58401
#
# Velocity S-wave (km/s) = -4.86828 3.23299 -2.57371
# Velocity P-wave (km/s) = 1.72512 6.60334 4.50711
#
# Compressibility (1/GPa) = 0.02186433
#
# Stress axis : x y z
#
# Youngs Moduli (GPa) = 39.41144 113.52109 34.71250
#
# Poissons Ratio (x) = 0.12247 0.57525
# Poissons Ratio (y) = 0.04252 0.10110
# Poissons Ratio (z) = 0.65312 0.33062
#
# Static dielectric constant tensor:
#      x y z
#    x 1.512280 0.000000 0.000000 
#    y 0.000000 1.553450 0.000000 
#    z 0.000000 0.000000 1.549110 
# 
# From -- ./inp_files/31908.got.cif
#   From: 2010.05.17/outbox.cif.g08.bks.cpg/sg50_16_cif.got.tgz:31908.got - 2010.06.03 11:33:33.
