data_PCOD9395719
_publ_section_title
;
Structure prediction by ZEFSAII (Michael W. Deem and Ramdas Pophale) SiO2 
 PCOD9395719
Probable space group: P B A N
;
_chemical_formula_sum "Si O2"
_cell_formula_units_Z 24
_cell_length_a 4.933919
_cell_length_b 25.001074
_cell_length_c 7.079908
_cell_angle_alpha 90.000000
_cell_angle_beta 90.000000
_cell_angle_gamma 90.000000
_cell_volume 873.329832
_symmetry_space_group_name_H-M "P B A N"
_symmetry_group_IT_number 50
_space_group.IT_coordinate_system_code '2'
_symmetry_cell_setting 'orthorhombic'
loop_
_space_group_symop_operation_xyz
x,y,z
1/2-x,1/2-y,z
x,1/2-y,-z
1/2-x,y,-z
-x,-y,-z
1/2+x,1/2+y,-z
-x,1/2+y,z
1/2+x,-y,z
loop_
_atom_site_type_symbol
_atom_site_label
_atom_site_fract_x
_atom_site_fract_y
_atom_site_fract_z
Si Si1 0.385321 0.977893 0.709946
Si Si2 0.722544 0.189111 0.228657
Si Si3 0.232244 0.122166 0.226216
O O1 0.250000 0.984112 0.500000
O O2 0.591767 0.928352 0.702293
O O3 0.587170 0.022296 0.806137
O O4 0.750000 0.250000 0.291103
O O5 0.422985 0.171564 0.279359
O O6 0.935608 0.142462 0.287824
O O7 0.750000 0.189484 0.000000
O O8 0.250000 0.117165 0.000000
#
# Coordination Sequence:
#
# PCOD9395719 Si02
#       3
#     8   8   8
#     4  10  21  36  52  72 102 142 185 229 282 340
#     4   9  17  30  49  76 109 139 169 215 279 344
#     4  10  19  31  51  78 105 138 181 227 278 338
#
# _framework density 27.481027999999998
#
# number of rings (size 3 to 8) (size 9 to 14) (size 15 to 20)
#    0.000    2.333    0.000    3.000    0.000    5.333 
#    0.000    0.000    0.000    1.000    0.000    4.667 
#    0.000    0.000    0.000    0.000    0.000    0.000 
#
# Total GULP energy -133806.553632 kJ/mol
# GULP energy per Si atom -5575.273068 kJ/mol
# Density = 2.741848 g / cm^3
# Si number density = 27.481028 Si / 1000 Ang^3
#
#
#
# Elastic Constant Matrix: (Units=GPa)
#
#
# Indices 1 2 3 4 5 6 
#
# 1 228.1194 41.5785 20.6760 0.0000 0.0000 0.0000
# 2 41.5785 152.3733 16.5298 0.0000 0.0000 0.0000
# 3 20.6760 16.5298 116.1027 0.0000 0.0000 0.0000
# 4 0.0000 0.0000 0.0000 -76.7691 0.0000 0.0000
# 5 0.0000 0.0000 0.0000 0.0000 21.0891 0.0000
# 6 0.0000 0.0000 0.0000 0.0000 0.0000 51.1312
#
#
#
# Elastic Compliance Matrix: (Units=1/GPa)
#
#
# Indices 1 2 3 4 5 6 
#
# 1 0.004662 -0.001201 -0.000659 0.000000 0.000000 0.000000
# 2 -0.001201 0.006975 -0.000779 0.000000 0.000000 0.000000
# 3 -0.000659 -0.000779 0.008841 0.000000 0.000000 0.000000
# 4 0.000000 0.000000 0.000000 -0.013026 0.000000 0.000000
# 5 0.000000 0.000000 0.000000 0.000000 0.047418 0.000000
# 6 0.000000 0.000000 0.000000 0.000000 0.000000 0.019558
#
#
# Mechanical properties :
#
#
# Convention : Reuss Voigt Hill
#
# Bulk Modulus (GPa) = 65.78853 72.68488 69.23670
# Shear Modulus (GPa) = 58.98082 26.94430 42.96256
#
# Velocity S-wave (km/s) = 4.63778 3.13464 3.95822
# Velocity P-wave (km/s) = 7.25742 6.29348 6.79257
#
# Compressibility (1/GPa) = 0.01520022
#
# Stress axis : x y z
#
# Youngs Moduli (GPa) = 214.48768 143.36925 113.10398
#
# Poissons Ratio (x) = 0.17214 0.07457
# Poissons Ratio (y) = 0.25753 0.08813
# Poissons Ratio (z) = 0.14142 0.11172
#
# Static dielectric constant tensor:
#      x y z
#    x 2.405910 0.000000 0.000000 
#    y 0.000000 2.229350 0.000000 
#    z 0.000000 0.000000 2.899330 
# 
# From -- ./inp_files/7731.got.cif
#   From: 2010.05.17/outbox.cif.g08.bks.cpg/sg50_4_cif.got.tgz:7731.got - 2010.06.03 11:33:33.
