data_PCOD9395888
_publ_section_title
;
Structure prediction by ZEFSAII (Michael W. Deem and Ramdas Pophale) SiO2 
 PCOD9395888
Probable space group: P B A N
;
_chemical_formula_sum "Si O2"
_cell_formula_units_Z 58
_cell_length_a 12.811816
_cell_length_b 27.018518
_cell_length_c 8.921730
_cell_angle_alpha 90.000000
_cell_angle_beta 90.000000
_cell_angle_gamma 90.000000
_cell_volume 3088.312879
_symmetry_space_group_name_H-M "P B A N"
_symmetry_group_IT_number 50
_space_group.IT_coordinate_system_code '2'
_symmetry_cell_setting 'orthorhombic'
loop_
_space_group_symop_operation_xyz
x,y,z
1/2-x,1/2-y,z
x,1/2-y,-z
1/2-x,y,-z
-x,-y,-z
1/2+x,1/2+y,-z
-x,1/2+y,z
1/2+x,-y,z
loop_
_atom_site_type_symbol
_atom_site_label
_atom_site_fract_x
_atom_site_fract_y
_atom_site_fract_z
Si Si1 0.311607 0.129111 0.736154
Si Si2 0.127024 0.849661 0.029784
Si Si3 0.935365 0.290900 0.317909
Si Si4 0.087577 0.123417 0.588614
Si Si5 0.019780 0.944363 0.178715
Si Si6 0.750000 0.250000 0.500000
Si Si7 0.541706 0.789357 0.138587
Si Si8 0.352283 0.469262 0.075728
O O1 0.191415 0.134758 0.686457
O O2 0.376113 0.118539 0.582784
O O3 0.358630 0.177306 0.818770
O O4 0.322870 0.081627 0.842710
O O5 0.103577 0.810337 0.158777
O O6 0.085328 0.901243 0.096009
O O7 0.250000 0.851608 0.000000
O O8 0.051406 0.828452 0.899956
O O9 0.829650 0.282226 0.405601
O O10 0.008452 0.331183 0.394419
O O11 0.002551 0.242280 0.280751
O O12 0.029921 0.077100 0.668862
O O13 0.928867 0.957630 0.061859
O O14 0.092025 0.992683 0.188393
O O15 0.559374 0.750000 0.000000
O O16 0.250000 0.492333 0.000000
#
# Coordination Sequence:
#
# PCOD9395888 Si02
#       8
#     8   8   8   8   8   2   8   8
#     4  11  22  40  63  86 119 167 196 251 310 365
#     4  10  19  35  56  84 118 148 195 251 299 345
#     4  10  22  36  56  83 117 158 199 249 292 363
#     4  10  23  41  60  87 126 155 204 251 306 362
#     4  10  21  38  59  91 118 149 197 253 293 365
#     4  12  20  36  58  78 116 168 200 234 312 370
#     4  10  21  37  59  89 118 157 208 253 302 358
#     4  11  21  37  65  89 115 156 202 243 307 363
#
# _framework density 18.780481000000002
#
# number of rings (size 3 to 8) (size 9 to 14) (size 15 to 20)
#    0.000    1.655    2.759    2.069    0.000    3.034 
#    0.000    4.828    0.000    1.655    0.000    0.000 
#    0.000    0.000    0.000    0.000    0.000    0.000 
#
# Total GULP energy -323606.330039 kJ/mol
# GULP energy per Si atom -5579.419483 kJ/mol
# Density = 1.873774 g / cm^3
# Si number density = 18.780481 Si / 1000 Ang^3
#
#
#
# Elastic Constant Matrix: (Units=GPa)
#
#
# Indices 1 2 3 4 5 6 
#
# 1 111.0446 37.9586 28.0873 0.0000 0.0000 0.0000
# 2 37.9586 75.3863 22.2758 0.0000 0.0000 0.0000
# 3 28.0873 22.2758 48.0615 0.0000 0.0000 0.0000
# 4 0.0000 0.0000 0.0000 25.5097 0.0000 0.0000
# 5 0.0000 0.0000 0.0000 0.0000 28.6889 0.0000
# 6 0.0000 0.0000 0.0000 0.0000 0.0000 -5.1620
#
#
#
# Elastic Compliance Matrix: (Units=1/GPa)
#
#
# Indices 1 2 3 4 5 6 
#
# 1 0.011755 -0.004506 -0.004781 0.000000 0.000000 0.000000
# 2 -0.004506 0.017097 -0.005291 0.000000 0.000000 0.000000
# 3 -0.004781 -0.005291 0.026053 0.000000 0.000000 0.000000
# 4 0.000000 0.000000 0.000000 0.039201 0.000000 0.000000
# 5 0.000000 0.000000 0.000000 0.000000 0.034857 0.000000
# 6 0.000000 0.000000 0.000000 0.000000 0.000000 -0.193723
#
#
# Mechanical properties :
#
#
# Convention : Reuss Voigt Hill
#
# Bulk Modulus (GPa) = 38.83653 45.68175 42.25914
# Shear Modulus (GPa) = -185.04322 19.55203 -82.74560
#
# Velocity S-wave (km/s) = -9.93697 3.23008 -6.64492
# Velocity P-wave (km/s) = 10.53251 6.18774 6.02685
#
# Compressibility (1/GPa) = 0.02574895
#
# Stress axis : x y z
#
# Youngs Moduli (GPa) = 85.06972 58.48854 38.38320
#
# Poissons Ratio (x) = 0.26356 0.18352
# Poissons Ratio (y) = 0.38334 0.20308
# Poissons Ratio (z) = 0.40673 0.30946
#
# Static dielectric constant tensor:
#      x y z
#    x 1.621200 0.000000 0.000000 
#    y 0.000000 1.637100 0.000000 
#    z 0.000000 0.000000 1.681290 
# 
# From -- ./inp_files/11755.got.cif
#   From: 2010.05.17/outbox.cif.g08.bks.cpg/sg50_6_cif.got.tgz:11755.got - 2010.06.03 11:33:33.
