data_PCOD9395330
_publ_section_title
;
Structure prediction by ZEFSAII (Michael W. Deem and Ramdas Pophale) SiO2 
 PCOD9395330
Probable space group: P B A N
;
_chemical_formula_sum "Si O2"
_cell_formula_units_Z 48
_cell_length_a 13.841973
_cell_length_b 5.314110
_cell_length_c 29.056869
_cell_angle_alpha 90.000000
_cell_angle_beta 90.000000
_cell_angle_gamma 90.000000
_cell_volume 2137.358404
_symmetry_space_group_name_H-M "P B A N"
_symmetry_group_IT_number 50
_space_group.IT_coordinate_system_code '2'
_symmetry_cell_setting 'orthorhombic'
loop_
_space_group_symop_operation_xyz
x,y,z
1/2-x,1/2-y,z
x,1/2-y,-z
1/2-x,y,-z
-x,-y,-z
1/2+x,1/2+y,-z
-x,1/2+y,z
1/2+x,-y,z
loop_
_atom_site_type_symbol
_atom_site_label
_atom_site_fract_x
_atom_site_fract_y
_atom_site_fract_z
Si Si1 0.103829 0.828443 0.052773
Si Si2 0.857484 0.996935 0.520625
Si Si3 0.435541 0.362389 0.184396
Si Si4 0.116845 0.324608 0.088922
Si Si5 0.932948 0.540790 0.381019
Si Si6 0.063971 0.177387 0.285153
O O1 0.154062 0.603356 0.080431
O O2 0.997188 0.859885 0.075422
O O3 0.150910 0.101564 0.056067
O O4 0.093568 0.750000 0.000000
O O5 0.899971 0.250000 0.500000
O O6 0.750000 0.997016 0.500000
O O7 0.904424 0.750000 0.500000
O O8 0.863121 0.973863 0.575339
O O9 0.518235 0.142046 0.182164
O O10 0.373550 0.287572 0.140055
O O11 0.388519 0.346326 0.234988
O O12 0.881897 0.596935 0.331861
O O13 0.993065 0.278752 0.383375
O O14 0.021363 0.462068 0.286339
#
# Coordination Sequence:
#
# PCOD9395330 Si02
#       6
#     8   8   8   8   8   8
#     4  10  16  20  24  33  49  69 100 139 179 227
#     4  10  21  35  50  70  96 124 151 181 217 262
#     4  10  14  22  31  42  58  78 108 141 185 240
#     4  10  14  20  26  35  46  69  98 132 178 230
#     4  10  19  32  48  70  93 117 150 183 222 266
#     4   8  16  25  38  54  74  97 121 161 203 246
#
# _framework density 22.457629000000001
#
# number of rings (size 3 to 8) (size 9 to 14) (size 15 to 20)
#    0.000    2.333    3.333    3.500    0.000    2.000 
#    0.000    0.000    0.000    0.000    0.000    0.000 
#    0.000    0.000    0.000    0.000    0.000    0.000 
#
# Total GULP energy -267339.708313 kJ/mol
# GULP energy per Si atom -5569.577257 kJ/mol
# Density = 2.240651 g / cm^3
# Si number density = 22.457629 Si / 1000 Ang^3
#
#
#
# Elastic Constant Matrix: (Units=GPa)
#
#
# Indices 1 2 3 4 5 6 
#
# 1 60.1721 11.6547 3.3168 0.0000 0.0000 0.0000
# 2 11.6547 180.5769 5.9188 0.0000 0.0000 0.0000
# 3 3.3168 5.9188 200.1692 0.0000 0.0000 0.0000
# 4 0.0000 0.0000 0.0000 36.3746 0.0000 0.0000
# 5 0.0000 0.0000 0.0000 0.0000 2.5503 0.0000
# 6 0.0000 0.0000 0.0000 0.0000 0.0000 -10.5146
#
#
#
# Elastic Compliance Matrix: (Units=1/GPa)
#
#
# Indices 1 2 3 4 5 6 
#
# 1 0.016842 -0.001079 -0.000247 0.000000 0.000000 0.000000
# 2 -0.001079 0.005612 -0.000148 0.000000 0.000000 0.000000
# 3 -0.000247 -0.000148 0.005004 0.000000 0.000000 0.000000
# 4 0.000000 0.000000 0.000000 0.027492 0.000000 0.000000
# 5 0.000000 0.000000 0.000000 0.000000 0.392109 0.000000
# 6 0.000000 0.000000 0.000000 0.000000 0.000000 -0.095105
#
#
# Mechanical properties :
#
#
# Convention : Reuss Voigt Hill
#
# Bulk Modulus (GPa) = 40.79984 53.63320 47.21652
# Shear Modulus (GPa) = 13.77138 33.68391 23.72764
#
# Velocity S-wave (km/s) = 2.47901 3.87704 3.25399
# Velocity P-wave (km/s) = 5.13818 6.63142 5.93197
#
# Compressibility (1/GPa) = 0.02450990
#
# Stress axis : x y z
#
# Youngs Moduli (GPa) = 59.37684 178.18034 199.83020
#
# Poissons Ratio (x) = 0.19224 0.04939
# Poissons Ratio (y) = 0.06406 0.02959
# Poissons Ratio (z) = 0.01468 0.02638
#
# Static dielectric constant tensor:
#      x y z
#    x 1.848330 0.000000 0.000000 
#    y 0.000000 1.872930 0.000000 
#    z 0.000000 0.000000 1.886900 
# 
# From -- ./inp_files/32293.got.cif
#   From: 2010.05.17/outbox.cif.g08.bks.cpg/sg50_17_cif.got.tgz:32293.got - 2010.06.03 11:33:33.
