data_PCOD9395673
_publ_section_title
;
Structure prediction by ZEFSAII (Michael W. Deem and Ramdas Pophale) SiO2 
 PCOD9395673
Probable space group: P B A N
;
_chemical_formula_sum "Si O2"
_cell_formula_units_Z 64
_cell_length_a 13.259571
_cell_length_b 23.072564
_cell_length_c 11.118097
_cell_angle_alpha 90.000000
_cell_angle_beta 90.000000
_cell_angle_gamma 90.000000
_cell_volume 3401.384993
_symmetry_space_group_name_H-M "P B A N"
_symmetry_group_IT_number 50
_space_group.IT_coordinate_system_code '2'
_symmetry_cell_setting 'orthorhombic'
loop_
_space_group_symop_operation_xyz
x,y,z
1/2-x,1/2-y,z
x,1/2-y,-z
1/2-x,y,-z
-x,-y,-z
1/2+x,1/2+y,-z
-x,1/2+y,z
1/2+x,-y,z
loop_
_atom_site_type_symbol
_atom_site_label
_atom_site_fract_x
_atom_site_fract_y
_atom_site_fract_z
Si Si1 0.245051 0.121222 0.873377
Si Si2 0.582134 0.385603 0.618387
Si Si3 0.234356 0.515339 0.638682
Si Si4 0.707830 0.815279 0.377383
Si Si5 0.866456 0.257162 0.354874
Si Si6 0.078133 0.457712 0.229702
Si Si7 0.576077 0.549590 0.798528
Si Si8 0.983512 0.148806 0.354953
O O1 0.263555 0.155556 0.749211
O O2 0.141928 0.086720 0.849925
O O3 0.338760 0.076087 0.883888
O O4 0.250000 0.154714 0.000000
O O5 0.685839 0.420313 0.646262
O O6 0.590194 0.320721 0.671272
O O7 0.488507 0.421271 0.673993
O O8 0.566957 0.378828 0.474280
O O9 0.250000 0.502533 0.500000
O O10 0.337229 0.498730 0.707297
O O11 0.145365 0.475314 0.690579
O O12 0.750000 0.750000 0.373815
O O13 0.750000 0.843753 0.500000
O O14 0.588475 0.820936 0.392241
O O15 0.750000 0.250000 0.325342
O O16 0.876507 0.250000 0.500000
O O17 0.920749 0.201583 0.301033
O O18 0.997515 0.498238 0.161469
O O19 0.508845 0.600278 0.742155
#
# Coordination Sequence:
#
# PCOD9395673 Si02
#       8
#     8   8   8   8   8   8   8   8
#     4  10  22  39  58  83 115 147 190 238 281 340
#     4  10  20  30  50  76 110 152 192 229 285 346
#     4  10  19  29  49  76 110 150 186 236 287 336
#     4  10  22  35  60  86 115 150 185 232 291 344
#     4   9  20  30  44  71 104 147 189 228 274 336
#     4  10  20  34  54  75 110 142 192 240 279 335
#     4   9  20  35  49  79 101 145 190 228 287 331
#     4  10  19  32  50  73 113 146 188 229 278 346
#
# _framework density 18.815864999999999
#
# number of rings (size 3 to 8) (size 9 to 14) (size 15 to 20)
#    0.000    2.250    0.000    2.250   12.250    6.250 
#    0.000    0.000    0.000    0.000    0.000    0.000 
#    0.000    4.000    0.000    0.500    0.000    0.000 
#
# Total GULP energy -356697.576504 kJ/mol
# GULP energy per Si atom -5573.399633 kJ/mol
# Density = 1.877304 g / cm^3
# Si number density = 18.815865 Si / 1000 Ang^3
#
#
#
# Elastic Constant Matrix: (Units=GPa)
#
#
# Indices 1 2 3 4 5 6 
#
# 1 92.4344 38.7814 11.5852 0.0000 0.0000 0.0000
# 2 38.7814 81.3565 7.6616 0.0000 0.0000 0.0000
# 3 11.5852 7.6616 69.9706 0.0000 0.0000 0.0000
# 4 0.0000 0.0000 0.0000 -3.1001 0.0000 0.0000
# 5 0.0000 0.0000 0.0000 0.0000 -3.3705 0.0000
# 6 0.0000 0.0000 0.0000 0.0000 0.0000 31.8093
#
#
#
# Elastic Compliance Matrix: (Units=1/GPa)
#
#
# Indices 1 2 3 4 5 6 
#
# 1 0.013691 -0.006379 -0.001568 0.000000 0.000000 0.000000
# 2 -0.006379 0.015391 -0.000629 0.000000 0.000000 0.000000
# 3 -0.001568 -0.000629 0.014620 0.000000 0.000000 0.000000
# 4 0.000000 0.000000 0.000000 -0.322568 0.000000 0.000000
# 5 0.000000 0.000000 0.000000 0.000000 -0.296693 0.000000
# 6 0.000000 0.000000 0.000000 0.000000 0.000000 0.031437
#
#
# Mechanical properties :
#
#
# Convention : Reuss Voigt Hill
#
# Bulk Modulus (GPa) = 37.66428 39.97976 38.82202
# Shear Modulus (GPa) = -9.65032 17.44996 3.89982
#
# Velocity S-wave (km/s) = -2.26715 3.04864 1.44122
# Velocity P-wave (km/s) = 3.63421 5.80399 4.84220
#
# Compressibility (1/GPa) = 0.02655036
#
# Stress axis : x y z
#
# Youngs Moduli (GPa) = 73.03910 64.97106 68.39808
#
# Poissons Ratio (x) = 0.41443 0.10728
# Poissons Ratio (y) = 0.46590 0.04303
# Poissons Ratio (z) = 0.11456 0.04088
#
# Static dielectric constant tensor:
#      x y z
#    x 1.746070 0.000000 0.000000 
#    y 0.000000 1.700390 0.000000 
#    z 0.000000 0.000000 1.652160 
# 
# From -- ./inp_files/20535.got.cif
#   From: 2010.05.17/outbox.cif.g08.bks.cpg/sg50_11_cif.got.tgz:20535.got - 2010.06.03 11:33:33.
