data_PCOD9395472
_publ_section_title
;
Structure prediction by ZEFSAII (Michael W. Deem and Ramdas Pophale) SiO2 
 PCOD9395472
Probable space group: P B A N
;
_chemical_formula_sum "Si O2"
_cell_formula_units_Z 38
_cell_length_a 18.444198
_cell_length_b 9.639439
_cell_length_c 11.589950
_cell_angle_alpha 90.000000
_cell_angle_beta 90.000000
_cell_angle_gamma 90.000000
_cell_volume 2060.597163
_symmetry_space_group_name_H-M "P B A N"
_symmetry_group_IT_number 50
_space_group.IT_coordinate_system_code '2'
_symmetry_cell_setting 'orthorhombic'
loop_
_space_group_symop_operation_xyz
x,y,z
1/2-x,1/2-y,z
x,1/2-y,-z
1/2-x,y,-z
-x,-y,-z
1/2+x,1/2+y,-z
-x,1/2+y,z
1/2+x,-y,z
loop_
_atom_site_type_symbol
_atom_site_label
_atom_site_fract_x
_atom_site_fract_y
_atom_site_fract_z
Si Si1 0.727936 0.508580 0.380296
Si Si2 0.854973 0.823189 0.183049
Si Si3 0.750000 0.530094 0.000000
Si Si4 0.986585 0.375283 0.087700
Si Si5 0.153170 0.988881 0.197170
Si Si6 0.250000 0.750000 0.500000
O O1 0.750000 0.582536 0.500000
O O2 0.677355 0.598871 0.296207
O O3 0.801215 0.467925 0.312125
O O4 0.701773 0.357090 0.424395
O O5 0.850111 0.657008 0.189173
O O6 0.938383 0.852684 0.155105
O O7 0.805458 0.880739 0.078328
O O8 0.702800 0.443442 0.910538
O O9 0.923219 0.416461 0.176344
O O10 0.968936 0.250000 0.000000
O O11 0.000000 0.500000 0.000000
#
# Coordination Sequence:
#
# PCOD9395472 Si02
#       6
#     8   8   4   8   8   2
#     4   9  21  41  65  86 117 156 207 265 304 362
#     4  11  20  35  62  89 118 160 204 252 306 368
#     4  10  17  32  57  86 119 152 201 248 297 364
#     4  12  23  39  58  90 137 165 199 247 310 373
#     4  11  21  36  60  90 117 162 204 250 308 369
#     4   8  20  44  58  90 124 148 200 268 330 348
#
# _framework density 18.441255999999999
#
# number of rings (size 3 to 8) (size 9 to 14) (size 15 to 20)
#    0.632    0.842    4.211    3.789    0.000    3.368 
#    0.000    1.053    0.000    0.000    0.000    0.000 
#    0.000    0.000    0.000    0.000    0.000    0.000 
#
# Total GULP energy -211647.431453 kJ/mol
# GULP energy per Si atom -5569.669249 kJ/mol
# Density = 1.839928 g / cm^3
# Si number density = 18.441256 Si / 1000 Ang^3
#
#
#
# Elastic Constant Matrix: (Units=GPa)
#
#
# Indices 1 2 3 4 5 6 
#
# 1 131.1521 16.2614 53.1981 0.0000 0.0000 0.0000
# 2 16.2614 59.5497 26.4249 0.0000 0.0000 0.0000
# 3 53.1981 26.4249 133.3616 0.0000 0.0000 0.0000
# 4 0.0000 0.0000 0.0000 31.5901 0.0000 0.0000
# 5 0.0000 0.0000 0.0000 0.0000 13.2608 0.0000
# 6 0.0000 0.0000 0.0000 0.0000 0.0000 25.3530
#
#
#
# Elastic Compliance Matrix: (Units=1/GPa)
#
#
# Indices 1 2 3 4 5 6 
#
# 1 0.009147 -0.000963 -0.003458 0.000000 0.000000 0.000000
# 2 -0.000963 0.018513 -0.003284 0.000000 0.000000 0.000000
# 3 -0.003458 -0.003284 0.009528 0.000000 0.000000 0.000000
# 4 0.000000 0.000000 0.000000 0.031655 0.000000 0.000000
# 5 0.000000 0.000000 0.000000 0.000000 0.075410 0.000000
# 6 0.000000 0.000000 0.000000 0.000000 0.000000 0.039443
#
#
# Mechanical properties :
#
#
# Convention : Reuss Voigt Hill
#
# Bulk Modulus (GPa) = 45.91795 57.31468 51.61631
# Shear Modulus (GPa) = 24.22874 29.25272 26.74073
#
# Velocity S-wave (km/s) = 3.62862 3.98712 3.81208
# Velocity P-wave (km/s) = 6.51993 7.23486 6.88668
#
# Compressibility (1/GPa) = 0.02177798
#
# Stress axis : x y z
#
# Youngs Moduli (GPa) = 109.32888 54.01611 104.94930
#
# Poissons Ratio (x) = 0.05204 0.36289
# Poissons Ratio (y) = 0.10532 0.34465
# Poissons Ratio (z) = 0.37803 0.17739
#
# Static dielectric constant tensor:
#      x y z
#    x 1.657560 0.000000 0.000000 
#    y 0.000000 1.678610 0.000000 
#    z 0.000000 0.000000 1.652480 
# 
# From -- ./inp_files/18787.got.cif
#   From: 2010.05.17/outbox.cif.g08.bks.cpg/sg50_10_cif.got.tgz:18787.got - 2010.06.03 11:33:33.
