data_PCOD9395442
_publ_section_title
;
Structure prediction by ZEFSAII (Michael W. Deem and Ramdas Pophale) SiO2 
 PCOD9395442
Probable space group: P B A N
;
_chemical_formula_sum "Si O2"
_cell_formula_units_Z 48
_cell_length_a 29.749880
_cell_length_b 7.510066
_cell_length_c 8.730476
_cell_angle_alpha 90.000000
_cell_angle_beta 90.000000
_cell_angle_gamma 90.000000
_cell_volume 1950.594048
_symmetry_space_group_name_H-M "P B A N"
_symmetry_group_IT_number 50
_space_group.IT_coordinate_system_code '2'
_symmetry_cell_setting 'orthorhombic'
loop_
_space_group_symop_operation_xyz
x,y,z
1/2-x,1/2-y,z
x,1/2-y,-z
1/2-x,y,-z
-x,-y,-z
1/2+x,1/2+y,-z
-x,1/2+y,z
1/2+x,-y,z
loop_
_atom_site_type_symbol
_atom_site_label
_atom_site_fract_x
_atom_site_fract_y
_atom_site_fract_z
Si Si1 0.750121 0.033178 0.823455
Si Si2 0.843527 0.484702 0.334130
Si Si3 0.845074 0.051110 0.312709
Si Si4 0.488329 0.702802 0.322893
Si Si5 0.566265 0.622360 0.794373
Si Si6 0.075073 0.923626 0.901646
O O1 0.750000 0.250000 0.824178
O O2 0.794028 0.972778 0.730325
O O3 0.703467 0.987476 0.743057
O O4 0.750000 0.974493 0.000000
O O5 0.847817 0.268953 0.315227
O O6 0.850952 0.515529 0.514457
O O7 0.881798 0.591372 0.243765
O O8 0.883028 0.000327 0.191932
O O9 0.487478 0.750000 0.500000
O O10 0.460426 0.522753 0.307498
O O11 0.461358 0.835998 0.210841
O O12 0.539228 0.703720 0.259212
O O13 0.558595 0.559343 0.968195
O O14 0.091724 0.750000 0.000000
#
# Coordination Sequence:
#
# PCOD9395442 Si02
#       6
#     8   8   8   8   8   8
#     4   9  17  25  43  70 102 143 172 209 260 334
#     4  10  18  30  46  71 105 142 175 214 269 322
#     4  10  17  28  47  69 106 141 175 210 268 330
#     4  11  22  37  54  77 102 141 184 227 271 322
#     4  11  22  36  55  75 108 143 182 225 272 324
#     4  10  19  32  52  73 104 143 179 222 275 324
#
# _framework density 24.607887999999999
#
# number of rings (size 3 to 8) (size 9 to 14) (size 15 to 20)
#    0.000    1.833    3.333    3.500    2.333    2.000 
#    0.000    0.000    0.000    0.000    0.000    0.000 
#    0.000    9.333    0.000   32.167    0.000    0.000 
#
# Total GULP energy -268839.561898 kJ/mol
# GULP energy per Si atom -5600.824206 kJ/mol
# Density = 2.455188 g / cm^3
# Si number density = 24.607888 Si / 1000 Ang^3
#
#
#
# Elastic Constant Matrix: (Units=GPa)
#
#
# Indices 1 2 3 4 5 6 
#
# 1 182.8591 13.0505 56.2407 0.0000 0.0000 0.0000
# 2 13.0505 80.4845 1.0485 0.0000 0.0000 0.0000
# 3 56.2407 1.0485 183.7553 0.0000 0.0000 0.0000
# 4 0.0000 0.0000 0.0000 4.4598 0.0000 0.0000
# 5 0.0000 0.0000 0.0000 0.0000 -2.9521 0.0000
# 6 0.0000 0.0000 0.0000 0.0000 0.0000 -1.1877
#
#
#
# Elastic Compliance Matrix: (Units=1/GPa)
#
#
# Indices 1 2 3 4 5 6 
#
# 1 0.006111 -0.000967 -0.001865 0.000000 0.000000 0.000000
# 2 -0.000967 0.012579 0.000224 0.000000 0.000000 0.000000
# 3 -0.001865 0.000224 0.006012 0.000000 0.000000 0.000000
# 4 0.000000 0.000000 0.000000 0.224226 0.000000 0.000000
# 5 0.000000 0.000000 0.000000 0.000000 -0.338741 0.000000
# 6 0.000000 0.000000 0.000000 0.000000 0.000000 -0.841931
#
#
# Mechanical properties :
#
#
# Convention : Reuss Voigt Hill
#
# Bulk Modulus (GPa) = 51.31782 65.30869 58.31326
# Shear Modulus (GPa) = -5.43458 25.18127 9.87334
#
# Velocity S-wave (km/s) = -1.48771 3.20238 2.00524
# Velocity P-wave (km/s) = 4.23656 6.34594 5.39534
#
# Compressibility (1/GPa) = 0.01948641
#
# Stress axis : x y z
#
# Youngs Moduli (GPa) = 163.63241 79.50029 166.34722
#
# Poissons Ratio (x) = 0.07685 0.31022
# Poissons Ratio (y) = 0.15817 -0.03728
# Poissons Ratio (z) = 0.30516 -0.01781
#
# Static dielectric constant tensor:
#      x y z
#    x 1.884600 0.000000 0.000000 
#    y 0.000000 2.167020 0.000000 
#    z 0.000000 0.000000 1.896040 
# 
# From -- ./inp_files/17037.got.cif
#   From: 2010.05.17/outbox.cif.g08.bks.cpg/sg50_9_cif.got.tgz:17037.got - 2010.06.03 11:33:33.
