data_PCOD9395502
_publ_section_title
;
Structure prediction by ZEFSAII (Michael W. Deem and Ramdas Pophale) SiO2 
 PCOD9395502
Probable space group: P B A N
;
_chemical_formula_sum "Si O2"
_cell_formula_units_Z 56
_cell_length_a 28.432348
_cell_length_b 27.217800
_cell_length_c 5.057113
_cell_angle_alpha 90.000000
_cell_angle_beta 90.000000
_cell_angle_gamma 90.000000
_cell_volume 3913.527614
_symmetry_space_group_name_H-M "P B A N"
_symmetry_group_IT_number 50
_space_group.IT_coordinate_system_code '2'
_symmetry_cell_setting 'orthorhombic'
loop_
_space_group_symop_operation_xyz
x,y,z
1/2-x,1/2-y,z
x,1/2-y,-z
1/2-x,y,-z
-x,-y,-z
1/2+x,1/2+y,-z
-x,1/2+y,z
1/2+x,-y,z
loop_
_atom_site_type_symbol
_atom_site_label
_atom_site_fract_x
_atom_site_fract_y
_atom_site_fract_z
Si Si1 0.434798 0.782380 0.246982
Si Si2 0.483268 0.423900 0.974408
Si Si3 0.167221 0.694038 0.084394
Si Si4 0.577813 0.012473 0.041829
Si Si5 0.387424 0.935826 0.474264
Si Si6 0.517897 0.126890 0.510812
Si Si7 0.197837 0.863755 0.428158
O O1 0.418134 0.750000 0.500000
O O2 0.389404 0.810155 0.122590
O O3 0.472266 0.819577 0.371077
O O4 0.452663 0.750000 0.000000
O O5 0.527852 0.459559 0.918433
O O6 0.490612 0.404342 0.268883
O O7 0.437029 0.457540 0.961202
O O8 0.490344 0.380414 0.762826
O O9 0.188356 0.680520 0.366625
O O10 0.176387 0.750000 0.000000
O O11 0.187907 0.657444 0.863923
O O12 0.605095 0.041033 0.812564
O O13 0.605468 0.021058 0.312182
O O14 0.430079 0.896983 0.518364
O O15 0.339714 0.906207 0.512030
O O16 0.250000 0.880980 0.500000
#
# Coordination Sequence:
#
# PCOD9395502 Si02
#       7
#     8   8   8   8   8   8   8
#     4  11  21  32  47  64  83 109 143 173 209 261
#     4   9  17  27  43  67  83 102 125 156 197 249
#     4  11  23  36  50  60  75 101 137 184 227 269
#     4   9  17  29  44  63  85 101 124 153 198 262
#     4  10  19  30  46  59  80 107 127 161 214 255
#     4  10  18  28  46  61  84 106 131 164 205 247
#     4  12  24  36  48  63  79 101 139 177 225 272
#
# _framework density 14.309341
#
# number of rings (size 3 to 8) (size 9 to 14) (size 15 to 20)
#    0.000    1.714    1.429    5.143    4.000    5.143 
#    0.000    0.000    0.000    0.000    0.000    0.000 
#    0.000    0.000    0.000    0.000    0.000    0.000 
#
# Total GULP energy -312295.158002 kJ/mol
# GULP energy per Si atom -5576.699250 kJ/mol
# Density = 1.427677 g / cm^3
# Si number density = 14.309341 Si / 1000 Ang^3
#
#
#
# Elastic Constant Matrix: (Units=GPa)
#
#
# Indices 1 2 3 4 5 6 
#
# 1 27.9794 21.2181 21.8743 0.0000 0.0000 0.0000
# 2 21.2181 29.7007 25.2055 0.0000 0.0000 0.0000
# 3 21.8743 25.2055 33.4980 0.0000 0.0000 0.0000
# 4 0.0000 0.0000 0.0000 -5.7312 0.0000 0.0000
# 5 0.0000 0.0000 0.0000 0.0000 -3.5028 0.0000
# 6 0.0000 0.0000 0.0000 0.0000 0.0000 15.0933
#
#
#
# Elastic Compliance Matrix: (Units=1/GPa)
#
#
# Indices 1 2 3 4 5 6 
#
# 1 0.086312 -0.038263 -0.027571 0.000000 0.000000 0.000000
# 2 -0.038263 0.110117 -0.057871 0.000000 0.000000 0.000000
# 3 -0.027571 -0.057871 0.091402 0.000000 0.000000 0.000000
# 4 0.000000 0.000000 0.000000 -0.174482 0.000000 0.000000
# 5 0.000000 0.000000 0.000000 0.000000 -0.285483 0.000000
# 6 0.000000 0.000000 0.000000 0.000000 0.000000 0.066255
#
#
# Mechanical properties :
#
#
# Convention : Reuss Voigt Hill
#
# Bulk Modulus (GPa) = 24.74036 25.30822 25.02429
# Shear Modulus (GPa) = 32.25714 2.69719 17.47717
#
# Velocity S-wave (km/s) = 4.75307 1.37441 3.49862
# Velocity P-wave (km/s) = 6.88835 4.49929 5.81777
#
# Compressibility (1/GPa) = 0.04041978
#
# Stress axis : x y z
#
# Youngs Moduli (GPa) = 11.58582 9.08128 10.94070
#
# Poissons Ratio (x) = 0.34748 0.30165
# Poissons Ratio (y) = 0.44331 0.63315
# Poissons Ratio (z) = 0.31944 0.52555
#
# Static dielectric constant tensor:
#      x y z
#    x 1.466060 0.000000 0.000000 
#    y 0.000000 1.497390 0.000000 
#    z 0.000000 0.000000 1.503230 
# 
# From -- ./inp_files/6190.got.cif
#   From: 2010.05.17/outbox.cif.g08.bks.cpg/sg50_4_cif.got.tgz:6190.got - 2010.06.03 11:33:33.
