data_PCOD9395105
_publ_section_title
;
Structure prediction by ZEFSAII (Michael W. Deem and Ramdas Pophale) SiO2 
 PCOD9395105
Probable space group: P C C M
;
_chemical_formula_sum "Si O2"
_cell_formula_units_Z 32
_cell_length_a 4.881916
_cell_length_b 11.200313
_cell_length_c 24.214290
_cell_angle_alpha 90.000000
_cell_angle_beta 90.000000
_cell_angle_gamma 90.000000
_cell_volume 1324.012854
_symmetry_space_group_name_H-M "P C C M"
_symmetry_group_IT_number 49
_symmetry_cell_setting 'orthorhombic'
loop_
_space_group_symop_operation_xyz
x,y,z
-x,-y,z
x,-y,1/2-z
-x,y,1/2-z
-x,-y,-z
x,y,-z
-x,y,1/2+z
x,-y,1/2+z
loop_
_atom_site_type_symbol
_atom_site_label
_atom_site_fract_x
_atom_site_fract_y
_atom_site_fract_z
Si Si1 0.269687 0.921001 0.845344
Si Si2 0.605108 0.778132 0.938188
Si Si3 0.240405 0.330346 0.711038
Si Si4 0.124712 0.377875 0.410020
O O1 0.442028 0.869056 0.898147
O O2 0.200610 0.807194 0.808097
O O3 0.500000 0.000000 0.815975
O O4 0.000000 0.000000 0.858167
O O5 0.389298 0.669924 0.940991
O O6 0.885729 0.723656 0.913273
O O7 0.658237 0.824902 0.000000
O O8 0.500000 0.341883 0.750000
O O9 0.228806 0.397197 0.652713
O O10 0.000000 0.368623 0.750000
O O11 0.000000 0.500000 0.431585
#
# Coordination Sequence:
#
# PCOD9395105 Si02
#       4
#     8   8   8   8
#     4  11  23  40  62  90 126 165 210 264 318 378
#     4  11  24  42  65  95 130 169 217 269 322 388
#     4  11  23  41  63  90 123 161 208 260 315 379
#     4  11  24  43  65  94 131 168 215 271 324 387
#
# _framework density 24.168951
#
# number of rings (size 3 to 8) (size 9 to 14) (size 15 to 20)
#    0.000    1.000    0.000    9.000    0.000    7.500 
#    0.000    3.750    0.000    0.000    0.000    0.000 
#    0.000    0.000    0.000    0.000    0.000    0.000 
#
# Total GULP energy -179021.977585 kJ/mol
# GULP energy per Si atom -5594.436800 kJ/mol
# Density = 2.411394 g / cm^3
# Si number density = 24.168951 Si / 1000 Ang^3
#
#
#
# Elastic Constant Matrix: (Units=GPa)
#
#
# Indices 1 2 3 4 5 6 
#
# 1 174.9361 20.2441 51.0877 0.0000 0.0000 0.0000
# 2 20.2441 82.2175 6.1226 0.0000 0.0000 0.0000
# 3 51.0877 6.1226 165.0895 0.0000 0.0000 0.0000
# 4 0.0000 0.0000 0.0000 -2.4076 0.0000 0.0000
# 5 0.0000 0.0000 0.0000 0.0000 172.5416 0.0000
# 6 0.0000 0.0000 0.0000 0.0000 0.0000 46.7560
#
#
#
# Elastic Compliance Matrix: (Units=1/GPa)
#
#
# Indices 1 2 3 4 5 6 
#
# 1 0.006451 -0.001444 -0.001943 0.000000 0.000000 0.000000
# 2 -0.001444 0.012520 -0.000018 0.000000 0.000000 0.000000
# 3 -0.001943 -0.000018 0.006659 0.000000 0.000000 0.000000
# 4 0.000000 0.000000 0.000000 -0.415356 0.000000 0.000000
# 5 0.000000 0.000000 0.000000 0.000000 0.005796 0.000000
# 6 0.000000 0.000000 0.000000 0.000000 0.000000 0.021388
#
#
# Mechanical properties :
#
#
# Convention : Reuss Voigt Hill
#
# Bulk Modulus (GPa) = 53.13010 64.12798 58.62904
# Shear Modulus (GPa) = -14.30774 66.36392 26.02809
#
# Velocity S-wave (km/s) = -2.43572 5.24576 3.28521
# Velocity P-wave (km/s) = 3.75769 7.95496 6.22100
#
# Compressibility (1/GPa) = 0.01882172
#
# Stress axis : x y z
#
# Youngs Moduli (GPa) = 155.02018 79.87452 150.16946
#
# Poissons Ratio (x) = 0.11531 0.29173
# Poissons Ratio (y) = 0.22380 0.00264
# Poissons Ratio (z) = 0.30115 0.00140
#
# Static dielectric constant tensor:
#      x y z
#    x 1.850370 0.000000 0.000000 
#    y 0.000000 1.999230 0.000000 
#    z 0.000000 0.000000 1.922940 
# 
# From -- ./inp_files/18718.got.cif
#   From: 2010.05.17/outbox.cif.g08.bks.cpg/sg49_10_cif.got.tgz:18718.got - 2010.06.03 21:02:19.
