data_PCOD9395262
_publ_section_title
;
Structure prediction by ZEFSAII (Michael W. Deem and Ramdas Pophale) SiO2 
 PCOD9395262
Probable space group: P C C M
;
_chemical_formula_sum "Si O2"
_cell_formula_units_Z 64
_cell_length_a 24.000000
_cell_length_b 15.000000
_cell_length_c 9.000000
_cell_angle_alpha 90.000000
_cell_angle_beta 90.000000
_cell_angle_gamma 90.000000
_cell_volume 3240.000000
_symmetry_space_group_name_H-M "P C C M"
_symmetry_group_IT_number 49
_symmetry_cell_setting 'orthorhombic'
loop_
_space_group_symop_operation_xyz
x,y,z
-x,-y,z
x,-y,1/2-z
-x,y,1/2-z
-x,-y,-z
x,y,-z
-x,y,1/2+z
x,-y,1/2+z
loop_
_atom_site_type_symbol
_atom_site_label
_atom_site_fract_x
_atom_site_fract_y
_atom_site_fract_z
Si Si1 0.149727 0.094158 0.679300
Si Si2 0.373114 0.230382 0.674423
Si Si3 0.342029 0.403232 0.174383
Si Si4 0.893041 0.596663 0.677036
Si Si5 0.440447 0.084607 0.173785
Si Si6 0.215217 0.403510 0.172947
Si Si7 0.054669 0.226872 0.677974
Si Si8 0.275374 0.093569 0.675602
O O1 0.148506 0.087666 0.500000
O O2 0.107513 0.170120 0.726013
O O3 0.212814 0.114959 0.726076
O O4 0.134095 0.000000 0.750000
O O5 0.387616 0.221506 0.500000
O O6 0.373542 0.331568 0.726642
O O7 0.412512 0.175860 0.782676
O O8 0.315100 0.177716 0.698060
O O9 0.345498 0.500000 0.250000
O O10 0.277769 0.369277 0.179343
O O11 0.357776 0.407046 0.000000
O O12 0.900957 0.500000 0.750000
O O13 0.891748 0.587087 0.500000
O O14 0.834308 0.638147 0.733019
O O15 0.937686 0.670097 0.721658
O O16 0.500000 0.088394 0.250000
O O17 0.411038 0.000000 0.250000
O O18 0.443771 0.070043 0.000000
O O19 0.219542 0.500000 0.250000
O O20 0.199077 0.411142 0.000000
O O21 0.051316 0.224097 0.500000
O O22 0.000000 0.188028 0.750000
O O23 0.274861 0.076508 0.500000
O O24 0.291208 0.000000 0.750000
#
# Coordination Sequence:
#
# PCOD9395262 Si02
#       8
#     8   8   8   8   8   8   8   8
#     4   9  19  38  58  79 104 137 175 218 272 329
#     4  11  22  35  57  88 119 159 199 239 292 344
#     4  10  21  36  53  79 115 155 197 242 288 337
#     4  10  20  34  54  77 103 137 172 217 269 328
#     4  11  22  39  62  89 124 162 204 251 295 347
#     4   9  17  30  49  74 103 137 178 222 269 326
#     4  10  23  39  56  76 102 134 175 221 273 330
#     4   9  19  34  55  81 113 147 181 222 275 338
#
# _framework density 19.753086
#
# number of rings (size 3 to 8) (size 9 to 14) (size 15 to 20)
#    0.000    2.125    0.000    4.125    1.750    5.500 
#    0.000    2.500    0.000    0.375    0.000    2.625 
#    0.000    0.000    0.000    0.000    0.000    0.000 
#
# Total GULP energy -356566.616255 kJ/mol
# GULP energy per Si atom -5571.353379 kJ/mol
# Density = 1.970813 g / cm^3
# Si number density = 19.753086 Si / 1000 Ang^3
#
#
#
# Elastic Constant Matrix: (Units=GPa)
#
#
# Indices 1 2 3 4 5 6 
#
# 1 60.8969 35.5200 32.5212 0.0000 0.0000 0.0000
# 2 35.5200 83.6408 38.0106 0.0000 0.0000 0.0000
# 3 32.5212 38.0106 80.0559 0.0000 0.0000 0.0000
# 4 0.0000 0.0000 0.0000 28.5300 0.0000 0.0000
# 5 0.0000 0.0000 0.0000 0.0000 27.8539 0.0000
# 6 0.0000 0.0000 0.0000 0.0000 0.0000 -8.0014
#
#
#
# Elastic Compliance Matrix: (Units=1/GPa)
#
#
# Indices 1 2 3 4 5 6 
#
# 1 0.024074 -0.007369 -0.006281 0.000000 0.000000 0.000000
# 2 -0.007369 0.017501 -0.005316 0.000000 0.000000 0.000000
# 3 -0.006281 -0.005316 0.017567 0.000000 0.000000 0.000000
# 4 0.000000 0.000000 0.000000 0.035051 0.000000 0.000000
# 5 0.000000 0.000000 0.000000 0.000000 0.035902 0.000000
# 6 0.000000 0.000000 0.000000 0.000000 0.000000 -0.124979
#
#
# Mechanical properties :
#
#
# Convention : Reuss Voigt Hill
#
# Bulk Modulus (GPa) = 47.14761 48.52193 47.83477
# Shear Modulus (GPa) = 99.76745 17.57930 58.67337
#
# Velocity S-wave (km/s) = 7.11456 2.98644 5.45599
# Velocity P-wave (km/s) = 9.56083 6.04230 7.99746
#
# Compressibility (1/GPa) = 0.02120998
#
# Stress axis : x y z
#
# Youngs Moduli (GPa) = 41.53936 57.13877 56.92600
#
# Poissons Ratio (x) = 0.42107 0.35753
# Poissons Ratio (y) = 0.30611 0.30262
# Poissons Ratio (z) = 0.26089 0.30375
#
# Static dielectric constant tensor:
#      x y z
#    x 1.876900 0.000000 0.000000 
#    y 0.000000 1.494820 0.000000 
#    z 0.000000 0.000000 1.649650 
# 
# From -- ./inp_files/6561.got.cif
#   From: 2010.05.17/outbox.ucp.g08.bks.cvg/sg49_4_cif.got.tgz:6561.got - 2010.06.11 16:40:14.
