data_PCOD9395319
_publ_section_title
;
Structure prediction by ZEFSAII (Michael W. Deem and Ramdas Pophale) SiO2 
 PCOD9395319
Probable space group: P C C M
;
_chemical_formula_sum "Si O2"
_cell_formula_units_Z 40
_cell_length_a 12.000000
_cell_length_b 9.000000
_cell_length_c 18.000000
_cell_angle_alpha 90.000000
_cell_angle_beta 90.000000
_cell_angle_gamma 90.000000
_cell_volume 1944.000000
_symmetry_space_group_name_H-M "P C C M"
_symmetry_group_IT_number 49
_symmetry_cell_setting 'orthorhombic'
loop_
_space_group_symop_operation_xyz
x,y,z
-x,-y,z
x,-y,1/2-z
-x,y,1/2-z
-x,-y,-z
x,y,-z
-x,y,1/2+z
x,-y,1/2+z
loop_
_atom_site_type_symbol
_atom_site_label
_atom_site_fract_x
_atom_site_fract_y
_atom_site_fract_z
Si Si1 0.360106 0.366749 0.588842
Si Si2 0.440365 0.231260 0.823943
Si Si3 0.783934 0.399608 0.317370
Si Si4 0.680636 0.977517 0.585516
Si Si5 0.119506 0.078984 0.173426
O O1 0.374087 0.390845 0.500000
O O2 0.480878 0.344220 0.629404
O O3 0.268876 0.486003 0.620307
O O4 0.319313 0.197210 0.602473
O O5 0.500000 0.180648 0.750000
O O6 0.330211 0.315702 0.796394
O O7 0.399504 0.090816 0.871060
O O8 0.825396 0.500000 0.250000
O O9 0.869809 0.260031 0.327244
O O10 0.651925 0.993995 0.500000
O O11 0.802994 0.032845 0.605641
O O12 0.165027 0.000000 0.250000
O O13 0.000000 0.000000 0.165476
#
# Coordination Sequence:
#
# PCOD9395319 Si02
#       5
#     8   8   8   8   8
#     4  11  23  38  58  91 136 179 222 266 320 388
#     4  11  22  36  61  95 135 184 230 259 315 392
#     4  11  22  39  62  93 132 167 214 279 335 396
#     4  10  23  41  62  93 133 180 230 275 320 390
#     4  10  23  44  69  93 119 163 226 283 347 408
#
# _framework density 20.576132000000001
#
# number of rings (size 3 to 8) (size 9 to 14) (size 15 to 20)
#    0.000    1.400    2.000    3.000    2.800    7.600 
#    0.000    7.000    0.000    2.400    0.000    0.000 
#    0.000    0.000    0.000    0.000    0.000    0.000 
#
# Total GULP energy -222925.190991 kJ/mol
# GULP energy per Si atom -5573.129775 kJ/mol
# Density = 2.052930 g / cm^3
# Si number density = 20.576132 Si / 1000 Ang^3
#
#
#
# Elastic Constant Matrix: (Units=GPa)
#
#
# Indices 1 2 3 4 5 6 
#
# 1 80.1185 66.7799 28.9149 0.0000 0.0000 0.0000
# 2 66.7799 177.1706 55.4123 0.0000 0.0000 0.0000
# 3 28.9149 55.4123 72.8076 0.0000 0.0000 0.0000
# 4 0.0000 0.0000 0.0000 33.9196 0.0000 0.0000
# 5 0.0000 0.0000 0.0000 0.0000 8.5875 0.0000
# 6 0.0000 0.0000 0.0000 0.0000 0.0000 39.3037
#
#
#
# Elastic Compliance Matrix: (Units=1/GPa)
#
#
# Indices 1 2 3 4 5 6 
#
# 1 0.018592 -0.006166 -0.002691 0.000000 0.000000 0.000000
# 2 -0.006166 0.009453 -0.004745 0.000000 0.000000 0.000000
# 3 -0.002691 -0.004745 0.018415 0.000000 0.000000 0.000000
# 4 0.000000 0.000000 0.000000 0.029481 0.000000 0.000000
# 5 0.000000 0.000000 0.000000 0.000000 0.116449 0.000000
# 6 0.000000 0.000000 0.000000 0.000000 0.000000 0.025443
#
#
# Mechanical properties :
#
#
# Convention : Reuss Voigt Hill
#
# Bulk Modulus (GPa) = 51.93393 70.25679 61.09536
# Shear Modulus (GPa) = 19.88417 28.29479 24.08948
#
# Velocity S-wave (km/s) = 3.11202 3.71229 3.42533
# Velocity P-wave (km/s) = 6.18123 7.25216 6.73800
#
# Compressibility (1/GPa) = 0.01925523
#
# Stress axis : x y z
#
# Youngs Moduli (GPa) = 53.78557 105.79005 54.30362
#
# Poissons Ratio (x) = 0.65234 0.14612
# Poissons Ratio (y) = 0.33166 0.25769
# Poissons Ratio (z) = 0.14472 0.50201
#
# Static dielectric constant tensor:
#      x y z
#    x 1.778350 0.000000 0.000000 
#    y 0.000000 1.794140 0.000000 
#    z 0.000000 0.000000 1.749850 
# 
# From -- ./inp_files/16822.got.cif
#   From: 2010.05.17/outbox.ucp.g08.bks.cvg/sg49_9_cif.got.tgz:16822.got - 2010.06.11 16:40:14.
