data_PCOD9395462
_publ_section_title
;
Structure prediction by ZEFSAII (Michael W. Deem and Ramdas Pophale) SiO2 
 PCOD9395462
Probable space group: P B A N
;
_chemical_formula_sum "Si O2"
_cell_formula_units_Z 56
_cell_length_a 20.168533
_cell_length_b 15.245444
_cell_length_c 8.964722
_cell_angle_alpha 90.000000
_cell_angle_beta 90.000000
_cell_angle_gamma 90.000000
_cell_volume 2756.456946
_symmetry_space_group_name_H-M "P B A N"
_symmetry_group_IT_number 50
_space_group.IT_coordinate_system_code '2'
_symmetry_cell_setting 'orthorhombic'
loop_
_space_group_symop_operation_xyz
x,y,z
1/2-x,1/2-y,z
x,1/2-y,-z
1/2-x,y,-z
-x,-y,-z
1/2+x,1/2+y,-z
-x,1/2+y,z
1/2+x,-y,z
loop_
_atom_site_type_symbol
_atom_site_label
_atom_site_fract_x
_atom_site_fract_y
_atom_site_fract_z
Si Si1 0.580685 0.750000 0.000000
Si Si2 0.998814 0.328711 0.266585
Si Si3 0.010760 0.519776 0.324866
Si Si4 0.308484 0.549961 0.308538
Si Si5 0.353544 0.762137 0.675329
Si Si6 0.337947 0.933617 0.334927
Si Si7 0.613735 0.876820 0.245589
Si Si8 0.901368 0.750000 0.500000
O O1 0.533306 0.704245 0.118703
O O2 0.620977 0.821363 0.095142
O O3 0.931642 0.279600 0.309020
O O4 0.985541 0.431294 0.248631
O O5 0.051729 0.310695 0.397474
O O6 0.089090 0.530991 0.297702
O O7 0.000000 0.500000 0.500000
O O8 0.964471 0.600328 0.274518
O O9 0.320231 0.650729 0.257248
O O10 0.231565 0.525145 0.286210
O O11 0.330499 0.559264 0.483757
O O12 0.350455 0.470042 0.244189
O O13 0.336095 0.750000 0.500000
O O14 0.336927 0.665283 0.730347
O O15 0.635411 0.815251 0.385340
#
# Coordination Sequence:
#
# PCOD9395462 Si02
#       8
#     4   8   8   8   8   8   8   4
#     4  10  26  36  54  89 121 160 204 262 304 366
#     4  11  19  34  56  87 120 154 197 247 303 361
#     4  12  19  34  61  91 117 156 200 253 311 369
#     4  10  19  32  53  84 126 154 191 244 303 367
#     4  10  17  31  54  87 121 156 186 240 308 365
#     4  10  19  30  53  91 121 150 192 242 304 365
#     4  11  21  38  57  88 122 160 208 252 310 358
#     4  10  18  30  58  81 115 152 202 254 292 352
#
# _framework density 20.315935
#
# number of rings (size 3 to 8) (size 9 to 14) (size 15 to 20)
#    0.000    1.429    5.000    3.000    0.000    2.286 
#    0.000    0.000    0.000   14.571    0.000    1.000 
#    0.000    0.000    0.000    0.000    0.000    0.000 
#
# Total GULP energy -312214.119524 kJ/mol
# GULP energy per Si atom -5575.252134 kJ/mol
# Density = 2.026970 g / cm^3
# Si number density = 20.315935 Si / 1000 Ang^3
#
#
#
# Elastic Constant Matrix: (Units=GPa)
#
#
# Indices 1 2 3 4 5 6 
#
# 1 102.5763 39.6169 7.5167 0.0000 0.0000 0.0000
# 2 39.6169 125.5532 36.3567 0.0000 0.0000 0.0000
# 3 7.5167 36.3567 57.3200 0.0000 0.0000 0.0000
# 4 0.0000 0.0000 0.0000 19.4438 0.0000 0.0000
# 5 0.0000 0.0000 0.0000 0.0000 5.1812 0.0000
# 6 0.0000 0.0000 0.0000 0.0000 0.0000 5.4963
#
#
#
# Elastic Compliance Matrix: (Units=1/GPa)
#
#
# Indices 1 2 3 4 5 6 
#
# 1 0.011143 -0.003789 0.000942 0.000000 0.000000 0.000000
# 2 -0.003789 0.011045 -0.006509 0.000000 0.000000 0.000000
# 3 0.000942 -0.006509 0.021451 0.000000 0.000000 0.000000
# 4 0.000000 0.000000 0.000000 0.051430 0.000000 0.000000
# 5 0.000000 0.000000 0.000000 0.000000 0.193006 0.000000
# 6 0.000000 0.000000 0.000000 0.000000 0.000000 0.181942
#
#
# Mechanical properties :
#
#
# Convention : Reuss Voigt Hill
#
# Bulk Modulus (GPa) = 40.11623 50.26999 45.19311
# Shear Modulus (GPa) = 10.05960 19.48819 14.77389
#
# Velocity S-wave (km/s) = 2.22763 3.10055 2.69960
# Velocity P-wave (km/s) = 5.13863 6.13316 5.65779
#
# Compressibility (1/GPa) = 0.02492757
#
# Stress axis : x y z
#
# Youngs Moduli (GPa) = 89.74127 90.53848 46.61844
#
# Poissons Ratio (x) = 0.34304 -0.04391
# Poissons Ratio (y) = 0.34002 0.30343
# Poissons Ratio (z) = -0.08453 0.58929
#
# Static dielectric constant tensor:
#      x y z
#    x 1.760420 0.000000 0.000000 
#    y 0.000000 1.757930 0.000000 
#    z 0.000000 0.000000 1.666550 
# 
# From -- ./inp_files/15387.got.cif
#   From: 2010.05.17/outbox.cif.g08.bks.cpg/sg50_8_cif.got.tgz:15387.got - 2010.06.03 11:33:33.
