data_PCOD9395738
_publ_section_title
;
Structure prediction by ZEFSAII (Michael W. Deem and Ramdas Pophale) SiO2 
 PCOD9395738
Probable space group: P B A N
;
_chemical_formula_sum "Si O2"
_cell_formula_units_Z 32
_cell_length_a 5.261449
_cell_length_b 34.818808
_cell_length_c 7.136496
_cell_angle_alpha 90.000000
_cell_angle_beta 90.000000
_cell_angle_gamma 90.000000
_cell_volume 1307.387388
_symmetry_space_group_name_H-M "P B A N"
_symmetry_group_IT_number 50
_space_group.IT_coordinate_system_code '2'
_symmetry_cell_setting 'orthorhombic'
loop_
_space_group_symop_operation_xyz
x,y,z
1/2-x,1/2-y,z
x,1/2-y,-z
1/2-x,y,-z
-x,-y,-z
1/2+x,1/2+y,-z
-x,1/2+y,z
1/2+x,-y,z
loop_
_atom_site_type_symbol
_atom_site_label
_atom_site_fract_x
_atom_site_fract_y
_atom_site_fract_z
Si Si1 0.994079 0.232559 0.209784
Si Si2 0.768421 0.978569 0.272261
Si Si3 0.729802 0.608322 0.272758
Si Si4 0.278026 0.850443 0.273861
O O1 0.750000 0.250000 0.306362
O O2 0.924523 0.187854 0.206404
O O3 0.250000 0.250000 0.294025
O O4 0.998170 0.250000 0.000000
O O5 0.750000 0.978810 0.500000
O O6 0.835742 0.935048 0.219060
O O7 0.491669 0.992871 0.211976
O O8 0.750000 0.610526 0.500000
O O9 0.507943 0.638146 0.212020
O O10 0.018678 0.617317 0.216424
O O11 0.250000 0.847473 0.500000
#
# Coordination Sequence:
#
# PCOD9395738 Si02
#       4
#     8   8   8   8
#     4  10  21  37  55  74  98 132 168 217 271 317
#     4   9  15  23  37  59  90 132 174 204 238 288
#     4   9  17  28  43  66  98 134 172 211 250 297
#     4  10  19  32  49  71  99 133 171 211 259 311
#
# _framework density 24.476296000000001
#
# number of rings (size 3 to 8) (size 9 to 14) (size 15 to 20)
#    0.000    2.500    0.000    3.000    0.000    6.500 
#    0.000    1.250    0.000    0.000    0.000    0.000 
#    0.000    0.000    0.000  315.000    0.000  140.000 
#
# Total GULP energy -178564.299394 kJ/mol
# GULP energy per Si atom -5580.134356 kJ/mol
# Density = 2.442059 g / cm^3
# Si number density = 24.476296 Si / 1000 Ang^3
#
#
#
# Elastic Constant Matrix: (Units=GPa)
#
#
# Indices 1 2 3 4 5 6 
#
# 1 217.6218 57.1487 4.1449 0.0000 0.0000 0.0000
# 2 57.1487 128.3147 -3.3249 0.0000 0.0000 0.0000
# 3 4.1449 -3.3249 123.6483 0.0000 0.0000 0.0000
# 4 0.0000 0.0000 0.0000 6.5258 0.0000 0.0000
# 5 0.0000 0.0000 0.0000 0.0000 -42.3327 0.0000
# 6 0.0000 0.0000 0.0000 0.0000 0.0000 6.9915
#
#
#
# Elastic Compliance Matrix: (Units=1/GPa)
#
#
# Indices 1 2 3 4 5 6 
#
# 1 0.005211 -0.002327 -0.000237 0.000000 0.000000 0.000000
# 2 -0.002327 0.008838 0.000316 0.000000 0.000000 0.000000
# 3 -0.000237 0.000316 0.008104 0.000000 0.000000 0.000000
# 4 0.000000 0.000000 0.000000 0.153237 0.000000 0.000000
# 5 0.000000 0.000000 0.000000 0.000000 -0.023622 0.000000
# 6 0.000000 0.000000 0.000000 0.000000 0.000000 0.143031
#
#
# Mechanical properties :
#
#
# Convention : Reuss Voigt Hill
#
# Bulk Modulus (GPa) = 56.63954 65.05802 60.84878
# Shear Modulus (GPa) = 16.38377 21.67801 19.03089
#
# Velocity S-wave (km/s) = 2.59003 2.97926 2.79144
# Velocity P-wave (km/s) = 5.66879 6.20261 5.94170
#
# Compressibility (1/GPa) = 0.01765551
#
# Stress axis : x y z
#
# Youngs Moduli (GPa) = 191.91288 113.14949 123.39750
#
# Poissons Ratio (x) = 0.26329 0.02927
# Poissons Ratio (y) = 0.44656 -0.03895
# Poissons Ratio (z) = 0.04553 -0.03572
#
# Static dielectric constant tensor:
#      x y z
#    x 1.869020 0.000000 0.000000 
#    y 0.000000 2.014710 0.000000 
#    z 0.000000 0.000000 1.974510 
# 
# From -- ./inp_files/7889.got.cif
#   From: 2010.05.17/outbox.cif.g08.bks.cpg/sg50_4_cif.got.tgz:7889.got - 2010.06.03 11:33:33.
