data_PCOD9395774
_publ_section_title
;
Structure prediction by ZEFSAII (Michael W. Deem and Ramdas Pophale) SiO2 
 PCOD9395774
Probable space group: P B A N
;
_chemical_formula_sum "Si O2"
_cell_formula_units_Z 56
_cell_length_a 14.937238
_cell_length_b 13.657684
_cell_length_c 12.537148
_cell_angle_alpha 90.000000
_cell_angle_beta 90.000000
_cell_angle_gamma 90.000000
_cell_volume 2557.679447
_symmetry_space_group_name_H-M "P B A N"
_symmetry_group_IT_number 50
_space_group.IT_coordinate_system_code '2'
_symmetry_cell_setting 'orthorhombic'
loop_
_space_group_symop_operation_xyz
x,y,z
1/2-x,1/2-y,z
x,1/2-y,-z
1/2-x,y,-z
-x,-y,-z
1/2+x,1/2+y,-z
-x,1/2+y,z
1/2+x,-y,z
loop_
_atom_site_type_symbol
_atom_site_label
_atom_site_fract_x
_atom_site_fract_y
_atom_site_fract_z
Si Si1 0.098671 0.317891 0.899588
Si Si2 0.393249 0.978471 0.988297
Si Si3 0.995313 0.258498 0.381842
Si Si4 0.325784 0.313461 0.707374
Si Si5 0.000987 0.074579 0.272326
Si Si6 0.691580 0.029191 0.778026
Si Si7 0.380389 0.616284 0.227375
O O1 0.144776 0.418874 0.938739
O O2 0.148094 0.249754 0.813361
O O3 0.014837 0.361230 0.835113
O O4 0.078195 0.250000 0.000000
O O5 0.387070 0.891123 0.901874
O O6 0.341133 0.962989 0.098581
O O7 0.500000 0.000000 0.000000
O O8 0.957744 0.250000 0.500000
O O9 0.032322 0.149359 0.360874
O O10 0.923292 0.295274 0.294104
O O11 0.083724 0.323802 0.361218
O O12 0.250000 0.250000 0.650446
O O13 0.289230 0.416999 0.747210
O O14 0.897421 0.054551 0.287013
O O15 0.059953 0.978032 0.262238
O O16 0.776407 0.095583 0.752004
#
# Coordination Sequence:
#
# PCOD9395774 Si02
#       7
#     8   8   8   8   8   8   8
#     4  10  19  32  58  94 138 181 218 262 332 405
#     4  11  19  36  59  95 141 183 222 265 331 408
#     4  11  25  47  72  89 128 178 227 287 352 405
#     4  11  22  39  64 101 132 166 226 290 341 404
#     4  10  23  41  63  95 126 170 220 282 333 400
#     4  12  21  39  65  95 139 176 214 273 338 412
#     4  11  24  42  63  99 135 177 221 281 338 409
#
# _framework density 21.894849000000001
#
# number of rings (size 3 to 8) (size 9 to 14) (size 15 to 20)
#    0.000    1.143    5.714    3.000    2.000    1.714 
#    0.000    1.429    0.000    1.714    0.000    0.000 
#    0.000    0.000    0.000    0.000    0.000    0.000 
#
# Total GULP energy -312358.927317 kJ/mol
# GULP energy per Si atom -5577.837988 kJ/mol
# Density = 2.184501 g / cm^3
# Si number density = 21.894849 Si / 1000 Ang^3
#
#
#
# Elastic Constant Matrix: (Units=GPa)
#
#
# Indices 1 2 3 4 5 6 
#
# 1 109.1048 -2.2507 -10.8023 0.0000 0.0000 0.0000
# 2 -2.2507 51.2045 18.9593 0.0000 0.0000 0.0000
# 3 -10.8023 18.9593 53.5755 0.0000 0.0000 0.0000
# 4 0.0000 0.0000 0.0000 9.1853 0.0000 0.0000
# 5 0.0000 0.0000 0.0000 0.0000 9.5352 0.0000
# 6 0.0000 0.0000 0.0000 0.0000 0.0000 36.5296
#
#
#
# Elastic Compliance Matrix: (Units=1/GPa)
#
#
# Indices 1 2 3 4 5 6 
#
# 1 0.009357 -0.000331 0.002004 0.000000 0.000000 0.000000
# 2 -0.000331 0.022486 -0.008024 0.000000 0.000000 0.000000
# 3 0.002004 -0.008024 0.021909 0.000000 0.000000 0.000000
# 4 0.000000 0.000000 0.000000 0.108870 0.000000 0.000000
# 5 0.000000 0.000000 0.000000 0.000000 0.104875 0.000000
# 6 0.000000 0.000000 0.000000 0.000000 0.000000 0.027375
#
#
# Mechanical properties :
#
#
# Convention : Reuss Voigt Hill
#
# Bulk Modulus (GPa) = 24.36060 25.07751 24.71905
# Shear Modulus (GPa) = 15.56387 24.91523 20.23955
#
# Velocity S-wave (km/s) = 2.66906 3.37701 3.04369
# Velocity P-wave (km/s) = 4.54410 5.16566 4.86482
#
# Compressibility (1/GPa) = 0.04104989
#
# Stress axis : x y z
#
# Youngs Moduli (GPa) = 106.87118 44.47205 45.64380
#
# Poissons Ratio (x) = 0.01470 -0.09145
# Poissons Ratio (y) = 0.03533 0.36625
# Poissons Ratio (z) = -0.21413 0.35684
#
# Static dielectric constant tensor:
#      x y z
#    x 1.846930 0.000000 0.000000 
#    y 0.000000 1.835870 0.000000 
#    z 0.000000 0.000000 1.880310 
# 
# From -- ./inp_files/21174.got.cif
#   From: 2010.05.17/outbox.cif.g08.bks.cpg/sg50_11_cif.got.tgz:21174.got - 2010.06.03 11:33:33.
