data_PCOD9395514
_publ_section_title
;
Structure prediction by ZEFSAII (Michael W. Deem and Ramdas Pophale) SiO2 
 PCOD9395514
Probable space group: P B A N
;
_chemical_formula_sum "Si O2"
_cell_formula_units_Z 40
_cell_length_a 13.474657
_cell_length_b 20.258920
_cell_length_c 5.488377
_cell_angle_alpha 90.000000
_cell_angle_beta 90.000000
_cell_angle_gamma 90.000000
_cell_volume 1498.228120
_symmetry_space_group_name_H-M "P B A N"
_symmetry_group_IT_number 50
_space_group.IT_coordinate_system_code '2'
_symmetry_cell_setting 'orthorhombic'
loop_
_space_group_symop_operation_xyz
x,y,z
1/2-x,1/2-y,z
x,1/2-y,-z
1/2-x,y,-z
-x,-y,-z
1/2+x,1/2+y,-z
-x,1/2+y,z
1/2+x,-y,z
loop_
_atom_site_type_symbol
_atom_site_label
_atom_site_fract_x
_atom_site_fract_y
_atom_site_fract_z
Si Si1 0.971731 0.838579 0.609688
Si Si2 0.862265 0.667770 0.903691
Si Si3 0.612965 0.989867 0.934433
Si Si4 0.852119 0.529972 0.436629
Si Si5 0.705859 0.325317 0.259531
O O1 0.918396 0.814539 0.354489
O O2 0.938486 0.916156 0.595053
O O3 0.087823 0.826121 0.673445
O O4 0.922381 0.812029 0.856605
O O5 0.867335 0.587927 0.903837
O O6 0.750000 0.682514 0.000000
O O7 0.630013 0.016601 0.665982
O O8 0.665650 0.007819 0.184935
O O9 0.500000 0.000000 0.000000
O O10 0.750000 0.567744 0.500000
O O11 0.750000 0.250000 0.256583
O O12 0.750000 0.358400 0.500000
O O13 0.750000 0.351758 0.000000
#
# Coordination Sequence:
#
# PCOD9395514 Si02
#       5
#     8   8   8   8   8
#     4  10  18  32  56  81 109 143 178 231 277 321
#     4  10  19  33  55  85 111 141 186 231 281 342
#     4  10  18  29  48  71 103 143 181 221 269 324
#     4  10  19  33  53  78 104 138 185 230 278 339
#     4  10  21  37  57  83 110 145 189 223 268 340
#
# _framework density 26.698202999999999
#
# number of rings (size 3 to 8) (size 9 to 14) (size 15 to 20)
#    0.000    2.000    0.000    7.800    0.000    0.000 
#    0.000    0.000    0.000   62.400    0.000   67.200 
#    0.000    0.000    0.000    0.000    0.000    0.000 
#
# Total GULP energy -222791.780629 kJ/mol
# GULP energy per Si atom -5569.794516 kJ/mol
# Density = 2.663744 g / cm^3
# Si number density = 26.698203 Si / 1000 Ang^3
#
#
#
# Elastic Constant Matrix: (Units=GPa)
#
#
# Indices 1 2 3 4 5 6 
#
# 1 278.2568 54.1325 121.4579 0.0000 0.0000 0.0000
# 2 54.1325 83.1873 39.0822 0.0000 0.0000 0.0000
# 3 121.4579 39.0822 388.4913 0.0000 0.0000 0.0000
# 4 0.0000 0.0000 0.0000 -8.5107 0.0000 0.0000
# 5 0.0000 0.0000 0.0000 0.0000 58.8567 0.0000
# 6 0.0000 0.0000 0.0000 0.0000 0.0000 112.3004
#
#
#
# Elastic Compliance Matrix: (Units=1/GPa)
#
#
# Indices 1 2 3 4 5 6 
#
# 1 0.004585 -0.002425 -0.001189 0.000000 0.000000 0.000000
# 2 -0.002425 0.013900 -0.000640 0.000000 0.000000 0.000000
# 3 -0.001189 -0.000640 0.003010 0.000000 0.000000 0.000000
# 4 0.000000 0.000000 0.000000 -0.117499 0.000000 0.000000
# 5 0.000000 0.000000 0.000000 0.000000 0.016990 0.000000
# 6 0.000000 0.000000 0.000000 0.000000 0.000000 0.008905
#
#
# Mechanical properties :
#
#
# Convention : Reuss Voigt Hill
#
# Bulk Modulus (GPa) = 77.00574 131.03116 104.01845
# Shear Modulus (GPa) = -87.30311 68.21345 -9.54483
#
# Velocity S-wave (km/s) = -5.72459 5.06017 -1.89284
# Velocity P-wave (km/s) = 3.84565 9.12828 5.85391
#
# Compressibility (1/GPa) = 0.01298604
#
# Stress axis : x y z
#
# Youngs Moduli (GPa) = 218.11830 71.94439 332.18854
#
# Poissons Ratio (x) = 0.17443 0.39512
# Poissons Ratio (y) = 0.52884 0.21269
# Poissons Ratio (z) = 0.25944 0.04606
#
# Static dielectric constant tensor:
#      x y z
#    x 2.276670 0.000000 0.000000 
#    y 0.000000 2.139950 0.000000 
#    z 0.000000 0.000000 2.284560 
# 
# From -- ./inp_files/2395.got.cif
#   From: 2010.05.17/outbox.cif.g08.bks.cpg/sg50_2_cif.got.tgz:2395.got - 2010.06.03 11:33:33.
