data_PCOD9395875
_publ_section_title
;
Structure prediction by ZEFSAII (Michael W. Deem and Ramdas Pophale) SiO2 
 PCOD9395875
Probable space group: P B A N
;
_chemical_formula_sum "Si O2"
_cell_formula_units_Z 48
_cell_length_a 8.363623
_cell_length_b 27.951514
_cell_length_c 9.655998
_cell_angle_alpha 90.000000
_cell_angle_beta 90.000000
_cell_angle_gamma 90.000000
_cell_volume 2257.339868
_symmetry_space_group_name_H-M "P B A N"
_symmetry_group_IT_number 50
_space_group.IT_coordinate_system_code '2'
_symmetry_cell_setting 'orthorhombic'
loop_
_space_group_symop_operation_xyz
x,y,z
1/2-x,1/2-y,z
x,1/2-y,-z
1/2-x,y,-z
-x,-y,-z
1/2+x,1/2+y,-z
-x,1/2+y,z
1/2+x,-y,z
loop_
_atom_site_type_symbol
_atom_site_label
_atom_site_fract_x
_atom_site_fract_y
_atom_site_fract_z
Si Si1 0.886448 0.538880 0.299940
Si Si2 0.418999 0.205957 0.917254
Si Si3 0.558516 0.598098 0.962611
Si Si4 0.517018 0.562432 0.252337
Si Si5 0.563396 0.108946 0.501092
Si Si6 0.584068 0.705703 0.586741
O O1 0.700348 0.548417 0.277191
O O2 0.915953 0.482695 0.303094
O O3 0.959867 0.566825 0.429478
O O4 0.969145 0.564233 0.168246
O O5 0.395898 0.215324 0.751867
O O6 0.501569 0.250000 0.000000
O O7 0.250000 0.202077 0.000000
O O8 0.491064 0.152750 0.933505
O O9 0.478817 0.574469 0.095234
O O10 0.750000 0.598347 0.000000
O O11 0.488430 0.609739 0.341634
O O12 0.750000 0.098658 0.500000
O O13 0.520246 0.158220 0.573878
O O14 0.511677 0.750000 0.500000
O O15 0.750000 0.696781 0.500000
#
# Coordination Sequence:
#
# PCOD9395875 Si02
#       6
#     8   8   8   8   8   8
#     4  11  21  42  61  94 124 162 210 257 313 372
#     4  10  19  34  62  97 131 153 199 255 312 368
#     4   9  20  35  60  92 125 160 203 257 310 369
#     4  11  23  38  67  90 126 164 207 260 313 376
#     4  12  26  42  61  90 128 169 209 258 311 367
#     4  11  23  39  68 100 125 163 211 255 310 372
#
# _framework density 21.263967000000001
#
# number of rings (size 3 to 8) (size 9 to 14) (size 15 to 20)
#    0.000    1.333    1.667    5.500    7.000    0.333 
#    0.000    2.500    0.000    0.000    0.000    0.000 
#    0.000    0.000    0.000    0.000    0.000    0.000 
#
# Total GULP energy -267915.964125 kJ/mol
# GULP energy per Si atom -5581.582586 kJ/mol
# Density = 2.121557 g / cm^3
# Si number density = 21.263967 Si / 1000 Ang^3
#
#
#
# Elastic Constant Matrix: (Units=GPa)
#
#
# Indices 1 2 3 4 5 6 
#
# 1 28.3366 1.5510 10.7292 0.0000 0.0000 0.0000
# 2 1.5510 97.9619 34.9201 0.0000 0.0000 0.0000
# 3 10.7292 34.9201 150.5516 0.0000 0.0000 0.0000
# 4 0.0000 0.0000 0.0000 47.6668 0.0000 0.0000
# 5 0.0000 0.0000 0.0000 0.0000 0.7516 0.0000
# 6 0.0000 0.0000 0.0000 0.0000 0.0000 -17.5618
#
#
#
# Elastic Compliance Matrix: (Units=1/GPa)
#
#
# Indices 1 2 3 4 5 6 
#
# 1 0.036282 0.000379 -0.002673 0.000000 0.000000 0.000000
# 2 0.000379 0.011132 -0.002609 0.000000 0.000000 0.000000
# 3 -0.002673 -0.002609 0.007438 0.000000 0.000000 0.000000
# 4 0.000000 0.000000 0.000000 0.020979 0.000000 0.000000
# 5 0.000000 0.000000 0.000000 0.000000 1.330579 0.000000
# 6 0.000000 0.000000 0.000000 0.000000 0.000000 -0.056942
#
#
# Mechanical properties :
#
#
# Convention : Reuss Voigt Hill
#
# Bulk Modulus (GPa) = 22.20067 41.25011 31.72539
# Shear Modulus (GPa) = 3.63824 21.48128 12.55976
#
# Velocity S-wave (km/s) = 1.30947 3.18184 2.43298
# Velocity P-wave (km/s) = 3.57064 5.73934 4.77962
#
# Compressibility (1/GPa) = 0.04504368
#
# Stress axis : x y z
#
# Youngs Moduli (GPa) = 27.56222 89.83040 134.44599
#
# Poissons Ratio (x) = -0.03401 0.35943
# Poissons Ratio (y) = -0.01043 0.35078
# Poissons Ratio (z) = 0.07369 0.23437
#
# Static dielectric constant tensor:
#      x y z
#    x 1.757040 0.000000 0.000000 
#    y 0.000000 1.772750 0.000000 
#    z 0.000000 0.000000 1.781340 
# 
# From -- ./inp_files/10120.got.cif
#   From: 2010.05.17/outbox.cif.g08.bks.cpg/sg50_6_cif.got.tgz:10120.got - 2010.06.03 11:33:33.
