data_PCOD9395164
_publ_section_title
;
Structure prediction by ZEFSAII (Michael W. Deem and Ramdas Pophale) SiO2 
 PCOD9395164
Probable space group: P C C M
;
_chemical_formula_sum "Si O2"
_cell_formula_units_Z 54
_cell_length_a 5.119856
_cell_length_b 15.979327
_cell_length_c 30.746621
_cell_angle_alpha 90.000000
_cell_angle_beta 90.000000
_cell_angle_gamma 90.000000
_cell_volume 2515.438044
_symmetry_space_group_name_H-M "P C C M"
_symmetry_group_IT_number 49
_symmetry_cell_setting 'orthorhombic'
loop_
_space_group_symop_operation_xyz
x,y,z
-x,-y,z
x,-y,1/2-z
-x,y,1/2-z
-x,-y,-z
x,y,-z
-x,y,1/2+z
x,-y,1/2+z
loop_
_atom_site_type_symbol
_atom_site_label
_atom_site_fract_x
_atom_site_fract_y
_atom_site_fract_z
Si Si1 0.861127 0.620090 0.296223
Si Si2 0.999002 0.196724 0.330620
Si Si3 0.605258 0.305956 0.047617
Si Si4 0.770643 0.550733 0.612396
Si Si5 0.245738 0.939708 0.500000
Si Si6 0.495673 0.904886 0.801972
Si Si7 0.096255 0.796548 0.566245
Si Si8 0.500000 0.500000 0.750000
O O1 0.915616 0.580818 0.343298
O O2 0.594603 0.571341 0.284987
O O3 0.000000 0.598362 0.250000
O O4 0.917244 0.717282 0.306087
O O5 0.736622 0.155002 0.312891
O O6 0.947153 0.202569 0.382014
O O7 0.236270 0.135483 0.320740
O O8 0.690898 0.368066 0.085324
O O9 0.314698 0.272836 0.055894
O O10 0.813478 0.229887 0.048106
O O11 0.617015 0.346147 0.000000
O O12 0.500000 0.500000 0.618679
O O13 0.000000 0.500000 0.588342
O O14 0.209669 0.878974 0.542202
O O15 0.500000 0.000000 0.500000
O O16 0.000000 0.000000 0.500000
O O17 0.500000 0.909065 0.750000
O O18 0.500000 0.000000 0.818768
#
# Coordination Sequence:
#
# PCOD9395164 Si02
#       8
#     8   8   8   8   4   8   8   2
#     4  12  27  45  70 105 150 205 256 309 382 449
#     4  12  27  44  77 108 145 194 258 309 365 460
#     4  12  24  47  77 101 141 191 236 304 370 447
#     4  12  27  46  71 105 146 188 250 313 370 437
#     4  12  26  46  76 112 150 186 240 304 378 460
#     4  11  25  48  72 105 148 191 238 310 380 436
#     4  12  25  47  73 106 145 190 239 291 370 440
#     4  12  26  44  72 102 156 204 254 316 382 444
#
# _framework density 21.467434999999998
#
# number of rings (size 3 to 8) (size 9 to 14) (size 15 to 20)
#    0.000    0.148    3.704    5.556    3.111    3.556 
#    0.000    0.000    0.000    0.000    0.000    0.000 
#    0.000    0.000    0.000    0.000    0.000    0.000 
#
# Total GULP energy -301049.364305 kJ/mol
# GULP energy per Si atom -5574.988228 kJ/mol
# Density = 2.141857 g / cm^3
# Si number density = 21.467435 Si / 1000 Ang^3
#
#
#
# Elastic Constant Matrix: (Units=GPa)
#
#
# Indices 1 2 3 4 5 6 
#
# 1 124.0263 55.0568 8.6471 0.0000 0.0000 0.0000
# 2 55.0568 160.2433 34.8518 0.0000 0.0000 0.0000
# 3 8.6471 34.8518 128.1056 0.0000 0.0000 0.0000
# 4 0.0000 0.0000 0.0000 51.9122 0.0000 0.0000
# 5 0.0000 0.0000 0.0000 0.0000 -14.7316 0.0000
# 6 0.0000 0.0000 0.0000 0.0000 0.0000 43.8772
#
#
#
# Elastic Compliance Matrix: (Units=1/GPa)
#
#
# Indices 1 2 3 4 5 6 
#
# 1 0.009522 -0.003329 0.000263 0.000000 0.000000 0.000000
# 2 -0.003329 0.007797 -0.001896 0.000000 0.000000 0.000000
# 3 0.000263 -0.001896 0.008304 0.000000 0.000000 0.000000
# 4 0.000000 0.000000 0.000000 0.019263 0.000000 0.000000
# 5 0.000000 0.000000 0.000000 0.000000 -0.067881 0.000000
# 6 0.000000 0.000000 0.000000 0.000000 0.000000 0.022791
#
#
# Mechanical properties :
#
#
# Convention : Reuss Voigt Hill
#
# Bulk Modulus (GPa) = 63.70092 67.72073 65.71082
# Shear Modulus (GPa) = 334.36620 37.13285 185.74952
#
# Velocity S-wave (km/s) = 12.49373 4.16351 9.31204
# Velocity P-wave (km/s) = 15.42277 7.39780 12.09523
#
# Compressibility (1/GPa) = 0.01569836
#
# Stress axis : x y z
#
# Youngs Moduli (GPa) = 105.01783 128.25934 120.42030
#
# Poissons Ratio (x) = 0.42695 -0.03166
# Poissons Ratio (y) = 0.34959 0.22837
# Poissons Ratio (z) = -0.02761 0.24324
#
# Static dielectric constant tensor:
#      x y z
#    x 1.853200 0.000000 0.000000 
#    y 0.000000 1.724440 0.000000 
#    z 0.000000 0.000000 1.810330 
# 
# From -- ./inp_files/25847.got.cif
#   From: 2010.05.17/outbox.cif.g08.bks.cpg/sg49_13_cif.got.tgz:25847.got - 2010.06.03 21:02:19.
