data_PCOD9395086
_publ_section_title
;
Structure prediction by ZEFSAII (Michael W. Deem and Ramdas Pophale) SiO2 
 PCOD9395086
Probable space group: P C C M
;
_chemical_formula_sum "Si O2"
_cell_formula_units_Z 34
_cell_length_a 5.348378
_cell_length_b 20.844936
_cell_length_c 15.548645
_cell_angle_alpha 90.000000
_cell_angle_beta 90.000000
_cell_angle_gamma 90.000000
_cell_volume 1733.465521
_symmetry_space_group_name_H-M "P C C M"
_symmetry_group_IT_number 49
_symmetry_cell_setting 'orthorhombic'
loop_
_space_group_symop_operation_xyz
x,y,z
-x,-y,z
x,-y,1/2-z
-x,y,1/2-z
-x,-y,-z
x,y,-z
-x,y,1/2+z
x,-y,1/2+z
loop_
_atom_site_type_symbol
_atom_site_label
_atom_site_fract_x
_atom_site_fract_y
_atom_site_fract_z
Si Si1 0.538992 0.148969 0.346848
Si Si2 0.500000 0.500000 0.750000
Si Si3 0.978528 0.665618 0.500000
Si Si4 0.519869 0.749467 0.000000
Si Si5 0.036613 0.074877 0.603537
Si Si6 0.892207 0.429412 0.156631
O O1 0.500000 0.172725 0.250000
O O2 0.535780 0.205364 0.416470
O O3 0.306337 0.101503 0.367759
O O4 0.805009 0.113318 0.355800
O O5 0.385677 0.550861 0.817833
O O6 0.748326 0.715098 0.500000
O O7 0.944888 0.620954 0.416385
O O8 0.246081 0.700753 0.500000
O O9 0.020571 0.082330 0.500000
O O10 0.000000 0.000000 0.624147
O O11 0.000000 0.500000 0.134584
O O12 0.000000 0.410082 0.250000
#
# Coordination Sequence:
#
# PCOD9395086 Si02
#       6
#     8   2   4   4   8   8
#     4  12  25  45  69  91 135 176 220 273 328 390
#     4   8  18  38  68  94 140 162 194 266 340 404
#     4  12  27  41  70  92 129 174 224 269 303 396
#     4  12  28  46  61  94 130 176 232 263 313 370
#     4  11  22  41  72 103 133 166 209 277 342 398
#     4   9  21  40  66 100 133 162 206 265 338 383
#
# _framework density 19.613889
#
# number of rings (size 3 to 8) (size 9 to 14) (size 15 to 20)
#    0.000    1.412    2.353    3.176    6.588    7.059 
#    0.000    0.000    0.000    0.000    0.000    0.000 
#    0.000    0.000    0.000    0.000    0.000    0.000 
#
# Total GULP energy -189681.692343 kJ/mol
# GULP energy per Si atom -5578.873304 kJ/mol
# Density = 1.956925 g / cm^3
# Si number density = 19.613889 Si / 1000 Ang^3
#
#
#
# Elastic Constant Matrix: (Units=GPa)
#
#
# Indices 1 2 3 4 5 6 
#
# 1 63.9279 -0.9079 -6.4683 0.0000 0.0000 0.0000
# 2 -0.9079 61.2891 45.5737 0.0000 0.0000 0.0000
# 3 -6.4683 45.5737 117.1280 0.0000 0.0000 0.0000
# 4 0.0000 0.0000 0.0000 -20.2171 0.0000 0.0000
# 5 0.0000 0.0000 0.0000 0.0000 57.4463 0.0000
# 6 0.0000 0.0000 0.0000 0.0000 0.0000 59.7146
#
#
#
# Elastic Compliance Matrix: (Units=1/GPa)
#
#
# Indices 1 2 3 4 5 6 
#
# 1 0.015745 -0.000582 0.001096 0.000000 0.000000 0.000000
# 2 -0.000582 0.022980 -0.008973 0.000000 0.000000 0.000000
# 3 0.001096 -0.008973 0.012090 0.000000 0.000000 0.000000
# 4 0.000000 0.000000 0.000000 -0.049463 0.000000 0.000000
# 5 0.000000 0.000000 0.000000 0.000000 0.017408 0.000000
# 6 0.000000 0.000000 0.000000 0.000000 0.000000 0.016746
#
#
# Mechanical properties :
#
#
# Convention : Reuss Voigt Hill
#
# Bulk Modulus (GPa) = 29.50161 35.41556 32.45859
# Shear Modulus (GPa) = 78.46440 32.99859 55.73149
#
# Velocity S-wave (km/s) = 6.33177 4.10617 5.33629
# Velocity P-wave (km/s) = 8.27822 6.36996 7.38598
#
# Compressibility (1/GPa) = 0.03389645
#
# Stress axis : x y z
#
# Youngs Moduli (GPa) = 63.51129 43.51601 82.71499
#
# Poissons Ratio (x) = 0.02531 -0.09064
# Poissons Ratio (y) = 0.03694 0.74224
# Poissons Ratio (z) = -0.06960 0.39049
#
# Static dielectric constant tensor:
#      x y z
#    x 1.742100 0.000000 0.000000 
#    y 0.000000 1.648890 0.000000 
#    z 0.000000 0.000000 1.663070 
# 
# From -- ./inp_files/10644.got.cif
#   From: 2010.05.17/outbox.cif.g08.bks.cpg/sg49_6_cif.got.tgz:10644.got - 2010.06.03 21:02:19.
