data_PCOD9395159
_publ_section_title
;
Structure prediction by ZEFSAII (Michael W. Deem and Ramdas Pophale) SiO2 
 PCOD9395159
Probable space group: P C C M
;
_chemical_formula_sum "Si O2"
_cell_formula_units_Z 30
_cell_length_a 8.911351
_cell_length_b 10.070174
_cell_length_c 13.625788
_cell_angle_alpha 90.000000
_cell_angle_beta 90.000000
_cell_angle_gamma 90.000000
_cell_volume 1222.762616
_symmetry_space_group_name_H-M "P C C M"
_symmetry_group_IT_number 49
_symmetry_cell_setting 'orthorhombic'
loop_
_space_group_symop_operation_xyz
x,y,z
-x,-y,z
x,-y,1/2-z
-x,y,1/2-z
-x,-y,-z
x,y,-z
-x,y,1/2+z
x,-y,1/2+z
loop_
_atom_site_type_symbol
_atom_site_label
_atom_site_fract_x
_atom_site_fract_y
_atom_site_fract_z
Si Si1 0.667445 0.434998 0.500000
Si Si2 0.328092 0.976465 0.000000
Si Si3 0.838124 0.875060 0.323703
Si Si4 0.332271 0.652358 0.716531
Si Si5 0.938294 0.186567 0.500000
Si Si6 0.000000 0.500000 0.500000
O O1 0.500000 0.500000 0.500000
O O2 0.673182 0.351001 0.599692
O O3 0.811817 0.534755 0.500000
O O4 0.500000 0.000000 0.000000
O O5 0.293806 0.897959 0.099082
O O6 0.214375 0.101710 0.000000
O O7 0.795263 0.745175 0.261849
O O8 0.975525 0.855323 0.399503
O O9 0.844991 0.000000 0.250000
O O10 0.308064 0.500000 0.750000
O O11 0.500000 0.691512 0.750000
O O12 0.952234 0.345078 0.500000
#
# Coordination Sequence:
#
# PCOD9395159 Si02
#       6
#     4   4   8   8   4   2
#     4  12  26  53  84 122 183 223 296 380 450 558
#     4  11  29  54  83 120 166 227 292 372 441 547
#     4  11  27  50  83 117 167 222 287 355 448 536
#     4  11  25  46  83 123 167 236 290 364 462 527
#     4  11  28  57  83 123 172 229 297 379 458 536
#     4  12  30  52  88 132 164 232 300 372 466 536
#
# _framework density 24.534607999999999
#
# number of rings (size 3 to 8) (size 9 to 14) (size 15 to 20)
#    0.000    0.800    2.667    3.200    7.467    5.333 
#    0.000    4.667    0.000    0.000    0.000    0.000 
#    0.000    0.000    0.000    0.000    0.000    0.000 
#
# Total GULP energy -167524.043679 kJ/mol
# GULP energy per Si atom -5584.134789 kJ/mol
# Density = 2.447877 g / cm^3
# Si number density = 24.534608 Si / 1000 Ang^3
#
#
#
# Elastic Constant Matrix: (Units=GPa)
#
#
# Indices 1 2 3 4 5 6 
#
# 1 191.9481 37.6689 64.6268 0.0000 0.0000 0.0000
# 2 37.6689 138.3377 55.1428 0.0000 0.0000 0.0000
# 3 64.6268 55.1428 218.7377 0.0000 0.0000 0.0000
# 4 0.0000 0.0000 0.0000 31.8588 0.0000 0.0000
# 5 0.0000 0.0000 0.0000 0.0000 -39.2730 0.0000
# 6 0.0000 0.0000 0.0000 0.0000 0.0000 29.8438
#
#
#
# Elastic Compliance Matrix: (Units=1/GPa)
#
#
# Indices 1 2 3 4 5 6 
#
# 1 0.005911 -0.001015 -0.001490 0.000000 0.000000 0.000000
# 2 -0.001015 0.008211 -0.001770 0.000000 0.000000 0.000000
# 3 -0.001490 -0.001770 0.005458 0.000000 0.000000 0.000000
# 4 0.000000 0.000000 0.000000 0.031389 0.000000 0.000000
# 5 0.000000 0.000000 0.000000 0.000000 -0.025463 0.000000
# 6 0.000000 0.000000 0.000000 0.000000 0.000000 0.033508
#
#
# Mechanical properties :
#
#
# Convention : Reuss Voigt Hill
#
# Bulk Modulus (GPa) = 90.67541 95.98895 93.33218
# Shear Modulus (GPa) = 70.18463 30.59157 50.38810
#
# Velocity S-wave (km/s) = 5.35430 3.53494 4.53675
# Velocity P-wave (km/s) = 8.67543 7.47462 8.09731
#
# Compressibility (1/GPa) = 0.01102835
#
# Stress axis : x y z
#
# Youngs Moduli (GPa) = 169.18157 121.79274 183.21055
#
# Poissons Ratio (x) = 0.12367 0.27306
# Poissons Ratio (y) = 0.17179 0.32426
# Poissons Ratio (z) = 0.25215 0.21556
#
# Static dielectric constant tensor:
#      x y z
#    x 2.093170 0.000000 0.000000 
#    y 0.000000 1.991520 0.000000 
#    z 0.000000 0.000000 2.048060 
# 
# From -- ./inp_files/11280.got.cif
#   From: 2010.05.17/outbox.cif.g08.bks.cpg/sg49_6_cif.got.tgz:11280.got - 2010.06.03 21:02:19.
