data_PCOD9395425
_publ_section_title
;
Structure prediction by ZEFSAII (Michael W. Deem and Ramdas Pophale) SiO2 
 PCOD9395425
Probable space group: P B A N
;
_chemical_formula_sum "Si O2"
_cell_formula_units_Z 56
_cell_length_a 5.514821
_cell_length_b 18.532343
_cell_length_c 25.200823
_cell_angle_alpha 90.000000
_cell_angle_beta 90.000000
_cell_angle_gamma 90.000000
_cell_volume 2575.588482
_symmetry_space_group_name_H-M "P B A N"
_symmetry_group_IT_number 50
_space_group.IT_coordinate_system_code '2'
_symmetry_cell_setting 'orthorhombic'
loop_
_space_group_symop_operation_xyz
x,y,z
1/2-x,1/2-y,z
x,1/2-y,-z
1/2-x,y,-z
-x,-y,-z
1/2+x,1/2+y,-z
-x,1/2+y,z
1/2+x,-y,z
loop_
_atom_site_type_symbol
_atom_site_label
_atom_site_fract_x
_atom_site_fract_y
_atom_site_fract_z
Si Si1 0.094187 0.504979 0.735935
Si Si2 0.507026 0.167026 0.021709
Si Si3 0.260181 0.542930 0.437343
Si Si4 0.804080 0.333115 0.141785
Si Si5 0.378467 0.857945 0.657510
Si Si6 0.703936 0.668160 0.820659
Si Si7 0.881306 0.846451 0.696978
O O1 0.344723 0.502191 0.767033
O O2 0.100572 0.575159 0.699444
O O3 0.103228 0.434554 0.697636
O O4 0.568409 0.168020 0.084018
O O5 0.506111 0.250000 0.000000
O O6 0.750000 0.129864 0.000000
O O7 0.250000 0.137533 0.000000
O O8 0.250000 0.559567 0.500000
O O9 0.491932 0.490089 0.426354
O O10 0.321882 0.610302 0.400192
O O11 0.750000 0.250000 0.158095
O O12 0.529840 0.364027 0.148154
O O13 0.024072 0.364902 0.176507
O O14 0.642190 0.824062 0.665277
O O15 0.133893 0.818811 0.674902
O O16 0.750000 0.750000 0.840919
O O17 0.636488 0.672004 0.759002
#
# Coordination Sequence:
#
# PCOD9395425 Si02
#       7
#     8   8   8   8   8   8   8
#     4   8  14  23  39  58  77 100 134 171 203 243
#     4  10  17  24  41  61  79  99 143 183 198 253
#     4  10  18  27  41  65  97 125 142 166 214 274
#     4  10  18  30  41  58  83 113 141 186 217 249
#     4  10  17  28  45  63  86 112 147 178 213 261
#     4  10  21  31  43  57  85 118 152 186 221 258
#     4  10  18  29  43  60  80 113 154 185 211 252
#
# _framework density 21.742605999999999
#
# number of rings (size 3 to 8) (size 9 to 14) (size 15 to 20)
#    0.000    2.286    1.429    5.143    4.000    0.000 
#    0.000    0.000    0.000    0.000    0.000    0.000 
#    0.000    3.429    0.000    0.000    0.000  450.000 
#
# Total GULP energy -311778.474256 kJ/mol
# GULP energy per Si atom -5567.472755 kJ/mol
# Density = 2.169312 g / cm^3
# Si number density = 21.742606 Si / 1000 Ang^3
#
#
#
# Elastic Constant Matrix: (Units=GPa)
#
#
# Indices 1 2 3 4 5 6 
#
# 1 285.2863 24.2064 53.2315 0.0000 0.0000 0.0000
# 2 24.2064 42.3011 6.8447 0.0000 0.0000 0.0000
# 3 53.2315 6.8447 103.7806 0.0000 0.0000 0.0000
# 4 0.0000 0.0000 0.0000 6.9557 0.0000 0.0000
# 5 0.0000 0.0000 0.0000 0.0000 42.9158 0.0000
# 6 0.0000 0.0000 0.0000 0.0000 0.0000 19.7246
#
#
#
# Elastic Compliance Matrix: (Units=1/GPa)
#
#
# Indices 1 2 3 4 5 6 
#
# 1 0.004036 -0.001996 -0.001939 0.000000 0.000000 0.000000
# 2 -0.001996 0.024882 -0.000617 0.000000 0.000000 0.000000
# 3 -0.001939 -0.000617 0.010671 0.000000 0.000000 0.000000
# 4 0.000000 0.000000 0.000000 0.143767 0.000000 0.000000
# 5 0.000000 0.000000 0.000000 0.000000 0.023301 0.000000
# 6 0.000000 0.000000 0.000000 0.000000 0.000000 0.050698
#
#
# Mechanical properties :
#
#
# Convention : Reuss Voigt Hill
#
# Bulk Modulus (GPa) = 32.80262 66.65922 49.73092
# Shear Modulus (GPa) = 18.07525 37.05825 27.56675
#
# Velocity S-wave (km/s) = 2.88640 4.13293 3.56458
# Velocity P-wave (km/s) = 5.12133 7.31435 6.31378
#
# Compressibility (1/GPa) = 0.03048537
#
# Stress axis : x y z
#
# Youngs Moduli (GPa) = 247.74825 40.18941 93.71349
#
# Poissons Ratio (x) = 0.08022 0.18168
# Poissons Ratio (y) = 0.49452 0.05784
# Poissons Ratio (z) = 0.48031 0.02481
#
# Static dielectric constant tensor:
#      x y z
#    x 1.956580 0.000000 0.000000 
#    y 0.000000 0.931140 0.000000 
#    z 0.000000 0.000000 1.785370 
# 
# From -- ./inp_files/30477.got.cif
#   From: 2010.05.17/outbox.cif.g08.bks.cpg/sg50_16_cif.got.tgz:30477.got - 2010.06.03 11:33:33.
