data_PCOD9395325
_publ_section_title
;
Structure prediction by ZEFSAII (Michael W. Deem and Ramdas Pophale) SiO2 
 PCOD9395325
Probable space group: P C C M
;
_chemical_formula_sum "Si O2"
_cell_formula_units_Z 48
_cell_length_a 9.000000
_cell_length_b 9.000000
_cell_length_c 30.000000
_cell_angle_alpha 90.000000
_cell_angle_beta 90.000000
_cell_angle_gamma 90.000000
_cell_volume 2430.000000
_symmetry_space_group_name_H-M "P C C M"
_symmetry_group_IT_number 49
_symmetry_cell_setting 'orthorhombic'
loop_
_space_group_symop_operation_xyz
x,y,z
-x,-y,z
x,-y,1/2-z
-x,y,1/2-z
-x,-y,-z
x,y,-z
-x,y,1/2+z
x,-y,1/2+z
loop_
_atom_site_type_symbol
_atom_site_label
_atom_site_fract_x
_atom_site_fract_y
_atom_site_fract_z
Si Si1 0.169397 0.522242 0.903413
Si Si2 0.548950 0.755343 0.500000
Si Si3 0.500000 0.744140 0.750000
Si Si4 0.375188 0.320219 0.153576
Si Si5 0.834269 0.958902 0.848103
Si Si6 0.258085 0.000000 0.750000
Si Si7 0.647811 0.811451 0.404110
Si Si8 0.268373 0.442192 0.000000
O O1 0.297073 0.459823 0.870136
O O2 0.217614 0.693098 0.907851
O O3 0.183314 0.446905 0.952640
O O4 0.000000 0.500000 0.887564
O O5 0.592566 0.838325 0.454574
O O6 0.379407 0.698080 0.500000
O O7 0.638320 0.597160 0.500000
O O8 0.554715 0.664823 0.796206
O O9 0.636788 0.856745 0.742177
O O10 0.236290 0.205379 0.151800
O O11 0.508178 0.257175 0.122864
O O12 0.831205 0.993422 0.795522
O O13 0.714534 0.053214 0.876225
O O14 0.000000 0.000000 0.864561
#
# Coordination Sequence:
#
# PCOD9395325 Si02
#       8
#     8   4   4   8   8   4   8   4
#     4  11  22  37  60  91 123 155 194 249 304 354
#     4   9  18  34  59  85 114 156 204 246 281 353
#     4   9  18  34  59  84 108 145 201 240 278 347
#     4  11  21  38  62  85 116 157 199 242 293 355
#     4  11  22  37  59  88 119 150 190 247 303 354
#     4   9  17  34  60  84 108 146 196 238 284 346
#     4  11  21  39  61  86 117 157 202 241 291 350
#     4   9  17  34  59  86 115 155 204 242 288 353
#
# _framework density 19.753086
#
# number of rings (size 3 to 8) (size 9 to 14) (size 15 to 20)
#    0.000    1.667    3.333    2.500    0.000    0.000 
#    0.000    4.583    0.000    1.000    0.000    0.000 
#    0.000    0.000    0.000    0.000    0.000    0.000 
#
# Total GULP energy -267589.652991 kJ/mol
# GULP energy per Si atom -5574.784437 kJ/mol
# Density = 1.970813 g / cm^3
# Si number density = 19.753086 Si / 1000 Ang^3
#
#
#
# Elastic Constant Matrix: (Units=GPa)
#
#
# Indices 1 2 3 4 5 6 
#
# 1 93.3205 9.1550 12.1607 0.0000 0.0000 0.0000
# 2 9.1550 57.8624 21.3431 0.0000 0.0000 0.0000
# 3 12.1607 21.3431 132.1608 0.0000 0.0000 0.0000
# 4 0.0000 0.0000 0.0000 18.9007 0.0000 0.0000
# 5 0.0000 0.0000 0.0000 0.0000 30.9519 0.0000
# 6 0.0000 0.0000 0.0000 0.0000 0.0000 19.3279
#
#
#
# Elastic Compliance Matrix: (Units=1/GPa)
#
#
# Indices 1 2 3 4 5 6 
#
# 1 0.010959 -0.001448 -0.000774 0.000000 0.000000 0.000000
# 2 -0.001448 0.018568 -0.002865 0.000000 0.000000 0.000000
# 3 -0.000774 -0.002865 0.008101 0.000000 0.000000 0.000000
# 4 0.000000 0.000000 0.000000 0.052908 0.000000 0.000000
# 5 0.000000 0.000000 0.000000 0.000000 0.032308 0.000000
# 6 0.000000 0.000000 0.000000 0.000000 0.000000 0.051739
#
#
# Mechanical properties :
#
#
# Convention : Reuss Voigt Hill
#
# Bulk Modulus (GPa) = 36.42786 40.96235 38.69511
# Shear Modulus (GPa) = 25.78520 29.88175 27.83347
#
# Velocity S-wave (km/s) = 3.61692 3.89365 3.75783
# Velocity P-wave (km/s) = 5.99370 6.40283 6.20164
#
# Compressibility (1/GPa) = 0.02745152
#
# Stress axis : x y z
#
# Youngs Moduli (GPa) = 91.25123 53.85476 123.44840
#
# Poissons Ratio (x) = 0.07799 0.09561
# Poissons Ratio (y) = 0.13215 0.35373
# Poissons Ratio (z) = 0.07067 0.15432
#
# Static dielectric constant tensor:
#      x y z
#    x 1.675470 0.000000 0.000000 
#    y 0.000000 1.747920 0.000000 
#    z 0.000000 0.000000 1.730560 
# 
# From -- ./inp_files/26355.got.cif
#   From: 2010.05.17/outbox.ucp.g08.bks.cvg/sg49_14_cif.got.tgz:26355.got - 2010.06.11 16:40:14.
