data_PCOD9395182
_publ_section_title
;
Structure prediction by ZEFSAII (Michael W. Deem and Ramdas Pophale) SiO2 
 PCOD9395182
Probable space group: P C C M
;
_chemical_formula_sum "Si O2"
_cell_formula_units_Z 48
_cell_length_a 17.603316
_cell_length_b 9.778102
_cell_length_c 14.653914
_cell_angle_alpha 90.000000
_cell_angle_beta 90.000000
_cell_angle_gamma 90.000000
_cell_volume 2522.334539
_symmetry_space_group_name_H-M "P C C M"
_symmetry_group_IT_number 49
_symmetry_cell_setting 'orthorhombic'
loop_
_space_group_symop_operation_xyz
x,y,z
-x,-y,z
x,-y,1/2-z
-x,y,1/2-z
-x,-y,-z
x,y,-z
-x,y,1/2+z
x,-y,1/2+z
loop_
_atom_site_type_symbol
_atom_site_label
_atom_site_fract_x
_atom_site_fract_y
_atom_site_fract_z
Si Si1 0.408820 0.999999 0.601201
Si Si2 0.590031 0.227600 0.749999
Si Si3 0.168727 0.836825 0.390525
Si Si4 0.256316 0.344741 0.250001
Si Si5 0.000000 0.841489 0.389686
Si Si6 0.168726 0.836826 0.109475
O O1 0.374350 0.000002 0.500000
O O2 0.392668 0.867866 0.662273
O O3 0.500000 0.000000 0.592502
O O4 0.392667 0.132128 0.662277
O O5 0.500000 0.261560 0.750000
O O6 0.652281 0.344052 0.750002
O O7 0.176037 0.824323 0.500000
O O8 0.226120 0.742016 0.336099
O O9 0.082977 0.789717 0.362742
O O10 0.177263 1.000000 0.369415
O O11 0.228063 0.500000 0.250000
O O12 0.226120 0.257985 0.336100
O O13 0.000000 0.838385 0.500000
O O14 0.917024 0.789717 0.362742
O O15 0.000000 0.000000 0.362193
O O16 0.176036 0.824324 0.000000
#
# Coordination Sequence:
#
# PCOD9395182 Si02
#       6
#     8   8   8   8   8   8
#     4   8  15  31  58  87 107 124 161 228 291 329
#     4   9  20  37  55  78 108 143 186 227 270 332
#     4   9  19  37  62  86 110 144 187 235 280 327
#     4  12  26  38  51  79 119 154 188 229 275 333
#     4   7  12  29  57  86 109 135 180 232 279 325
#     4   9  19  37  62  86 110 144 187 235 280 327
#
# _framework density 19.029990000000002
#
# number of rings (size 3 to 8) (size 9 to 14) (size 15 to 20)
#    0.000    3.000    0.000    3.500    4.667    3.000 
#    0.000    4.167    0.000    3.000    0.000    7.000 
#    0.000    0.000    0.000    0.000    0.000    0.000 
#
# Total GULP energy -267368.242080 kJ/mol
# GULP energy per Si atom -5570.171710 kJ/mol
# Density = 1.898668 g / cm^3
# Si number density = 19.029990 Si / 1000 Ang^3
#
#
#
# Elastic Constant Matrix: (Units=GPa)
#
#
# Indices 1 2 3 4 5 6 
#
# 1 122.7132 51.8054 27.9143 0.0000 0.0000 0.0000
# 2 51.8054 89.6980 41.4522 0.0000 0.0000 0.0000
# 3 27.9143 41.4522 112.3944 0.0000 0.0000 0.0000
# 4 0.0000 0.0000 0.0000 15.7484 0.0000 0.0000
# 5 0.0000 0.0000 0.0000 0.0000 21.5390 0.0000
# 6 0.0000 0.0000 0.0000 0.0000 0.0000 9.2411
#
#
#
# Elastic Compliance Matrix: (Units=1/GPa)
#
#
# Indices 1 2 3 4 5 6 
#
# 1 0.010796 -0.006023 -0.000460 0.000000 0.000000 0.000000
# 2 -0.006023 0.016799 -0.004700 0.000000 0.000000 0.000000
# 3 -0.000460 -0.004700 0.010745 0.000000 0.000000 0.000000
# 4 0.000000 0.000000 0.000000 0.063499 0.000000 0.000000
# 5 0.000000 0.000000 0.000000 0.000000 0.046427 0.000000
# 6 0.000000 0.000000 0.000000 0.000000 0.000000 0.108212
#
#
# Mechanical properties :
#
#
# Convention : Reuss Voigt Hill
#
# Bulk Modulus (GPa) = 62.59904 63.01660 62.80782
# Shear Modulus (GPa) = 17.59518 22.88128 20.23823
#
# Velocity S-wave (km/s) = 3.04403 3.47130 3.26466
# Velocity P-wave (km/s) = 6.73210 7.01803 6.87655
#
# Compressibility (1/GPa) = 0.01597469
#
# Stress axis : x y z
#
# Youngs Moduli (GPa) = 92.62349 59.52753 93.06791
#
# Poissons Ratio (x) = 0.35853 0.04282
# Poissons Ratio (y) = 0.55786 0.43740
# Poissons Ratio (z) = 0.04262 0.27977
#
# Static dielectric constant tensor:
#      x y z
#    x 1.720660 0.000000 0.000000 
#    y 0.000000 1.602210 0.000000 
#    z 0.000000 0.000000 1.711770 
# 
# From -- ./inp_files/14023.got.cif
#   From: 2010.05.17/outbox.cif.g08.bks.cpg/sg49_8_cif.got.tgz:14023.got - 2010.06.03 21:02:19.
