data_PCOD9395173
_publ_section_title
;
Structure prediction by ZEFSAII (Michael W. Deem and Ramdas Pophale) SiO2 
 PCOD9395173
Probable space group: P C C M
;
_chemical_formula_sum "Si O2"
_cell_formula_units_Z 48
_cell_length_a 16.362649
_cell_length_b 9.806278
_cell_length_c 14.127406
_cell_angle_alpha 90.000000
_cell_angle_beta 90.000000
_cell_angle_gamma 90.000000
_cell_volume 2266.836733
_symmetry_space_group_name_H-M "P C C M"
_symmetry_group_IT_number 49
_symmetry_cell_setting 'orthorhombic'
loop_
_space_group_symop_operation_xyz
x,y,z
-x,-y,z
x,-y,1/2-z
-x,y,1/2-z
-x,-y,-z
x,y,-z
-x,y,1/2+z
x,-y,1/2+z
loop_
_atom_site_type_symbol
_atom_site_label
_atom_site_fract_x
_atom_site_fract_y
_atom_site_fract_z
Si Si1 0.848607 0.730970 0.890322
Si Si2 0.388056 0.106159 0.608108
Si Si3 0.803358 0.408697 0.890505
Si Si4 0.020215 0.654634 0.885263
Si Si5 0.563730 0.212531 0.391296
Si Si6 0.295138 0.744732 0.257013
O O1 0.828338 0.567857 0.888846
O O2 0.942498 0.744480 0.855659
O O3 0.778194 0.790422 0.825293
O O4 0.842513 0.775524 0.000000
O O5 0.364787 0.135919 0.500000
O O6 0.467527 0.200094 0.631435
O O7 0.320844 0.138696 0.684264
O O8 0.410985 0.947408 0.612207
O O9 0.735650 0.373110 0.813892
O O10 0.885158 0.323863 0.861949
O O11 0.781932 0.377787 0.000000
O O12 0.000000 0.500000 0.855306
O O13 0.017106 0.655170 0.000000
O O14 0.572754 0.259618 0.500000
O O15 0.626316 0.288054 0.322371
#
# Coordination Sequence:
#
# PCOD9395173 Si02
#       6
#     8   8   8   8   8   8
#     4   9  18  31  46  68 100 134 165 196 229 268
#     4   9  19  36  55  73  93 117 148 191 243 294
#     4   9  18  31  46  68 100 134 165 196 229 268
#     4   7  12  27  47  63  88 129 168 199 231 264
#     4   9  19  36  55  73  93 117 148 191 243 294
#     4  12  19  26  47  79 103 120 148 193 243 286
#
# _framework density 21.174880999999999
#
# number of rings (size 3 to 8) (size 9 to 14) (size 15 to 20)
#    0.000    2.833    0.000    5.500    0.000    2.000 
#    0.000    2.500    0.000    8.000    0.000   28.000 
#    0.000   26.667    0.000    0.000    0.000    0.000 
#
# Total GULP energy -267645.687172 kJ/mol
# GULP energy per Si atom -5575.951816 kJ/mol
# Density = 2.112669 g / cm^3
# Si number density = 21.174881 Si / 1000 Ang^3
#
#
#
# Elastic Constant Matrix: (Units=GPa)
#
#
# Indices 1 2 3 4 5 6 
#
# 1 107.4701 24.2029 80.6564 0.0000 0.0000 0.0000
# 2 24.2029 5.6982 20.0934 0.0000 0.0000 0.0000
# 3 80.6564 20.0934 125.9194 0.0000 0.0000 0.0000
# 4 0.0000 0.0000 0.0000 23.6997 0.0000 0.0000
# 5 0.0000 0.0000 0.0000 0.0000 32.3185 0.0000
# 6 0.0000 0.0000 0.0000 0.0000 0.0000 17.6474
#
#
#
# Elastic Compliance Matrix: (Units=1/GPa)
#
#
# Indices 1 2 3 4 5 6 
#
# 1 0.234275 -1.065452 0.019956 0.000000 0.000000 0.000000
# 2 -1.065452 5.246867 -0.154796 0.000000 0.000000 0.000000
# 3 0.019956 -0.154796 0.019861 0.000000 0.000000 0.000000
# 4 0.000000 0.000000 0.000000 0.042195 0.000000 0.000000
# 5 0.000000 0.000000 0.000000 0.000000 0.030942 0.000000
# 6 0.000000 0.000000 0.000000 0.000000 0.000000 0.056665
#
#
# Mechanical properties :
#
#
# Convention : Reuss Voigt Hill
#
# Bulk Modulus (GPa) = 0.32254 54.33257 27.32756
# Shear Modulus (GPa) = 0.55158 22.34212 11.44685
#
# Velocity S-wave (km/s) = 0.51093 3.25179 2.32757
# Velocity P-wave (km/s) = 0.70762 6.30980 4.48967
#
# Compressibility (1/GPa) = 3.10041767
#
# Stress axis : x y z
#
# Youngs Moduli (GPa) = 4.26850 0.19059 50.35119
#
# Poissons Ratio (x) = 0.20306 -1.00479
# Poissons Ratio (y) = 4.54788 7.79416
# Poissons Ratio (z) = -0.08518 0.02950
#
# Static dielectric constant tensor:
#      x y z
#    x 1.831380 0.000000 0.000000 
#    y 0.000000 1.766780 0.000000 
#    z 0.000000 0.000000 1.800970 
# 
# From -- ./inp_files/12802.got.cif
#   From: 2010.05.17/outbox.cif.g08.bks.cpg/sg49_7_cif.got.tgz:12802.got - 2010.06.03 21:02:19.
