data_PCOD9395913
_publ_section_title
;
Structure prediction by ZEFSAII (Michael W. Deem and Ramdas Pophale) SiO2 
 PCOD9395913
Probable space group: P B A N
;
_chemical_formula_sum "Si O2"
_cell_formula_units_Z 48
_cell_length_a 8.023671
_cell_length_b 18.655470
_cell_length_c 12.847651
_cell_angle_alpha 90.000000
_cell_angle_beta 90.000000
_cell_angle_gamma 90.000000
_cell_volume 1923.105183
_symmetry_space_group_name_H-M "P B A N"
_symmetry_group_IT_number 50
_space_group.IT_coordinate_system_code '2'
_symmetry_cell_setting 'orthorhombic'
loop_
_space_group_symop_operation_xyz
x,y,z
1/2-x,1/2-y,z
x,1/2-y,-z
1/2-x,y,-z
-x,-y,-z
1/2+x,1/2+y,-z
-x,1/2+y,z
1/2+x,-y,z
loop_
_atom_site_type_symbol
_atom_site_label
_atom_site_fract_x
_atom_site_fract_y
_atom_site_fract_z
Si Si1 0.456062 0.890170 0.077870
Si Si2 0.277504 0.323598 0.221281
Si Si3 0.750000 0.250000 0.500000
Si Si4 0.701042 0.468188 0.380075
Si Si5 0.529310 0.653170 0.576075
Si Si6 0.250000 0.750000 0.000000
Si Si7 0.750000 0.511917 0.000000
Si Si8 0.966752 0.608538 0.661937
O O1 0.583459 0.873251 0.171204
O O2 0.310089 0.951490 0.086628
O O3 0.373046 0.811792 0.052578
O O4 0.591489 0.933501 0.005548
O O5 0.250000 0.250000 0.161340
O O6 0.346995 0.314707 0.339894
O O7 0.086861 0.346158 0.240300
O O8 0.634229 0.297758 0.427871
O O9 0.750000 0.481151 0.500000
O O10 0.530237 0.424325 0.386456
O O11 0.660768 0.542688 0.329535
O O12 0.847800 0.420847 0.334356
O O13 0.564392 0.643359 0.452620
#
# Coordination Sequence:
#
# PCOD9395913 Si02
#       8
#     8   8   2   8   8   2   4   8
#     4  10  24  47  77 112 141 182 225 289 355 443
#     4  12  27  40  61 103 139 179 231 287 339 416
#     4  12  20  38  62  80 116 198 236 276 330 380
#     4  10  19  35  61  83 114 177 246 288 334 392
#     4  11  22  38  60  86 133 187 236 283 337 394
#     4  10  24  48  80 110 140 190 216 282 382 446
#     4   9  22  50  84 107 142 176 230 281 372 446
#     4  11  21  40  58  92 131 183 233 286 342 395
#
# _framework density 24.959633
#
# number of rings (size 3 to 8) (size 9 to 14) (size 15 to 20)
#    0.000    1.333    2.500    5.500    2.333    4.000 
#    0.000    0.000    0.000    0.000    0.000    0.000 
#    0.000    0.000    0.000    0.000    0.000    0.000 
#
# Total GULP energy -267372.268628 kJ/mol
# GULP energy per Si atom -5570.255596 kJ/mol
# Density = 2.490282 g / cm^3
# Si number density = 24.959633 Si / 1000 Ang^3
#
#
#
# Elastic Constant Matrix: (Units=GPa)
#
#
# Indices 1 2 3 4 5 6 
#
# 1 105.7789 25.9642 20.9071 0.0000 0.0000 0.0000
# 2 25.9642 119.3980 29.8276 0.0000 0.0000 0.0000
# 3 20.9071 29.8276 43.2889 0.0000 0.0000 0.0000
# 4 0.0000 0.0000 0.0000 6.0993 0.0000 0.0000
# 5 0.0000 0.0000 0.0000 0.0000 30.3407 0.0000
# 6 0.0000 0.0000 0.0000 0.0000 0.0000 44.7917
#
#
#
# Elastic Compliance Matrix: (Units=1/GPa)
#
#
# Indices 1 2 3 4 5 6 
#
# 1 0.010601 -0.001240 -0.004266 0.000000 0.000000 0.000000
# 2 -0.001240 0.010262 -0.006472 0.000000 0.000000 0.000000
# 3 -0.004266 -0.006472 0.029620 0.000000 0.000000 0.000000
# 4 0.000000 0.000000 0.000000 0.163953 0.000000 0.000000
# 5 0.000000 0.000000 0.000000 0.000000 0.032959 0.000000
# 6 0.000000 0.000000 0.000000 0.000000 0.000000 0.022326
#
#
# Mechanical properties :
#
#
# Convention : Reuss Voigt Hill
#
# Bulk Modulus (GPa) = 37.69574 46.87374 42.28474
# Shear Modulus (GPa) = 16.52794 29.03081 22.77938
#
# Velocity S-wave (km/s) = 2.57609 3.41414 3.02428
# Velocity P-wave (km/s) = 4.89733 5.86194 5.40121
#
# Compressibility (1/GPa) = 0.02652820
#
# Stress axis : x y z
#
# Youngs Moduli (GPa) = 94.32992 97.44936 33.76063
#
# Poissons Ratio (x) = 0.12080 0.14402
# Poissons Ratio (y) = 0.11693 0.21850
# Poissons Ratio (z) = 0.40240 0.63069
#
# Static dielectric constant tensor:
#      x y z
#    x 2.083650 0.000000 0.000000 
#    y 0.000000 2.201390 0.000000 
#    z 0.000000 0.000000 1.985240 
# 
# From -- ./inp_files/25067.got.cif
#   From: 2010.05.17/outbox.cif.g08.bks.cpg/sg50_13_cif.got.tgz:25067.got - 2010.06.03 11:33:33.
