data_PCOD9395915
_publ_section_title
;
Structure prediction by ZEFSAII (Michael W. Deem and Ramdas Pophale) SiO2 
 PCOD9395915
Probable space group: P B A N
;
_chemical_formula_sum "Si O2"
_cell_formula_units_Z 58
_cell_length_a 15.414645
_cell_length_b 22.748810
_cell_length_c 8.019788
_cell_angle_alpha 90.000000
_cell_angle_beta 90.000000
_cell_angle_gamma 90.000000
_cell_volume 2812.257598
_symmetry_space_group_name_H-M "P B A N"
_symmetry_group_IT_number 50
_space_group.IT_coordinate_system_code '2'
_symmetry_cell_setting 'orthorhombic'
loop_
_space_group_symop_operation_xyz
x,y,z
1/2-x,1/2-y,z
x,1/2-y,-z
1/2-x,y,-z
-x,-y,-z
1/2+x,1/2+y,-z
-x,1/2+y,z
1/2+x,-y,z
loop_
_atom_site_type_symbol
_atom_site_label
_atom_site_fract_x
_atom_site_fract_y
_atom_site_fract_z
Si Si1 0.124537 0.343624 0.004179
Si Si2 0.496091 0.898077 0.533200
Si Si3 0.040419 0.710609 0.156504
Si Si4 0.847197 0.318705 0.544972
Si Si5 0.250000 0.250000 0.000000
Si Si6 0.150000 0.017792 0.017955
Si Si7 0.494808 0.992019 0.244926
Si Si8 0.903951 0.709466 0.637876
O O1 0.186261 0.296727 0.908684
O O2 0.149371 0.411236 0.000690
O O3 0.132640 0.319228 0.193128
O O4 0.028932 0.333766 0.928259
O O5 0.408550 0.861607 0.559657
O O6 0.486802 0.938445 0.371800
O O7 0.566004 0.846728 0.529844
O O8 0.518966 0.944273 0.674767
O O9 0.115360 0.680321 0.265593
O O10 0.984128 0.751724 0.284204
O O11 0.072056 0.750000 0.000000
O O12 0.854227 0.250000 0.500000
O O13 0.750000 0.335998 0.500000
O O14 0.082446 0.988055 0.888868
O O15 0.250000 0.998148 0.000000
O O16 0.095018 0.007742 0.185860
O O17 0.857821 0.750000 0.500000
#
# Coordination Sequence:
#
# PCOD9395915 Si02
#       8
#     8   8   8   8   2   8   8   8
#     4  11  22  36  64  92 133 166 211 262 318 396
#     4  11  20  41  65  87 126 157 219 265 318 383
#     4  10  19  35  61  91 121 170 208 247 318 400
#     4  11  22  37  61  91 127 167 206 264 333 378
#     4  12  20  36  62 104 128 162 210 252 334 376
#     4  11  23  43  65  89 131 167 217 271 319 370
#     4  10  25  40  67  96 115 175 223 261 320 378
#     4  11  19  35  64  92 121 169 204 255 327 390
#
# _framework density 20.623999000000001
#
# number of rings (size 3 to 8) (size 9 to 14) (size 15 to 20)
#    0.000    1.241    6.897    0.828    0.000    1.103 
#    0.000    3.793    0.000    0.000    0.000    0.000 
#    0.000    0.000    0.000    0.000    0.000    0.000 
#
# Total GULP energy -323000.019179 kJ/mol
# GULP energy per Si atom -5568.965848 kJ/mol
# Density = 2.057706 g / cm^3
# Si number density = 20.623999 Si / 1000 Ang^3
#
#
#
# Elastic Constant Matrix: (Units=GPa)
#
#
# Indices 1 2 3 4 5 6 
#
# 1 109.4104 3.7498 10.1291 0.0000 0.0000 0.0000
# 2 3.7498 71.0226 -0.6153 0.0000 0.0000 0.0000
# 3 10.1291 -0.6153 29.2911 0.0000 0.0000 0.0000
# 4 0.0000 0.0000 0.0000 11.8651 0.0000 0.0000
# 5 0.0000 0.0000 0.0000 0.0000 12.7580 0.0000
# 6 0.0000 0.0000 0.0000 0.0000 0.0000 159.3182
#
#
#
# Elastic Compliance Matrix: (Units=1/GPa)
#
#
# Indices 1 2 3 4 5 6 
#
# 1 0.009462 -0.000528 -0.003283 0.000000 0.000000 0.000000
# 2 -0.000528 0.014112 0.000479 0.000000 0.000000 0.000000
# 3 -0.003283 0.000479 0.035285 0.000000 0.000000 0.000000
# 4 0.000000 0.000000 0.000000 0.084281 0.000000 0.000000
# 5 0.000000 0.000000 0.000000 0.000000 0.078382 0.000000
# 6 0.000000 0.000000 0.000000 0.000000 0.000000 0.006277
#
#
# Mechanical properties :
#
#
# Convention : Reuss Voigt Hill
#
# Bulk Modulus (GPa) = 19.15883 26.25015 22.70449
# Shear Modulus (GPa) = 19.85220 49.88563 34.86892
#
# Velocity S-wave (km/s) = 3.10591 4.92348 4.11627
# Velocity P-wave (km/s) = 4.70871 6.71390 5.79864
#
# Compressibility (1/GPa) = 0.05219524
#
# Stress axis : x y z
#
# Youngs Moduli (GPa) = 105.68661 70.86141 28.34031
#
# Poissons Ratio (x) = 0.03742 0.09304
# Poissons Ratio (y) = 0.05580 -0.01358
# Poissons Ratio (z) = 0.34698 -0.03394
#
# Static dielectric constant tensor:
#      x y z
#    x 1.783120 0.000000 0.000000 
#    y 0.000000 1.723460 0.000000 
#    z 0.000000 0.000000 1.847440 
# 
# From -- ./inp_files/13419.got.cif
#   From: 2010.05.17/outbox.cif.g08.bks.cpg/sg50_7_cif.got.tgz:13419.got - 2010.06.03 11:33:33.
