data_PCOD9395099
_publ_section_title
;
Structure prediction by ZEFSAII (Michael W. Deem and Ramdas Pophale) SiO2 
 PCOD9395099
Probable space group: P C C M
;
_chemical_formula_sum "Si O2"
_cell_formula_units_Z 34
_cell_length_a 6.993860
_cell_length_b 13.603593
_cell_length_c 17.855559
_cell_angle_alpha 90.000000
_cell_angle_beta 90.000000
_cell_angle_gamma 90.000000
_cell_volume 1698.806897
_symmetry_space_group_name_H-M "P C C M"
_symmetry_group_IT_number 49
_symmetry_cell_setting 'orthorhombic'
loop_
_space_group_symop_operation_xyz
x,y,z
-x,-y,z
x,-y,1/2-z
-x,y,1/2-z
-x,-y,-z
x,y,-z
-x,y,1/2+z
x,-y,1/2+z
loop_
_atom_site_type_symbol
_atom_site_label
_atom_site_fract_x
_atom_site_fract_y
_atom_site_fract_z
Si Si1 0.269092 0.289930 0.088216
Si Si2 0.808013 0.847360 0.213970
Si Si3 0.633276 0.674275 0.314689
Si Si4 0.500000 0.000000 0.750000
Si Si5 0.268024 0.512034 0.915560
O O1 0.157066 0.210172 0.136684
O O2 0.484770 0.287575 0.122289
O O3 0.197304 0.401977 0.100235
O O4 0.269448 0.272117 0.000000
O O5 0.734147 0.763803 0.272368
O O6 0.000000 0.888271 0.250000
O O7 0.642660 0.928235 0.205231
O O8 0.500000 0.626571 0.250000
O O9 0.766726 0.594136 0.353542
O O10 0.500000 0.500000 0.916687
O O11 0.211613 0.541713 0.000000
#
# Coordination Sequence:
#
# PCOD9395099 Si02
#       5
#     8   8   8   2   8
#     4   9  17  34  57  87 125 158 193 234 279 337
#     4  11  23  39  64  89 113 148 194 244 297 353
#     4   9  16  30  51  85 117 158 197 233 277 332
#     4  12  22  48  66  84 104 148 196 248 312 348
#     4   8  14  25  49  82 119 162 195 223 268 330
#
# _framework density 20.014047999999999
#
# number of rings (size 3 to 8) (size 9 to 14) (size 15 to 20)
#    0.000    2.588    3.529    2.471    0.000   10.824 
#    0.000    5.294    0.000    4.235    0.000    0.000 
#    0.000    0.000    0.000    0.000    0.000    0.000 
#
# Total GULP energy -189619.369004 kJ/mol
# GULP energy per Si atom -5577.040265 kJ/mol
# Density = 1.996849 g / cm^3
# Si number density = 20.014048 Si / 1000 Ang^3
#
#
#
# Elastic Constant Matrix: (Units=GPa)
#
#
# Indices 1 2 3 4 5 6 
#
# 1 75.0547 21.3704 35.6286 0.0000 0.0000 0.0000
# 2 21.3704 111.9785 67.8239 0.0000 0.0000 0.0000
# 3 35.6286 67.8239 122.0748 0.0000 0.0000 0.0000
# 4 0.0000 0.0000 0.0000 5.5597 0.0000 0.0000
# 5 0.0000 0.0000 0.0000 0.0000 12.6033 0.0000
# 6 0.0000 0.0000 0.0000 0.0000 0.0000 -5.6242
#
#
#
# Elastic Compliance Matrix: (Units=1/GPa)
#
#
# Indices 1 2 3 4 5 6 
#
# 1 0.015474 -0.000328 -0.004334 0.000000 0.000000 0.000000
# 2 -0.000328 0.013467 -0.007386 0.000000 0.000000 0.000000
# 3 -0.004334 -0.007386 0.013560 0.000000 0.000000 0.000000
# 4 0.000000 0.000000 0.000000 0.179866 0.000000 0.000000
# 5 0.000000 0.000000 0.000000 0.000000 0.079345 0.000000
# 6 0.000000 0.000000 0.000000 0.000000 0.000000 -0.177802
#
#
# Mechanical properties :
#
#
# Convention : Reuss Voigt Hill
#
# Bulk Modulus (GPa) = 54.33406 62.08377 58.20892
# Shear Modulus (GPa) = 32.43777 14.79342 23.61560
#
# Velocity S-wave (km/s) = 4.03022 2.72168 3.43877
# Velocity P-wave (km/s) = 6.99027 6.40033 6.70179
#
# Compressibility (1/GPa) = 0.01840466
#
# Stress axis : x y z
#
# Youngs Moduli (GPa) = 64.62277 74.25769 73.74448
#
# Poissons Ratio (x) = 0.02437 0.31961
# Poissons Ratio (y) = 0.02120 0.54469
# Poissons Ratio (z) = 0.28008 0.54848
#
# Static dielectric constant tensor:
#      x y z
#    x 1.789070 0.000000 0.000000 
#    y 0.000000 1.738440 0.000000 
#    z 0.000000 0.000000 1.695460 
# 
# From -- ./inp_files/16126.got.cif
#   From: 2010.05.17/outbox.cif.g08.bks.cpg/sg49_9_cif.got.tgz:16126.got - 2010.06.03 21:02:19.
