data_PCOD9395283
_publ_section_title
;
Structure prediction by ZEFSAII (Michael W. Deem and Ramdas Pophale) SiO2 
 PCOD9395283
Probable space group: P C C M
;
_chemical_formula_sum "Si O2"
_cell_formula_units_Z 64
_cell_length_a 18.000000
_cell_length_b 21.000000
_cell_length_c 9.000000
_cell_angle_alpha 90.000000
_cell_angle_beta 90.000000
_cell_angle_gamma 90.000000
_cell_volume 3402.000000
_symmetry_space_group_name_H-M "P C C M"
_symmetry_group_IT_number 49
_symmetry_cell_setting 'orthorhombic'
loop_
_space_group_symop_operation_xyz
x,y,z
-x,-y,z
x,-y,1/2-z
-x,y,1/2-z
-x,-y,-z
x,y,-z
-x,y,1/2+z
x,-y,1/2+z
loop_
_atom_site_type_symbol
_atom_site_label
_atom_site_fract_x
_atom_site_fract_y
_atom_site_fract_z
Si Si1 0.693943 0.932565 0.821948
Si Si2 0.372019 0.702321 0.819742
Si Si3 0.576097 0.840139 0.321204
Si Si4 0.797072 0.436254 0.829041
Si Si5 0.869743 0.065994 0.676743
Si Si6 0.077034 0.204000 0.179009
Si Si7 0.384139 0.564490 0.828540
Si Si8 0.801679 0.295269 0.819389
O O1 0.645270 0.878341 0.745562
O O2 0.781826 0.924441 0.791287
O O3 0.671921 0.000000 0.750000
O O4 0.683470 0.932963 0.000000
O O5 0.414809 0.765911 0.778063
O O6 0.402572 0.634305 0.763208
O O7 0.285325 0.712170 0.779421
O O8 0.372910 0.697188 0.000000
O O9 0.500000 0.865001 0.250000
O O10 0.575157 0.845051 0.500000
O O11 0.822854 0.500000 0.750000
O O12 0.706560 0.435482 0.824508
O O13 0.822461 0.367447 0.772155
O O14 0.818611 0.440078 0.000000
O O15 0.877500 0.059480 0.500000
O O16 0.910838 0.130160 0.723993
O O17 0.894327 0.000000 0.750000
O O18 0.145383 0.244694 0.242401
O O19 0.000000 0.226856 0.250000
O O20 0.075350 0.207592 0.000000
O O21 0.409438 0.500000 0.750000
O O22 0.407413 0.561524 0.000000
O O23 0.806952 0.290889 0.000000
#
# Coordination Sequence:
#
# PCOD9395283 Si02
#       8
#     8   8   8   8   8   8   8   8
#     4  10  20  37  59  83 107 132 164 206 251 300
#     4   8  16  31  52  74 100 134 171 208 254 307
#     4  11  22  36  53  75 103 138 174 211 254 301
#     4   8  14  24  42  69 100 128 159 200 250 301
#     4   9  20  37  58  82 107 133 166 206 250 297
#     4  11  23  37  52  75 105 138 172 209 250 296
#     4   8  13  24  42  68  98 127 160 203 250 299
#     4   9  17  32  53  76 100 132 171 211 253 303
#
# _framework density 18.812463000000001
#
# number of rings (size 3 to 8) (size 9 to 14) (size 15 to 20)
#    0.000    2.750    0.000    3.375    0.000    2.500 
#    0.000    6.250    0.000    0.750    0.000    5.250 
#    0.000    0.000    0.000    0.000    0.000    0.000 
#
# Total GULP energy -356879.233621 kJ/mol
# GULP energy per Si atom -5576.238025 kJ/mol
# Density = 1.876965 g / cm^3
# Si number density = 18.812463 Si / 1000 Ang^3
#
#
#
# Elastic Constant Matrix: (Units=GPa)
#
#
# Indices 1 2 3 4 5 6 
#
# 1 45.1781 25.4417 16.5359 0.0000 0.0000 0.0000
# 2 25.4417 105.5112 28.9684 0.0000 0.0000 0.0000
# 3 16.5359 28.9684 36.9585 0.0000 0.0000 0.0000
# 4 0.0000 0.0000 0.0000 31.9790 0.0000 0.0000
# 5 0.0000 0.0000 0.0000 0.0000 11.6430 0.0000
# 6 0.0000 0.0000 0.0000 0.0000 0.0000 -18.0288
#
#
#
# Elastic Compliance Matrix: (Units=1/GPa)
#
#
# Indices 1 2 3 4 5 6 
#
# 1 0.027856 -0.004199 -0.009172 0.000000 0.000000 0.000000
# 2 -0.004199 0.012709 -0.008083 0.000000 0.000000 0.000000
# 3 -0.009172 -0.008083 0.037497 0.000000 0.000000 0.000000
# 4 0.000000 0.000000 0.000000 0.031271 0.000000 0.000000
# 5 0.000000 0.000000 0.000000 0.000000 0.085889 0.000000
# 6 0.000000 0.000000 0.000000 0.000000 0.000000 -0.055467
#
#
# Mechanical properties :
#
#
# Convention : Reuss Voigt Hill
#
# Bulk Modulus (GPa) = 28.44620 36.61553 32.53087
# Shear Modulus (GPa) = 25.72264 12.89876 19.31070
#
# Velocity S-wave (km/s) = 3.70174 2.62133 3.20736
# Velocity P-wave (km/s) = 5.78137 5.35421 5.57188
#
# Compressibility (1/GPa) = 0.03515408
#
# Stress axis : x y z
#
# Youngs Moduli (GPa) = 35.89853 78.68248 26.66886
#
# Poissons Ratio (x) = 0.33036 0.24462
# Poissons Ratio (y) = 0.15072 0.21557
# Poissons Ratio (z) = 0.32928 0.63600
#
# Static dielectric constant tensor:
#      x y z
#    x 1.627710 0.000000 0.000000 
#    y 0.000000 1.681680 0.000000 
#    z 0.000000 0.000000 1.641670 
# 
# From -- ./inp_files/5243.got.cif
#   From: 2010.05.17/outbox.ucp.g08.bks.cvg/sg49_3_cif.got.tgz:5243.got - 2010.06.11 16:40:14.
