data_PCOD9395647
_publ_section_title
;
Structure prediction by ZEFSAII (Michael W. Deem and Ramdas Pophale) SiO2 
 PCOD9395647
Probable space group: P B A N
;
_chemical_formula_sum "Si O2"
_cell_formula_units_Z 32
_cell_length_a 20.273333
_cell_length_b 9.912556
_cell_length_c 8.438838
_cell_angle_alpha 90.000000
_cell_angle_beta 90.000000
_cell_angle_gamma 90.000000
_cell_volume 1695.873515
_symmetry_space_group_name_H-M "P B A N"
_symmetry_group_IT_number 50
_space_group.IT_coordinate_system_code '2'
_symmetry_cell_setting 'orthorhombic'
loop_
_space_group_symop_operation_xyz
x,y,z
1/2-x,1/2-y,z
x,1/2-y,-z
1/2-x,y,-z
-x,-y,-z
1/2+x,1/2+y,-z
-x,1/2+y,z
1/2+x,-y,z
loop_
_atom_site_type_symbol
_atom_site_label
_atom_site_fract_x
_atom_site_fract_y
_atom_site_fract_z
Si Si1 0.720406 0.053707 0.175187
Si Si2 0.546699 0.131485 0.866996
Si Si3 0.165825 0.814670 0.671623
Si Si4 0.599740 0.608740 0.914462
O O1 0.782775 0.064015 0.294397
O O2 0.685179 0.197302 0.203503
O O3 0.662365 0.943768 0.184467
O O4 0.750000 0.042398 0.000000
O O5 0.591238 0.153642 0.713929
O O6 0.469868 0.118998 0.823108
O O7 0.549783 0.250000 0.000000
O O8 0.579415 0.002237 0.952968
O O9 0.173870 0.750000 0.500000
O O10 0.614619 0.750000 0.000000
#
# Coordination Sequence:
#
# PCOD9395647 Si02
#       4
#     8   8   8   8
#     4  11  19  35  58  86 112 147 200 252 291 341
#     4  10  18  38  61  86 114 154 205 251 283 351
#     4  11  21  35  60  90 113 153 205 252 287 344
#     4  10  21  33  61  89 119 149 194 251 308 344
#
# _framework density 18.869332
#
# number of rings (size 3 to 8) (size 9 to 14) (size 15 to 20)
#    0.000    1.500    5.000    3.000    0.000    0.500 
#    0.000    1.250    0.000    0.000    6.500    0.000 
#    0.000    0.000    0.000    0.000    0.000    0.000 
#
# Total GULP energy -178254.263323 kJ/mol
# GULP energy per Si atom -5570.445729 kJ/mol
# Density = 1.882638 g / cm^3
# Si number density = 18.869332 Si / 1000 Ang^3
#
#
#
# Elastic Constant Matrix: (Units=GPa)
#
#
# Indices 1 2 3 4 5 6 
#
# 1 179.4543 38.6557 68.1222 0.0000 0.0000 0.0000
# 2 38.6557 90.4103 11.2417 0.0000 0.0000 0.0000
# 3 68.1222 11.2417 72.6422 0.0000 0.0000 0.0000
# 4 0.0000 0.0000 0.0000 9.9499 0.0000 0.0000
# 5 0.0000 0.0000 0.0000 0.0000 13.3562 0.0000
# 6 0.0000 0.0000 0.0000 0.0000 0.0000 31.5542
#
#
#
# Elastic Compliance Matrix: (Units=1/GPa)
#
#
# Indices 1 2 3 4 5 6 
#
# 1 0.009376 -0.002973 -0.008332 0.000000 0.000000 0.000000
# 2 -0.002973 0.012220 0.000897 0.000000 0.000000 0.000000
# 3 -0.008332 0.000897 0.021441 0.000000 0.000000 0.000000
# 4 0.000000 0.000000 0.000000 0.100504 0.000000 0.000000
# 5 0.000000 0.000000 0.000000 0.000000 0.074872 0.000000
# 6 0.000000 0.000000 0.000000 0.000000 0.000000 0.031692
#
#
# Mechanical properties :
#
#
# Convention : Reuss Voigt Hill
#
# Bulk Modulus (GPa) = 45.00384 64.28290 54.64337
# Shear Modulus (GPa) = 17.96441 25.93785 21.95113
#
# Velocity S-wave (km/s) = 3.08887 3.71159 3.41445
# Velocity P-wave (km/s) = 6.05173 7.24632 6.67580
#
# Compressibility (1/GPa) = 0.02222033
#
# Stress axis : x y z
#
# Youngs Moduli (GPa) = 106.65727 81.83176 46.63896
#
# Poissons Ratio (x) = 0.24326 0.38861
# Poissons Ratio (y) = 0.31706 -0.04182
# Poissons Ratio (z) = 0.88871 -0.07337
#
# Static dielectric constant tensor:
#      x y z
#    x 1.741830 0.000000 0.000000 
#    y 0.000000 1.686140 0.000000 
#    z 0.000000 0.000000 1.637700 
# 
# From -- ./inp_files/14820.got.cif
#   From: 2010.05.17/outbox.cif.g08.bks.cpg/sg50_8_cif.got.tgz:14820.got - 2010.06.03 11:33:33.
