data_PCOD9395018
_publ_section_title
;
Structure prediction by ZEFSAII (Michael W. Deem and Ramdas Pophale) SiO2 
 PCOD9395018
Probable space group: P C C M
;
_chemical_formula_sum "Si O2"
_cell_formula_units_Z 24
_cell_length_a 7.853983
_cell_length_b 10.915711
_cell_length_c 13.892119
_cell_angle_alpha 90.000000
_cell_angle_beta 90.000000
_cell_angle_gamma 90.000000
_cell_volume 1190.996488
_symmetry_space_group_name_H-M "P C C M"
_symmetry_group_IT_number 49
_symmetry_cell_setting 'orthorhombic'
loop_
_space_group_symop_operation_xyz
x,y,z
-x,-y,z
x,-y,1/2-z
-x,y,1/2-z
-x,-y,-z
x,y,-z
-x,y,1/2+z
x,-y,1/2+z
loop_
_atom_site_type_symbol
_atom_site_label
_atom_site_fract_x
_atom_site_fract_y
_atom_site_fract_z
Si Si1 0.360981 0.886725 0.000000
Si Si2 0.810983 0.881286 0.704323
Si Si3 0.693681 0.374217 0.713397
Si Si4 0.412275 0.635394 0.500000
O O1 0.236658 0.891879 0.907592
O O2 0.462623 0.755088 0.000000
O O3 0.500000 0.000000 0.000000
O O4 0.755173 0.748694 0.738253
O O5 0.000000 0.885414 0.750000
O O6 0.719694 0.000000 0.750000
O O7 0.778100 0.500000 0.750000
O O8 0.500000 0.381100 0.750000
O O9 0.694123 0.361306 0.598485
O O10 0.500000 0.500000 0.500000
#
# Coordination Sequence:
#
# PCOD9395018 Si02
#       4
#     4   8   8   4
#     4  12  24  40  71  97 122 178 229 267 328 397
#     4  11  26  43  62  93 135 168 212 271 337 396
#     4  11  21  38  64  95 126 167 221 277 323 388
#     4  12  20  35  63  95 125 158 216 273 322 373
#
# _framework density 20.151192999999999
#
# number of rings (size 3 to 8) (size 9 to 14) (size 15 to 20)
#    0.000    0.667    6.667    2.000    0.000    4.667 
#    0.000    0.000    0.000    6.000    0.000    0.000 
#    0.000    0.000    0.000    0.000    0.000    0.000 
#
# Total GULP energy -133667.565491 kJ/mol
# GULP energy per Si atom -5569.481895 kJ/mol
# Density = 2.010533 g / cm^3
# Si number density = 20.151193 Si / 1000 Ang^3
#
#
#
# Elastic Constant Matrix: (Units=GPa)
#
#
# Indices 1 2 3 4 5 6 
#
# 1 68.7127 46.7005 42.4236 0.0000 0.0000 0.0000
# 2 46.7005 211.8030 73.7675 0.0000 0.0000 0.0000
# 3 42.4236 73.7675 254.4091 0.0000 0.0000 0.0000
# 4 0.0000 0.0000 0.0000 37.4069 0.0000 0.0000
# 5 0.0000 0.0000 0.0000 0.0000 16.5788 0.0000
# 6 0.0000 0.0000 0.0000 0.0000 0.0000 12.6844
#
#
#
# Elastic Compliance Matrix: (Units=1/GPa)
#
#
# Indices 1 2 3 4 5 6 
#
# 1 0.018043 -0.003260 -0.002064 0.000000 0.000000 0.000000
# 2 -0.003260 0.005841 -0.001150 0.000000 0.000000 0.000000
# 3 -0.002064 -0.001150 0.004608 0.000000 0.000000 0.000000
# 4 0.000000 0.000000 0.000000 0.026733 0.000000 0.000000
# 5 0.000000 0.000000 0.000000 0.000000 0.060318 0.000000
# 6 0.000000 0.000000 0.000000 0.000000 0.000000 0.078837
#
#
# Mechanical properties :
#
#
# Convention : Reuss Voigt Hill
#
# Bulk Modulus (GPa) = 64.32772 95.63421 79.98097
# Shear Modulus (GPa) = 23.52859 38.13623 30.83241
#
# Velocity S-wave (km/s) = 3.42073 4.35501 3.91583
# Velocity P-wave (km/s) = 6.89882 8.53519 7.76026
#
# Compressibility (1/GPa) = 0.01554540
#
# Stress axis : x y z
#
# Youngs Moduli (GPa) = 55.42388 171.21577 217.00330
#
# Poissons Ratio (x) = 0.55809 0.44780
# Poissons Ratio (y) = 0.18066 0.24955
# Poissons Ratio (z) = 0.11437 0.19689
#
# Static dielectric constant tensor:
#      x y z
#    x 1.747560 0.000000 0.000000 
#    y 0.000000 1.837020 0.000000 
#    z 0.000000 0.000000 1.724690 
# 
# From -- ./inp_files/7832.got.cif
#   From: 2010.05.17/outbox.cif.g08.bks.cpg/sg49_4_cif.got.tgz:7832.got - 2010.06.03 21:02:19.
