data_PCOD9395705
_publ_section_title
;
Structure prediction by ZEFSAII (Michael W. Deem and Ramdas Pophale) SiO2 
 PCOD9395705
Probable space group: P B A N
;
_chemical_formula_sum "Si O2"
_cell_formula_units_Z 64
_cell_length_a 8.514353
_cell_length_b 23.960079
_cell_length_c 18.918233
_cell_angle_alpha 90.000000
_cell_angle_beta 90.000000
_cell_angle_gamma 90.000000
_cell_volume 3859.405998
_symmetry_space_group_name_H-M "P B A N"
_symmetry_group_IT_number 50
_space_group.IT_coordinate_system_code '2'
_symmetry_cell_setting 'orthorhombic'
loop_
_space_group_symop_operation_xyz
x,y,z
1/2-x,1/2-y,z
x,1/2-y,-z
1/2-x,y,-z
-x,-y,-z
1/2+x,1/2+y,-z
-x,1/2+y,z
1/2+x,-y,z
loop_
_atom_site_type_symbol
_atom_site_label
_atom_site_fract_x
_atom_site_fract_y
_atom_site_fract_z
Si Si1 0.561472 0.867004 0.636400
Si Si2 0.561089 0.063733 0.768339
Si Si3 0.438910 0.563733 0.231661
Si Si4 0.939572 0.436388 0.075835
Si Si5 0.560763 0.562525 0.500000
Si Si6 0.561738 0.250000 0.582567
Si Si7 0.061472 0.367004 0.636400
Si Si8 0.439572 0.936387 0.075835
O O1 0.501836 0.896288 0.707383
O O2 0.508533 0.904737 0.569874
O O3 0.498766 0.805215 0.621577
O O4 0.750000 0.865717 0.637153
O O5 0.750000 0.062011 0.765314
O O6 0.498164 0.103712 0.707383
O O7 0.511541 0.085044 0.846879
O O8 0.500000 0.000000 0.759282
O O9 0.488459 0.585044 0.153121
O O10 0.750000 0.436634 0.075804
O O11 1.000000 0.500000 0.075100
O O12 0.990810 0.410921 0.000000
O O13 0.750000 0.561725 0.500000
O O14 0.500000 0.500000 0.500000
O O15 0.508533 0.595263 0.569874
O O16 0.750000 0.250000 0.582293
O O17 0.507713 0.250000 0.500000
O O18 0.501234 0.194785 0.621577
#
# Coordination Sequence:
#
# PCOD9395705 Si02
#       8
#     8   8   8   8   8   8   8   8
#     4  11  22  37  54  73  99 133 169 207 252 298
#     4  10  19  31  48  74 106 137 171 209 251 300
#     4  10  19  31  48  74 106 137 171 209 251 300
#     4   8  14  25  42  65  96 133 168 202 242 291
#     4  10  22  35  50  71  97 130 164 198 239 292
#     4  11  23  39  59  79  96 123 164 213 257 298
#     4  11  22  37  54  73  99 133 169 207 252 298
#     4   8  14  25  42  65  96 133 168 202 242 291
#
# _framework density 16.582861999999999
#
# number of rings (size 3 to 8) (size 9 to 14) (size 15 to 20)
#    0.000    2.125    1.250    2.625    0.000    5.500 
#    0.000    0.000    0.000    0.000    0.000    0.875 
#    0.000    7.000    0.000    0.000    0.000    0.000 
#
# Total GULP energy -356703.547066 kJ/mol
# GULP energy per Si atom -5573.492923 kJ/mol
# Density = 1.654512 g / cm^3
# Si number density = 16.582862 Si / 1000 Ang^3
#
#
#
# Elastic Constant Matrix: (Units=GPa)
#
#
# Indices 1 2 3 4 5 6 
#
# 1 35.6039 26.0590 37.2714 0.0000 0.0000 0.0000
# 2 26.0590 113.7539 83.1769 0.0000 0.0000 0.0000
# 3 37.2714 83.1769 206.3990 0.0000 0.0000 0.0000
# 4 0.0000 0.0000 0.0000 -1.3385 0.0000 0.0000
# 5 0.0000 0.0000 0.0000 0.0000 81.3603 0.0000
# 6 0.0000 0.0000 0.0000 0.0000 0.0000 26.5648
#
#
#
# Elastic Compliance Matrix: (Units=1/GPa)
#
#
# Indices 1 2 3 4 5 6 
#
# 1 0.036557 -0.005030 -0.004575 0.000000 0.000000 0.000000
# 2 -0.005030 0.013155 -0.004393 0.000000 0.000000 0.000000
# 3 -0.004575 -0.004393 0.007442 0.000000 0.000000 0.000000
# 4 0.000000 0.000000 0.000000 -0.747125 0.000000 0.000000
# 5 0.000000 0.000000 0.000000 0.000000 0.012291 0.000000
# 6 0.000000 0.000000 0.000000 0.000000 0.000000 0.037644
#
#
# Mechanical properties :
#
#
# Convention : Reuss Voigt Hill
#
# Bulk Modulus (GPa) = 34.29479 72.08570 53.19025
# Shear Modulus (GPa) = -8.30121 35.26730 13.48305
#
# Velocity S-wave (km/s) = -2.23981 4.61665 2.85453
# Velocity P-wave (km/s) = 3.74656 8.48424 6.55817
#
# Compressibility (1/GPa) = 0.02915895
#
# Stress axis : x y z
#
# Youngs Moduli (GPa) = 27.35468 76.01391 134.38144
#
# Poissons Ratio (x) = 0.38232 0.61473
# Poissons Ratio (y) = 0.13758 0.59038
# Poissons Ratio (z) = 0.12513 0.33395
#
# Static dielectric constant tensor:
#      x y z
#    x 1.565220 0.000000 0.000000 
#    y 0.000000 1.503240 0.000000 
#    z 0.000000 0.000000 1.614560 
# 
# From -- ./inp_files/28952.got.cif
#   From: 2010.05.17/outbox.cif.g08.bks.cpg/sg50_15_cif.got.tgz:28952.got - 2010.06.03 11:33:33.
