data_PCOD9395671
_publ_section_title
;
Structure prediction by ZEFSAII (Michael W. Deem and Ramdas Pophale) SiO2 
 PCOD9395671
Probable space group: P B A N
;
_chemical_formula_sum "Si O2"
_cell_formula_units_Z 58
_cell_length_a 15.066189
_cell_length_b 25.636641
_cell_length_c 7.707934
_cell_angle_alpha 90.000000
_cell_angle_beta 90.000000
_cell_angle_gamma 90.000000
_cell_volume 2977.162365
_symmetry_space_group_name_H-M "P B A N"
_symmetry_group_IT_number 50
_space_group.IT_coordinate_system_code '2'
_symmetry_cell_setting 'orthorhombic'
loop_
_space_group_symop_operation_xyz
x,y,z
1/2-x,1/2-y,z
x,1/2-y,-z
1/2-x,y,-z
-x,-y,-z
1/2+x,1/2+y,-z
-x,1/2+y,z
1/2+x,-y,z
loop_
_atom_site_type_symbol
_atom_site_label
_atom_site_fract_x
_atom_site_fract_y
_atom_site_fract_z
Si Si1 0.355232 0.638775 0.985420
Si Si2 0.980295 0.285090 0.828305
Si Si3 0.938658 0.622389 0.623557
Si Si4 0.278000 0.307872 0.703218
Si Si5 0.250000 0.750000 0.500000
Si Si6 0.120129 0.124030 0.242905
Si Si7 0.012284 0.061069 0.971837
Si Si8 0.590533 0.191183 0.344961
O O1 0.418799 0.588547 0.973772
O O2 0.389966 0.665785 0.159704
O O3 0.250000 0.630127 0.000000
O O4 0.388990 0.681369 0.845413
O O5 0.966653 0.243150 0.680688
O O6 0.058042 0.325327 0.791322
O O7 0.996555 0.250000 0.000000
O O8 0.877842 0.669245 0.705188
O O9 0.892064 0.605397 0.443433
O O10 0.959655 0.581100 0.777534
O O11 0.031553 0.648045 0.561529
O O12 0.250000 0.250000 0.770684
O O13 0.250000 0.306143 0.500000
O O14 0.217916 0.353325 0.784554
O O15 0.315420 0.789158 0.595330
O O16 0.086367 0.082236 0.105296
O O17 0.000000 0.000000 0.000000
#
# Coordination Sequence:
#
# PCOD9395671 Si02
#       8
#     8   8   8   8   2   8   8   8
#     4   9  18  34  52  72 103 140 177 225 278 329
#     4   9  17  30  51  79 114 153 186 217 267 329
#     4  10  21  38  57  82 117 153 187 237 287 342
#     4   9  18  33  57  90 125 158 190 225 281 357
#     4  12  20  24  42  80 110 152 192 218 252 328
#     4  10  20  36  59  83 115 154 189 234 284 340
#     4  10  23  42  59  81 104 139 195 247 300 344
#     4  10  19  29  47  77 114 147 183 219 259 326
#
# _framework density 19.481639000000001
#
# number of rings (size 3 to 8) (size 9 to 14) (size 15 to 20)
#    0.000    2.345    0.000    3.310    0.000    6.345 
#    2.483    0.690    0.000    0.000    1.793    0.000 
#    0.000    0.000    0.000    0.000    0.000    0.000 
#
# Total GULP energy -323125.071718 kJ/mol
# GULP energy per Si atom -5571.121926 kJ/mol
# Density = 1.943730 g / cm^3
# Si number density = 19.481639 Si / 1000 Ang^3
#
#
#
# Elastic Constant Matrix: (Units=GPa)
#
#
# Indices 1 2 3 4 5 6 
#
# 1 89.1545 31.8953 8.1395 0.0000 0.0000 0.0000
# 2 31.8953 123.3264 41.4070 0.0000 0.0000 0.0000
# 3 8.1395 41.4070 78.8604 0.0000 0.0000 0.0000
# 4 0.0000 0.0000 0.0000 10.9921 0.0000 0.0000
# 5 0.0000 0.0000 0.0000 0.0000 19.8986 0.0000
# 6 0.0000 0.0000 0.0000 0.0000 0.0000 -4.9553
#
#
#
# Elastic Compliance Matrix: (Units=1/GPa)
#
#
# Indices 1 2 3 4 5 6 
#
# 1 0.012376 -0.003365 0.000490 0.000000 0.000000 0.000000
# 2 -0.003365 0.010759 -0.005302 0.000000 0.000000 0.000000
# 3 0.000490 -0.005302 0.015414 0.000000 0.000000 0.000000
# 4 0.000000 0.000000 0.000000 0.090974 0.000000 0.000000
# 5 0.000000 0.000000 0.000000 0.000000 0.050255 0.000000
# 6 0.000000 0.000000 0.000000 0.000000 0.000000 -0.201805
#
#
# Mechanical properties :
#
#
# Convention : Reuss Voigt Hill
#
# Bulk Modulus (GPa) = 45.05757 50.46944 47.76351
# Shear Modulus (GPa) = 2897.63483 19.18038 1458.40760
#
# Velocity S-wave (km/s) = 38.60824 3.14114 27.39035
# Velocity P-wave (km/s) = 44.84016 6.25444 32.01373
#
# Compressibility (1/GPa) = 0.02219383
#
# Stress axis : x y z
#
# Youngs Moduli (GPa) = 80.80391 92.94590 64.87632
#
# Poissons Ratio (x) = 0.31276 -0.03176
# Poissons Ratio (y) = 0.27191 0.34396
# Poissons Ratio (z) = -0.03955 0.49279
#
# Static dielectric constant tensor:
#      x y z
#    x 2.029140 0.000000 0.000000 
#    y 0.000000 1.677310 0.000000 
#    z 0.000000 0.000000 1.701900 
# 
# From -- ./inp_files/13427.got.cif
#   From: 2010.05.17/outbox.cif.g08.bks.cpg/sg50_7_cif.got.tgz:13427.got - 2010.06.03 11:33:33.
