data_PCOD9395945
_publ_section_title
;
Structure prediction by ZEFSAII (Michael W. Deem and Ramdas Pophale) SiO2 
 PCOD9395945
Probable space group: P B A N
;
_chemical_formula_sum "Si O2"
_cell_formula_units_Z 48
_cell_length_a 9.841080
_cell_length_b 28.716974
_cell_length_c 7.423197
_cell_angle_alpha 90.000000
_cell_angle_beta 90.000000
_cell_angle_gamma 90.000000
_cell_volume 2097.840297
_symmetry_space_group_name_H-M "P B A N"
_symmetry_group_IT_number 50
_space_group.IT_coordinate_system_code '2'
_symmetry_cell_setting 'orthorhombic'
loop_
_space_group_symop_operation_xyz
x,y,z
1/2-x,1/2-y,z
x,1/2-y,-z
1/2-x,y,-z
-x,-y,-z
1/2+x,1/2+y,-z
-x,1/2+y,z
1/2+x,-y,z
loop_
_atom_site_type_symbol
_atom_site_label
_atom_site_fract_x
_atom_site_fract_y
_atom_site_fract_z
Si Si1 0.592807 0.246261 0.781913
Si Si2 0.451565 0.642562 0.834875
Si Si3 0.279973 0.409273 0.214924
Si Si4 0.971515 0.842415 0.259187
Si Si5 0.690310 0.094426 0.321653
Si Si6 0.872812 0.492445 0.130823
O O1 0.750000 0.250000 0.719270
O O2 0.549003 0.193661 0.749364
O O3 0.487869 0.286572 0.719715
O O4 0.598080 0.250000 0.000000
O O5 0.576643 0.614768 0.754383
O O6 0.311759 0.615421 0.798115
O O7 0.481657 0.648140 0.049746
O O8 0.315032 0.464081 0.248652
O O9 0.162764 0.374256 0.289606
O O10 0.250000 0.410260 0.000000
O O11 0.093309 0.863485 0.375144
O O12 0.750000 0.072464 0.500000
O O13 0.598394 0.054498 0.236938
O O14 0.750000 0.480240 0.000000
O O15 0.000000 0.500000 0.000000
#
# Coordination Sequence:
#
# PCOD9395945 Si02
#       6
#     8   8   8   8   8   8
#     4   9  16  29  55  90 113 146 193 242 291 347
#     4  10  19  36  60  84 116 153 195 239 293 353
#     4   9  19  34  57  87 111 148 193 241 297 350
#     4  10  19  36  59  84 119 150 194 245 296 358
#     4  12  24  37  57  88 116 152 201 248 295 351
#     4  11  21  39  62  84 114 158 204 244 298 364
#
# _framework density 22.880673999999999
#
# number of rings (size 3 to 8) (size 9 to 14) (size 15 to 20)
#    0.000    1.833    1.667    5.500    0.000    0.667 
#    0.000   13.333    0.000    0.000    0.000    2.333 
#    0.000    0.000    0.000    0.000    0.000    0.000 
#
# Total GULP energy -267657.539220 kJ/mol
# GULP energy per Si atom -5576.198734 kJ/mol
# Density = 2.282860 g / cm^3
# Si number density = 22.880674 Si / 1000 Ang^3
#
#
#
# Elastic Constant Matrix: (Units=GPa)
#
#
# Indices 1 2 3 4 5 6 
#
# 1 88.7049 33.8845 0.4408 0.0000 0.0000 0.0000
# 2 33.8845 186.5938 11.0231 0.0000 0.0000 0.0000
# 3 0.4408 11.0231 37.7095 0.0000 0.0000 0.0000
# 4 0.0000 0.0000 0.0000 -0.8565 0.0000 0.0000
# 5 0.0000 0.0000 0.0000 0.0000 12.4453 0.0000
# 6 0.0000 0.0000 0.0000 0.0000 0.0000 26.7609
#
#
#
# Elastic Compliance Matrix: (Units=1/GPa)
#
#
# Indices 1 2 3 4 5 6 
#
# 1 0.012123 -0.002232 0.000511 0.000000 0.000000 0.000000
# 2 -0.002232 0.005864 -0.001688 0.000000 0.000000 0.000000
# 3 0.000511 -0.001688 0.027006 0.000000 0.000000 0.000000
# 4 0.000000 0.000000 0.000000 -1.167578 0.000000 0.000000
# 5 0.000000 0.000000 0.000000 0.000000 0.080351 0.000000
# 6 0.000000 0.000000 0.000000 0.000000 0.000000 0.037368
#
#
# Mechanical properties :
#
#
# Convention : Reuss Voigt Hill
#
# Bulk Modulus (GPa) = 26.19502 44.85611 35.52557
# Shear Modulus (GPa) = -5.07449 25.51393 10.21972
#
# Velocity S-wave (km/s) = -1.49085 3.34291 2.11571
# Velocity P-wave (km/s) = 2.91717 5.87767 4.63988
#
# Compressibility (1/GPa) = 0.03817520
#
# Stress axis : x y z
#
# Youngs Moduli (GPa) = 82.48584 170.52548 37.02877
#
# Poissons Ratio (x) = 0.38056 -0.01891
# Poissons Ratio (y) = 0.18408 0.06251
# Poissons Ratio (z) = -0.04212 0.28787
#
# Static dielectric constant tensor:
#      x y z
#    x 1.800690 0.000000 0.000000 
#    y 0.000000 1.886990 0.000000 
#    z 0.000000 0.000000 1.952360 
# 
# From -- ./inp_files/10050.got.cif
#   From: 2010.05.17/outbox.cif.g08.bks.cpg/sg50_6_cif.got.tgz:10050.got - 2010.06.03 11:33:33.
