data_PCOD9395043
_publ_section_title
;
Structure prediction by ZEFSAII (Michael W. Deem and Ramdas Pophale) SiO2 
 PCOD9395043
Probable space group: P C C M
;
_chemical_formula_sum "Si O2"
_cell_formula_units_Z 56
_cell_length_a 31.571788
_cell_length_b 5.045949
_cell_length_c 16.472639
_cell_angle_alpha 90.000000
_cell_angle_beta 90.000000
_cell_angle_gamma 90.000000
_cell_volume 2624.250059
_symmetry_space_group_name_H-M "P C C M"
_symmetry_group_IT_number 49
_symmetry_cell_setting 'orthorhombic'
loop_
_space_group_symop_operation_xyz
x,y,z
-x,-y,z
x,-y,1/2-z
-x,y,1/2-z
-x,-y,-z
x,y,-z
-x,y,1/2+z
x,-y,1/2+z
loop_
_atom_site_type_symbol
_atom_site_label
_atom_site_fract_x
_atom_site_fract_y
_atom_site_fract_z
Si Si1 0.451410 0.420772 0.095775
Si Si2 0.028078 0.737057 0.094761
Si Si3 0.832175 0.423242 0.344761
Si Si4 0.881040 0.915175 0.594886
Si Si5 0.689345 0.101881 0.092779
Si Si6 0.594903 0.084306 0.157185
Si Si7 0.265887 0.608397 0.658551
O O1 0.500000 0.500000 0.111290
O O2 0.422993 0.621221 0.147376
O O3 0.438413 0.122290 0.118029
O O4 0.443223 0.463017 0.000000
O O5 0.073902 0.812645 0.129295
O O6 0.000000 0.500000 0.131251
O O7 0.036420 0.659978 0.000000
O O8 0.000000 0.000000 0.095529
O O9 0.834224 0.500000 0.250000
O O10 0.849469 0.669886 0.395664
O O11 0.783219 0.374039 0.366384
O O12 0.861040 0.167761 0.361254
O O13 0.887101 0.986417 0.500000
O O14 0.639806 0.077970 0.112239
O O15 0.707089 0.396080 0.107605
O O16 0.713846 0.895877 0.149574
O O17 0.697240 0.024978 0.000000
O O18 0.600873 0.000000 0.250000
O O19 0.267379 0.500000 0.750000
#
# Coordination Sequence:
#
# PCOD9395043 Si02
#       7
#     8   8   8   8   8   8   8
#     4  11  24  43  66  93 127 165 206 256 312 366
#     4   9  17  31  53  83 117 151 192 244 297 345
#     4  11  24  41  61  87 125 166 200 246 313 377
#     4  11  22  37  62  92 120 156 208 261 301 357
#     4  12  25  42  65  93 124 159 203 257 313 363
#     4  12  25  42  65  93 127 165 207 254 305 371
#     4  11  24  43  64  88 121 163 207 249 303 372
#
# _framework density 21.339431000000001
#
# number of rings (size 3 to 8) (size 9 to 14) (size 15 to 20)
#    0.000    1.000    0.000    7.286    0.000   10.857 
#    0.000    0.000    0.000    6.429    0.000    0.000 
#    0.000    0.000    0.000    0.000    0.000    0.143 
#
# Total GULP energy -313377.824955 kJ/mol
# GULP energy per Si atom -5596.032588 kJ/mol
# Density = 2.129086 g / cm^3
# Si number density = 21.339431 Si / 1000 Ang^3
#
#
#
# Elastic Constant Matrix: (Units=GPa)
#
#
# Indices 1 2 3 4 5 6 
#
# 1 103.3664 21.8584 14.8890 0.0000 0.0000 0.0000
# 2 21.8584 96.6232 -0.2588 0.0000 0.0000 0.0000
# 3 14.8890 -0.2588 41.7755 0.0000 0.0000 0.0000
# 4 0.0000 0.0000 0.0000 34.5614 0.0000 0.0000
# 5 0.0000 0.0000 0.0000 0.0000 20.3917 0.0000
# 6 0.0000 0.0000 0.0000 0.0000 0.0000 30.1376
#
#
#
# Elastic Compliance Matrix: (Units=1/GPa)
#
#
# Indices 1 2 3 4 5 6 
#
# 1 0.010744 -0.002441 -0.003844 0.000000 0.000000 0.000000
# 2 -0.002441 0.010904 0.000937 0.000000 0.000000 0.000000
# 3 -0.003844 0.000937 0.025313 0.000000 0.000000 0.000000
# 4 0.000000 0.000000 0.000000 0.028934 0.000000 0.000000
# 5 0.000000 0.000000 0.000000 0.000000 0.049040 0.000000
# 6 0.000000 0.000000 0.000000 0.000000 0.000000 0.033181
#
#
# Mechanical properties :
#
#
# Convention : Reuss Voigt Hill
#
# Bulk Modulus (GPa) = 27.57385 34.97138 31.27262
# Shear Modulus (GPa) = 27.63941 30.70322 29.17132
#
# Velocity S-wave (km/s) = 3.60283 3.79727 3.70133
# Velocity P-wave (km/s) = 5.50062 5.97071 5.74048
#
# Compressibility (1/GPa) = 0.03626624
#
# Stress axis : x y z
#
# Youngs Moduli (GPa) = 93.07302 91.70792 39.50464
#
# Poissons Ratio (x) = 0.22385 0.15187
# Poissons Ratio (y) = 0.22718 -0.03704
# Poissons Ratio (z) = 0.35781 -0.08598
#
# Static dielectric constant tensor:
#      x y z
#    x 1.747770 0.000000 0.000000 
#    y 0.000000 1.685420 0.000000 
#    z 0.000000 0.000000 1.780040 
# 
# From -- ./inp_files/14603.got.cif
#   From: 2010.05.17/outbox.cif.g08.bks.cpg/sg49_8_cif.got.tgz:14603.got - 2010.06.03 21:02:19.
