data_PCOD9395329
_publ_section_title
;
Structure prediction by ZEFSAII (Michael W. Deem and Ramdas Pophale) SiO2 
 PCOD9395329
Probable space group: P C C M
;
_chemical_formula_sum "Si O2"
_cell_formula_units_Z 40
_cell_length_a 9.000000
_cell_length_b 9.000000
_cell_length_c 24.000000
_cell_angle_alpha 90.000000
_cell_angle_beta 90.000000
_cell_angle_gamma 90.000000
_cell_volume 1944.000000
_symmetry_space_group_name_H-M "P C C M"
_symmetry_group_IT_number 49
_symmetry_cell_setting 'orthorhombic'
loop_
_space_group_symop_operation_xyz
x,y,z
-x,-y,z
x,-y,1/2-z
-x,y,1/2-z
-x,-y,-z
x,y,-z
-x,y,1/2+z
x,-y,1/2+z
loop_
_atom_site_type_symbol
_atom_site_label
_atom_site_fract_x
_atom_site_fract_y
_atom_site_fract_z
Si Si1 0.148910 0.402897 0.565476
Si Si2 0.641811 0.391731 0.644989
Si Si3 0.642153 0.892872 0.934393
Si Si4 0.320386 0.180823 0.748288
Si Si5 0.141861 0.107445 0.637579
O O1 0.203134 0.386476 0.500000
O O2 0.254715 0.496826 0.607993
O O3 0.112913 0.242127 0.593567
O O4 0.000000 0.500000 0.562505
O O5 0.500000 0.500000 0.660958
O O6 0.605648 0.257267 0.600934
O O7 0.712460 0.299355 0.699631
O O8 0.500000 0.000000 0.937040
O O9 0.756507 0.988790 0.896510
O O10 0.687246 0.863626 0.000000
O O11 0.500000 0.197776 0.750000
O O12 0.225679 0.193894 0.689931
O O13 0.299408 0.000000 0.750000
O O14 0.000000 0.000000 0.654619
#
# Coordination Sequence:
#
# PCOD9395329 Si02
#       5
#     8   8   8   8   8
#     4  11  26  47  68 102 151 193 236 295 362 425
#     4  12  25  44  74 106 142 186 238 299 362 427
#     4  11  23  42  70 106 147 195 247 298 355 429
#     4  11  24  46  75 102 142 187 235 299 362 435
#     4  12  26  46  75 107 143 195 251 299 357 432
#
# _framework density 20.576132000000001
#
# number of rings (size 3 to 8) (size 9 to 14) (size 15 to 20)
#    0.000    0.600    2.000    6.000    0.000    9.600 
#    0.000    1.000    0.000    0.000    0.000    0.000 
#    0.000    0.000    0.000    0.000    0.000    0.000 
#
# Total GULP energy -222726.128559 kJ/mol
# GULP energy per Si atom -5568.153214 kJ/mol
# Density = 2.052930 g / cm^3
# Si number density = 20.576132 Si / 1000 Ang^3
#
#
#
# Elastic Constant Matrix: (Units=GPa)
#
#
# Indices 1 2 3 4 5 6 
#
# 1 78.7898 23.4144 44.1649 0.0000 0.0000 0.0000
# 2 23.4144 162.4602 56.9406 0.0000 0.0000 0.0000
# 3 44.1649 56.9406 184.0697 0.0000 0.0000 0.0000
# 4 0.0000 0.0000 0.0000 57.0608 0.0000 0.0000
# 5 0.0000 0.0000 0.0000 0.0000 35.4703 0.0000
# 6 0.0000 0.0000 0.0000 0.0000 0.0000 43.1867
#
#
#
# Elastic Compliance Matrix: (Units=1/GPa)
#
#
# Indices 1 2 3 4 5 6 
#
# 1 0.014807 -0.000997 -0.003244 0.000000 0.000000 0.000000
# 2 -0.000997 0.006971 -0.001917 0.000000 0.000000 0.000000
# 3 -0.003244 -0.001917 0.006804 0.000000 0.000000 0.000000
# 4 0.000000 0.000000 0.000000 0.017525 0.000000 0.000000
# 5 0.000000 0.000000 0.000000 0.000000 0.028193 0.000000
# 6 0.000000 0.000000 0.000000 0.000000 0.000000 0.023155
#
#
# Mechanical properties :
#
#
# Convention : Reuss Voigt Hill
#
# Bulk Modulus (GPa) = 61.48116 74.92884 68.20500
# Shear Modulus (GPa) = 43.40515 47.19688 45.30101
#
# Velocity S-wave (km/s) = 4.59790 4.79453 4.69724
# Velocity P-wave (km/s) = 7.62445 8.19417 7.91444
#
# Compressibility (1/GPa) = 0.01626515
#
# Stress axis : x y z
#
# Youngs Moduli (GPa) = 67.53649 143.45138 146.96741
#
# Poissons Ratio (x) = 0.14301 0.47681
# Poissons Ratio (y) = 0.06733 0.28177
# Poissons Ratio (z) = 0.21911 0.27503
#
# Static dielectric constant tensor:
#      x y z
#    x 1.799000 0.000000 0.000000 
#    y 0.000000 1.739250 0.000000 
#    z 0.000000 0.000000 1.817850 
# 
# From -- ./inp_files/22207.got.cif
#   From: 2010.05.17/outbox.ucp.g08.bks.cvg/sg49_12_cif.got.tgz:22207.got - 2010.06.11 16:40:14.
