data_PCOD9395699
_publ_section_title
;
Structure prediction by ZEFSAII (Michael W. Deem and Ramdas Pophale) SiO2 
 PCOD9395699
Probable space group: P B A N
;
_chemical_formula_sum "Si O2"
_cell_formula_units_Z 48
_cell_length_a 40.294087
_cell_length_b 13.603118
_cell_length_c 5.268214
_cell_angle_alpha 90.000000
_cell_angle_beta 90.000000
_cell_angle_gamma 90.000000
_cell_volume 2887.640959
_symmetry_space_group_name_H-M "P B A N"
_symmetry_group_IT_number 50
_space_group.IT_coordinate_system_code '2'
_symmetry_cell_setting 'orthorhombic'
loop_
_space_group_symop_operation_xyz
x,y,z
1/2-x,1/2-y,z
x,1/2-y,-z
1/2-x,y,-z
-x,-y,-z
1/2+x,1/2+y,-z
-x,1/2+y,z
1/2+x,-y,z
loop_
_atom_site_type_symbol
_atom_site_label
_atom_site_fract_x
_atom_site_fract_y
_atom_site_fract_z
Si Si1 0.056484 0.132828 0.005439
Si Si2 0.903068 0.050912 0.028662
Si Si3 0.514501 0.868699 0.505544
Si Si4 0.212026 0.869159 0.501508
Si Si5 0.938301 0.367948 0.471607
Si Si6 0.670829 0.369201 0.998439
O O1 0.033728 0.107291 0.763366
O O2 0.088751 0.064584 0.994714
O O3 0.063092 0.250000 0.000000
O O4 0.035759 0.106815 0.257378
O O5 0.916910 0.087503 0.299167
O O6 0.923343 0.102940 0.800421
O O7 0.864895 0.080328 0.002929
O O8 0.512197 0.750000 0.500000
O O9 0.476495 0.903075 0.504213
O O10 0.213553 0.750000 0.500000
O O11 0.250000 0.904861 0.500000
O O12 0.191530 0.896657 0.251668
O O13 0.192140 0.896505 0.754156
O O14 0.937512 0.250000 0.500000
O O15 0.666176 0.250000 0.000000
#
# Coordination Sequence:
#
# PCOD9395699 Si02
#       6
#     8   8   8   8   8   8
#     4  10  21  37  52  69  93 123 169 220 255 285
#     4  12  23  33  51  73  99 135 163 195 251 301
#     4   9  19  35  52  68  91 124 164 215 257 289
#     4   9  17  30  49  70  95 129 159 183 216 264
#     4  11  22  35  50  72 100 128 163 201 247 308
#     4  10  19  31  46  69 101 127 154 189 225 278
#
# _framework density 16.622564000000001
#
# number of rings (size 3 to 8) (size 9 to 14) (size 15 to 20)
#    0.000    1.833    0.000    5.000    0.000   10.000 
#    0.000    0.000    0.000    0.000    0.000    0.000 
#    0.000    4.000    0.000    0.000    0.000    0.000 
#
# Total GULP energy -268126.985217 kJ/mol
# GULP energy per Si atom -5585.978859 kJ/mol
# Density = 1.658473 g / cm^3
# Si number density = 16.622564 Si / 1000 Ang^3
#
#
#
# Elastic Constant Matrix: (Units=GPa)
#
#
# Indices 1 2 3 4 5 6 
#
# 1 145.4095 25.9576 43.6243 0.0000 0.0000 0.0000
# 2 25.9576 65.9290 6.6014 0.0000 0.0000 0.0000
# 3 43.6243 6.6014 109.9156 0.0000 0.0000 0.0000
# 4 0.0000 0.0000 0.0000 6.9766 0.0000 0.0000
# 5 0.0000 0.0000 0.0000 0.0000 24.1873 0.0000
# 6 0.0000 0.0000 0.0000 0.0000 0.0000 23.3094
#
#
#
# Elastic Compliance Matrix: (Units=1/GPa)
#
#
# Indices 1 2 3 4 5 6 
#
# 1 0.008348 -0.002973 -0.003135 0.000000 0.000000 0.000000
# 2 -0.002973 0.016318 0.000200 0.000000 0.000000 0.000000
# 3 -0.003135 0.000200 0.010330 0.000000 0.000000 0.000000
# 4 0.000000 0.000000 0.000000 0.143336 0.000000 0.000000
# 5 0.000000 0.000000 0.000000 0.000000 0.041344 0.000000
# 6 0.000000 0.000000 0.000000 0.000000 0.000000 0.042901
#
#
# Mechanical properties :
#
#
# Convention : Reuss Voigt Hill
#
# Bulk Modulus (GPa) = 43.13899 52.62452 47.88176
# Shear Modulus (GPa) = 17.72293 27.23272 22.47782
#
# Velocity S-wave (km/s) = 3.26881 4.05198 3.68128
# Velocity P-wave (km/s) = 6.34470 7.32247 6.85105
#
# Compressibility (1/GPa) = 0.02318088
#
# Stress axis : x y z
#
# Youngs Moduli (GPa) = 119.78443 61.28070 96.80486
#
# Poissons Ratio (x) = 0.18219 0.30346
# Poissons Ratio (y) = 0.35612 -0.01935
# Poissons Ratio (z) = 0.37550 -0.01225
#
# Static dielectric constant tensor:
#      x y z
#    x 1.533530 0.000000 0.000000 
#    y 0.000000 1.583390 0.000000 
#    z 0.000000 0.000000 1.535990 
# 
# From -- ./inp_files/7165.got.cif
#   From: 2010.05.17/outbox.cif.g08.bks.cpg/sg50_4_cif.got.tgz:7165.got - 2010.06.03 11:33:33.
