data_PCOD9395577
_publ_section_title
;
Structure prediction by ZEFSAII (Michael W. Deem and Ramdas Pophale) SiO2 
 PCOD9395577
Probable space group: P B A N
;
_chemical_formula_sum "Si O2"
_cell_formula_units_Z 52
_cell_length_a 13.292823
_cell_length_b 20.125149
_cell_length_c 8.756444
_cell_angle_alpha 90.000000
_cell_angle_beta 90.000000
_cell_angle_gamma 90.000000
_cell_volume 2342.524280
_symmetry_space_group_name_H-M "P B A N"
_symmetry_group_IT_number 50
_space_group.IT_coordinate_system_code '2'
_symmetry_cell_setting 'orthorhombic'
loop_
_space_group_symop_operation_xyz
x,y,z
1/2-x,1/2-y,z
x,1/2-y,-z
1/2-x,y,-z
-x,-y,-z
1/2+x,1/2+y,-z
-x,1/2+y,z
1/2+x,-y,z
loop_
_atom_site_type_symbol
_atom_site_label
_atom_site_fract_x
_atom_site_fract_y
_atom_site_fract_z
Si Si1 0.377983 0.193586 0.232301
Si Si2 0.985348 0.076356 0.760945
Si Si3 0.140909 0.634325 0.030876
Si Si4 0.315719 0.499758 0.847804
Si Si5 0.250000 0.360608 0.500000
Si Si6 0.074363 0.167068 0.111263
Si Si7 0.371628 0.453756 0.324915
O O1 0.472683 0.148450 0.286577
O O2 0.287449 0.177211 0.347650
O O3 0.397945 0.271699 0.219912
O O4 0.367304 0.173286 0.051552
O O5 0.081427 0.040928 0.839625
O O6 0.898501 0.092443 0.884126
O O7 0.939596 0.018774 0.654630
O O8 0.250000 0.665589 0.000000
O O9 0.158968 0.577455 0.156864
O O10 0.044067 0.676405 0.074179
O O11 0.240192 0.478217 0.716864
O O12 0.250000 0.487878 0.000000
O O13 0.348166 0.404861 0.462436
O O14 0.089411 0.095616 0.190660
#
# Coordination Sequence:
#
# PCOD9395577 Si02
#       7
#     8   8   8   8   4   8   8
#     4  10  24  44  62  93 136 166 220 269 341 392
#     4  11  20  37  61  91 136 171 217 282 327 392
#     4  10  18  32  65 102 130 168 218 281 336 382
#     4  11  18  32  60  99 124 165 223 278 330 381
#     4  12  28  43  62  96 134 183 220 278 334 407
#     4  10  23  42  67  95 131 178 216 278 332 393
#     4  12  24  38  66  93 129 177 231 274 332 393
#
# _framework density 22.198274999999999
#
# number of rings (size 3 to 8) (size 9 to 14) (size 15 to 20)
#    0.000    1.231    6.154    2.308    0.000    2.462 
#    0.000    7.692    0.000    0.000    0.000    0.000 
#    0.000    0.000    0.000    0.308    0.000    0.000 
#
# Total GULP energy -290140.740369 kJ/mol
# GULP energy per Si atom -5579.629622 kJ/mol
# Density = 2.214775 g / cm^3
# Si number density = 22.198275 Si / 1000 Ang^3
#
#
#
# Elastic Constant Matrix: (Units=GPa)
#
#
# Indices 1 2 3 4 5 6 
#
# 1 151.4733 42.8031 44.9091 0.0000 0.0000 0.0000
# 2 42.8031 121.8803 31.2969 0.0000 0.0000 0.0000
# 3 44.9091 31.2969 61.3099 0.0000 0.0000 0.0000
# 4 0.0000 0.0000 0.0000 18.9564 0.0000 0.0000
# 5 0.0000 0.0000 0.0000 0.0000 19.1498 0.0000
# 6 0.0000 0.0000 0.0000 0.0000 0.0000 31.7569
#
#
#
# Elastic Compliance Matrix: (Units=1/GPa)
#
#
# Indices 1 2 3 4 5 6 
#
# 1 0.008707 -0.001634 -0.005544 0.000000 0.000000 0.000000
# 2 -0.001634 0.009749 -0.003780 0.000000 0.000000 0.000000
# 3 -0.005544 -0.003780 0.022301 0.000000 0.000000 0.000000
# 4 0.000000 0.000000 0.000000 0.052753 0.000000 0.000000
# 5 0.000000 0.000000 0.000000 0.000000 0.052220 0.000000
# 6 0.000000 0.000000 0.000000 0.000000 0.000000 0.031489
#
#
# Mechanical properties :
#
#
# Convention : Reuss Voigt Hill
#
# Bulk Modulus (GPa) = 53.07313 63.63129 58.35221
# Shear Modulus (GPa) = 24.34100 28.34960 26.34530
#
# Velocity S-wave (km/s) = 3.31498 3.57754 3.44876
# Velocity P-wave (km/s) = 6.21391 6.76700 6.49634
#
# Compressibility (1/GPa) = 0.01884193
#
# Stress axis : x y z
#
# Youngs Moduli (GPa) = 114.84657 102.57175 44.84173
#
# Poissons Ratio (x) = 0.16764 0.24859
# Poissons Ratio (y) = 0.18770 0.16948
# Poissons Ratio (z) = 0.63668 0.38768
#
# Static dielectric constant tensor:
#      x y z
#    x 1.836080 0.000000 0.000000 
#    y 0.000000 1.883060 0.000000 
#    z 0.000000 0.000000 1.868190 
# 
# From -- ./inp_files/13213.got.cif
#   From: 2010.05.17/outbox.cif.g08.bks.cpg/sg50_7_cif.got.tgz:13213.got - 2010.06.03 11:33:33.
