data_PCOD9395204
_publ_section_title
;
Structure prediction by ZEFSAII (Michael W. Deem and Ramdas Pophale) SiO2 
 PCOD9395204
Probable space group: P C C M
;
_chemical_formula_sum "Si O2"
_cell_formula_units_Z 64
_cell_length_a 15.000000
_cell_length_b 30.000000
_cell_length_c 9.000000
_cell_angle_alpha 90.000000
_cell_angle_beta 90.000000
_cell_angle_gamma 90.000000
_cell_volume 4050.000000
_symmetry_space_group_name_H-M "P C C M"
_symmetry_group_IT_number 49
_symmetry_cell_setting 'orthorhombic'
loop_
_space_group_symop_operation_xyz
x,y,z
-x,-y,z
x,-y,1/2-z
-x,y,1/2-z
-x,-y,-z
x,y,-z
-x,y,1/2+z
x,-y,1/2+z
loop_
_atom_site_type_symbol
_atom_site_label
_atom_site_fract_x
_atom_site_fract_y
_atom_site_fract_z
Si Si1 0.097882 0.412102 0.679474
Si Si2 0.598487 0.376527 0.820136
Si Si3 0.904304 0.691726 0.677780
Si Si4 0.273015 0.547992 0.680298
Si Si5 0.100145 0.046272 0.181836
Si Si6 0.402826 0.272190 0.678577
Si Si7 0.899745 0.859115 0.318083
Si Si8 0.221640 0.772651 0.819740
O O1 0.096830 0.418951 0.500000
O O2 0.120843 0.359720 0.708020
O O3 0.173656 0.441070 0.758962
O O4 0.000000 0.420034 0.750000
O O5 0.500000 0.382672 0.750000
O O6 0.664233 0.412385 0.744729
O O7 0.623053 0.324288 0.791100
O O8 0.597775 0.382523 0.000000
O O9 0.912297 0.695511 0.500000
O O10 0.835925 0.729578 0.728590
O O11 0.000000 0.699854 0.750000
O O12 0.299774 0.500000 0.750000
O O13 0.275560 0.546893 0.500000
O O14 0.134342 0.093947 0.245959
O O15 0.000000 0.046390 0.250000
O O16 0.140384 0.000000 0.250000
O O17 0.099619 0.045370 0.000000
O O18 0.500000 0.264047 0.750000
O O19 0.411502 0.268697 0.500000
O O20 0.323537 0.238532 0.727735
O O21 0.906266 0.862852 0.500000
O O22 0.832215 0.818103 0.280576
O O23 0.000000 0.851023 0.250000
O O24 0.223759 0.772599 0.000000
#
# Coordination Sequence:
#
# PCOD9395204 Si02
#       8
#     8   8   8   8   8   8   8   8
#     4  10  20  36  56  77 101 130 165 203 241 281
#     4  10  20  37  60  83 106 130 158 194 238 288
#     4   9  17  30  48  70  96 127 160 193 229 274
#     4  12  25  40  57  78 102 128 160 196 240 290
#     4  10  17  27  42  60  85 120 164 208 247 285
#     4   9  18  34  54  75  98 126 160 197 236 281
#     4  10  18  28  42  63  94 131 168 203 240 282
#     4   9  17  29  46  67  96 132 162 191 235 285
#
# _framework density 15.802469
#
# number of rings (size 3 to 8) (size 9 to 14) (size 15 to 20)
#    0.000    2.125    0.000    5.625    0.000    3.500 
#    0.000    5.000    0.000    0.000    0.000    0.000 
#    0.000    0.500    0.000    5.750    0.000    1.750 
#
# Total GULP energy -356794.015280 kJ/mol
# GULP energy per Si atom -5574.906489 kJ/mol
# Density = 1.576650 g / cm^3
# Si number density = 15.802469 Si / 1000 Ang^3
#
#
#
# Elastic Constant Matrix: (Units=GPa)
#
#
# Indices 1 2 3 4 5 6 
#
# 1 82.6058 59.6113 30.2270 0.0000 0.0000 0.0000
# 2 59.6113 105.0932 40.4618 0.0000 0.0000 0.0000
# 3 30.2270 40.4618 94.6689 0.0000 0.0000 0.0000
# 4 0.0000 0.0000 0.0000 24.2881 0.0000 0.0000
# 5 0.0000 0.0000 0.0000 0.0000 26.9193 0.0000
# 6 0.0000 0.0000 0.0000 0.0000 0.0000 23.4635
#
#
#
# Elastic Compliance Matrix: (Units=1/GPa)
#
#
# Indices 1 2 3 4 5 6 
#
# 1 0.020780 -0.011051 -0.001912 0.000000 0.000000 0.000000
# 2 -0.011051 0.017266 -0.003851 0.000000 0.000000 0.000000
# 3 -0.001912 -0.003851 0.012820 0.000000 0.000000 0.000000
# 4 0.000000 0.000000 0.000000 0.041172 0.000000 0.000000
# 5 0.000000 0.000000 0.000000 0.000000 0.037148 0.000000
# 6 0.000000 0.000000 0.000000 0.000000 0.000000 0.042619
#
#
# Mechanical properties :
#
#
# Convention : Reuss Voigt Hill
#
# Bulk Modulus (GPa) = 58.01043 60.32981 59.17012
# Shear Modulus (GPa) = 23.67654 25.07203 24.37428
#
# Velocity S-wave (km/s) = 3.87496 3.98752 3.93165
# Velocity P-wave (km/s) = 7.53723 7.71108 7.62465
#
# Compressibility (1/GPa) = 0.01723828
#
# Stress axis : x y z
#
# Youngs Moduli (GPa) = 48.12346 57.91589 78.00572
#
# Poissons Ratio (x) = 0.64002 0.14912
# Poissons Ratio (y) = 0.53180 0.30042
# Poissons Ratio (z) = 0.09200 0.22305
#
# Static dielectric constant tensor:
#      x y z
#    x 1.524210 0.000000 0.000000 
#    y 0.000000 1.561380 0.000000 
#    z 0.000000 0.000000 1.527280 
# 
# From -- ./inp_files/4507.got.cif
#   From: 2010.05.17/outbox.ucp.g08.bks.cvg/sg49_3_cif.got.tgz:4507.got - 2010.06.11 16:40:14.
