data_PCOD9395248
_publ_section_title
;
Structure prediction by ZEFSAII (Michael W. Deem and Ramdas Pophale) SiO2 
 PCOD9395248
Probable space group: P C C M
;
_chemical_formula_sum "Si O2"
_cell_formula_units_Z 64
_cell_length_a 12.000000
_cell_length_b 18.000000
_cell_length_c 15.000000
_cell_angle_alpha 90.000000
_cell_angle_beta 90.000000
_cell_angle_gamma 90.000000
_cell_volume 3240.000000
_symmetry_space_group_name_H-M "P C C M"
_symmetry_group_IT_number 49
_symmetry_cell_setting 'orthorhombic'
loop_
_space_group_symop_operation_xyz
x,y,z
-x,-y,z
x,-y,1/2-z
-x,y,1/2-z
-x,-y,-z
x,y,-z
-x,y,1/2+z
x,-y,1/2+z
loop_
_atom_site_type_symbol
_atom_site_label
_atom_site_fract_x
_atom_site_fract_y
_atom_site_fract_z
Si Si1 0.020552 0.163341 0.144315
Si Si2 0.632572 0.673261 0.757315
Si Si3 0.167426 0.944499 0.832514
Si Si4 0.733817 0.833970 0.802607
Si Si5 0.773189 0.593859 0.607293
Si Si6 0.617138 0.962653 0.104757
Si Si7 0.995661 0.335902 0.604040
Si Si8 0.767908 0.416128 0.606507
O O1 0.154926 0.157852 0.134701
O O2 0.993679 0.246593 0.111804
O O3 0.000000 0.165326 0.250000
O O4 0.939809 0.093501 0.117425
O O5 0.500000 0.683552 0.750000
O O6 0.693225 0.751288 0.781996
O O7 0.682035 0.636430 0.666962
O O8 0.667097 0.617569 0.836913
O O9 0.228196 0.873796 0.788284
O O10 0.132444 0.000000 0.750000
O O11 0.269158 0.988624 0.879863
O O12 0.639024 0.885621 0.844721
O O13 0.759487 0.607013 0.500000
O O14 0.774880 0.504799 0.620765
O O15 0.892511 0.626145 0.639054
O O16 0.500000 0.000000 0.134551
O O17 0.606656 0.949125 0.000000
O O18 0.993929 0.354892 0.500000
O O19 0.880174 0.371998 0.637760
O O20 0.754389 0.403552 0.500000
#
# Coordination Sequence:
#
# PCOD9395248 Si02
#       8
#     8   8   8   8   8   8   8   8
#     4  10  19  35  59  88 123 156 197 251 322 382
#     4  12  26  42  64  93 125 169 227 263 317 390
#     4   9  20  36  60  87 117 153 198 246 308 371
#     4  10  22  39  62  85 118 161 198 257 313 374
#     4  10  22  41  64  94 130 166 213 269 323 378
#     4  10  23  41  60  86 120 161 211 257 306 368
#     4  10  20  36  60  93 128 164 206 258 326 393
#     4  10  22  41  65  93 129 170 210 265 325 385
#
# _framework density 19.753086
#
# number of rings (size 3 to 8) (size 9 to 14) (size 15 to 20)
#    0.000    1.875    1.250    2.250    1.750   12.000 
#    0.000    3.750    0.000    0.000    0.000    0.000 
#    0.000    0.000    0.000    0.000    0.000    0.000 
#
# Total GULP energy -356971.367969 kJ/mol
# GULP energy per Si atom -5577.677625 kJ/mol
# Density = 1.970813 g / cm^3
# Si number density = 19.753086 Si / 1000 Ang^3
#
#
#
# Elastic Constant Matrix: (Units=GPa)
#
#
# Indices 1 2 3 4 5 6 
#
# 1 134.3694 61.7900 31.3010 0.0000 0.0000 0.0000
# 2 61.7900 134.8745 26.9903 0.0000 0.0000 0.0000
# 3 31.3010 26.9903 62.1253 0.0000 0.0000 0.0000
# 4 0.0000 0.0000 0.0000 25.3772 0.0000 0.0000
# 5 0.0000 0.0000 0.0000 0.0000 25.4392 0.0000
# 6 0.0000 0.0000 0.0000 0.0000 0.0000 37.3096
#
#
#
# Elastic Compliance Matrix: (Units=1/GPa)
#
#
# Indices 1 2 3 4 5 6 
#
# 1 0.010026 -0.003923 -0.003347 0.000000 0.000000 0.000000
# 2 -0.003923 0.009656 -0.002218 0.000000 0.000000 0.000000
# 3 -0.003347 -0.002218 0.018746 0.000000 0.000000 0.000000
# 4 0.000000 0.000000 0.000000 0.039405 0.000000 0.000000
# 5 0.000000 0.000000 0.000000 0.000000 0.039309 0.000000
# 6 0.000000 0.000000 0.000000 0.000000 0.000000 0.026803
#
#
# Mechanical properties :
#
#
# Convention : Reuss Voigt Hill
#
# Bulk Modulus (GPa) = 51.41089 63.50353 57.45721
# Shear Modulus (GPa) = 29.51481 31.71106 30.61294
#
# Velocity S-wave (km/s) = 3.86967 4.01106 3.94100
# Velocity P-wave (km/s) = 6.78594 7.32597 7.06112
#
# Compressibility (1/GPa) = 0.01945113
#
# Stress axis : x y z
#
# Youngs Moduli (GPa) = 99.74027 103.56654 53.34341
#
# Poissons Ratio (x) = 0.40634 0.17854
# Poissons Ratio (y) = 0.39133 0.11832
# Poissons Ratio (z) = 0.33382 0.22972
#
# Static dielectric constant tensor:
#      x y z
#    x 1.743840 0.000000 0.000000 
#    y 0.000000 1.693290 0.000000 
#    z 0.000000 0.000000 1.713470 
# 
# From -- ./inp_files/13101.got.cif
#   From: 2010.05.17/outbox.ucp.g08.bks.cvg/sg49_7_cif.got.tgz:13101.got - 2010.06.11 16:40:14.
