data_PCOD9395903
_publ_section_title
;
Structure prediction by ZEFSAII (Michael W. Deem and Ramdas Pophale) SiO2 
 PCOD9395903
Probable space group: P B A N
;
_chemical_formula_sum "Si O2"
_cell_formula_units_Z 64
_cell_length_a 16.764908
_cell_length_b 11.698216
_cell_length_c 14.874881
_cell_angle_alpha 90.000000
_cell_angle_beta 90.000000
_cell_angle_gamma 90.000000
_cell_volume 2917.254447
_symmetry_space_group_name_H-M "P B A N"
_symmetry_group_IT_number 50
_space_group.IT_coordinate_system_code '2'
_symmetry_cell_setting 'orthorhombic'
loop_
_space_group_symop_operation_xyz
x,y,z
1/2-x,1/2-y,z
x,1/2-y,-z
1/2-x,y,-z
-x,-y,-z
1/2+x,1/2+y,-z
-x,1/2+y,z
1/2+x,-y,z
loop_
_atom_site_type_symbol
_atom_site_label
_atom_site_fract_x
_atom_site_fract_y
_atom_site_fract_z
Si Si1 0.313778 0.833930 0.343461
Si Si2 0.101663 0.460125 0.425834
Si Si3 0.317991 0.169364 0.877892
Si Si4 0.815310 0.058267 0.783123
Si Si5 0.089721 0.217036 0.719873
Si Si6 0.007752 0.372909 0.953007
Si Si7 0.072386 0.450995 0.627015
Si Si8 0.432023 0.741646 0.200153
O O1 0.250000 0.750000 0.388070
O O2 0.261729 0.888403 0.263076
O O3 0.387271 0.775293 0.292373
O O4 0.348664 0.926196 0.409607
O O5 0.126567 0.366731 0.352873
O O6 0.110995 0.428979 0.529565
O O7 0.008978 0.482831 0.398099
O O8 0.250000 0.250000 0.914963
O O9 0.346822 0.238207 0.789967
O O10 0.398228 0.143323 0.933128
O O11 0.289378 0.046120 0.844874
O O12 0.868055 0.150663 0.838067
O O13 0.871866 0.013508 0.700518
O O14 0.055420 0.327911 0.669097
O O15 0.013955 0.174381 0.777690
O O16 0.957850 0.351792 0.859610
O O17 0.985318 0.250000 0.000000
O O18 0.000000 0.500000 0.000000
#
# Coordination Sequence:
#
# PCOD9395903 Si02
#       8
#     8   8   8   8   8   8   8   8
#     4  10  22  38  60  87 120 164 215 259 319 378
#     4  11  20  34  56  83 125 170 214 276 330 367
#     4  10  22  39  62  93 126 166 215 271 323 396
#     4  10  20  39  60  88 125 169 218 270 332 391
#     4  10  19  35  59  85 117 166 222 262 320 382
#     4  11  25  43  69 102 131 167 213 265 336 410
#     4  10  21  33  54  86 124 165 221 273 326 384
#     4  10  20  39  63  89 124 163 214 269 318 396
#
# _framework density 21.938434999999998
#
# number of rings (size 3 to 8) (size 9 to 14) (size 15 to 20)
#    0.000    1.750    2.500    1.875    0.000    3.750 
#    0.000    4.375    0.000   10.125    0.000    0.000 
#    0.000    0.000    0.000    0.000    0.000    0.000 
#
# Total GULP energy -356898.444281 kJ/mol
# GULP energy per Si atom -5576.538192 kJ/mol
# Density = 2.188850 g / cm^3
# Si number density = 21.938435 Si / 1000 Ang^3
#
#
#
# Elastic Constant Matrix: (Units=GPa)
#
#
# Indices 1 2 3 4 5 6 
#
# 1 72.5331 23.8561 11.6612 0.0000 0.0000 0.0000
# 2 23.8561 78.2775 39.7717 0.0000 0.0000 0.0000
# 3 11.6612 39.7717 71.5309 0.0000 0.0000 0.0000
# 4 0.0000 0.0000 0.0000 32.7262 0.0000 0.0000
# 5 0.0000 0.0000 0.0000 0.0000 -31.1823 0.0000
# 6 0.0000 0.0000 0.0000 0.0000 0.0000 32.4150
#
#
#
# Elastic Compliance Matrix: (Units=1/GPa)
#
#
# Indices 1 2 3 4 5 6 
#
# 1 0.015324 -0.004740 0.000137 0.000000 0.000000 0.000000
# 2 -0.004740 0.019271 -0.009942 0.000000 0.000000 0.000000
# 3 0.000137 -0.009942 0.019485 0.000000 0.000000 0.000000
# 4 0.000000 0.000000 0.000000 0.030557 0.000000 0.000000
# 5 0.000000 0.000000 0.000000 0.000000 -0.032070 0.000000
# 6 0.000000 0.000000 0.000000 0.000000 0.000000 0.030850
#
#
# Mechanical properties :
#
#
# Convention : Reuss Voigt Hill
#
# Bulk Modulus (GPa) = 40.01471 41.43549 40.72510
# Shear Modulus (GPa) = 41.37812 16.59528 28.98670
#
# Velocity S-wave (km/s) = 4.34764 2.75334 3.63888
# Velocity P-wave (km/s) = 6.59407 5.38851 6.02154
#
# Compressibility (1/GPa) = 0.02499081
#
# Stress axis : x y z
#
# Youngs Moduli (GPa) = 65.25853 51.89137 51.32025
#
# Poissons Ratio (x) = 0.24596 -0.00704
# Poissons Ratio (y) = 0.30931 0.51023
# Poissons Ratio (z) = -0.00896 0.51591
#
# Static dielectric constant tensor:
#      x y z
#    x 3.612110 0.000000 0.000000 
#    y 0.000000 1.836030 0.000000 
#    z 0.000000 0.000000 1.864950 
# 
# From -- ./inp_files/26987.got.cif
#   From: 2010.05.17/outbox.cif.g08.bks.cpg/sg50_14_cif.got.tgz:26987.got - 2010.06.03 11:33:33.
