data_PCOD9395664
_publ_section_title
;
Structure prediction by ZEFSAII (Michael W. Deem and Ramdas Pophale) SiO2 
 PCOD9395664
Probable space group: P B A N
;
_chemical_formula_sum "Si O2"
_cell_formula_units_Z 52
_cell_length_a 22.184782
_cell_length_b 8.781739
_cell_length_c 13.854785
_cell_angle_alpha 90.000000
_cell_angle_beta 90.000000
_cell_angle_gamma 90.000000
_cell_volume 2699.202588
_symmetry_space_group_name_H-M "P B A N"
_symmetry_group_IT_number 50
_space_group.IT_coordinate_system_code '2'
_symmetry_cell_setting 'orthorhombic'
loop_
_space_group_symop_operation_xyz
x,y,z
1/2-x,1/2-y,z
x,1/2-y,-z
1/2-x,y,-z
-x,-y,-z
1/2+x,1/2+y,-z
-x,1/2+y,z
1/2+x,-y,z
loop_
_atom_site_type_symbol
_atom_site_label
_atom_site_fract_x
_atom_site_fract_y
_atom_site_fract_z
Si Si1 0.732246 0.587871 0.207340
Si Si2 0.321961 0.431058 0.501087
Si Si3 0.002167 0.250000 0.500000
Si Si4 0.117737 0.879709 0.795433
Si Si5 0.355880 0.750000 0.000000
Si Si6 0.569184 0.500047 0.379908
Si Si7 0.750000 0.004701 0.000000
Si Si8 0.694204 0.148851 0.334889
O O1 0.750000 0.750000 0.253284
O O2 0.664823 0.521129 0.200557
O O3 0.771411 0.462423 0.261723
O O4 0.749918 0.590246 0.096341
O O5 0.333936 0.250000 0.500000
O O6 0.250000 0.445746 0.500000
O O7 0.359991 0.491127 0.591378
O O8 0.339465 0.541567 0.412175
O O9 0.961667 0.129781 0.443513
O O10 0.040813 0.343470 0.420404
O O11 0.109713 0.801485 0.901177
O O12 0.063788 0.951034 0.731704
O O13 0.149097 0.751674 0.727599
O O14 0.308854 0.888833 0.987343
O O15 0.750000 0.250000 0.377269
#
# Coordination Sequence:
#
# PCOD9395664 Si02
#       8
#     8   8   4   8   4   8   4   8
#     4  10  19  27  48  78 117 160 198 237 283 353
#     4  11  23  35  56  87 129 153 185 242 309 371
#     4  10  24  42  66  82 116 148 218 258 300 372
#     4  10  20  34  57  80 114 151 206 245 302 355
#     4   9  16  32  52  80 110 162 198 248 277 368
#     4  11  22  42  61  89 111 158 200 257 310 367
#     4   9  15  30  46  72 116 164 208 224 284 348
#     4  10  20  33  49  75 113 167 198 225 279 368
#
# _framework density 19.264949999999999
#
# number of rings (size 3 to 8) (size 9 to 14) (size 15 to 20)
#    0.000    1.846    2.308    3.000    4.308    1.538 
#    0.000    0.000    0.000    0.923    0.000    0.000 
#    0.000    0.000    0.000    0.000    0.000    0.000 
#
# Total GULP energy -289570.204064 kJ/mol
# GULP energy per Si atom -5568.657770 kJ/mol
# Density = 1.922110 g / cm^3
# Si number density = 19.264950 Si / 1000 Ang^3
#
#
#
# Elastic Constant Matrix: (Units=GPa)
#
#
# Indices 1 2 3 4 5 6 
#
# 1 36.3434 19.0386 15.8521 0.0000 0.0000 0.0000
# 2 19.0386 118.8860 40.9726 0.0000 0.0000 0.0000
# 3 15.8521 40.9726 125.5698 0.0000 0.0000 0.0000
# 4 0.0000 0.0000 0.0000 5.0160 0.0000 0.0000
# 5 0.0000 0.0000 0.0000 0.0000 1.9279 0.0000
# 6 0.0000 0.0000 0.0000 0.0000 0.0000 1.0041
#
#
#
# Elastic Compliance Matrix: (Units=1/GPa)
#
#
# Indices 1 2 3 4 5 6 
#
# 1 0.030750 -0.004041 -0.002563 0.000000 0.000000 0.000000
# 2 -0.004041 0.010008 -0.002755 0.000000 0.000000 0.000000
# 3 -0.002563 -0.002755 0.009186 0.000000 0.000000 0.000000
# 4 0.000000 0.000000 0.000000 0.199361 0.000000 0.000000
# 5 0.000000 0.000000 0.000000 0.000000 0.518689 0.000000
# 6 0.000000 0.000000 0.000000 0.000000 0.000000 0.995876
#
#
# Mechanical properties :
#
#
# Convention : Reuss Voigt Hill
#
# Bulk Modulus (GPa) = 32.02541 48.05842 40.04191
# Shear Modulus (GPa) = 2.78862 15.25200 9.02031
#
# Velocity S-wave (km/s) = 1.20443 2.81676 2.16620
# Velocity P-wave (km/s) = 4.31207 5.96482 5.20447
#
# Compressibility (1/GPa) = 0.03122521
#
# Stress axis : x y z
#
# Youngs Moduli (GPa) = 32.51999 99.91822 108.85652
#
# Poissons Ratio (x) = 0.40376 0.27904
# Poissons Ratio (y) = 0.13141 0.29995
# Poissons Ratio (z) = 0.08336 0.27532
#
# Static dielectric constant tensor:
#      x y z
#    x 1.684230 0.000000 0.000000 
#    y 0.000000 1.704810 0.000000 
#    z 0.000000 0.000000 1.724050 
# 
# From -- ./inp_files/27217.got.cif
#   From: 2010.05.17/outbox.cif.g08.bks.cpg/sg50_14_cif.got.tgz:27217.got - 2010.06.03 11:33:33.
