data_PCOD9395851
_publ_section_title
;
Structure prediction by ZEFSAII (Michael W. Deem and Ramdas Pophale) SiO2 
 PCOD9395851
Probable space group: P B A N
;
_chemical_formula_sum "Si O2"
_cell_formula_units_Z 34
_cell_length_a 4.959133
_cell_length_b 12.522693
_cell_length_c 22.513497
_cell_angle_alpha 90.000000
_cell_angle_beta 90.000000
_cell_angle_gamma 90.000000
_cell_volume 1398.126439
_symmetry_space_group_name_H-M "P B A N"
_symmetry_group_IT_number 50
_space_group.IT_coordinate_system_code '2'
_symmetry_cell_setting 'orthorhombic'
loop_
_space_group_symop_operation_xyz
x,y,z
1/2-x,1/2-y,z
x,1/2-y,-z
1/2-x,y,-z
-x,-y,-z
1/2+x,1/2+y,-z
-x,1/2+y,z
1/2+x,-y,z
loop_
_atom_site_type_symbol
_atom_site_label
_atom_site_fract_x
_atom_site_fract_y
_atom_site_fract_z
Si Si1 0.789889 0.425224 0.564022
Si Si2 0.891201 0.426938 0.313414
Si Si3 0.563542 0.568611 0.071567
Si Si4 0.250000 0.750000 0.000000
Si Si5 0.014054 0.820831 0.190938
O O1 0.750000 0.371915 0.500000
O O2 0.592548 0.529725 0.564464
O O3 0.696425 0.370401 0.625119
O O4 0.695023 0.529711 0.313163
O O5 0.865965 0.364641 0.252382
O O6 0.865913 0.530965 0.058228
O O7 0.555562 0.590819 0.142279
O O8 0.442763 0.672828 0.039406
O O9 0.250000 0.750000 0.163299
O O10 0.750000 0.750000 0.202378
#
# Coordination Sequence:
#
# PCOD9395851 Si02
#       5
#     8   8   8   2   8
#     4   8  14  25  45  76 111 147 195 256 313 372
#     4  10  19  34  57  86 118 158 211 265 324 396
#     4  12  27  48  74 103 137 181 225 279 342 406
#     4  12  28  50  76 108 144 174 230 282 336 420
#     4  12  24  42  64  92 131 172 219 277 336 399
#
# _framework density 24.318261
#
# number of rings (size 3 to 8) (size 9 to 14) (size 15 to 20)
#    0.000    1.412    1.176    4.941    0.000    0.941 
#    0.000    0.000    0.000    0.706    0.000    1.647 
#    0.000    0.000    0.000    0.000    0.000    0.000 
#
# Total GULP energy -190127.711026 kJ/mol
# GULP energy per Si atom -5591.991501 kJ/mol
# Density = 2.426291 g / cm^3
# Si number density = 24.318261 Si / 1000 Ang^3
#
#
#
# Elastic Constant Matrix: (Units=GPa)
#
#
# Indices 1 2 3 4 5 6 
#
# 1 97.8756 14.3195 9.7269 0.0000 0.0000 0.0000
# 2 14.3195 75.2402 47.6931 0.0000 0.0000 0.0000
# 3 9.7269 47.6931 190.6939 0.0000 0.0000 0.0000
# 4 0.0000 0.0000 0.0000 -5.9563 0.0000 0.0000
# 5 0.0000 0.0000 0.0000 0.0000 109.7890 0.0000
# 6 0.0000 0.0000 0.0000 0.0000 0.0000 24.3247
#
#
#
# Elastic Compliance Matrix: (Units=1/GPa)
#
#
# Indices 1 2 3 4 5 6 
#
# 1 0.010510 -0.001973 -0.000043 0.000000 0.000000 0.000000
# 2 -0.001973 0.016165 -0.003942 0.000000 0.000000 0.000000
# 3 -0.000043 -0.003942 0.006232 0.000000 0.000000 0.000000
# 4 0.000000 0.000000 0.000000 -0.167889 0.000000 0.000000
# 5 0.000000 0.000000 0.000000 0.000000 0.009108 0.000000
# 6 0.000000 0.000000 0.000000 0.000000 0.000000 0.041110
#
#
# Mechanical properties :
#
#
# Convention : Reuss Voigt Hill
#
# Bulk Modulus (GPa) = 47.63920 56.36540 52.00230
# Shear Modulus (GPa) = -75.93027 45.10283 -15.41372
#
# Velocity S-wave (km/s) = -5.59387 4.31128 -2.52034
# Velocity P-wave (km/s) = 4.69993 6.92903 3.60014
#
# Compressibility (1/GPa) = 0.02099112
#
# Stress axis : x y z
#
# Youngs Moduli (GPa) = 95.14774 61.86104 160.45785
#
# Poissons Ratio (x) = 0.12207 0.00683
# Poissons Ratio (y) = 0.18775 0.63258
# Poissons Ratio (z) = 0.00405 0.24388
#
# Static dielectric constant tensor:
#      x y z
#    x 1.853040 0.000000 0.000000 
#    y 0.000000 1.884650 0.000000 
#    z 0.000000 0.000000 2.063030 
# 
# From -- ./inp_files/31350.got.cif
#   From: 2010.05.17/outbox.cif.g08.bks.cpg/sg50_16_cif.got.tgz:31350.got - 2010.06.03 11:33:33.
