data_PCOD9395923
_publ_section_title
;
Structure prediction by ZEFSAII (Michael W. Deem and Ramdas Pophale) SiO2 
 PCOD9395923
Probable space group: P B A N
;
_chemical_formula_sum "Si O2"
_cell_formula_units_Z 40
_cell_length_a 16.912328
_cell_length_b 12.502780
_cell_length_c 8.404646
_cell_angle_alpha 90.000000
_cell_angle_beta 90.000000
_cell_angle_gamma 90.000000
_cell_volume 1777.171779
_symmetry_space_group_name_H-M "P B A N"
_symmetry_group_IT_number 50
_space_group.IT_coordinate_system_code '2'
_symmetry_cell_setting 'orthorhombic'
loop_
_space_group_symop_operation_xyz
x,y,z
1/2-x,1/2-y,z
x,1/2-y,-z
1/2-x,y,-z
-x,-y,-z
1/2+x,1/2+y,-z
-x,1/2+y,z
1/2+x,-y,z
loop_
_atom_site_type_symbol
_atom_site_label
_atom_site_fract_x
_atom_site_fract_y
_atom_site_fract_z
Si Si1 0.925537 0.762272 0.807132
Si Si2 0.897379 0.280392 0.182450
Si Si3 0.163569 0.449767 0.219398
Si Si4 0.349676 0.480631 0.154122
Si Si5 0.667251 0.144737 0.587164
O O1 0.867045 0.669547 0.746764
O O2 0.898499 0.882521 0.773677
O O3 0.014775 0.742846 0.752350
O O4 0.922054 0.750000 0.000000
O O5 0.875247 0.402940 0.212246
O O6 0.829696 0.200321 0.241514
O O7 0.905005 0.250000 0.000000
O O8 0.258443 0.459433 0.200392
O O9 0.134581 0.529669 0.359645
O O10 0.136353 0.479137 0.038342
O O11 0.629407 0.250000 0.500000
O O12 0.750000 0.128278 0.500000
#
# Coordination Sequence:
#
# PCOD9395923 Si02
#       5
#     8   8   8   8   8
#     4   9  21  35  63  97 132 159 205 272 337 393
#     4  11  22  38  66  97 127 165 214 271 331 388
#     4  10  20  37  62  90 126 169 211 262 325 387
#     4  10  19  35  62  98 126 157 208 272 326 385
#     4  11  23  40  59  87 128 170 209 264 320 378
#
# _framework density 22.507673
#
# number of rings (size 3 to 8) (size 9 to 14) (size 15 to 20)
#    0.000    1.800    2.000    3.000    2.800    4.800 
#    0.000    1.000    4.400    4.800    0.000    0.000 
#    0.000    0.000    0.000    0.000    0.000    0.000 
#
# Total GULP energy -222891.287566 kJ/mol
# GULP energy per Si atom -5572.282189 kJ/mol
# Density = 2.245644 g / cm^3
# Si number density = 22.507673 Si / 1000 Ang^3
#
#
#
# Elastic Constant Matrix: (Units=GPa)
#
#
# Indices 1 2 3 4 5 6 
#
# 1 85.7198 62.8364 21.7098 0.0000 0.0000 0.0000
# 2 62.8364 181.6899 31.0586 0.0000 0.0000 0.0000
# 3 21.7098 31.0586 29.8341 0.0000 0.0000 0.0000
# 4 0.0000 0.0000 0.0000 37.3228 0.0000 0.0000
# 5 0.0000 0.0000 0.0000 0.0000 21.9722 0.0000
# 6 0.0000 0.0000 0.0000 0.0000 0.0000 8.3144
#
#
#
# Elastic Compliance Matrix: (Units=1/GPa)
#
#
# Indices 1 2 3 4 5 6 
#
# 1 0.016925 -0.004560 -0.007570 0.000000 0.000000 0.000000
# 2 -0.004560 0.007924 -0.004931 0.000000 0.000000 0.000000
# 3 -0.007570 -0.004931 0.044160 0.000000 0.000000 0.000000
# 4 0.000000 0.000000 0.000000 0.026793 0.000000 0.000000
# 5 0.000000 0.000000 0.000000 0.000000 0.045512 0.000000
# 6 0.000000 0.000000 0.000000 0.000000 0.000000 0.120273
#
#
# Mechanical properties :
#
#
# Convention : Reuss Voigt Hill
#
# Bulk Modulus (GPa) = 28.66225 58.71705 43.68965
# Shear Modulus (GPa) = 16.26873 25.63116 20.94994
#
# Velocity S-wave (km/s) = 2.69143 3.37823 3.05420
# Velocity P-wave (km/s) = 4.73502 6.43124 5.64718
#
# Compressibility (1/GPa) = 0.03488910
#
# Stress axis : x y z
#
# Youngs Moduli (GPa) = 59.08279 126.20357 22.64470
#
# Poissons Ratio (x) = 0.57543 0.17141
# Poissons Ratio (y) = 0.26939 0.11166
# Poissons Ratio (z) = 0.44724 0.62231
#
# Static dielectric constant tensor:
#      x y z
#    x 1.855930 0.000000 0.000000 
#    y 0.000000 1.828580 0.000000 
#    z 0.000000 0.000000 2.072430 
# 
# From -- ./inp_files/13900.got.cif
#   From: 2010.05.17/outbox.cif.g08.bks.cpg/sg50_7_cif.got.tgz:13900.got - 2010.06.03 11:33:33.
