data_PCOD9395516
_publ_section_title
;
Structure prediction by ZEFSAII (Michael W. Deem and Ramdas Pophale) SiO2 
 PCOD9395516
Probable space group: P B A N
;
_chemical_formula_sum "Si O2"
_cell_formula_units_Z 56
_cell_length_a 33.304665
_cell_length_b 15.560468
_cell_length_c 5.303495
_cell_angle_alpha 90.000000
_cell_angle_beta 90.000000
_cell_angle_gamma 90.000000
_cell_volume 2748.462958
_symmetry_space_group_name_H-M "P B A N"
_symmetry_group_IT_number 50
_space_group.IT_coordinate_system_code '2'
_symmetry_cell_setting 'orthorhombic'
loop_
_space_group_symop_operation_xyz
x,y,z
1/2-x,1/2-y,z
x,1/2-y,-z
1/2-x,y,-z
-x,-y,-z
1/2+x,1/2+y,-z
-x,1/2+y,z
1/2+x,-y,z
loop_
_atom_site_type_symbol
_atom_site_label
_atom_site_fract_x
_atom_site_fract_y
_atom_site_fract_z
Si Si1 0.733847 0.595269 0.245921
Si Si2 0.852295 0.306082 0.250722
Si Si3 0.882747 0.469468 0.384582
Si Si4 0.642616 0.552106 0.123533
Si Si5 0.730980 0.398515 0.751040
Si Si6 0.058141 0.153134 0.902600
Si Si7 0.533440 0.932721 0.409103
O O1 0.750000 0.636216 0.500000
O O2 0.686050 0.587179 0.209063
O O3 0.756012 0.499700 0.247673
O O4 0.750000 0.641031 0.000000
O O5 0.847971 0.250000 0.500000
O O6 0.888485 0.372321 0.292429
O O7 0.814846 0.371703 0.243185
O O8 0.854430 0.250000 0.000000
O O9 0.864169 0.477582 0.665278
O O10 0.924957 0.515658 0.407112
O O11 0.858120 0.519635 0.165162
O O12 0.603604 0.614428 0.129418
O O13 0.750000 0.361485 0.500000
O O14 0.750000 0.359991 0.000000
O O15 0.037754 0.138740 0.629902
O O16 0.061485 0.250000 0.000000
O O17 0.032861 0.104519 0.124127
O O18 0.500000 0.000000 0.500000
#
# Coordination Sequence:
#
# PCOD9395516 Si02
#       7
#     8   8   8   8   8   8   8
#     4  10  18  29  49  75 102 137 189 241 287 341
#     4  12  24  35  48  69 104 146 192 244 290 336
#     4  10  20  37  56  76 107 149 195 236 285 353
#     4  10  19  35  59  81 108 149 192 239 290 354
#     4  10  19  31  45  63  92 131 181 235 284 330
#     4  10  21  38  64  97 125 153 194 246 301 352
#     4  10  21  39  65  93 123 157 194 237 291 364
#
# _framework density 20.375024
#
# number of rings (size 3 to 8) (size 9 to 14) (size 15 to 20)
#    0.000    1.714    0.000    6.857    0.000    1.714 
#    0.000    2.143    0.000    0.429    0.000    1.000 
#    0.000    0.000    0.000    0.000    0.000    0.000 
#
# Total GULP energy -312019.386862 kJ/mol
# GULP energy per Si atom -5571.774765 kJ/mol
# Density = 2.032865 g / cm^3
# Si number density = 20.375024 Si / 1000 Ang^3
#
#
#
# Elastic Constant Matrix: (Units=GPa)
#
#
# Indices 1 2 3 4 5 6 
#
# 1 29.1819 16.7853 38.6563 0.0000 0.0000 0.0000
# 2 16.7853 61.8200 24.6484 0.0000 0.0000 0.0000
# 3 38.6563 24.6484 168.4353 0.0000 0.0000 0.0000
# 4 0.0000 0.0000 0.0000 9.3604 0.0000 0.0000
# 5 0.0000 0.0000 0.0000 0.0000 -2.4587 0.0000
# 6 0.0000 0.0000 0.0000 0.0000 0.0000 9.8833
#
#
#
# Elastic Compliance Matrix: (Units=1/GPa)
#
#
# Indices 1 2 3 4 5 6 
#
# 1 0.054997 -0.010514 -0.011083 0.000000 0.000000 0.000000
# 2 -0.010514 0.019188 -0.000395 0.000000 0.000000 0.000000
# 3 -0.011083 -0.000395 0.008538 0.000000 0.000000 0.000000
# 4 0.000000 0.000000 0.000000 0.106833 0.000000 0.000000
# 5 0.000000 0.000000 0.000000 0.000000 -0.406711 0.000000
# 6 0.000000 0.000000 0.000000 0.000000 0.000000 0.101181
#
#
# Mechanical properties :
#
#
# Convention : Reuss Voigt Hill
#
# Bulk Modulus (GPa) = 25.81350 46.62414 36.21882
# Shear Modulus (GPa) = -84.63584 15.31348 -34.66118
#
# Velocity S-wave (km/s) = -6.45207 2.74447 -4.12899
# Velocity P-wave (km/s) = 6.54285 5.74243 2.21736
#
# Compressibility (1/GPa) = 0.03873942
#
# Stress axis : x y z
#
# Youngs Moduli (GPa) = 18.18283 52.11551 117.11703
#
# Poissons Ratio (x) = 0.54792 1.29805
# Poissons Ratio (y) = 0.19117 0.04627
# Poissons Ratio (z) = 0.20153 0.02059
#
# Static dielectric constant tensor:
#      x y z
#    x 1.795470 0.000000 0.000000 
#    y 0.000000 -0.924050 0.000000 
#    z 0.000000 0.000000 1.776420 
# 
# From -- ./inp_files/7205.got.cif
#   From: 2010.05.17/outbox.cif.g08.bks.cpg/sg50_4_cif.got.tgz:7205.got - 2010.06.03 11:33:33.
