data_PCOD9395691
_publ_section_title
;
Structure prediction by ZEFSAII (Michael W. Deem and Ramdas Pophale) SiO2 
 PCOD9395691
Probable space group: P B A N
;
_chemical_formula_sum "Si O2"
_cell_formula_units_Z 48
_cell_length_a 22.858342
_cell_length_b 9.494133
_cell_length_c 12.045319
_cell_angle_alpha 90.000000
_cell_angle_beta 90.000000
_cell_angle_gamma 90.000000
_cell_volume 2614.076805
_symmetry_space_group_name_H-M "P B A N"
_symmetry_group_IT_number 50
_space_group.IT_coordinate_system_code '2'
_symmetry_cell_setting 'orthorhombic'
loop_
_space_group_symop_operation_xyz
x,y,z
1/2-x,1/2-y,z
x,1/2-y,-z
1/2-x,y,-z
-x,-y,-z
1/2+x,1/2+y,-z
-x,1/2+y,z
1/2+x,-y,z
loop_
_atom_site_type_symbol
_atom_site_label
_atom_site_fract_x
_atom_site_fract_y
_atom_site_fract_z
Si Si1 0.995829 0.368616 0.416579
Si Si2 0.273496 0.102958 0.220123
Si Si3 0.308172 0.681682 0.878900
Si Si4 0.696475 0.024934 0.415953
Si Si5 0.376646 0.073956 0.389745
Si Si6 0.611683 0.249598 0.315846
O O1 0.975648 0.250000 0.500000
O O2 0.062152 0.346178 0.378219
O O3 0.000000 0.500000 0.500000
O O4 0.946709 0.347090 0.322809
O O5 0.250000 0.250000 0.173464
O O6 0.328964 0.125100 0.301574
O O7 0.294220 0.984501 0.132383
O O8 0.224054 0.042703 0.305101
O O9 0.250000 0.750000 0.825315
O O10 0.363921 0.725338 0.807419
O O11 0.312830 0.750000 0.000000
O O12 0.750000 0.054580 0.500000
O O13 0.660590 0.162461 0.382338
O O14 0.652376 0.926213 0.487677
O O15 0.390546 0.908823 0.363377
#
# Coordination Sequence:
#
# PCOD9395691 Si02
#       6
#     8   8   8   8   8   8
#     4  12  22  35  52  83 120 163 199 235 279 344
#     4  10  22  36  57  91 119 150 187 241 301 343
#     4  10  21  40  64  84 106 146 201 250 306 354
#     4  10  19  30  51  81 119 156 187 226 284 353
#     4  10  22  33  52  83 128 158 195 228 276 358
#     4  11  20  36  55  81 112 154 203 241 292 341
#
# _framework density 18.362123
#
# number of rings (size 3 to 8) (size 9 to 14) (size 15 to 20)
#    0.000    1.500    5.000    0.500    2.333    5.667 
#    0.000    1.667    0.000    4.000    0.000    0.000 
#    0.000    0.000    0.000    0.000    0.000    0.000 
#
# Total GULP energy -267495.579706 kJ/mol
# GULP energy per Si atom -5572.824577 kJ/mol
# Density = 1.832033 g / cm^3
# Si number density = 18.362123 Si / 1000 Ang^3
#
#
#
# Elastic Constant Matrix: (Units=GPa)
#
#
# Indices 1 2 3 4 5 6 
#
# 1 114.5927 16.6315 33.0046 0.0000 0.0000 0.0000
# 2 16.6315 71.8019 38.4017 0.0000 0.0000 0.0000
# 3 33.0046 38.4017 80.8105 0.0000 0.0000 0.0000
# 4 0.0000 0.0000 0.0000 14.3461 0.0000 0.0000
# 5 0.0000 0.0000 0.0000 0.0000 19.6970 0.0000
# 6 0.0000 0.0000 0.0000 0.0000 0.0000 28.3471
#
#
#
# Elastic Compliance Matrix: (Units=1/GPa)
#
#
# Indices 1 2 3 4 5 6 
#
# 1 0.009892 -0.000175 -0.003957 0.000000 0.000000 0.000000
# 2 -0.000175 0.018676 -0.008804 0.000000 0.000000 0.000000
# 3 -0.003957 -0.008804 0.018174 0.000000 0.000000 0.000000
# 4 0.000000 0.000000 0.000000 0.069705 0.000000 0.000000
# 5 0.000000 0.000000 0.000000 0.000000 0.050769 0.000000
# 6 0.000000 0.000000 0.000000 0.000000 0.000000 0.035277
#
#
# Mechanical properties :
#
#
# Convention : Reuss Voigt Hill
#
# Bulk Modulus (GPa) = 47.91282 49.25341 48.58312
# Shear Modulus (GPa) = 21.24756 24.42252 22.83504
#
# Velocity S-wave (km/s) = 3.40537 3.65094 3.53029
# Velocity P-wave (km/s) = 6.45073 6.68237 6.56757
#
# Compressibility (1/GPa) = 0.02087124
#
# Stress axis : x y z
#
# Youngs Moduli (GPa) = 101.09626 53.54427 55.02318
#
# Poissons Ratio (x) = 0.00937 0.21771
# Poissons Ratio (y) = 0.01769 0.48440
# Poissons Ratio (z) = 0.40001 0.47138
#
# Static dielectric constant tensor:
#      x y z
#    x 1.704450 0.000000 0.000000 
#    y 0.000000 1.163680 0.000000 
#    z 0.000000 0.000000 1.067490 
# 
# From -- ./inp_files/22753.got.cif
#   From: 2010.05.17/outbox.cif.g08.bks.cpg/sg50_12_cif.got.tgz:22753.got - 2010.06.03 11:33:33.
