data_PCOD9395807
_publ_section_title
;
Structure prediction by ZEFSAII (Michael W. Deem and Ramdas Pophale) SiO2 
 PCOD9395807
Probable space group: P B A N
;
_chemical_formula_sum "Si O2"
_cell_formula_units_Z 60
_cell_length_a 25.054295
_cell_length_b 5.271942
_cell_length_c 21.406914
_cell_angle_alpha 90.000000
_cell_angle_beta 90.000000
_cell_angle_gamma 90.000000
_cell_volume 2827.527742
_symmetry_space_group_name_H-M "P B A N"
_symmetry_group_IT_number 50
_space_group.IT_coordinate_system_code '2'
_symmetry_cell_setting 'orthorhombic'
loop_
_space_group_symop_operation_xyz
x,y,z
1/2-x,1/2-y,z
x,1/2-y,-z
1/2-x,y,-z
-x,-y,-z
1/2+x,1/2+y,-z
-x,1/2+y,z
1/2+x,-y,z
loop_
_atom_site_type_symbol
_atom_site_label
_atom_site_fract_x
_atom_site_fract_y
_atom_site_fract_z
Si Si1 0.030532 0.324579 0.305731
Si Si2 0.750000 0.750000 0.873290
Si Si3 0.349634 0.262960 0.644053
Si Si4 0.688070 0.920484 0.769968
Si Si5 0.189424 0.852810 0.934236
Si Si6 0.486458 0.854719 0.832686
Si Si7 0.362926 0.900744 0.813793
Si Si8 0.313344 0.744102 0.425226
O O1 0.091005 0.271225 0.325880
O O2 0.007205 0.593850 0.327813
O O3 0.022977 0.339414 0.230152
O O4 0.738261 0.957800 0.817008
O O5 0.797339 0.651507 0.919825
O O6 0.308435 0.308669 0.701122
O O7 0.341517 0.504598 0.600249
O O8 0.337897 0.005257 0.607160
O O9 0.654808 0.691895 0.804114
O O10 0.660080 0.194053 0.765013
O O11 0.250000 0.750000 0.931976
O O12 0.156689 0.717906 0.879377
O O13 0.167888 0.750000 0.000000
O O14 0.495448 0.599100 0.869293
O O15 0.426082 0.879251 0.811425
O O16 0.250000 0.750000 0.410539
O O17 0.318597 0.750000 0.500000
#
# Coordination Sequence:
#
# PCOD9395807 Si02
#       8
#     8   4   8   8   8   8   8   8
#     4  10  19  34  58  93 125 159 202 255 319 397
#     4  10  22  37  54  88 129 162 200 262 312 372
#     4  12  23  40  69  97 127 170 214 269 323 389
#     4  11  22  35  57  89 131 156 196 252 323 378
#     4  10  21  39  58  83 121 174 218 254 299 372
#     4  10  19  33  58  82 116 156 196 246 313 383
#     4  11  21  39  58  89 126 165 205 260 317 376
#     4  11  26  47  68  92 128 176 225 261 303 372
#
# _framework density 21.219953
#
# number of rings (size 3 to 8) (size 9 to 14) (size 15 to 20)
#    0.000    1.333    1.333    6.400    1.867    2.133 
#    0.000    0.000    0.000    8.800    0.000    0.000 
#    0.000    0.000    0.000    0.000    0.000    0.000 
#
# Total GULP energy -334226.144812 kJ/mol
# GULP energy per Si atom -5570.435747 kJ/mol
# Density = 2.117166 g / cm^3
# Si number density = 21.219953 Si / 1000 Ang^3
#
#
#
# Elastic Constant Matrix: (Units=GPa)
#
#
# Indices 1 2 3 4 5 6 
#
# 1 87.0632 24.8342 20.8603 0.0000 0.0000 0.0000
# 2 24.8342 163.1698 26.4270 0.0000 0.0000 0.0000
# 3 20.8603 26.4270 97.1100 0.0000 0.0000 0.0000
# 4 0.0000 0.0000 0.0000 19.9219 0.0000 0.0000
# 5 0.0000 0.0000 0.0000 0.0000 -13.3385 0.0000
# 6 0.0000 0.0000 0.0000 0.0000 0.0000 31.1080
#
#
#
# Elastic Compliance Matrix: (Units=1/GPa)
#
#
# Indices 1 2 3 4 5 6 
#
# 1 0.012464 -0.001531 -0.002261 0.000000 0.000000 0.000000
# 2 -0.001531 0.006599 -0.001467 0.000000 0.000000 0.000000
# 3 -0.002261 -0.001467 0.011182 0.000000 0.000000 0.000000
# 4 0.000000 0.000000 0.000000 0.050196 0.000000 0.000000
# 5 0.000000 0.000000 0.000000 0.000000 -0.074971 0.000000
# 6 0.000000 0.000000 0.000000 0.000000 0.000000 0.032146
#
#
# Mechanical properties :
#
#
# Convention : Reuss Voigt Hill
#
# Bulk Modulus (GPa) = 50.68824 54.62066 52.65445
# Shear Modulus (GPa) = 91.39008 25.88638 58.63823
#
# Velocity S-wave (km/s) = 6.56974 3.49651 5.26246
# Velocity P-wave (km/s) = 9.02705 6.48821 7.86080
#
# Compressibility (1/GPa) = 0.01972844
#
# Stress axis : x y z
#
# Youngs Moduli (GPa) = 80.22928 151.53392 89.42555
#
# Poissons Ratio (x) = 0.23198 0.20218
# Poissons Ratio (y) = 0.12282 0.13119
# Poissons Ratio (z) = 0.18139 0.22230
#
# Static dielectric constant tensor:
#      x y z
#    x 1.839830 0.000000 0.000000 
#    y 0.000000 1.980750 0.000000 
#    z 0.000000 0.000000 1.788620 
# 
# From -- ./inp_files/31263.got.cif
#   From: 2010.05.17/outbox.cif.g08.bks.cpg/sg50_16_cif.got.tgz:31263.got - 2010.06.03 11:33:33.
