data_PCOD9395079
_publ_section_title
;
Structure prediction by ZEFSAII (Michael W. Deem and Ramdas Pophale) SiO2 
 PCOD9395079
Probable space group: P C C M
;
_chemical_formula_sum "Si O2"
_cell_formula_units_Z 40
_cell_length_a 9.253648
_cell_length_b 8.145851
_cell_length_c 23.901270
_cell_angle_alpha 90.000000
_cell_angle_beta 90.000000
_cell_angle_gamma 90.000000
_cell_volume 1801.649955
_symmetry_space_group_name_H-M "P C C M"
_symmetry_group_IT_number 49
_symmetry_cell_setting 'orthorhombic'
loop_
_space_group_symop_operation_xyz
x,y,z
-x,-y,z
x,-y,1/2-z
-x,y,1/2-z
-x,-y,-z
x,y,-z
-x,y,1/2+z
x,-y,1/2+z
loop_
_atom_site_type_symbol
_atom_site_label
_atom_site_fract_x
_atom_site_fract_y
_atom_site_fract_z
Si Si1 0.167179 0.155989 0.116942
Si Si2 0.463874 0.675415 0.624309
Si Si3 0.940833 0.313270 0.192269
Si Si4 0.454850 0.757619 0.000000
Si Si5 0.756358 0.036779 0.500000
Si Si6 0.673221 0.107773 0.806703
O O1 0.292701 0.294725 0.119568
O O2 0.019123 0.222796 0.141365
O O3 0.233394 0.010375 0.153826
O O4 0.159659 0.090682 0.054505
O O5 0.500000 0.500000 0.650100
O O6 0.532061 0.676851 0.561454
O O7 0.532580 0.822472 0.661145
O O8 0.772174 0.272649 0.197795
O O9 0.000000 0.500000 0.190164
O O10 0.000000 0.238224 0.250000
O O11 0.601050 0.868215 0.000000
O O12 0.302462 0.852297 0.000000
O O13 0.654867 0.000000 0.750000
#
# Coordination Sequence:
#
# PCOD9395079 Si02
#       6
#     8   8   8   4   4   8
#     4  11  22  41  67  94 126 169 217 260 317 384
#     4  11  23  40  65  99 134 167 211 269 326 378
#     4  11  24  44  65  89 124 166 212 266 326 386
#     4   9  17  36  63  94 129 171 210 258 322 389
#     4   9  18  36  63  95 128 164 214 270 311 377
#     4  12  24  42  64  93 127 167 217 264 315 385
#
# _framework density 22.20187
#
# number of rings (size 3 to 8) (size 9 to 14) (size 15 to 20)
#    0.000    1.200    4.000    2.700    0.000    1.600 
#    0.000    4.500    0.000    0.000    0.000    0.000 
#    0.000    0.000    0.000    0.000    0.000    0.000 
#
# Total GULP energy -223311.206227 kJ/mol
# GULP energy per Si atom -5582.780156 kJ/mol
# Density = 2.215134 g / cm^3
# Si number density = 22.201870 Si / 1000 Ang^3
#
#
#
# Elastic Constant Matrix: (Units=GPa)
#
#
# Indices 1 2 3 4 5 6 
#
# 1 99.8333 22.6339 32.5349 0.0000 0.0000 0.0000
# 2 22.6339 101.3588 34.5438 0.0000 0.0000 0.0000
# 3 32.5349 34.5438 161.8047 0.0000 0.0000 0.0000
# 4 0.0000 0.0000 0.0000 5.8293 0.0000 0.0000
# 5 0.0000 0.0000 0.0000 0.0000 12.5390 0.0000
# 6 0.0000 0.0000 0.0000 0.0000 0.0000 30.0352
#
#
#
# Elastic Compliance Matrix: (Units=1/GPa)
#
#
# Indices 1 2 3 4 5 6 
#
# 1 0.011029 -0.001841 -0.001825 0.000000 0.000000 0.000000
# 2 -0.001841 0.010947 -0.001967 0.000000 0.000000 0.000000
# 3 -0.001825 -0.001967 0.006967 0.000000 0.000000 0.000000
# 4 0.000000 0.000000 0.000000 0.171548 0.000000 0.000000
# 5 0.000000 0.000000 0.000000 0.000000 0.079751 0.000000
# 6 0.000000 0.000000 0.000000 0.000000 0.000000 0.033294
#
#
# Mechanical properties :
#
#
# Convention : Reuss Voigt Hill
#
# Bulk Modulus (GPa) = 56.56691 60.26910 58.41801
# Shear Modulus (GPa) = 15.11971 27.89964 21.50968
#
# Velocity S-wave (km/s) = 2.61245 3.54875 3.11597
# Velocity P-wave (km/s) = 5.88503 6.63298 6.27017
#
# Compressibility (1/GPa) = 0.01767818
#
# Stress axis : x y z
#
# Youngs Moduli (GPa) = 90.67266 91.34587 143.53174
#
# Poissons Ratio (x) = 0.16816 0.26188
# Poissons Ratio (y) = 0.16692 0.28233
# Poissons Ratio (z) = 0.16544 0.17968
#
# Static dielectric constant tensor:
#      x y z
#    x 1.898080 0.000000 0.000000 
#    y 0.000000 1.875780 0.000000 
#    z 0.000000 0.000000 1.803110 
# 
# From -- ./inp_files/20349.got.cif
#   From: 2010.05.17/outbox.cif.g08.bks.cpg/sg49_11_cif.got.tgz:20349.got - 2010.06.03 21:02:19.
