data_PCOD9395749
_publ_section_title
;
Structure prediction by ZEFSAII (Michael W. Deem and Ramdas Pophale) SiO2 
 PCOD9395749
Probable space group: P B A N
;
_chemical_formula_sum "Si O2"
_cell_formula_units_Z 52
_cell_length_a 5.223197
_cell_length_b 14.661000
_cell_length_c 32.321446
_cell_angle_alpha 90.000000
_cell_angle_beta 90.000000
_cell_angle_gamma 90.000000
_cell_volume 2475.088783
_symmetry_space_group_name_H-M "P B A N"
_symmetry_group_IT_number 50
_space_group.IT_coordinate_system_code '2'
_symmetry_cell_setting 'orthorhombic'
loop_
_space_group_symop_operation_xyz
x,y,z
1/2-x,1/2-y,z
x,1/2-y,-z
1/2-x,y,-z
-x,-y,-z
1/2+x,1/2+y,-z
-x,1/2+y,z
1/2+x,-y,z
loop_
_atom_site_type_symbol
_atom_site_label
_atom_site_fract_x
_atom_site_fract_y
_atom_site_fract_z
Si Si1 0.760330 0.859632 0.824075
Si Si2 0.446860 0.558020 0.304788
Si Si3 0.641126 0.560374 0.913131
Si Si4 0.092625 0.937783 0.398158
Si Si5 0.497338 0.647359 0.481344
Si Si6 0.736708 0.141240 0.220850
Si Si7 0.750000 0.935207 0.000000
O O1 0.750000 0.750000 0.821199
O O2 0.821037 0.886123 0.870817
O O3 0.482850 0.894365 0.810012
O O4 0.984365 0.892932 0.793082
O O5 0.740213 0.524780 0.302021
O O6 0.416734 0.597410 0.350993
O O7 0.359981 0.619628 0.266774
O O8 0.352142 0.521365 0.913401
O O9 0.714241 0.613454 0.955718
O O10 0.030618 0.861592 0.432342
O O11 0.369062 0.985870 0.403287
O O12 0.497774 0.750000 0.500000
O O13 0.250000 0.600729 0.500000
O O14 0.750000 0.604547 0.500000
O O15 0.750000 0.250000 0.216748
O O16 0.500000 0.000000 0.000000
#
# Coordination Sequence:
#
# PCOD9395749 Si02
#       7
#     8   8   8   8   8   8   4
#     4  10  21  35  52  75 111 139 176 222 270 316
#     4  10  21  37  58  82 110 138 177 223 263 310
#     4  10  19  32  52  77 102 136 181 221 268 321
#     4  10  21  37  58  83 111 143 177 217 268 316
#     4  10  21  37  56  81 114 140 178 220 259 306
#     4  10  21  37  54  77 107 145 176 215 269 323
#     4   8  16  30  47  70 103 134 168 222 270 316
#
# _framework density 21.009349
#
# number of rings (size 3 to 8) (size 9 to 14) (size 15 to 20)
#    0.000    2.154    0.000    2.769    0.000    5.538 
#    2.769    0.385    6.769    0.000    0.000    9.692 
#    0.000    0.000    0.000    0.000    0.000    0.000 
#
# Total GULP energy -289953.756095 kJ/mol
# GULP energy per Si atom -5576.033771 kJ/mol
# Density = 2.096153 g / cm^3
# Si number density = 21.009349 Si / 1000 Ang^3
#
#
#
# Elastic Constant Matrix: (Units=GPa)
#
#
# Indices 1 2 3 4 5 6 
#
# 1 117.9239 -2.6512 21.7851 0.0000 0.0000 0.0000
# 2 -2.6512 39.4967 11.4401 0.0000 0.0000 0.0000
# 3 21.7851 11.4401 156.4902 0.0000 0.0000 0.0000
# 4 0.0000 0.0000 0.0000 673.9783 0.0000 0.0000
# 5 0.0000 0.0000 0.0000 0.0000 30.6692 0.0000
# 6 0.0000 0.0000 0.0000 0.0000 0.0000 3.1424
#
#
#
# Elastic Compliance Matrix: (Units=1/GPa)
#
#
# Indices 1 2 3 4 5 6 
#
# 1 0.008739 0.000959 -0.001287 0.000000 0.000000 0.000000
# 2 0.000959 0.025972 -0.002032 0.000000 0.000000 0.000000
# 3 -0.001287 -0.002032 0.006718 0.000000 0.000000 0.000000
# 4 0.000000 0.000000 0.000000 0.001484 0.000000 0.000000
# 5 0.000000 0.000000 0.000000 0.000000 0.032606 0.000000
# 6 0.000000 0.000000 0.000000 0.000000 0.000000 0.318225
#
#
# Mechanical properties :
#
#
# Convention : Reuss Voigt Hill
#
# Bulk Modulus (GPa) = 27.24086 41.67321 34.45703
# Shear Modulus (GPa) = 12.17437 160.44710 86.31073
#
# Velocity S-wave (km/s) = 2.40984 8.74844 6.41648
# Velocity P-wave (km/s) = 4.55382 11.04199 8.44579
#
# Compressibility (1/GPa) = 0.03670956
#
# Stress axis : x y z
#
# Youngs Moduli (GPa) = 114.42538 38.50364 148.85678
#
# Poissons Ratio (x) = -0.03694 0.19154
# Poissons Ratio (y) = -0.10977 0.30250
# Poissons Ratio (z) = 0.14724 0.07825
#
# Static dielectric constant tensor:
#      x y z
#    x 1.774520 0.000000 0.000000 
#    y 0.000000 1.726050 0.000000 
#    z 0.000000 0.000000 0.903810 
# 
# From -- ./inp_files/32088.got.cif
#   From: 2010.05.17/outbox.cif.g08.bks.cpg/sg50_17_cif.got.tgz:32088.got - 2010.06.03 11:33:33.
