data_PCOD9395481
_publ_section_title
;
Structure prediction by ZEFSAII (Michael W. Deem and Ramdas Pophale) SiO2 
 PCOD9395481
Probable space group: P B A N
;
_chemical_formula_sum "Si O2"
_cell_formula_units_Z 56
_cell_length_a 8.999068
_cell_length_b 21.521458
_cell_length_c 15.115251
_cell_angle_alpha 90.000000
_cell_angle_beta 90.000000
_cell_angle_gamma 90.000000
_cell_volume 2927.416974
_symmetry_space_group_name_H-M "P B A N"
_symmetry_group_IT_number 50
_space_group.IT_coordinate_system_code '2'
_symmetry_cell_setting 'orthorhombic'
loop_
_space_group_symop_operation_xyz
x,y,z
1/2-x,1/2-y,z
x,1/2-y,-z
1/2-x,y,-z
-x,-y,-z
1/2+x,1/2+y,-z
-x,1/2+y,z
1/2+x,-y,z
loop_
_atom_site_type_symbol
_atom_site_label
_atom_site_fract_x
_atom_site_fract_y
_atom_site_fract_z
Si Si1 0.750000 0.250000 0.723993
Si Si2 0.878832 0.022242 0.068780
Si Si3 0.301146 0.319528 0.268224
Si Si4 0.250000 0.888714 0.500000
Si Si5 0.619055 0.561059 0.243307
Si Si6 0.706324 0.044386 0.323490
Si Si7 0.487607 0.792829 0.417834
Si Si8 0.111093 0.633030 0.200802
O O1 0.609003 0.245745 0.656326
O O2 0.774168 0.309792 0.786564
O O3 0.894641 0.088524 0.116698
O O4 0.858695 0.971683 0.147609
O O5 0.750000 0.029197 0.000000
O O6 0.000000 0.000000 0.000000
O O7 0.250000 0.250000 0.247579
O O8 0.170446 0.368001 0.249210
O O9 0.368070 0.318790 0.367976
O O10 0.446277 0.340905 0.214125
O O11 0.314338 0.931753 0.577505
O O12 0.375605 0.844684 0.456598
O O13 0.728735 0.524167 0.310072
O O14 0.448026 0.551974 0.271117
O O15 0.833789 0.087334 0.279067
O O16 0.527800 0.750000 0.500000
#
# Coordination Sequence:
#
# PCOD9395481 Si02
#       8
#     4   8   8   4   8   8   8   8
#     4  10  17  34  65  88 130 176 212 256 337 381
#     4  11  22  43  75 102 123 167 220 282 341 415
#     4  11  25  41  63  95 134 184 224 263 334 399
#     4  12  21  38  66  94 131 178 236 282 330 368
#     4  11  25  45  66  98 136 171 224 278 350 410
#     4  11  23  41  67  92 133 182 221 284 334 386
#     4  11  20  37  60  91 131 175 238 275 312 384
#     4  10  21  40  66  97 134 168 224 271 336 409
#
# _framework density 19.129493
#
# number of rings (size 3 to 8) (size 9 to 14) (size 15 to 20)
#    0.000    1.143    4.286    4.286    6.000    0.857 
#    0.000    0.357    0.000    3.000    0.000    0.000 
#    0.000    0.000    0.000    0.000    0.000    0.000 
#
# Total GULP energy -312294.593562 kJ/mol
# GULP energy per Si atom -5576.689171 kJ/mol
# Density = 1.908595 g / cm^3
# Si number density = 19.129493 Si / 1000 Ang^3
#
#
#
# Elastic Constant Matrix: (Units=GPa)
#
#
# Indices 1 2 3 4 5 6 
#
# 1 78.3256 40.8629 38.2432 0.0000 0.0000 0.0000
# 2 40.8629 133.6303 56.6550 0.0000 0.0000 0.0000
# 3 38.2432 56.6550 132.0935 0.0000 0.0000 0.0000
# 4 0.0000 0.0000 0.0000 31.1573 0.0000 0.0000
# 5 0.0000 0.0000 0.0000 0.0000 28.6162 0.0000
# 6 0.0000 0.0000 0.0000 0.0000 0.0000 20.0710
#
#
#
# Elastic Compliance Matrix: (Units=1/GPa)
#
#
# Indices 1 2 3 4 5 6 
#
# 1 0.016186 -0.003621 -0.003133 0.000000 0.000000 0.000000
# 2 -0.003621 0.009957 -0.003222 0.000000 0.000000 0.000000
# 3 -0.003133 -0.003222 0.009859 0.000000 0.000000 0.000000
# 4 0.000000 0.000000 0.000000 0.032095 0.000000 0.000000
# 5 0.000000 0.000000 0.000000 0.000000 0.034945 0.000000
# 6 0.000000 0.000000 0.000000 0.000000 0.000000 0.049823
#
#
# Mechanical properties :
#
#
# Convention : Reuss Voigt Hill
#
# Bulk Modulus (GPa) = 62.30656 68.39682 65.35169
# Shear Modulus (GPa) = 28.06334 29.85478 28.95906
#
# Velocity S-wave (km/s) = 3.83432 3.95481 3.89504
# Velocity P-wave (km/s) = 7.22803 7.52903 7.38006
#
# Compressibility (1/GPa) = 0.01604968
#
# Stress axis : x y z
#
# Youngs Moduli (GPa) = 61.78110 100.43464 101.42635
#
# Poissons Ratio (x) = 0.36370 0.31777
# Poissons Ratio (y) = 0.22373 0.32680
# Poissons Ratio (z) = 0.19356 0.32360
#
# Static dielectric constant tensor:
#      x y z
#    x 1.658890 0.000000 0.000000 
#    y 0.000000 1.715560 0.000000 
#    z 0.000000 0.000000 1.678280 
# 
# From -- ./inp_files/25286.got.cif
#   From: 2010.05.17/outbox.cif.g08.bks.cpg/sg50_13_cif.got.tgz:25286.got - 2010.06.03 11:33:33.
