data_PCOD9395825
_publ_section_title
;
Structure prediction by ZEFSAII (Michael W. Deem and Ramdas Pophale) SiO2 
 PCOD9395825
Probable space group: P B A N
;
_chemical_formula_sum "Si O2"
_cell_formula_units_Z 64
_cell_length_a 15.086318
_cell_length_b 16.236070
_cell_length_c 14.373727
_cell_angle_alpha 90.000000
_cell_angle_beta 90.000000
_cell_angle_gamma 90.000000
_cell_volume 3520.736843
_symmetry_space_group_name_H-M "P B A N"
_symmetry_group_IT_number 50
_space_group.IT_coordinate_system_code '2'
_symmetry_cell_setting 'orthorhombic'
loop_
_space_group_symop_operation_xyz
x,y,z
1/2-x,1/2-y,z
x,1/2-y,-z
1/2-x,y,-z
-x,-y,-z
1/2+x,1/2+y,-z
-x,1/2+y,z
1/2+x,-y,z
loop_
_atom_site_type_symbol
_atom_site_label
_atom_site_fract_x
_atom_site_fract_y
_atom_site_fract_z
Si Si1 0.584114 0.390801 0.202124
Si Si2 0.750000 0.847700 0.104430
Si Si3 0.584114 0.109199 0.202124
Si Si4 0.647655 0.348101 1.000000
Si Si5 0.750000 0.531625 0.609053
Si Si6 0.608562 0.917311 0.244360
Si Si7 0.108562 0.417311 0.244360
Si Si8 0.750000 0.341599 0.677525
O O1 0.595988 0.372336 0.093412
O O2 0.487231 0.374433 0.245205
O O3 0.597341 0.488187 0.214009
O O4 0.662925 0.346721 0.257635
O O5 0.750000 0.750000 0.098077
O O6 0.666477 0.875336 0.164784
O O7 0.833524 0.875336 0.164783
O O8 0.750000 0.882770 0.000000
O O9 0.487231 0.125567 0.245205
O O10 0.662926 0.153279 0.257635
O O11 0.597341 0.011813 0.214009
O O12 0.595987 0.127664 0.093412
O O13 0.654333 0.250000 0.000000
O O14 0.750000 0.380890 0.000000
O O15 0.750000 0.547353 0.500000
O O16 0.665387 0.572892 0.661033
O O17 0.834613 0.572893 0.661033
O O18 0.750000 0.430996 0.624448
O O19 0.750000 0.250000 0.631000
#
# Coordination Sequence:
#
# PCOD9395825 Si02
#       8
#     8   8   8   8   8   8   8   8
#     4  10  20  34  53  79 113 153 191 227 264 318
#     4  10  22  35  49  74 109 145 180 226 279 331
#     4  10  20  34  53  79 113 153 191 227 264 318
#     4  11  22  31  48  83 119 160 194 217 258 319
#     4   9  19  40  65  84 104 139 189 240 287 339
#     4   9  21  37  55  80 106 145 189 232 283 324
#     4   9  21  37  55  80 106 145 189 232 283 324
#     4  10  19  34  54  83 121 149 176 224 284 337
#
# _framework density 18.178013
#
# number of rings (size 3 to 8) (size 9 to 14) (size 15 to 20)
#    0.000    2.250    1.250    1.500    3.500    3.250 
#    0.000   10.000    0.000    6.000    0.000    0.000 
#    0.000    0.000    0.000    0.000    0.000    0.000 
#
# Total GULP energy -356578.342210 kJ/mol
# GULP energy per Si atom -5571.536597 kJ/mol
# Density = 1.813664 g / cm^3
# Si number density = 18.178013 Si / 1000 Ang^3
#
#
#
# Elastic Constant Matrix: (Units=GPa)
#
#
# Indices 1 2 3 4 5 6 
#
# 1 161.3019 38.0842 69.7530 0.0000 0.0000 0.0000
# 2 38.0842 32.1932 24.0004 0.0000 0.0000 0.0000
# 3 69.7530 24.0004 155.2770 0.0000 0.0000 0.0000
# 4 0.0000 0.0000 0.0000 7.0871 0.0000 0.0000
# 5 0.0000 0.0000 0.0000 0.0000 8.3803 0.0000
# 6 0.0000 0.0000 0.0000 0.0000 0.0000 49.4635
#
#
#
# Elastic Compliance Matrix: (Units=1/GPa)
#
#
# Indices 1 2 3 4 5 6 
#
# 1 0.009634 -0.009235 -0.002900 0.000000 0.000000 0.000000
# 2 -0.009235 0.043960 -0.002646 0.000000 0.000000 0.000000
# 3 -0.002900 -0.002646 0.008152 0.000000 0.000000 0.000000
# 4 0.000000 0.000000 0.000000 0.141101 0.000000 0.000000
# 5 0.000000 0.000000 0.000000 0.000000 0.119328 0.000000
# 6 0.000000 0.000000 0.000000 0.000000 0.000000 0.020217
#
#
# Mechanical properties :
#
#
# Convention : Reuss Voigt Hill
#
# Bulk Modulus (GPa) = 31.07212 68.04968 49.56090
# Shear Modulus (GPa) = 13.06564 27.44848 20.25706
#
# Velocity S-wave (km/s) = 2.68388 3.89006 3.34184
# Velocity P-wave (km/s) = 5.17055 7.59561 6.49723
#
# Compressibility (1/GPa) = 0.03218319
#
# Stress axis : x y z
#
# Youngs Moduli (GPa) = 103.79662 22.74794 122.66846
#
# Poissons Ratio (x) = 0.21007 0.35580
# Poissons Ratio (y) = 0.95855 0.32461
# Poissons Ratio (z) = 0.30106 0.06020
#
# Static dielectric constant tensor:
#      x y z
#    x 1.693240 0.000000 0.000000 
#    y 0.000000 1.629210 0.000000 
#    z 0.000000 0.000000 1.590860 
# 
# From -- ./inp_files/26629.got.cif
#   From: 2010.05.17/outbox.cif.g08.bks.cpg/sg50_14_cif.got.tgz:26629.got - 2010.06.03 11:33:33.
