data_PCOD9395722
_publ_section_title
;
Structure prediction by ZEFSAII (Michael W. Deem and Ramdas Pophale) SiO2 
 PCOD9395722
Probable space group: P B A N
;
_chemical_formula_sum "Si O2"
_cell_formula_units_Z 64
_cell_length_a 33.125892
_cell_length_b 9.908727
_cell_length_c 11.609357
_cell_angle_alpha 90.000000
_cell_angle_beta 90.000000
_cell_angle_gamma 90.000000
_cell_volume 3810.602176
_symmetry_space_group_name_H-M "P B A N"
_symmetry_group_IT_number 50
_space_group.IT_coordinate_system_code '2'
_symmetry_cell_setting 'orthorhombic'
loop_
_space_group_symop_operation_xyz
x,y,z
1/2-x,1/2-y,z
x,1/2-y,-z
1/2-x,y,-z
-x,-y,-z
1/2+x,1/2+y,-z
-x,1/2+y,z
1/2+x,-y,z
loop_
_atom_site_type_symbol
_atom_site_label
_atom_site_fract_x
_atom_site_fract_y
_atom_site_fract_z
Si Si1 0.677334 0.089632 0.786315
Si Si2 0.299090 0.412504 0.001564
Si Si3 0.029187 0.743641 0.638320
Si Si4 0.095473 0.968432 0.357741
Si Si5 0.247585 0.912466 0.372620
Si Si6 0.937962 0.746312 0.638983
Si Si7 0.326537 0.595199 0.213304
Si Si8 0.401919 0.958084 0.364555
O O1 0.714885 0.049371 0.705786
O O2 0.681310 0.248065 0.822431
O O3 0.637443 0.079168 0.707902
O O4 0.680537 0.988371 0.893193
O O5 0.318265 0.489980 0.111094
O O6 0.305589 0.250000 0.000000
O O7 0.250000 0.434412 0.000000
O O8 0.025450 0.750000 0.500000
O O9 0.053062 0.606673 0.664531
O O10 0.060466 0.862096 0.667345
O O11 0.983869 0.752003 0.685223
O O12 0.130234 0.912608 0.275562
O O13 0.104715 0.948070 0.495501
O O14 0.088244 0.124322 0.330472
O O15 0.250000 0.750000 0.381154
O O16 0.250000 0.970753 0.500000
O O17 0.205919 0.942977 0.310866
O O18 0.941191 0.750000 0.500000
O O19 0.915663 0.608334 0.666152
#
# Coordination Sequence:
#
# PCOD9395722 Si02
#       8
#     8   8   8   8   8   8   8   8
#     4  11  21  36  58  82 109 144 186 229 270 317
#     4  11  25  43  61  79 104 141 186 240 280 322
#     4   9  16  30  50  76 113 152 188 222 267 323
#     4  10  19  31  51  83 119 149 182 226 272 327
#     4   9  18  31  53  82 112 143 174 211 266 325
#     4   9  18  30  48  76 115 158 186 216 269 333
#     4  11  21  36  58  82 109 144 186 229 270 317
#     4  10  19  31  51  83 119 149 182 226 272 327
#
# _framework density 16.795245000000001
#
# number of rings (size 3 to 8) (size 9 to 14) (size 15 to 20)
#    0.000    2.000    2.500    1.875    1.750    4.500 
#    0.000    0.000    0.000    0.750    0.000    5.250 
#    0.000    0.000    0.000    0.000    0.000    0.000 
#
# Total GULP energy -356608.019373 kJ/mol
# GULP energy per Si atom -5572.000303 kJ/mol
# Density = 1.675702 g / cm^3
# Si number density = 16.795245 Si / 1000 Ang^3
#
#
#
# Elastic Constant Matrix: (Units=GPa)
#
#
# Indices 1 2 3 4 5 6 
#
# 1 49.8745 -7.0865 9.6182 0.0000 0.0000 0.0000
# 2 -7.0865 79.4069 14.2813 0.0000 0.0000 0.0000
# 3 9.6182 14.2813 67.7201 0.0000 0.0000 0.0000
# 4 0.0000 0.0000 0.0000 19.2739 0.0000 0.0000
# 5 0.0000 0.0000 0.0000 0.0000 11.2334 0.0000
# 6 0.0000 0.0000 0.0000 0.0000 0.0000 -92.1588
#
#
#
# Elastic Compliance Matrix: (Units=1/GPa)
#
#
# Indices 1 2 3 4 5 6 
#
# 1 0.021088 0.002516 -0.003526 0.000000 0.000000 0.000000
# 2 0.002516 0.013390 -0.003181 0.000000 0.000000 0.000000
# 3 -0.003526 -0.003181 0.015938 0.000000 0.000000 0.000000
# 4 0.000000 0.000000 0.000000 0.051884 0.000000 0.000000
# 5 0.000000 0.000000 0.000000 0.000000 0.089020 0.000000
# 6 0.000000 0.000000 0.000000 0.000000 0.000000 -0.010851
#
#
# Mechanical properties :
#
#
# Convention : Reuss Voigt Hill
#
# Bulk Modulus (GPa) = 23.78999 25.62528 24.70764
# Shear Modulus (GPa) = 24.64728 -0.31773 12.16477
#
# Velocity S-wave (km/s) = 3.83497 -0.43542 2.69420
# Velocity P-wave (km/s) = 5.81419 3.87786 4.94179
#
# Compressibility (1/GPa) = 0.04203448
#
# Stress axis : x y z
#
# Youngs Moduli (GPa) = 47.42093 74.68247 62.74210
#
# Poissons Ratio (x) = -0.18790 0.22121
# Poissons Ratio (y) = -0.11931 0.19959
# Poissons Ratio (z) = 0.16719 0.23757
#
# Static dielectric constant tensor:
#      x y z
#    x 1.564600 0.000000 0.000000 
#    y 0.000000 1.591130 0.000000 
#    z 0.000000 0.000000 1.563070 
# 
# From -- ./inp_files/23409.got.cif
#   From: 2010.05.17/outbox.cif.g08.bks.cpg/sg50_12_cif.got.tgz:23409.got - 2010.06.03 11:33:33.
