data_PCOD9395092
_publ_section_title
;
Structure prediction by ZEFSAII (Michael W. Deem and Ramdas Pophale) SiO2 
 PCOD9395092
Probable space group: P C C M
;
_chemical_formula_sum "Si O2"
_cell_formula_units_Z 30
_cell_length_a 5.093204
_cell_length_b 18.731971
_cell_length_c 14.613843
_cell_angle_alpha 90.000000
_cell_angle_beta 90.000000
_cell_angle_gamma 90.000000
_cell_volume 1394.244646
_symmetry_space_group_name_H-M "P C C M"
_symmetry_group_IT_number 49
_symmetry_cell_setting 'orthorhombic'
loop_
_space_group_symop_operation_xyz
x,y,z
-x,-y,z
x,-y,1/2-z
-x,y,1/2-z
-x,-y,-z
x,y,-z
-x,y,1/2+z
x,-y,1/2+z
loop_
_atom_site_type_symbol
_atom_site_label
_atom_site_fract_x
_atom_site_fract_y
_atom_site_fract_z
Si Si1 0.755872 0.646377 0.316403
Si Si2 0.901421 0.192083 0.852524
Si Si3 0.620356 0.106004 0.400428
Si Si4 0.500000 0.000000 0.250000
Si Si5 0.251916 0.551024 0.000000
O O1 0.500000 0.645960 0.250000
O O2 0.809648 0.726152 0.355040
O O3 0.739898 0.597005 0.406122
O O4 0.000000 0.627120 0.250000
O O5 0.659743 0.142328 0.880199
O O6 0.000000 0.180714 0.750000
O O7 0.161972 0.167760 0.903764
O O8 0.620959 0.071405 0.500000
O O9 0.665109 0.049818 0.318919
O O10 0.500000 0.500000 0.000000
O O11 0.000000 0.500000 0.000000
#
# Coordination Sequence:
#
# PCOD9395092 Si02
#       5
#     8   8   8   2   4
#     4  11  25  46  74 106 146 191 240 297 357 424
#     4  11  22  47  69 103 136 181 234 298 352 409
#     4  12  26  42  71  99 135 185 234 291 357 424
#     4  12  26  50  64 100 148 186 232 290 368 436
#     4  12  28  46  72 114 150 193 239 289 363 434
#
# _framework density 21.517026999999999
#
# number of rings (size 3 to 8) (size 9 to 14) (size 15 to 20)
#    0.000    0.533    2.667    6.000    3.733    5.333 
#    0.000    2.667    0.000    0.000    0.000    0.000 
#    0.000    0.000    0.000    0.000    0.000    0.000 
#
# Total GULP energy -167653.475368 kJ/mol
# GULP energy per Si atom -5588.449179 kJ/mol
# Density = 2.146805 g / cm^3
# Si number density = 21.517027 Si / 1000 Ang^3
#
#
#
# Elastic Constant Matrix: (Units=GPa)
#
#
# Indices 1 2 3 4 5 6 
#
# 1 143.1453 29.1866 38.3869 0.0000 0.0000 0.0000
# 2 29.1866 72.8060 84.2783 0.0000 0.0000 0.0000
# 3 38.3869 84.2783 189.2080 0.0000 0.0000 0.0000
# 4 0.0000 0.0000 0.0000 10.6269 0.0000 0.0000
# 5 0.0000 0.0000 0.0000 0.0000 50.4272 0.0000
# 6 0.0000 0.0000 0.0000 0.0000 0.0000 22.9117
#
#
#
# Elastic Compliance Matrix: (Units=1/GPa)
#
#
# Indices 1 2 3 4 5 6 
#
# 1 0.007621 -0.002612 -0.000383 0.000000 0.000000 0.000000
# 2 -0.002612 0.029251 -0.012499 0.000000 0.000000 0.000000
# 3 -0.000383 -0.012499 0.010930 0.000000 0.000000 0.000000
# 4 0.000000 0.000000 0.000000 0.094101 0.000000 0.000000
# 5 0.000000 0.000000 0.000000 0.000000 0.019831 0.000000
# 6 0.000000 0.000000 0.000000 0.000000 0.000000 0.043646
#
#
# Mechanical properties :
#
#
# Convention : Reuss Voigt Hill
#
# Bulk Modulus (GPa) = 59.47311 78.76254 69.11783
# Shear Modulus (GPa) = 20.66343 33.68030 27.17187
#
# Velocity S-wave (km/s) = 3.10228 3.96066 3.55746
# Velocity P-wave (km/s) = 6.36649 7.58947 7.00472
#
# Compressibility (1/GPa) = 0.01681432
#
# Stress axis : x y z
#
# Youngs Moduli (GPa) = 131.21388 34.18662 91.48853
#
# Poissons Ratio (x) = 0.08931 0.03500
# Poissons Ratio (y) = 0.34277 1.14354
# Poissons Ratio (z) = 0.05020 0.42731
#
# Static dielectric constant tensor:
#      x y z
#    x 1.745140 0.000000 0.000000 
#    y 0.000000 1.789670 0.000000 
#    z 0.000000 0.000000 1.784320 
# 
# From -- ./inp_files/10553.got.cif
#   From: 2010.05.17/outbox.cif.g08.bks.cpg/sg49_6_cif.got.tgz:10553.got - 2010.06.03 21:02:19.
