data_PCOD9395826
_publ_section_title
;
Structure prediction by ZEFSAII (Michael W. Deem and Ramdas Pophale) SiO2 
 PCOD9395826
Probable space group: P B A N
;
_chemical_formula_sum "Si O2"
_cell_formula_units_Z 48
_cell_length_a 5.173177
_cell_length_b 24.624013
_cell_length_c 21.082796
_cell_angle_alpha 90.000000
_cell_angle_beta 90.000000
_cell_angle_gamma 90.000000
_cell_volume 2685.618849
_symmetry_space_group_name_H-M "P B A N"
_symmetry_group_IT_number 50
_space_group.IT_coordinate_system_code '2'
_symmetry_cell_setting 'orthorhombic'
loop_
_space_group_symop_operation_xyz
x,y,z
1/2-x,1/2-y,z
x,1/2-y,-z
1/2-x,y,-z
-x,-y,-z
1/2+x,1/2+y,-z
-x,1/2+y,z
1/2+x,-y,z
loop_
_atom_site_type_symbol
_atom_site_label
_atom_site_fract_x
_atom_site_fract_y
_atom_site_fract_z
Si Si1 0.784008 0.963211 0.068535
Si Si2 0.740164 0.964216 0.424463
Si Si3 0.138688 0.462513 0.798470
Si Si4 0.680513 0.310205 0.673042
Si Si5 0.492322 0.811028 0.528626
Si Si6 0.704758 0.620911 0.684727
O O1 0.704135 0.934058 0.133752
O O2 0.574856 0.013079 0.069444
O O3 0.750000 0.935498 0.000000
O O4 0.750000 0.954114 0.500000
O O5 0.772817 0.912050 0.379594
O O6 0.468516 0.993177 0.409623
O O7 0.359395 0.509035 0.795988
O O8 0.158518 0.422628 0.739661
O O9 0.750000 0.250000 0.696356
O O10 0.558279 0.304333 0.602411
O O11 0.447243 0.342148 0.706080
O O12 0.945567 0.344310 0.672377
O O13 0.492855 0.750000 0.500000
O O14 0.250000 0.842590 0.500000
O O15 0.750000 0.835162 0.500000
#
# Coordination Sequence:
#
# PCOD9395826 Si02
#       6
#     8   8   8   8   8   8
#     4   8  14  25  45  75 110 144 170 199 249 304
#     4  10  21  39  56  71  98 126 162 213 253 293
#     4  10  19  34  55  80 112 144 177 216 251 301
#     4  12  25  40  52  75 105 131 166 223 270 317
#     4  10  19  34  55  68  87 120 149 202 272 330
#     4  12  24  36  57  78 100 136 182 206 261 330
#
# _framework density 17.872976999999999
#
# number of rings (size 3 to 8) (size 9 to 14) (size 15 to 20)
#    0.000    1.667    1.667    4.500    2.333    2.000 
#    0.000    0.000    0.000    0.000    0.000    0.000 
#    0.000    4.000    0.000    0.000    0.000    0.000 
#
# Total GULP energy -267713.536059 kJ/mol
# GULP energy per Si atom -5577.365335 kJ/mol
# Density = 1.783230 g / cm^3
# Si number density = 17.872977 Si / 1000 Ang^3
#
#
#
# Elastic Constant Matrix: (Units=GPa)
#
#
# Indices 1 2 3 4 5 6 
#
# 1 105.1143 13.5199 -7.1402 0.0000 0.0000 0.0000
# 2 13.5199 59.5509 22.3830 0.0000 0.0000 0.0000
# 3 -7.1402 22.3830 78.8525 0.0000 0.0000 0.0000
# 4 0.0000 0.0000 0.0000 5.0721 0.0000 0.0000
# 5 0.0000 0.0000 0.0000 0.0000 19.6501 0.0000
# 6 0.0000 0.0000 0.0000 0.0000 0.0000 17.7032
#
#
#
# Elastic Compliance Matrix: (Units=1/GPa)
#
#
# Indices 1 2 3 4 5 6 
#
# 1 0.010008 -0.002925 0.001736 0.000000 0.000000 0.000000
# 2 -0.002925 0.019653 -0.005843 0.000000 0.000000 0.000000
# 3 0.001736 -0.005843 0.014498 0.000000 0.000000 0.000000
# 4 0.000000 0.000000 0.000000 0.197155 0.000000 0.000000
# 5 0.000000 0.000000 0.000000 0.000000 0.050890 0.000000
# 6 0.000000 0.000000 0.000000 0.000000 0.000000 0.056487
#
#
# Mechanical properties :
#
#
# Convention : Reuss Voigt Hill
#
# Bulk Modulus (GPa) = 33.22846 33.44924 33.33885
# Shear Modulus (GPa) = 13.41252 22.80208 18.10730
#
# Velocity S-wave (km/s) = 2.74238 3.57569 3.18639
# Velocity P-wave (km/s) = 5.35344 5.98356 5.67725
#
# Compressibility (1/GPa) = 0.03009468
#
# Stress axis : x y z
#
# Youngs Moduli (GPa) = 99.92431 50.88359 68.97576
#
# Poissons Ratio (x) = 0.14882 -0.11977
# Poissons Ratio (y) = 0.29225 0.40306
# Poissons Ratio (z) = -0.17351 0.29734
#
# Static dielectric constant tensor:
#      x y z
#    x 1.662860 0.000000 0.000000 
#    y 0.000000 1.587150 0.000000 
#    z 0.000000 0.000000 1.666690 
# 
# From -- ./inp_files/30374.got.cif
#   From: 2010.05.17/outbox.cif.g08.bks.cpg/sg50_16_cif.got.tgz:30374.got - 2010.06.03 11:33:33.
