data_PCOD9395999
_publ_section_title
;
Structure prediction by ZEFSAII (Michael W. Deem and Ramdas Pophale) SiO2 
 PCOD9395999
Probable space group: P B A N
;
_chemical_formula_sum "Si O2"
_cell_formula_units_Z 40
_cell_length_a 23.208204
_cell_length_b 9.447051
_cell_length_c 8.293526
_cell_angle_alpha 90.000000
_cell_angle_beta 90.000000
_cell_angle_gamma 90.000000
_cell_volume 1818.348002
_symmetry_space_group_name_H-M "P B A N"
_symmetry_group_IT_number 50
_space_group.IT_coordinate_system_code '2'
_symmetry_cell_setting 'orthorhombic'
loop_
_space_group_symop_operation_xyz
x,y,z
1/2-x,1/2-y,z
x,1/2-y,-z
1/2-x,y,-z
-x,-y,-z
1/2+x,1/2+y,-z
-x,1/2+y,z
1/2+x,-y,z
loop_
_atom_site_type_symbol
_atom_site_label
_atom_site_fract_x
_atom_site_fract_y
_atom_site_fract_z
Si Si1 0.456267 0.541200 0.267018
Si Si2 0.690997 0.435604 0.904759
Si Si3 0.915208 0.942885 0.380345
Si Si4 0.870252 0.199644 0.204920
Si Si5 0.619982 0.815305 0.173524
O O1 0.524074 0.557982 0.283712
O O2 0.433118 0.473050 0.435844
O O3 0.424229 0.689974 0.227199
O O4 0.437033 0.413113 0.152497
O O5 0.684991 0.301532 0.787814
O O6 0.671263 0.571681 0.806605
O O7 0.750000 0.451181 0.000000
O O8 0.642566 0.390581 0.040528
O O9 0.885319 0.801013 0.313546
O O10 0.878147 0.078953 0.334469
O O11 0.631691 0.750000 0.000000
#
# Coordination Sequence:
#
# PCOD9395999 Si02
#       5
#     8   8   8   8   8
#     4  10  23  38  61  86 134 174 195 234 305 381
#     4  10  22  42  62  88 119 158 204 263 332 363
#     4  11  21  40  59  92 128 171 202 235 304 377
#     4  10  19  37  61  91 114 158 212 248 292 370
#     4  11  22  39  58  95 119 161 205 259 303 357
#
# _framework density 21.997987999999999
#
# number of rings (size 3 to 8) (size 9 to 14) (size 15 to 20)
#    0.000    1.600    2.000    3.600    0.000    4.400 
#   10.800    0.000    0.000   20.400   10.400    0.000 
#    0.000    0.000    0.000    0.000    0.000    0.000 
#
# Total GULP energy -222774.613845 kJ/mol
# GULP energy per Si atom -5569.365346 kJ/mol
# Density = 2.194792 g / cm^3
# Si number density = 21.997988 Si / 1000 Ang^3
#
#
#
# Elastic Constant Matrix: (Units=GPa)
#
#
# Indices 1 2 3 4 5 6 
#
# 1 86.3353 40.0909 17.0570 0.0000 0.0000 0.0000
# 2 40.0909 157.7110 25.6134 0.0000 0.0000 0.0000
# 3 17.0570 25.6134 37.2547 0.0000 0.0000 0.0000
# 4 0.0000 0.0000 0.0000 31.8705 0.0000 0.0000
# 5 0.0000 0.0000 0.0000 0.0000 29.1627 0.0000
# 6 0.0000 0.0000 0.0000 0.0000 0.0000 14.4818
#
#
#
# Elastic Compliance Matrix: (Units=1/GPa)
#
#
# Indices 1 2 3 4 5 6 
#
# 1 0.013739 -0.002782 -0.004378 0.000000 0.000000 0.000000
# 2 -0.002782 0.007701 -0.004021 0.000000 0.000000 0.000000
# 3 -0.004378 -0.004021 0.031611 0.000000 0.000000 0.000000
# 4 0.000000 0.000000 0.000000 0.031377 0.000000 0.000000
# 5 0.000000 0.000000 0.000000 0.000000 0.034290 0.000000
# 6 0.000000 0.000000 0.000000 0.000000 0.000000 0.069052
#
#
# Mechanical properties :
#
#
# Convention : Reuss Voigt Hill
#
# Bulk Modulus (GPa) = 32.58376 49.64707 41.11541
# Shear Modulus (GPa) = 22.68988 28.33898 25.51443
#
# Velocity S-wave (km/s) = 3.21511 3.59312 3.40936
# Velocity P-wave (km/s) = 5.35041 6.31125 5.85059
#
# Compressibility (1/GPa) = 0.03069014
#
# Stress axis : x y z
#
# Youngs Moduli (GPa) = 72.78345 129.85609 31.63426
#
# Poissons Ratio (x) = 0.36120 0.13850
# Poissons Ratio (y) = 0.20245 0.12720
# Poissons Ratio (z) = 0.31866 0.52215
#
# Static dielectric constant tensor:
#      x y z
#    x 1.828310 0.000000 0.000000 
#    y 0.000000 1.871650 0.000000 
#    z 0.000000 0.000000 1.921430 
# 
# From -- ./inp_files/16360.got.cif
#   From: 2010.05.17/outbox.cif.g08.bks.cpg/sg50_9_cif.got.tgz:16360.got - 2010.06.03 11:33:33.
