data_PCOD9395778
_publ_section_title
;
Structure prediction by ZEFSAII (Michael W. Deem and Ramdas Pophale) SiO2 
 PCOD9395778
Probable space group: P B A N
;
_chemical_formula_sum "Si O2"
_cell_formula_units_Z 58
_cell_length_a 8.269210
_cell_length_b 24.110864
_cell_length_c 14.616655
_cell_angle_alpha 90.000000
_cell_angle_beta 90.000000
_cell_angle_gamma 90.000000
_cell_volume 2914.236484
_symmetry_space_group_name_H-M "P B A N"
_symmetry_group_IT_number 50
_space_group.IT_coordinate_system_code '2'
_symmetry_cell_setting 'orthorhombic'
loop_
_space_group_symop_operation_xyz
x,y,z
1/2-x,1/2-y,z
x,1/2-y,-z
1/2-x,y,-z
-x,-y,-z
1/2+x,1/2+y,-z
-x,1/2+y,z
1/2+x,-y,z
loop_
_atom_site_type_symbol
_atom_site_label
_atom_site_fract_x
_atom_site_fract_y
_atom_site_fract_z
Si Si1 0.804006 0.813421 0.105196
Si Si2 0.791501 0.165220 0.597159
Si Si3 0.845930 0.044972 0.589853
Si Si4 0.076758 0.987860 0.715626
Si Si5 0.250000 0.250000 0.500000
Si Si6 0.925856 0.270857 0.228309
Si Si7 0.291622 0.412583 0.232436
Si Si8 0.931160 0.822830 0.650347
O O1 0.750000 0.750000 0.121851
O O2 0.728743 0.866796 0.154897
O O3 0.983579 0.807796 0.152184
O O4 0.750000 0.821525 0.000000
O O5 0.750000 0.192748 0.500000
O O6 0.888378 0.109083 0.575406
O O7 0.884407 0.197770 0.676091
O O8 0.609870 0.153857 0.632358
O O9 0.750000 0.026888 0.500000
O O10 0.734029 0.044100 0.680733
O O11 0.986883 0.005096 0.621649
O O12 0.953393 0.950337 0.772694
O O13 0.142754 0.044660 0.760332
O O14 0.141437 0.211615 0.433824
O O15 0.750000 0.250000 0.194459
O O16 0.036262 0.219948 0.265529
O O17 0.315628 0.373546 0.321771
#
# Coordination Sequence:
#
# PCOD9395778 Si02
#       8
#     8   8   8   8   2   8   8   8
#     4  11  23  43  72 102 132 167 208 279 351 416
#     4  10  20  34  56  86 130 170 217 261 321 389
#     4  10  19  33  51  78 116 158 220 263 310 365
#     4  10  22  37  59  84 115 176 217 269 328 393
#     4  12  24  32  54  92 138 176 234 268 350 400
#     4  10  21  39  65  92 133 176 215 259 341 410
#     4  11  22  43  64  89 128 166 224 271 343 398
#     4  11  21  36  55  87 125 175 214 273 323 402
#
# _framework density 19.902297999999998
#
# number of rings (size 3 to 8) (size 9 to 14) (size 15 to 20)
#    0.000    1.517    2.759    2.897    0.000    4.138 
#    4.966    2.069    0.000    0.000    0.000    0.000 
#    0.000    0.000    0.000    0.000    0.000    0.000 
#
# Total GULP energy -322941.087103 kJ/mol
# GULP energy per Si atom -5567.949778 kJ/mol
# Density = 1.985700 g / cm^3
# Si number density = 19.902298 Si / 1000 Ang^3
#
#
#
# Elastic Constant Matrix: (Units=GPa)
#
#
# Indices 1 2 3 4 5 6 
#
# 1 74.5622 42.9060 46.8792 0.0000 0.0000 0.0000
# 2 42.9060 118.5040 48.0932 0.0000 0.0000 0.0000
# 3 46.8792 48.0932 100.6058 0.0000 0.0000 0.0000
# 4 0.0000 0.0000 0.0000 152.4965 0.0000 0.0000
# 5 0.0000 0.0000 0.0000 0.0000 16.3568 0.0000
# 6 0.0000 0.0000 0.0000 0.0000 0.0000 33.8695
#
#
#
# Elastic Compliance Matrix: (Units=1/GPa)
#
#
# Indices 1 2 3 4 5 6 
#
# 1 0.020696 -0.004441 -0.007521 0.000000 0.000000 0.000000
# 2 -0.004441 0.011423 -0.003391 0.000000 0.000000 0.000000
# 3 -0.007521 -0.003391 0.015065 0.000000 0.000000 0.000000
# 4 0.000000 0.000000 0.000000 0.006558 0.000000 0.000000
# 5 0.000000 0.000000 0.000000 0.000000 0.061137 0.000000
# 6 0.000000 0.000000 0.000000 0.000000 0.000000 0.029525
#
#
# Mechanical properties :
#
#
# Convention : Reuss Voigt Hill
#
# Bulk Modulus (GPa) = 60.68636 63.26986 61.97811
# Shear Modulus (GPa) = 27.68538 50.93080 39.30809
#
# Velocity S-wave (km/s) = 3.73374 5.06418 4.44898
# Velocity P-wave (km/s) = 7.01043 8.12735 7.58947
#
# Compressibility (1/GPa) = 0.01647817
#
# Stress axis : x y z
#
# Youngs Moduli (GPa) = 48.31967 87.54516 66.37821
#
# Poissons Ratio (x) = 0.38879 0.49920
# Poissons Ratio (y) = 0.21459 0.22509
# Poissons Ratio (z) = 0.36339 0.29687
#
# Static dielectric constant tensor:
#      x y z
#    x 1.791360 0.000000 0.000000 
#    y 0.000000 1.751820 0.000000 
#    z 0.000000 0.000000 1.730480 
# 
# From -- ./inp_files/25367.got.cif
#   From: 2010.05.17/outbox.cif.g08.bks.cpg/sg50_13_cif.got.tgz:25367.got - 2010.06.03 11:33:33.
