data_PCOD9395611
_publ_section_title
;
Structure prediction by ZEFSAII (Michael W. Deem and Ramdas Pophale) SiO2 
 PCOD9395611
Probable space group: P B A N
;
_chemical_formula_sum "Si O2"
_cell_formula_units_Z 40
_cell_length_a 10.622345
_cell_length_b 20.620035
_cell_length_c 8.285899
_cell_angle_alpha 90.000000
_cell_angle_beta 90.000000
_cell_angle_gamma 90.000000
_cell_volume 1814.886357
_symmetry_space_group_name_H-M "P B A N"
_symmetry_group_IT_number 50
_space_group.IT_coordinate_system_code '2'
_symmetry_cell_setting 'orthorhombic'
loop_
_space_group_symop_operation_xyz
x,y,z
1/2-x,1/2-y,z
x,1/2-y,-z
1/2-x,y,-z
-x,-y,-z
1/2+x,1/2+y,-z
-x,1/2+y,z
1/2+x,-y,z
loop_
_atom_site_type_symbol
_atom_site_label
_atom_site_fract_x
_atom_site_fract_y
_atom_site_fract_z
Si Si1 0.250000 0.419841 0.000000
Si Si2 0.434457 0.368728 0.252984
Si Si3 0.495207 0.375297 0.599042
Si Si4 0.897307 0.497192 0.765790
Si Si5 0.750000 0.066445 0.500000
Si Si6 0.601165 0.247829 0.302471
O O1 0.352585 0.469153 0.927923
O O2 0.187126 0.376641 0.859594
O O3 0.405880 0.362691 0.445178
O O4 0.514384 0.434681 0.225368
O O5 0.525702 0.307346 0.223750
O O6 0.461732 0.444386 0.670965
O O7 0.632164 0.387539 0.522680
O O8 0.521440 0.318348 0.726709
O O9 0.777051 0.476071 0.657619
O O10 0.750000 0.250000 0.258969
O O11 0.594588 0.250000 0.500000
#
# Coordination Sequence:
#
# PCOD9395611 Si02
#       6
#     4   8   8   8   4   8
#     4  12  24  38  55  80 127 170 200 240 284 358
#     4  10  21  36  58  87 117 156 199 242 300 356
#     4  10  19  35  61  89 113 144 195 250 302 352
#     4  11  21  36  57  84 117 156 200 243 294 352
#     4  10  18  34  63  92 115 144 194 260 304 348
#     4   9  17  34  61  90 114 138 184 251 309 354
#
# _framework density 22.039947999999999
#
# number of rings (size 3 to 8) (size 9 to 14) (size 15 to 20)
#    0.000    1.800    0.000    9.000    0.000    0.000 
#    0.000    3.000    0.000    4.800    0.000    0.000 
#    0.000    0.000    0.000    0.000    0.000    0.000 
#
# Total GULP energy -223206.831285 kJ/mol
# GULP energy per Si atom -5580.170782 kJ/mol
# Density = 2.198978 g / cm^3
# Si number density = 22.039948 Si / 1000 Ang^3
#
#
#
# Elastic Constant Matrix: (Units=GPa)
#
#
# Indices 1 2 3 4 5 6 
#
# 1 65.2919 47.2250 25.9855 0.0000 0.0000 0.0000
# 2 47.2250 163.1753 33.9930 0.0000 0.0000 0.0000
# 3 25.9855 33.9930 47.3366 0.0000 0.0000 0.0000
# 4 0.0000 0.0000 0.0000 -7.9576 0.0000 0.0000
# 5 0.0000 0.0000 0.0000 0.0000 13.9078 0.0000
# 6 0.0000 0.0000 0.0000 0.0000 0.0000 32.2431
#
#
#
# Elastic Compliance Matrix: (Units=1/GPa)
#
#
# Indices 1 2 3 4 5 6 
#
# 1 0.022150 -0.004560 -0.008885 0.000000 0.000000 0.000000
# 2 -0.004560 0.008145 -0.003346 0.000000 0.000000 0.000000
# 3 -0.008885 -0.003346 0.028406 0.000000 0.000000 0.000000
# 4 0.000000 0.000000 0.000000 -0.125666 0.000000 0.000000
# 5 0.000000 0.000000 0.000000 0.000000 0.071902 0.000000
# 6 0.000000 0.000000 0.000000 0.000000 0.000000 0.031014
#
#
# Mechanical properties :
#
#
# Convention : Reuss Voigt Hill
#
# Bulk Modulus (GPa) = 39.80996 54.46785 47.13891
# Shear Modulus (GPa) = 64.18050 18.87868 41.52959
#
# Velocity S-wave (km/s) = 5.40216 2.92989 4.34555
# Velocity P-wave (km/s) = 7.55069 6.01769 6.82735
#
# Compressibility (1/GPa) = 0.02511934
#
# Stress axis : x y z
#
# Youngs Moduli (GPa) = 45.14720 122.77437 35.20437
#
# Poissons Ratio (x) = 0.55979 0.31279
# Poissons Ratio (y) = 0.20585 0.11780
# Poissons Ratio (z) = 0.40113 0.41081
#
# Static dielectric constant tensor:
#      x y z
#    x 2.002240 0.000000 0.000000 
#    y 0.000000 1.888120 0.000000 
#    z 0.000000 0.000000 1.779670 
# 
# From -- ./inp_files/11367.got.cif
#   From: 2010.05.17/outbox.cif.g08.bks.cpg/sg50_6_cif.got.tgz:11367.got - 2010.06.03 11:33:33.
