data_PCOD9395883
_publ_section_title
;
Structure prediction by ZEFSAII (Michael W. Deem and Ramdas Pophale) SiO2 
 PCOD9395883
Probable space group: P B A N
;
_chemical_formula_sum "Si O2"
_cell_formula_units_Z 40
_cell_length_a 12.256173
_cell_length_b 13.214071
_cell_length_c 11.169266
_cell_angle_alpha 90.000000
_cell_angle_beta 90.000000
_cell_angle_gamma 90.000000
_cell_volume 1808.906638
_symmetry_space_group_name_H-M "P B A N"
_symmetry_group_IT_number 50
_space_group.IT_coordinate_system_code '2'
_symmetry_cell_setting 'orthorhombic'
loop_
_space_group_symop_operation_xyz
x,y,z
1/2-x,1/2-y,z
x,1/2-y,-z
1/2-x,y,-z
-x,-y,-z
1/2+x,1/2+y,-z
-x,1/2+y,z
1/2+x,-y,z
loop_
_atom_site_type_symbol
_atom_site_label
_atom_site_fract_x
_atom_site_fract_y
_atom_site_fract_z
Si Si1 0.644118 0.205035 0.632960
Si Si2 0.457258 0.996870 0.363625
Si Si3 0.069857 0.399341 0.846117
Si Si4 0.627052 0.091363 0.017899
Si Si5 0.464629 0.190593 0.212677
O O1 0.750000 0.250000 0.695788
O O2 0.642117 0.250000 0.500000
O O3 0.639412 0.084995 0.633856
O O4 0.538030 0.247523 0.694711
O O5 0.556989 0.952702 0.282714
O O6 0.500000 0.000000 0.500000
O O7 0.420452 0.097617 0.292101
O O8 0.132552 0.475685 0.933819
O O9 0.106868 0.282551 0.841354
O O10 0.945053 0.401878 0.898031
O O11 0.548109 0.148159 0.112596
O O12 0.750000 0.128672 0.000000
#
# Coordination Sequence:
#
# PCOD9395883 Si02
#       5
#     8   8   8   8   8
#     4  10  20  33  54  90 120 148 196 248 298 360
#     4  10  19  35  55  84 119 159 191 239 308 363
#     4   9  21  36  55  88 120 155 206 252 303 369
#     4  10  21  37  59  88 119 161 207 257 312 364
#     4  10  20  34  59  86 119 157 201 246 308 368
#
# _framework density 22.112805999999999
#
# number of rings (size 3 to 8) (size 9 to 14) (size 15 to 20)
#    0.000    2.200    2.000    0.600    5.600    0.800 
#    0.000    0.000    0.000   21.600    0.000    0.000 
#    0.000    0.000    0.000    0.000    0.000    0.000 
#
# Total GULP energy -222986.263597 kJ/mol
# GULP energy per Si atom -5574.656590 kJ/mol
# Density = 2.206248 g / cm^3
# Si number density = 22.112806 Si / 1000 Ang^3
#
#
#
# Elastic Constant Matrix: (Units=GPa)
#
#
# Indices 1 2 3 4 5 6 
#
# 1 26.0288 5.0345 8.2289 0.0000 0.0000 0.0000
# 2 5.0345 194.4948 35.4179 0.0000 0.0000 0.0000
# 3 8.2289 35.4179 123.2980 0.0000 0.0000 0.0000
# 4 0.0000 0.0000 0.0000 27.4139 0.0000 0.0000
# 5 0.0000 0.0000 0.0000 0.0000 5.5477 0.0000
# 6 0.0000 0.0000 0.0000 0.0000 0.0000 9.5875
#
#
#
# Elastic Compliance Matrix: (Units=1/GPa)
#
#
# Indices 1 2 3 4 5 6 
#
# 1 0.039307 -0.000570 -0.002460 0.000000 0.000000 0.000000
# 2 -0.000570 0.005434 -0.001523 0.000000 0.000000 0.000000
# 3 -0.002460 -0.001523 0.008712 0.000000 0.000000 0.000000
# 4 0.000000 0.000000 0.000000 0.036478 0.000000 0.000000
# 5 0.000000 0.000000 0.000000 0.000000 0.180255 0.000000
# 6 0.000000 0.000000 0.000000 0.000000 0.000000 0.104302
#
#
# Mechanical properties :
#
#
# Convention : Reuss Voigt Hill
#
# Bulk Modulus (GPa) = 22.54883 49.02047 35.78465
# Shear Modulus (GPa) = 12.55099 28.18583 20.36841
#
# Velocity S-wave (km/s) = 2.38500 3.57408 3.03828
# Velocity P-wave (km/s) = 4.21943 6.26487 5.34098
#
# Compressibility (1/GPa) = 0.04434819
#
# Stress axis : x y z
#
# Youngs Moduli (GPa) = 25.44092 184.04093 114.78385
#
# Poissons Ratio (x) = 0.10482 0.28234
# Poissons Ratio (y) = 0.01449 0.17479
# Poissons Ratio (z) = 0.06258 0.28026
#
# Static dielectric constant tensor:
#      x y z
#    x 1.812550 0.000000 0.000000 
#    y 0.000000 2.047300 0.000000 
#    z 0.000000 0.000000 1.926680 
# 
# From -- ./inp_files/20889.got.cif
#   From: 2010.05.17/outbox.cif.g08.bks.cpg/sg50_11_cif.got.tgz:20889.got - 2010.06.03 11:33:33.
