data_PCOD9395806
_publ_section_title
;
Structure prediction by ZEFSAII (Michael W. Deem and Ramdas Pophale) SiO2 
 PCOD9395806
Probable space group: P B A N
;
_chemical_formula_sum "Si O2"
_cell_formula_units_Z 26
_cell_length_a 14.101925
_cell_length_b 5.662021
_cell_length_c 13.641272
_cell_angle_alpha 90.000000
_cell_angle_beta 90.000000
_cell_angle_gamma 90.000000
_cell_volume 1089.192758
_symmetry_space_group_name_H-M "P B A N"
_symmetry_group_IT_number 50
_space_group.IT_coordinate_system_code '2'
_symmetry_cell_setting 'orthorhombic'
loop_
_space_group_symop_operation_xyz
x,y,z
1/2-x,1/2-y,z
x,1/2-y,-z
1/2-x,y,-z
-x,-y,-z
1/2+x,1/2+y,-z
-x,1/2+y,z
1/2+x,-y,z
loop_
_atom_site_type_symbol
_atom_site_label
_atom_site_fract_x
_atom_site_fract_y
_atom_site_fract_z
Si Si1 0.644473 0.858019 0.600640
Si Si2 0.114999 0.757289 0.114941
Si Si3 0.098882 0.260073 0.189037
Si Si4 0.750000 0.250000 0.500000
O O1 0.750000 0.750000 0.617829
O O2 0.604863 0.750000 0.500000
O O3 0.584173 0.794824 0.694840
O O4 0.676543 0.119338 0.572512
O O5 0.148297 0.505720 0.158017
O O6 0.001469 0.754445 0.133363
O O7 0.144638 0.006732 0.163609
O O8 0.135282 0.750000 0.000000
#
# Coordination Sequence:
#
# PCOD9395806 Si02
#       4
#     8   8   8   2
#     4   9  20  35  55  79 107 141 184 221 271 319
#     4  10  20  36  57  80 111 143 180 218 274 318
#     4  10  19  33  58  81 105 143 182 219 265 327
#     4   8  18  36  56  70 110 148 182 220 272 328
#
# _framework density 23.870888999999998
#
# number of rings (size 3 to 8) (size 9 to 14) (size 15 to 20)
#    0.000    2.769    0.000    4.615    8.615    0.000 
#    0.000    6.154    0.000   10.154    0.000    0.000 
#    0.000    0.000    0.000    0.000    0.000    0.000 
#
# Total GULP energy -144907.093376 kJ/mol
# GULP energy per Si atom -5573.349745 kJ/mol
# Density = 2.381656 g / cm^3
# Si number density = 23.870889 Si / 1000 Ang^3
#
#
#
# Elastic Constant Matrix: (Units=GPa)
#
#
# Indices 1 2 3 4 5 6 
#
# 1 77.6899 3.6703 -8.5018 0.0000 0.0000 0.0000
# 2 3.6703 247.7223 84.0561 0.0000 0.0000 0.0000
# 3 -8.5018 84.0561 201.4866 0.0000 0.0000 0.0000
# 4 0.0000 0.0000 0.0000 207.1013 0.0000 0.0000
# 5 0.0000 0.0000 0.0000 0.0000 -143.3896 0.0000
# 6 0.0000 0.0000 0.0000 0.0000 0.0000 40.9409
#
#
#
# Elastic Compliance Matrix: (Units=1/GPa)
#
#
# Indices 1 2 3 4 5 6 
#
# 1 0.012972 -0.000440 0.000731 0.000000 0.000000 0.000000
# 2 -0.000440 0.004717 -0.001987 0.000000 0.000000 0.000000
# 3 0.000731 -0.001987 0.005823 0.000000 0.000000 0.000000
# 4 0.000000 0.000000 0.000000 0.004829 0.000000 0.000000
# 5 0.000000 0.000000 0.000000 0.000000 -0.006974 0.000000
# 6 0.000000 0.000000 0.000000 0.000000 0.000000 0.024425
#
#
# Mechanical properties :
#
#
# Convention : Reuss Voigt Hill
#
# Bulk Modulus (GPa) = 49.69929 76.14979 62.92454
# Shear Modulus (GPa) = 89.45964 50.77546 70.11755
#
# Velocity S-wave (km/s) = 6.12844 4.61704 5.42563
# Velocity P-wave (km/s) = 8.42273 7.77127 8.10355
#
# Compressibility (1/GPa) = 0.02012101
#
# Stress axis : x y z
#
# Youngs Moduli (GPa) = 77.08620 211.98222 171.74124
#
# Poissons Ratio (x) = 0.09333 -0.12555
# Poissons Ratio (y) = 0.03394 0.34118
# Poissons Ratio (z) = -0.05635 0.42112
#
# Static dielectric constant tensor:
#      x y z
#    x 1.915650 0.000000 0.000000 
#    y 0.000000 2.069500 0.000000 
#    z 0.000000 0.000000 0.254660 
# 
# From -- ./inp_files/7665.got.cif
#   From: 2010.05.17/outbox.cif.g08.bks.cpg/sg50_4_cif.got.tgz:7665.got - 2010.06.03 11:33:33.
