data_PCOD9395310
_publ_section_title
;
Structure prediction by ZEFSAII (Michael W. Deem and Ramdas Pophale) SiO2 
 PCOD9395310
Probable space group: P C C M
;
_chemical_formula_sum "Si O2"
_cell_formula_units_Z 48
_cell_length_a 18.000000
_cell_length_b 9.000000
_cell_length_c 15.000000
_cell_angle_alpha 90.000000
_cell_angle_beta 90.000000
_cell_angle_gamma 90.000000
_cell_volume 2430.000000
_symmetry_space_group_name_H-M "P C C M"
_symmetry_group_IT_number 49
_symmetry_cell_setting 'orthorhombic'
loop_
_space_group_symop_operation_xyz
x,y,z
-x,-y,z
x,-y,1/2-z
-x,y,1/2-z
-x,-y,-z
x,y,-z
-x,y,1/2+z
x,-y,1/2+z
loop_
_atom_site_type_symbol
_atom_site_label
_atom_site_fract_x
_atom_site_fract_y
_atom_site_fract_z
Si Si1 0.186704 0.685240 0.896271
Si Si2 0.088613 0.166039 0.748780
Si Si3 0.369342 0.876813 0.390947
Si Si4 0.480714 0.324669 0.602610
Si Si5 0.921283 0.586706 0.103314
Si Si6 0.339341 0.206628 0.306366
O O1 0.123447 0.770638 0.841149
O O2 0.150573 0.520938 0.893747
O O3 0.265693 0.718822 0.849261
O O4 0.191849 0.729166 0.000000
O O5 0.099589 0.278765 0.831037
O O6 0.000000 0.154825 0.750000
O O7 0.120541 0.000000 0.750000
O O8 0.349365 0.865574 0.500000
O O9 0.450384 0.792854 0.386220
O O10 0.329272 0.804885 0.301853
O O11 0.358700 0.049111 0.358210
O O12 0.500000 0.500000 0.609620
O O13 0.454255 0.301469 0.500000
O O14 0.414247 0.296045 0.671199
O O15 0.000000 0.500000 0.128732
O O16 0.932758 0.633203 0.000000
#
# Coordination Sequence:
#
# PCOD9395310 Si02
#       6
#     8   8   8   8   8   8
#     4  11  24  42  67  97 133 175 222 279 342 410
#     4  11  24  41  67 100 134 173 220 277 338 402
#     4  10  22  41  67  94 128 178 228 272 329 409
#     4  10  21  40  65  95 130 171 226 279 328 397
#     4  10  21  43  72  98 130 177 227 273 332 411
#     4  11  23  41  66  96 134 175 216 278 346 398
#
# _framework density 19.753086
#
# number of rings (size 3 to 8) (size 9 to 14) (size 15 to 20)
#    0.000    1.500    1.667    3.000    2.333    4.667 
#    6.000    2.500    0.000    0.000    0.000    0.000 
#    0.000    0.000    0.000    0.000    0.000    0.000 
#
# Total GULP energy -267230.306426 kJ/mol
# GULP energy per Si atom -5567.298051 kJ/mol
# Density = 1.970813 g / cm^3
# Si number density = 19.753086 Si / 1000 Ang^3
#
#
#
# Elastic Constant Matrix: (Units=GPa)
#
#
# Indices 1 2 3 4 5 6 
#
# 1 90.3740 26.8117 43.4286 0.0000 0.0000 0.0000
# 2 26.8117 93.6218 55.0035 0.0000 0.0000 0.0000
# 3 43.4286 55.0035 182.6236 0.0000 0.0000 0.0000
# 4 0.0000 0.0000 0.0000 21.7018 0.0000 0.0000
# 5 0.0000 0.0000 0.0000 0.0000 41.8075 0.0000
# 6 0.0000 0.0000 0.0000 0.0000 0.0000 26.4910
#
#
#
# Elastic Compliance Matrix: (Units=1/GPa)
#
#
# Indices 1 2 3 4 5 6 
#
# 1 0.012887 -0.002296 -0.002373 0.000000 0.000000 0.000000
# 2 -0.002296 0.013387 -0.003486 0.000000 0.000000 0.000000
# 3 -0.002373 -0.003486 0.007090 0.000000 0.000000 0.000000
# 4 0.000000 0.000000 0.000000 0.046079 0.000000 0.000000
# 5 0.000000 0.000000 0.000000 0.000000 0.023919 0.000000
# 6 0.000000 0.000000 0.000000 0.000000 0.000000 0.037749
#
#
# Mechanical properties :
#
#
# Convention : Reuss Voigt Hill
#
# Bulk Modulus (GPa) = 58.64000 68.56745 63.60373
# Shear Modulus (GPa) = 30.65510 34.09177 32.37343
#
# Velocity S-wave (km/s) = 3.94371 4.15890 4.05273
# Velocity P-wave (km/s) = 7.10549 7.60589 7.35995
#
# Compressibility (1/GPa) = 0.01705321
#
# Stress axis : x y z
#
# Youngs Moduli (GPa) = 77.59953 74.69998 141.04585
#
# Poissons Ratio (x) = 0.17155 0.33468
# Poissons Ratio (y) = 0.17820 0.49166
# Poissons Ratio (z) = 0.18413 0.26039
#
# Static dielectric constant tensor:
#      x y z
#    x 1.671510 0.000000 0.000000 
#    y 0.000000 1.773570 0.000000 
#    z 0.000000 0.000000 1.722630 
# 
# From -- ./inp_files/14001.got.cif
#   From: 2010.05.17/outbox.ucp.g08.bks.cvg/sg49_8_cif.got.tgz:14001.got - 2010.06.11 16:40:14.
