data_PCOD9395446
_publ_section_title
;
Structure prediction by ZEFSAII (Michael W. Deem and Ramdas Pophale) SiO2 
 PCOD9395446
Probable space group: P B A N
;
_chemical_formula_sum "Si O2"
_cell_formula_units_Z 48
_cell_length_a 12.503693
_cell_length_b 19.107990
_cell_length_c 11.789425
_cell_angle_alpha 90.000000
_cell_angle_beta 90.000000
_cell_angle_gamma 90.000000
_cell_volume 2816.734618
_symmetry_space_group_name_H-M "P B A N"
_symmetry_group_IT_number 50
_space_group.IT_coordinate_system_code '2'
_symmetry_cell_setting 'orthorhombic'
loop_
_space_group_symop_operation_xyz
x,y,z
1/2-x,1/2-y,z
x,1/2-y,-z
1/2-x,y,-z
-x,-y,-z
1/2+x,1/2+y,-z
-x,1/2+y,z
1/2+x,-y,z
loop_
_atom_site_type_symbol
_atom_site_label
_atom_site_fract_x
_atom_site_fract_y
_atom_site_fract_z
Si Si1 0.750000 0.838774 0.000000
Si Si2 0.443147 0.957026 0.899965
Si Si3 0.570024 0.210618 0.880849
Si Si4 0.247015 0.334253 0.370265
Si Si5 0.898776 0.901368 0.811396
Si Si6 0.423530 0.172762 0.184773
Si Si7 0.250000 0.633151 0.000000
O O1 0.818313 0.886073 0.915134
O O2 0.665475 0.802713 0.910520
O O3 0.523107 0.897194 0.860637
O O4 0.338613 0.916036 0.942929
O O5 0.417440 0.015986 0.806557
O O6 0.500000 0.000000 0.000000
O O7 0.503459 0.141804 0.848111
O O8 0.517280 0.269501 0.798950
O O9 0.545535 0.250000 0.000000
O O10 0.689206 0.181413 0.906269
O O11 0.250000 0.250000 0.369939
O O12 0.250000 0.358442 0.500000
O O13 0.343991 0.367495 0.298614
O O14 0.139913 0.347098 0.298097
#
# Coordination Sequence:
#
# PCOD9395446 Si02
#       7
#     4   8   8   8   8   8   4
#     4  10  17  29  50  82 111 145 174 232 287 343
#     4  12  22  36  50  86 123 157 185 225 286 361
#     4  12  20  34  48  83 118 155 185 223 281 356
#     4  10  22  39  61  85 108 145 203 261 294 325
#     4  11  21  33  55  82 116 148 187 234 292 347
#     4  11  22  33  56  82 119 145 194 236 292 344
#     4  12  24  32  54  76 138 158 186 216 278 380
#
# _framework density 17.041008999999999
#
# number of rings (size 3 to 8) (size 9 to 14) (size 15 to 20)
#    0.000    0.833    8.333    0.750    2.333    0.667 
#    0.000    0.833    0.000    0.000    0.000    0.000 
#    5.000    0.000    0.000    0.000    0.000    0.000 
#
# Total GULP energy -267333.638042 kJ/mol
# GULP energy per Si atom -5569.450793 kJ/mol
# Density = 1.700222 g / cm^3
# Si number density = 17.041009 Si / 1000 Ang^3
#
#
#
# Elastic Constant Matrix: (Units=GPa)
#
#
# Indices 1 2 3 4 5 6 
#
# 1 113.3751 55.5284 48.2565 0.0000 0.0000 0.0000
# 2 55.5284 111.9147 29.0418 0.0000 0.0000 0.0000
# 3 48.2565 29.0418 99.4845 0.0000 0.0000 0.0000
# 4 0.0000 0.0000 0.0000 11.0740 0.0000 0.0000
# 5 0.0000 0.0000 0.0000 0.0000 14.5284 0.0000
# 6 0.0000 0.0000 0.0000 0.0000 0.0000 36.9477
#
#
#
# Elastic Compliance Matrix: (Units=1/GPa)
#
#
# Indices 1 2 3 4 5 6 
#
# 1 0.013631 -0.005461 -0.005018 0.000000 0.000000 0.000000
# 2 -0.005461 0.011856 -0.000812 0.000000 0.000000 0.000000
# 3 -0.005018 -0.000812 0.012723 0.000000 0.000000 0.000000
# 4 0.000000 0.000000 0.000000 0.090301 0.000000 0.000000
# 5 0.000000 0.000000 0.000000 0.000000 0.068830 0.000000
# 6 0.000000 0.000000 0.000000 0.000000 0.000000 0.027065
#
#
# Mechanical properties :
#
#
# Convention : Reuss Voigt Hill
#
# Bulk Modulus (GPa) = 63.98824 65.60307 64.79565
# Shear Modulus (GPa) = 19.82582 25.30655 22.56618
#
# Velocity S-wave (km/s) = 3.41459 3.85780 3.64294
# Velocity P-wave (km/s) = 7.29226 7.64358 7.46998
#
# Compressibility (1/GPa) = 0.01562787
#
# Stress axis : x y z
#
# Youngs Moduli (GPa) = 73.36446 84.34795 78.59978
#
# Poissons Ratio (x) = 0.46062 0.39438
# Poissons Ratio (y) = 0.40064 0.06382
# Poissons Ratio (z) = 0.36811 0.06849
#
# Static dielectric constant tensor:
#      x y z
#    x 1.639760 0.000000 0.000000 
#    y 0.000000 1.625460 0.000000 
#    z 0.000000 0.000000 1.580500 
# 
# From -- ./inp_files/20331.got.cif
#   From: 2010.05.17/outbox.cif.g08.bks.cpg/sg50_11_cif.got.tgz:20331.got - 2010.06.03 11:33:33.
