data_PCOD9395037
_publ_section_title
;
Structure prediction by ZEFSAII (Michael W. Deem and Ramdas Pophale) SiO2 
 PCOD9395037
Probable space group: P C C M
;
_chemical_formula_sum "Si O2"
_cell_formula_units_Z 56
_cell_length_a 10.948569
_cell_length_b 14.317123
_cell_length_c 18.084831
_cell_angle_alpha 90.000000
_cell_angle_beta 90.000000
_cell_angle_gamma 90.000000
_cell_volume 2834.833593
_symmetry_space_group_name_H-M "P C C M"
_symmetry_group_IT_number 49
_symmetry_cell_setting 'orthorhombic'
loop_
_space_group_symop_operation_xyz
x,y,z
-x,-y,z
x,-y,1/2-z
-x,y,1/2-z
-x,-y,-z
x,y,-z
-x,y,1/2+z
x,-y,1/2+z
loop_
_atom_site_type_symbol
_atom_site_label
_atom_site_fract_x
_atom_site_fract_y
_atom_site_fract_z
Si Si1 0.642397 0.510140 0.409715
Si Si2 0.306813 0.717183 0.910502
Si Si3 0.860195 0.112831 0.088099
Si Si4 0.077913 0.821017 0.323230
Si Si5 0.700558 0.959899 0.173663
Si Si6 0.775515 0.676747 0.914269
Si Si7 0.547656 0.820115 0.085104
O O1 0.500000 0.500000 0.387348
O O2 0.641827 0.507397 0.500000
O O3 0.692809 0.610524 0.384663
O O4 0.726635 0.423280 0.387016
O O5 0.193490 0.783765 0.894847
O O6 0.427534 0.770967 0.883341
O O7 0.317935 0.712190 0.000000
O O8 0.994517 0.115965 0.122534
O O9 0.770808 0.037777 0.125433
O O10 0.862651 0.098886 0.000000
O O11 0.197077 0.882398 0.305590
O O12 0.123706 0.728413 0.365130
O O13 0.000000 0.802954 0.250000
O O14 0.595881 0.908863 0.128205
O O15 0.653816 0.000000 0.250000
O O16 0.656710 0.744208 0.914743
O O17 0.817092 0.669066 0.000000
O O18 0.522881 0.845999 0.000000
#
# Coordination Sequence:
#
# PCOD9395037 Si02
#       7
#     8   8   8   8   8   8   8
#     4   9  14  27  56  89 118 146 181 228 283 344
#     4   9  18  33  54  85 121 152 185 231 291 346
#     4  11  23  37  56  82 114 154 193 236 286 341
#     4  11  22  38  59  79 110 154 195 245 289 338
#     4  11  22  37  58  81 109 149 200 244 289 345
#     4   9  17  30  56  92 117 144 191 240 285 340
#     4   9  17  32  55  85 119 149 188 239 289 345
#
# _framework density 19.754245999999998
#
# number of rings (size 3 to 8) (size 9 to 14) (size 15 to 20)
#    0.000    2.143    2.857    1.286    0.000    2.857 
#    0.000    4.286    0.000    5.143    0.000    1.000 
#    0.000    0.000    0.000    0.000    0.000    0.429 
#
# Total GULP energy -312720.925194 kJ/mol
# GULP energy per Si atom -5584.302236 kJ/mol
# Density = 1.970928 g / cm^3
# Si number density = 19.754246 Si / 1000 Ang^3
#
#
#
# Elastic Constant Matrix: (Units=GPa)
#
#
# Indices 1 2 3 4 5 6 
#
# 1 33.2129 34.0638 25.3998 0.0000 0.0000 0.0000
# 2 34.0638 130.8684 38.9537 0.0000 0.0000 0.0000
# 3 25.3998 38.9537 68.1541 0.0000 0.0000 0.0000
# 4 0.0000 0.0000 0.0000 -5.3335 0.0000 0.0000
# 5 0.0000 0.0000 0.0000 0.0000 -18.1451 0.0000
# 6 0.0000 0.0000 0.0000 0.0000 0.0000 32.0503
#
#
#
# Elastic Compliance Matrix: (Units=1/GPa)
#
#
# Indices 1 2 3 4 5 6 
#
# 1 0.049434 -0.008897 -0.013338 0.000000 0.000000 0.000000
# 2 -0.008897 0.010809 -0.002862 0.000000 0.000000 0.000000
# 3 -0.013338 -0.002862 0.021279 0.000000 0.000000 0.000000
# 4 0.000000 0.000000 0.000000 -0.187495 0.000000 0.000000
# 5 0.000000 0.000000 0.000000 0.000000 -0.055111 0.000000
# 6 0.000000 0.000000 0.000000 0.000000 0.000000 0.031201
#
#
# Mechanical properties :
#
#
# Convention : Reuss Voigt Hill
#
# Bulk Modulus (GPa) = 31.92036 47.67446 39.79741
# Shear Modulus (GPa) = -72.20716 10.63555 -30.78581
#
# Velocity S-wave (km/s) = -6.05244 2.32285 -3.95199
# Velocity P-wave (km/s) = 5.71393 5.60181 0.79644
#
# Compressibility (1/GPa) = 0.03132797
#
# Stress axis : x y z
#
# Youngs Moduli (GPa) = 20.22888 92.51530 46.99387
#
# Poissons Ratio (x) = 0.82312 0.62681
# Poissons Ratio (y) = 0.17998 0.13450
# Poissons Ratio (z) = 0.26982 0.26479
#
# Static dielectric constant tensor:
#      x y z
#    x 1.688490 0.000000 0.000000 
#    y 0.000000 1.704180 0.000000 
#    z 0.000000 0.000000 1.680590 
# 
# From -- ./inp_files/20484.got.cif
#   From: 2010.05.17/outbox.cif.g08.bks.cpg/sg49_11_cif.got.tgz:20484.got - 2010.06.03 21:02:19.
