data_PCOD9395835
_publ_section_title
;
Structure prediction by ZEFSAII (Michael W. Deem and Ramdas Pophale) SiO2 
 PCOD9395835
Probable space group: P B A N
;
_chemical_formula_sum "Si O2"
_cell_formula_units_Z 46
_cell_length_a 20.191410
_cell_length_b 8.786302
_cell_length_c 13.274988
_cell_angle_alpha 90.000000
_cell_angle_beta 90.000000
_cell_angle_gamma 90.000000
_cell_volume 2355.086762
_symmetry_space_group_name_H-M "P B A N"
_symmetry_group_IT_number 50
_space_group.IT_coordinate_system_code '2'
_symmetry_cell_setting 'orthorhombic'
loop_
_space_group_symop_operation_xyz
x,y,z
1/2-x,1/2-y,z
x,1/2-y,-z
1/2-x,y,-z
-x,-y,-z
1/2+x,1/2+y,-z
-x,1/2+y,z
1/2+x,-y,z
loop_
_atom_site_type_symbol
_atom_site_label
_atom_site_fract_x
_atom_site_fract_y
_atom_site_fract_z
Si Si1 0.750000 0.750000 0.000000
Si Si2 0.340594 0.426964 0.156670
Si Si3 0.637426 0.522965 0.355763
Si Si4 0.250000 0.250000 0.311608
Si Si5 0.454715 0.240179 0.743590
Si Si6 0.932657 0.505666 0.437274
Si Si7 0.606347 0.282309 0.739622
O O1 0.701209 0.636317 0.937847
O O2 0.295472 0.362738 0.246656
O O3 0.409965 0.337586 0.170592
O O4 0.357287 0.603043 0.182601
O O5 0.698447 0.637812 0.361541
O O6 0.577654 0.600375 0.290596
O O7 0.618598 0.507595 0.471942
O O8 0.647382 0.365176 0.295763
O O9 0.443096 0.143314 0.640984
O O10 0.531253 0.244135 0.774986
O O11 0.911691 0.370171 0.363984
O O12 0.000000 0.500000 0.500000
#
# Coordination Sequence:
#
# PCOD9395835 Si02
#       7
#     2   8   8   4   8   8   8
#     4  10  20  48  74  86 118 166 226 254 324 436
#     4   9  21  40  66  88 111 161 206 258 330 390
#     4  11  20  32  56  82 125 171 212 254 296 369
#     4   9  22  41  54  76 114 168 213 253 303 373
#     4  10  19  34  55  91 126 157 200 257 318 377
#     4  11  19  31  53  89 126 171 216 249 306 365
#     4  11  20  33  57  94 124 157 205 267 319 371
#
# _framework density 19.532188999999999
#
# number of rings (size 3 to 8) (size 9 to 14) (size 15 to 20)
#    0.000    1.739    3.478    2.087    0.000    0.696 
#    0.000   20.000    0.000   27.130    0.000    0.000 
#    0.000    0.000    0.000    1.217    0.000    0.000 
#
# Total GULP energy -256166.095052 kJ/mol
# GULP energy per Si atom -5568.828153 kJ/mol
# Density = 1.948773 g / cm^3
# Si number density = 19.532189 Si / 1000 Ang^3
#
#
#
# Elastic Constant Matrix: (Units=GPa)
#
#
# Indices 1 2 3 4 5 6 
#
# 1 98.2731 23.1889 46.3198 0.0000 0.0000 0.0000
# 2 23.1889 96.3607 37.3809 0.0000 0.0000 0.0000
# 3 46.3198 37.3809 75.3281 0.0000 0.0000 0.0000
# 4 0.0000 0.0000 0.0000 4.9864 0.0000 0.0000
# 5 0.0000 0.0000 0.0000 0.0000 22.1901 0.0000
# 6 0.0000 0.0000 0.0000 0.0000 0.0000 15.4103
#
#
#
# Elastic Compliance Matrix: (Units=1/GPa)
#
#
# Indices 1 2 3 4 5 6 
#
# 1 0.014329 -0.000037 -0.008792 0.000000 0.000000 0.000000
# 2 -0.000037 0.012852 -0.006355 0.000000 0.000000 0.000000
# 3 -0.008792 -0.006355 0.021835 0.000000 0.000000 0.000000
# 4 0.000000 0.000000 0.000000 0.200546 0.000000 0.000000
# 5 0.000000 0.000000 0.000000 0.000000 0.045065 0.000000
# 6 0.000000 0.000000 0.000000 0.000000 0.000000 0.064892
#
#
# Mechanical properties :
#
#
# Convention : Reuss Voigt Hill
#
# Bulk Modulus (GPa) = 53.62773 53.74903 53.68838
# Shear Modulus (GPa) = 12.62301 19.38885 16.00593
#
# Velocity S-wave (km/s) = 2.54494 3.15407 2.86573
# Velocity P-wave (km/s) = 6.01259 6.39079 6.20457
#
# Compressibility (1/GPa) = 0.01864707
#
# Stress axis : x y z
#
# Youngs Moduli (GPa) = 69.79020 77.81022 45.79792
#
# Poissons Ratio (x) = 0.00291 0.40267
# Poissons Ratio (y) = 0.00261 0.29103
# Poissons Ratio (z) = 0.61361 0.49445
#
# Static dielectric constant tensor:
#      x y z
#    x 0.747180 0.000000 0.000000 
#    y 0.000000 1.816970 0.000000 
#    z 0.000000 0.000000 2.642590 
# 
# From -- ./inp_files/27170.got.cif
#   From: 2010.05.17/outbox.cif.g08.bks.cpg/sg50_14_cif.got.tgz:27170.got - 2010.06.03 11:33:33.
