data_PCOD9395678
_publ_section_title
;
Structure prediction by ZEFSAII (Michael W. Deem and Ramdas Pophale) SiO2 
 PCOD9395678
Probable space group: P B A N
;
_chemical_formula_sum "Si O2"
_cell_formula_units_Z 64
_cell_length_a 33.492295
_cell_length_b 5.307721
_cell_length_c 18.119265
_cell_angle_alpha 90.000000
_cell_angle_beta 90.000000
_cell_angle_gamma 90.000000
_cell_volume 3221.021107
_symmetry_space_group_name_H-M "P B A N"
_symmetry_group_IT_number 50
_space_group.IT_coordinate_system_code '2'
_symmetry_cell_setting 'orthorhombic'
loop_
_space_group_symop_operation_xyz
x,y,z
1/2-x,1/2-y,z
x,1/2-y,-z
1/2-x,y,-z
-x,-y,-z
1/2+x,1/2+y,-z
-x,1/2+y,z
1/2+x,-y,z
loop_
_atom_site_type_symbol
_atom_site_label
_atom_site_fract_x
_atom_site_fract_y
_atom_site_fract_z
Si Si1 0.202592 0.725882 0.268796
Si Si2 0.975134 0.700142 0.582881
Si Si3 0.660286 0.771570 0.218155
Si Si4 0.046125 0.829622 0.923322
Si Si5 0.651472 0.212738 0.582293
Si Si6 0.609380 0.784487 0.367403
Si Si7 0.487175 0.335300 0.220525
Si Si8 0.586765 0.825011 0.121666
O O1 0.250000 0.750000 0.272447
O O2 0.187730 0.474760 0.226665
O O3 0.183890 0.715382 0.351590
O O4 0.184837 0.971926 0.228584
O O5 0.958406 0.750000 0.500000
O O6 0.937964 0.754257 0.635745
O O7 0.990940 0.415151 0.587930
O O8 0.630322 0.763138 0.287998
O O9 0.631866 0.780801 0.146701
O O10 0.077242 0.602051 0.909150
O O11 0.015063 0.842050 0.855027
O O12 0.069455 0.092945 0.925646
O O13 0.025576 0.750000 0.000000
O O14 0.668222 0.250000 0.500000
O O15 0.622035 0.446417 0.599464
O O16 0.627837 0.949548 0.587215
O O17 0.496715 0.592165 0.260781
O O18 0.442388 0.317126 0.193237
#
# Coordination Sequence:
#
# PCOD9395678 Si02
#       8
#     8   8   8   8   8   8   8   8
#     4  10  21  37  57  80 105 131 164 208 255 312
#     4  10  19  30  45  66  91 123 170 224 262 287
#     4  10  21  37  55  75 104 136 168 207 251 301
#     4  10  19  31  50  77 109 143 176 210 252 296
#     4  10  19  32  54  79 103 133 163 202 263 324
#     4  10  20  34  50  71  99 136 175 211 255 306
#     4   8  16  27  42  66  97 136 176 204 241 282
#     4  10  19  32  49  72 104 140 175 210 244 287
#
# _framework density 19.869475999999999
#
# number of rings (size 3 to 8) (size 9 to 14) (size 15 to 20)
#    0.000    2.250    0.000    3.375    0.000    5.750 
#    0.000    3.750    0.000    4.500    0.000    0.000 
#    0.000   35.000    0.000    0.000    0.000    0.000 
#
# Total GULP energy -357461.133836 kJ/mol
# GULP energy per Si atom -5585.330216 kJ/mol
# Density = 1.982425 g / cm^3
# Si number density = 19.869476 Si / 1000 Ang^3
#
#
#
# Elastic Constant Matrix: (Units=GPa)
#
#
# Indices 1 2 3 4 5 6 
#
# 1 107.3028 33.3963 3.8013 0.0000 0.0000 0.0000
# 2 33.3963 153.3706 4.7580 0.0000 0.0000 0.0000
# 3 3.8013 4.7580 42.3364 0.0000 0.0000 0.0000
# 4 0.0000 0.0000 0.0000 15.3369 0.0000 0.0000
# 5 0.0000 0.0000 0.0000 0.0000 14.2795 0.0000
# 6 0.0000 0.0000 0.0000 0.0000 0.0000 17.7900
#
#
#
# Elastic Compliance Matrix: (Units=1/GPa)
#
#
# Indices 1 2 3 4 5 6 
#
# 1 0.010015 -0.002160 -0.000656 0.000000 0.000000 0.000000
# 2 -0.002160 0.007009 -0.000594 0.000000 0.000000 0.000000
# 3 -0.000656 -0.000594 0.023746 0.000000 0.000000 0.000000
# 4 0.000000 0.000000 0.000000 0.065202 0.000000 0.000000
# 5 0.000000 0.000000 0.000000 0.000000 0.070030 0.000000
# 6 0.000000 0.000000 0.000000 0.000000 0.000000 0.056211
#
#
# Mechanical properties :
#
#
# Convention : Reuss Voigt Hill
#
# Bulk Modulus (GPa) = 29.45599 42.99121 36.22360
# Shear Modulus (GPa) = 19.97192 26.88490 23.42841
#
# Velocity S-wave (km/s) = 3.17386 3.68241 3.43755
# Velocity P-wave (km/s) = 5.31866 6.30587 5.83318
#
# Compressibility (1/GPa) = 0.03394895
#
# Stress axis : x y z
#
# Youngs Moduli (GPa) = 99.84957 142.67373 42.11232
#
# Poissons Ratio (x) = 0.30823 0.02764
# Poissons Ratio (y) = 0.21572 0.02500
# Poissons Ratio (z) = 0.06554 0.08471
#
# Static dielectric constant tensor:
#      x y z
#    x 1.656040 0.000000 0.000000 
#    y 0.000000 1.734860 0.000000 
#    z 0.000000 0.000000 1.770820 
# 
# From -- ./inp_files/30100.got.cif
#   From: 2010.05.17/outbox.cif.g08.bks.cpg/sg50_16_cif.got.tgz:30100.got - 2010.06.03 11:33:33.
