data_PCOD9395573
_publ_section_title
;
Structure prediction by ZEFSAII (Michael W. Deem and Ramdas Pophale) SiO2 
 PCOD9395573
Probable space group: P B A N
;
_chemical_formula_sum "Si O2"
_cell_formula_units_Z 56
_cell_length_a 17.148310
_cell_length_b 20.594171
_cell_length_c 8.740008
_cell_angle_alpha 90.000000
_cell_angle_beta 90.000000
_cell_angle_gamma 90.000000
_cell_volume 3086.579522
_symmetry_space_group_name_H-M "P B A N"
_symmetry_group_IT_number 50
_space_group.IT_coordinate_system_code '2'
_symmetry_cell_setting 'orthorhombic'
loop_
_space_group_symop_operation_xyz
x,y,z
1/2-x,1/2-y,z
x,1/2-y,-z
1/2-x,y,-z
-x,-y,-z
1/2+x,1/2+y,-z
-x,1/2+y,z
1/2+x,-y,z
loop_
_atom_site_type_symbol
_atom_site_label
_atom_site_fract_x
_atom_site_fract_y
_atom_site_fract_z
Si Si1 0.545032 0.296981 0.124286
Si Si2 0.871587 0.083676 0.603396
Si Si3 0.920728 0.078850 0.945200
Si Si4 0.991085 0.902808 0.636132
Si Si5 0.571507 0.521745 0.182377
Si Si6 0.662807 0.945383 0.528619
Si Si7 0.831554 0.223266 0.668114
O O1 0.500150 0.342829 0.246455
O O2 0.601033 0.249502 0.221429
O O3 0.503249 0.250000 0.000000
O O4 0.590432 0.351269 0.022542
O O5 0.889077 0.066514 0.777853
O O6 0.821527 0.147576 0.631502
O O7 0.949180 0.104006 0.507434
O O8 0.837800 0.021774 0.517400
O O9 0.013667 0.067321 0.915307
O O10 0.888076 0.025207 0.060410
O O11 0.904112 0.912248 0.574326
O O12 0.019703 0.969786 0.718379
O O13 0.629658 0.556774 0.298304
O O14 0.750000 0.920467 0.500000
O O15 0.750000 0.250000 0.727703
O O16 0.848598 0.250000 0.500000
#
# Coordination Sequence:
#
# PCOD9395573 Si02
#       7
#     8   8   8   8   8   8   8
#     4  11  22  35  55  84 108 150 196 233 280 340
#     4  11  19  36  58  80 114 161 195 227 272 342
#     4  10  18  32  58  79 111 147 194 236 277 326
#     4  10  19  36  58  80 110 144 198 240 277 347
#     4   9  18  34  56  82 110 145 188 241 287 340
#     4  11  22  35  57  87 116 149 191 246 304 348
#     4  11  24  38  54  82 122 160 190 228 270 334
#
# _framework density 18.143059000000001
#
# number of rings (size 3 to 8) (size 9 to 14) (size 15 to 20)
#    0.000    1.571    5.714    0.857    2.000    0.286 
#    0.000    2.143    0.000    0.000    0.000   11.000 
#    0.000    0.000    0.000    0.000    0.000    0.000 
#
# Total GULP energy -311819.706861 kJ/mol
# GULP energy per Si atom -5568.209051 kJ/mol
# Density = 1.810176 g / cm^3
# Si number density = 18.143059 Si / 1000 Ang^3
#
#
#
# Elastic Constant Matrix: (Units=GPa)
#
#
# Indices 1 2 3 4 5 6 
#
# 1 81.3543 13.0999 27.3702 0.0000 0.0000 0.0000
# 2 13.0999 39.9111 9.3572 0.0000 0.0000 0.0000
# 3 27.3702 9.3572 98.2456 0.0000 0.0000 0.0000
# 4 0.0000 0.0000 0.0000 10.2639 0.0000 0.0000
# 5 0.0000 0.0000 0.0000 0.0000 8.3440 0.0000
# 6 0.0000 0.0000 0.0000 0.0000 0.0000 11.1231
#
#
#
# Elastic Compliance Matrix: (Units=1/GPa)
#
#
# Indices 1 2 3 4 5 6 
#
# 1 0.014103 -0.003792 -0.003568 0.000000 0.000000 0.000000
# 2 -0.003792 0.026648 -0.001481 0.000000 0.000000 0.000000
# 3 -0.003568 -0.001481 0.011314 0.000000 0.000000 0.000000
# 4 0.000000 0.000000 0.000000 0.097429 0.000000 0.000000
# 5 0.000000 0.000000 0.000000 0.000000 0.119846 0.000000
# 6 0.000000 0.000000 0.000000 0.000000 0.000000 0.089903
#
#
# Mechanical properties :
#
#
# Convention : Reuss Voigt Hill
#
# Bulk Modulus (GPa) = 29.08587 35.46285 32.27436
# Shear Modulus (GPa) = 12.87381 17.25846 15.06614
#
# Velocity S-wave (km/s) = 2.66667 3.08757 2.88481
# Velocity P-wave (km/s) = 5.05447 5.68326 5.37806
#
# Compressibility (1/GPa) = 0.03438095
#
# Stress axis : x y z
#
# Youngs Moduli (GPa) = 70.90748 37.52652 88.38920
#
# Poissons Ratio (x) = 0.14232 0.31535
# Poissons Ratio (y) = 0.26892 0.13095
# Poissons Ratio (z) = 0.25298 0.05559
#
# Static dielectric constant tensor:
#      x y z
#    x 1.599310 0.000000 0.000000 
#    y 0.000000 1.696210 0.000000 
#    z 0.000000 0.000000 1.660770 
# 
# From -- ./inp_files/13290.got.cif
#   From: 2010.05.17/outbox.cif.g08.bks.cpg/sg50_7_cif.got.tgz:13290.got - 2010.06.03 11:33:33.
