data_PCOD9395397
_publ_section_title
;
Structure prediction by ZEFSAII (Michael W. Deem and Ramdas Pophale) SiO2 
 PCOD9395397
Probable space group: P B A N
;
_chemical_formula_sum "Si O2"
_cell_formula_units_Z 36
_cell_length_a 5.227302
_cell_length_b 15.076817
_cell_length_c 22.546979
_cell_angle_alpha 90.000000
_cell_angle_beta 90.000000
_cell_angle_gamma 90.000000
_cell_volume 1776.951668
_symmetry_space_group_name_H-M "P B A N"
_symmetry_group_IT_number 50
_space_group.IT_coordinate_system_code '2'
_symmetry_cell_setting 'orthorhombic'
loop_
_space_group_symop_operation_xyz
x,y,z
1/2-x,1/2-y,z
x,1/2-y,-z
1/2-x,y,-z
-x,-y,-z
1/2+x,1/2+y,-z
-x,1/2+y,z
1/2+x,-y,z
loop_
_atom_site_type_symbol
_atom_site_label
_atom_site_fract_x
_atom_site_fract_y
_atom_site_fract_z
Si Si1 0.001855 0.898803 0.526684
Si Si2 0.691379 0.937422 0.129841
Si Si3 0.750000 0.562041 0.000000
Si Si4 0.505634 0.057531 0.663868
Si Si5 0.004643 0.193590 0.232112
O O1 0.250000 0.854874 0.500000
O O2 0.017267 0.905429 0.597107
O O3 0.750000 0.856643 0.500000
O O4 0.000000 0.000000 0.500000
O O5 0.616235 0.864318 0.177775
O O6 0.460465 0.009772 0.135929
O O7 0.718725 0.893218 0.064167
O O8 0.500000 0.500000 0.000000
O O9 0.564019 0.129187 0.713801
O O10 0.221806 0.017772 0.670758
O O11 0.750000 0.250000 0.216391
O O12 0.250000 0.250000 0.252137
#
# Coordination Sequence:
#
# PCOD9395397 Si02
#       5
#     8   8   4   8   8
#     4  10  16  30  52  89 107 129 179 262 302 331
#     4  10  19  38  64  90 115 151 202 242 287 346
#     4   8  16  30  59  92 115 138 182 250 288 316
#     4  12  21  36  63  88 109 149 206 250 293 357
#     4  12  26  41  55  83 128 166 193 241 300 355
#
# _framework density 20.259412000000001
#
# number of rings (size 3 to 8) (size 9 to 14) (size 15 to 20)
#    0.000    1.333    4.444    4.000    0.000    0.000 
#    0.000    0.556    0.000    5.333    0.000    0.000 
#    0.000    0.000    0.000    0.000    0.000    0.000 
#
# Total GULP energy -200747.087814 kJ/mol
# GULP energy per Si atom -5576.307995 kJ/mol
# Density = 2.021330 g / cm^3
# Si number density = 20.259412 Si / 1000 Ang^3
#
#
#
# Elastic Constant Matrix: (Units=GPa)
#
#
# Indices 1 2 3 4 5 6 
#
# 1 137.7122 8.7242 3.6176 0.0000 0.0000 0.0000
# 2 8.7242 41.0095 41.6682 0.0000 0.0000 0.0000
# 3 3.6176 41.6682 151.2817 0.0000 0.0000 0.0000
# 4 0.0000 0.0000 0.0000 -49.6136 0.0000 0.0000
# 5 0.0000 0.0000 0.0000 0.0000 29.5976 0.0000
# 6 0.0000 0.0000 0.0000 0.0000 0.0000 41.9777
#
#
#
# Elastic Compliance Matrix: (Units=1/GPa)
#
#
# Indices 1 2 3 4 5 6 
#
# 1 0.007374 -0.001930 0.000355 0.000000 0.000000 0.000000
# 2 -0.001930 0.034366 -0.009419 0.000000 0.000000 0.000000
# 3 0.000355 -0.009419 0.009196 0.000000 0.000000 0.000000
# 4 0.000000 0.000000 0.000000 -0.020156 0.000000 0.000000
# 5 0.000000 0.000000 0.000000 0.000000 0.033787 0.000000
# 6 0.000000 0.000000 0.000000 0.000000 0.000000 0.023822
#
#
# Mechanical properties :
#
#
# Convention : Reuss Voigt Hill
#
# Bulk Modulus (GPa) = 34.54407 48.66927 41.60667
# Shear Modulus (GPa) = 41.65750 22.79190 32.22470
#
# Velocity S-wave (km/s) = 4.53946 3.35775 3.99256
# Velocity P-wave (km/s) = 6.67559 6.25362 6.46805
#
# Compressibility (1/GPa) = 0.02894853
#
# Stress axis : x y z
#
# Youngs Moduli (GPa) = 135.60353 29.09878 108.74171
#
# Poissons Ratio (x) = 0.05615 -0.03862
# Poissons Ratio (y) = 0.26167 1.02428
# Poissons Ratio (z) = -0.04816 0.27409
#
# Static dielectric constant tensor:
#      x y z
#    x 1.743240 0.000000 0.000000 
#    y 0.000000 1.698230 0.000000 
#    z 0.000000 0.000000 1.751140 
# 
# From -- ./inp_files/30234.got.cif
#   From: 2010.05.17/outbox.cif.g08.bks.cpg/sg50_16_cif.got.tgz:30234.got - 2010.06.03 11:33:33.
