data_PCOD9395693
_publ_section_title
;
Structure prediction by ZEFSAII (Michael W. Deem and Ramdas Pophale) SiO2 
 PCOD9395693
Probable space group: P B A N
;
_chemical_formula_sum "Si O2"
_cell_formula_units_Z 28
_cell_length_a 28.779659
_cell_length_b 8.905549
_cell_length_c 5.233524
_cell_angle_alpha 90.000000
_cell_angle_beta 90.000000
_cell_angle_gamma 90.000000
_cell_volume 1341.345206
_symmetry_space_group_name_H-M "P B A N"
_symmetry_group_IT_number 50
_space_group.IT_coordinate_system_code '2'
_symmetry_cell_setting 'orthorhombic'
loop_
_space_group_symop_operation_xyz
x,y,z
1/2-x,1/2-y,z
x,1/2-y,-z
1/2-x,y,-z
-x,-y,-z
1/2+x,1/2+y,-z
-x,1/2+y,z
1/2+x,-y,z
loop_
_atom_site_type_symbol
_atom_site_label
_atom_site_fract_x
_atom_site_fract_y
_atom_site_fract_z
Si Si1 0.933546 0.012785 0.834857
Si Si2 0.000801 0.250000 0.000000
Si Si3 0.620462 0.087342 0.637160
Si Si4 0.229216 0.578310 0.252476
O O1 0.898727 0.989004 0.598764
O O2 0.966426 0.869737 0.863490
O O3 0.907919 0.050538 0.104501
O O4 0.968266 0.155075 0.807805
O O5 0.616057 0.250000 0.500000
O O6 0.674113 0.078721 0.721592
O O7 0.250000 0.750000 0.251709
O O8 0.250000 0.501702 0.500000
O O9 0.250000 0.507131 0.000000
#
# Coordination Sequence:
#
# PCOD9395693 Si02
#       4
#     8   4   8   8
#     4  11  25  39  63  85 128 164 210 258 303 365
#     4  10  24  44  60  90 118 174 216 256 306 360
#     4  12  21  37  57  94 128 157 196 257 318 359
#     4  10  19  30  52  84 127 147 188 244 308 356
#
# _framework density 20.874568
#
# number of rings (size 3 to 8) (size 9 to 14) (size 15 to 20)
#    0.000    1.143    5.714    1.714    4.000    8.000 
#    0.000    0.000    0.000    0.000    0.000   15.000 
#    0.000    0.000    0.000    0.000    0.000    0.000 
#
# Total GULP energy -156132.150332 kJ/mol
# GULP energy per Si atom -5576.148226 kJ/mol
# Density = 2.082706 g / cm^3
# Si number density = 20.874568 Si / 1000 Ang^3
#
#
#
# Elastic Constant Matrix: (Units=GPa)
#
#
# Indices 1 2 3 4 5 6 
#
# 1 174.0652 50.9779 89.7750 0.0000 0.0000 0.0000
# 2 50.9779 57.5604 20.1667 0.0000 0.0000 0.0000
# 3 89.7750 20.1667 201.7925 0.0000 0.0000 0.0000
# 4 0.0000 0.0000 0.0000 5.3293 0.0000 0.0000
# 5 0.0000 0.0000 0.0000 0.0000 44.9445 0.0000
# 6 0.0000 0.0000 0.0000 0.0000 0.0000 -25.5267
#
#
#
# Elastic Compliance Matrix: (Units=1/GPa)
#
#
# Indices 1 2 3 4 5 6 
#
# 1 0.009770 -0.007388 -0.003608 0.000000 0.000000 0.000000
# 2 -0.007388 0.023591 0.000929 0.000000 0.000000 0.000000
# 3 -0.003608 0.000929 0.006468 0.000000 0.000000 0.000000
# 4 0.000000 0.000000 0.000000 0.187644 0.000000 0.000000
# 5 0.000000 0.000000 0.000000 0.000000 0.022250 0.000000
# 6 0.000000 0.000000 0.000000 0.000000 0.000000 -0.039175
#
#
# Mechanical properties :
#
#
# Convention : Reuss Voigt Hill
#
# Bulk Modulus (GPa) = 50.77584 83.91746 67.34665
# Shear Modulus (GPa) = 21.07521 23.11597 22.09559
#
# Velocity S-wave (km/s) = 3.18089 3.33133 3.25698
# Velocity P-wave (km/s) = 6.15368 7.42194 6.81736
#
# Compressibility (1/GPa) = 0.01969441
#
# Stress axis : x y z
#
# Youngs Moduli (GPa) = 102.35834 42.38937 154.61040
#
# Poissons Ratio (x) = 0.31318 0.55784
# Poissons Ratio (y) = 0.75625 -0.14369
# Poissons Ratio (z) = 0.36931 -0.03939
#
# Static dielectric constant tensor:
#      x y z
#    x 1.772510 0.000000 0.000000 
#    y 0.000000 1.771300 0.000000 
#    z 0.000000 0.000000 1.796860 
# 
# From -- ./inp_files/6323.got.cif
#   From: 2010.05.17/outbox.cif.g08.bks.cpg/sg50_4_cif.got.tgz:6323.got - 2010.06.03 11:33:33.
