data_PCOD9395465
_publ_section_title
;
Structure prediction by ZEFSAII (Michael W. Deem and Ramdas Pophale) SiO2 
 PCOD9395465
Probable space group: P B A N
;
_chemical_formula_sum "Si O2"
_cell_formula_units_Z 36
_cell_length_a 17.319624
_cell_length_b 20.283406
_cell_length_c 5.134573
_cell_angle_alpha 90.000000
_cell_angle_beta 90.000000
_cell_angle_gamma 90.000000
_cell_volume 1803.780452
_symmetry_space_group_name_H-M "P B A N"
_symmetry_group_IT_number 50
_space_group.IT_coordinate_system_code '2'
_symmetry_cell_setting 'orthorhombic'
loop_
_space_group_symop_operation_xyz
x,y,z
1/2-x,1/2-y,z
x,1/2-y,-z
1/2-x,y,-z
-x,-y,-z
1/2+x,1/2+y,-z
-x,1/2+y,z
1/2+x,-y,z
loop_
_atom_site_type_symbol
_atom_site_label
_atom_site_fract_x
_atom_site_fract_y
_atom_site_fract_z
Si Si1 0.398829 0.190748 0.205715
Si Si2 0.750000 0.649982 0.500000
Si Si3 0.493780 0.886491 0.468724
Si Si4 0.069942 0.553015 0.977263
Si Si5 0.134584 0.069737 0.167762
O O1 0.316588 0.190502 0.352389
O O2 0.464871 0.179634 0.423828
O O3 0.407267 0.250000 0.000000
O O4 0.397986 0.123556 0.035553
O O5 0.709495 0.602717 0.710055
O O6 0.442478 0.911655 0.704842
O O7 0.570235 0.930616 0.400566
O O8 0.441641 0.895484 0.211382
O O9 0.141118 0.502137 0.958744
O O10 0.000000 0.500000 0.000000
#
# Coordination Sequence:
#
# PCOD9395465 Si02
#       5
#     8   4   8   8   8
#     4  11  23  37  51  70 103 150 194 235 270 317
#     4  10  24  35  48  70 102 148 192 229 274 342
#     4  10  19  33  55  77  92 121 177 237 280 323
#     4  10  17  31  56  76  92 116 170 238 280 325
#     4  10  20  33  52  71 100 132 179 231 275 327
#
# _framework density 19.958082999999998
#
# number of rings (size 3 to 8) (size 9 to 14) (size 15 to 20)
#    0.000    1.778    4.444    3.333    3.111    6.222 
#    0.000    0.000    0.000    0.000    0.000    0.000 
#    0.000    0.000    0.000    0.000    0.000  115.556 
#
# Total GULP energy -200651.897576 kJ/mol
# GULP energy per Si atom -5573.663822 kJ/mol
# Density = 1.991266 g / cm^3
# Si number density = 19.958083 Si / 1000 Ang^3
#
#
#
# Elastic Constant Matrix: (Units=GPa)
#
#
# Indices 1 2 3 4 5 6 
#
# 1 28.8500 47.3728 31.7469 0.0000 0.0000 0.0000
# 2 47.3728 109.9024 67.0833 0.0000 0.0000 0.0000
# 3 31.7469 67.0833 160.6080 0.0000 0.0000 0.0000
# 4 0.0000 0.0000 0.0000 32.5070 0.0000 0.0000
# 5 0.0000 0.0000 0.0000 0.0000 17.3506 0.0000
# 6 0.0000 0.0000 0.0000 0.0000 0.0000 0.9379
#
#
#
# Elastic Compliance Matrix: (Units=1/GPa)
#
#
# Indices 1 2 3 4 5 6 
#
# 1 0.119570 -0.049813 -0.002829 0.000000 0.000000 0.000000
# 2 -0.049813 0.032965 -0.003922 0.000000 0.000000 0.000000
# 3 -0.002829 -0.003922 0.008424 0.000000 0.000000 0.000000
# 4 0.000000 0.000000 0.000000 0.030763 0.000000 0.000000
# 5 0.000000 0.000000 0.000000 0.000000 0.057635 0.000000
# 6 0.000000 0.000000 0.000000 0.000000 0.000000 1.066183
#
#
# Mechanical properties :
#
#
# Convention : Reuss Voigt Hill
#
# Bulk Modulus (GPa) = 20.90749 65.75183 43.32966
# Shear Modulus (GPa) = 3.46113 20.36961 11.91537
#
# Velocity S-wave (km/s) = 1.31832 3.19818 2.44605
# Velocity P-wave (km/s) = 3.57991 6.83039 5.45298
#
# Compressibility (1/GPa) = 0.04782975
#
# Stress axis : x y z
#
# Youngs Moduli (GPa) = 8.36327 30.33515 118.71034
#
# Poissons Ratio (x) = 1.51110 0.33581
# Poissons Ratio (y) = 0.41660 0.46564
# Poissons Ratio (z) = 0.02366 0.11899
#
# Static dielectric constant tensor:
#      x y z
#    x 1.766780 0.000000 0.000000 
#    y 0.000000 1.805710 0.000000 
#    z 0.000000 0.000000 1.825300 
# 
# From -- ./inp_files/4315.got.cif
#   From: 2010.05.17/outbox.cif.g08.bks.cpg/sg50_3_cif.got.tgz:4315.got - 2010.06.03 11:33:33.
