data_PCOD9395224
_publ_section_title
;
Structure prediction by ZEFSAII (Michael W. Deem and Ramdas Pophale) SiO2 
 PCOD9395224
Probable space group: P C C M
;
_chemical_formula_sum "Si O2"
_cell_formula_units_Z 64
_cell_length_a 30.000000
_cell_length_b 15.000000
_cell_length_c 9.000000
_cell_angle_alpha 90.000000
_cell_angle_beta 90.000000
_cell_angle_gamma 90.000000
_cell_volume 4050.000000
_symmetry_space_group_name_H-M "P C C M"
_symmetry_group_IT_number 49
_symmetry_cell_setting 'orthorhombic'
loop_
_space_group_symop_operation_xyz
x,y,z
-x,-y,z
x,-y,1/2-z
-x,y,1/2-z
-x,-y,-z
x,y,-z
-x,y,1/2+z
x,-y,1/2+z
loop_
_atom_site_type_symbol
_atom_site_label
_atom_site_fract_x
_atom_site_fract_y
_atom_site_fract_z
Si Si1 0.951868 0.586433 0.325050
Si Si2 0.108913 0.280249 0.174311
Si Si3 0.749124 0.091362 0.321217
Si Si4 0.359704 0.402809 0.177880
Si Si5 0.542375 0.401693 0.323522
Si Si6 0.722157 0.715092 0.818398
Si Si7 0.853692 0.909854 0.177515
Si Si8 0.804498 0.404698 0.325719
O O1 0.928858 0.500000 0.250000
O O2 0.954834 0.573159 0.500000
O O3 0.926631 0.675109 0.280426
O O4 0.000000 0.591484 0.250000
O O5 0.120765 0.179905 0.217294
O O6 0.152620 0.341775 0.186730
O O7 0.095013 0.282578 0.000000
O O8 0.746302 0.085080 0.500000
O O9 0.726227 0.182701 0.270732
O O10 0.801574 0.100327 0.281405
O O11 0.732239 0.000000 0.250000
O O12 0.354472 0.500000 0.250000
O O13 0.408857 0.364204 0.207600
O O14 0.322345 0.334642 0.228333
O O15 0.356027 0.414784 0.000000
O O16 0.544429 0.500000 0.250000
O O17 0.500000 0.355128 0.250000
O O18 0.536134 0.409697 0.500000
O O19 0.763226 0.653846 0.767704
O O20 0.724007 0.716996 0.000000
O O21 0.871100 0.000000 0.250000
O O22 0.855215 0.918019 0.000000
O O23 0.809314 0.500000 0.250000
O O24 0.796739 0.421428 0.500000
#
# Coordination Sequence:
#
# PCOD9395224 Si02
#       8
#     8   8   8   8   8   8   8   8
#     4  11  22  37  56  77 100 127 157 191 230 271
#     4  10  19  33  51  72  98 126 156 189 227 270
#     4   9  16  29  47  65  86 116 150 186 225 263
#     4   9  17  27  40  58  82 115 152 184 217 263
#     4   9  15  23  36  54  75 103 141 183 223 260
#     4   9  16  29  45  60  85 121 152 178 217 267
#     4   9  17  30  49  71  95 123 154 190 229 269
#     4  10  19  30  44  63  90 123 155 183 215 256
#
# _framework density 15.802469
#
# number of rings (size 3 to 8) (size 9 to 14) (size 15 to 20)
#    0.000    2.500    1.250    3.000    0.000    2.500 
#    0.000    1.250    0.000    0.375    0.000    2.625 
#    0.000    0.500    0.000    6.250    0.000    0.000 
#
# Total GULP energy -356421.680285 kJ/mol
# GULP energy per Si atom -5569.088754 kJ/mol
# Density = 1.576650 g / cm^3
# Si number density = 15.802469 Si / 1000 Ang^3
#
#
#
# Elastic Constant Matrix: (Units=GPa)
#
#
# Indices 1 2 3 4 5 6 
#
# 1 55.0314 41.9013 37.2164 0.0000 0.0000 0.0000
# 2 41.9013 131.2553 41.7963 0.0000 0.0000 0.0000
# 3 37.2164 41.7963 43.1330 0.0000 0.0000 0.0000
# 4 0.0000 0.0000 0.0000 22.0469 0.0000 0.0000
# 5 0.0000 0.0000 0.0000 0.0000 90.5820 0.0000
# 6 0.0000 0.0000 0.0000 0.0000 0.0000 -95.9868
#
#
#
# Elastic Compliance Matrix: (Units=1/GPa)
#
#
# Indices 1 2 3 4 5 6 
#
# 1 0.044357 -0.002854 -0.035507 0.000000 0.000000 0.000000
# 2 -0.002854 0.011202 -0.008393 0.000000 0.000000 0.000000
# 3 -0.035507 -0.008393 0.061954 0.000000 0.000000 0.000000
# 4 0.000000 0.000000 0.000000 0.045358 0.000000 0.000000
# 5 0.000000 0.000000 0.000000 0.000000 0.011040 0.000000
# 6 0.000000 0.000000 0.000000 0.000000 0.000000 -0.010418
#
#
# Mechanical properties :
#
#
# Convention : Reuss Voigt Hill
#
# Bulk Modulus (GPa) = 41.65763 52.36086 47.00924
# Shear Modulus (GPa) = 18.86785 10.56213 14.71499
#
# Velocity S-wave (km/s) = 3.45915 2.58812 3.05484
# Velocity P-wave (km/s) = 6.50945 6.49135 6.50041
#
# Compressibility (1/GPa) = 0.02400521
#
# Stress axis : x y z
#
# Youngs Moduli (GPa) = 22.54450 89.26714 16.14113
#
# Poissons Ratio (x) = 0.25473 0.57312
# Poissons Ratio (y) = 0.06433 0.13547
# Poissons Ratio (z) = 0.80049 0.74922
#
# Static dielectric constant tensor:
#      x y z
#    x 1.586000 0.000000 0.000000 
#    y 0.000000 1.525760 0.000000 
#    z 0.000000 0.000000 1.531880 
# 
# From -- ./inp_files/7049.got.cif
#   From: 2010.05.17/outbox.ucp.g08.bks.cvg/sg49_4_cif.got.tgz:7049.got - 2010.06.11 16:40:14.
