data_PCOD9395375
_publ_section_title
;
Structure prediction by ZEFSAII (Michael W. Deem and Ramdas Pophale) SiO2 
 PCOD9395375
Probable space group: P B A N
;
_chemical_formula_sum "Si O2"
_cell_formula_units_Z 52
_cell_length_a 27.574023
_cell_length_b 5.312524
_cell_length_c 17.962178
_cell_angle_alpha 90.000000
_cell_angle_beta 90.000000
_cell_angle_gamma 90.000000
_cell_volume 2631.237405
_symmetry_space_group_name_H-M "P B A N"
_symmetry_group_IT_number 50
_space_group.IT_coordinate_system_code '2'
_symmetry_cell_setting 'orthorhombic'
loop_
_space_group_symop_operation_xyz
x,y,z
1/2-x,1/2-y,z
x,1/2-y,-z
1/2-x,y,-z
-x,-y,-z
1/2+x,1/2+y,-z
-x,1/2+y,z
1/2+x,-y,z
loop_
_atom_site_type_symbol
_atom_site_label
_atom_site_fract_x
_atom_site_fract_y
_atom_site_fract_z
Si Si1 0.034053 0.830671 0.663943
Si Si2 0.879939 0.490447 0.774013
Si Si3 0.616841 0.992352 0.131491
Si Si4 0.467190 0.750000 0.500000
Si Si5 0.267380 0.998062 0.274458
Si Si6 0.774999 0.501773 0.106684
Si Si7 0.482561 0.316203 0.083491
O O1 0.079045 0.900680 0.716530
O O2 0.056585 0.785410 0.580785
O O3 0.003071 0.570120 0.673751
O O4 0.886422 0.774670 0.804996
O O5 0.824363 0.486096 0.744082
O O6 0.883935 0.275712 0.837527
O O7 0.571347 0.923703 0.080951
O O8 0.668506 0.974128 0.092729
O O9 0.500000 0.500000 0.500000
O O10 0.250000 0.750000 0.315564
O O11 0.235862 0.999232 0.196562
O O12 0.250000 0.250000 0.313711
O O13 0.750000 0.250000 0.079501
O O14 0.750000 0.750000 0.078827
O O15 0.512594 0.542401 0.121264
O O16 0.499781 0.250000 0.000000
#
# Coordination Sequence:
#
# PCOD9395375 Si02
#       7
#     8   8   8   4   8   8   8
#     4  10  21  35  49  73 107 140 172 217 255 311
#     4  12  21  30  51  82 108 132 168 212 270 307
#     4  12  21  32  55  79 102 136 171 212 265 308
#     4   8  16  34  54  64  91 144 183 200 248 300
#     4  10  16  30  46  68 104 138 163 193 243 306
#     4  10  16  30  48  72 101 133 163 197 246 303
#     4  10  23  42  57  72  99 139 182 213 249 314
#
# _framework density 19.762564000000001
#
# number of rings (size 3 to 8) (size 9 to 14) (size 15 to 20)
#    0.000    1.538    6.154    1.846    0.000    3.692 
#    0.000    0.000    0.000    0.462    0.000    2.692 
#    0.000    2.462    0.000    0.000    0.000    0.000 
#
# Total GULP energy -289638.940330 kJ/mol
# GULP energy per Si atom -5569.979622 kJ/mol
# Density = 1.971758 g / cm^3
# Si number density = 19.762564 Si / 1000 Ang^3
#
#
#
# Elastic Constant Matrix: (Units=GPa)
#
#
# Indices 1 2 3 4 5 6 
#
# 1 138.2330 41.4322 17.2862 0.0000 0.0000 0.0000
# 2 41.4322 170.5488 4.0563 0.0000 0.0000 0.0000
# 3 17.2862 4.0563 29.1221 0.0000 0.0000 0.0000
# 4 0.0000 0.0000 0.0000 11.4389 0.0000 0.0000
# 5 0.0000 0.0000 0.0000 0.0000 -12.2421 0.0000
# 6 0.0000 0.0000 0.0000 0.0000 0.0000 34.0235
#
#
#
# Elastic Compliance Matrix: (Units=1/GPa)
#
#
# Indices 1 2 3 4 5 6 
#
# 1 0.008402 -0.001929 -0.004719 0.000000 0.000000 0.000000
# 2 -0.001929 0.006326 0.000264 0.000000 0.000000 0.000000
# 3 -0.004719 0.000264 0.037102 0.000000 0.000000 0.000000
# 4 0.000000 0.000000 0.000000 0.087421 0.000000 0.000000
# 5 0.000000 0.000000 0.000000 0.000000 -0.081685 0.000000
# 6 0.000000 0.000000 0.000000 0.000000 0.000000 0.029391
#
#
# Mechanical properties :
#
#
# Convention : Reuss Voigt Hill
#
# Bulk Modulus (GPa) = 25.59976 51.49480 38.54728
# Shear Modulus (GPa) = 44.34715 24.98598 34.66657
#
# Velocity S-wave (km/s) = 4.74222 3.55957 4.19281
# Velocity P-wave (km/s) = 6.55490 6.55800 6.55645
#
# Compressibility (1/GPa) = 0.03906287
#
# Stress axis : x y z
#
# Youngs Moduli (GPa) = 119.01306 158.08349 26.95239
#
# Poissons Ratio (x) = 0.30495 0.12718
# Poissons Ratio (y) = 0.22958 -0.00711
# Poissons Ratio (z) = 0.56160 -0.04172
#
# Static dielectric constant tensor:
#      x y z
#    x 1.688150 0.000000 0.000000 
#    y 0.000000 1.827790 0.000000 
#    z 0.000000 0.000000 1.736120 
# 
# From -- ./inp_files/31185.got.cif
#   From: 2010.05.17/outbox.cif.g08.bks.cpg/sg50_16_cif.got.tgz:31185.got - 2010.06.03 11:33:33.
