data_PCOD9395316
_publ_section_title
;
Structure prediction by ZEFSAII (Michael W. Deem and Ramdas Pophale) SiO2 
 PCOD9395316
Probable space group: P C C M
;
_chemical_formula_sum "Si O2"
_cell_formula_units_Z 58
_cell_length_a 18.000000
_cell_length_b 18.000000
_cell_length_c 9.000000
_cell_angle_alpha 90.000000
_cell_angle_beta 90.000000
_cell_angle_gamma 90.000000
_cell_volume 2916.000000
_symmetry_space_group_name_H-M "P C C M"
_symmetry_group_IT_number 49
_symmetry_cell_setting 'orthorhombic'
loop_
_space_group_symop_operation_xyz
x,y,z
-x,-y,z
x,-y,1/2-z
-x,y,1/2-z
-x,-y,-z
x,y,-z
-x,y,1/2+z
x,-y,1/2+z
loop_
_atom_site_type_symbol
_atom_site_label
_atom_site_fract_x
_atom_site_fract_y
_atom_site_fract_z
Si Si1 0.779573 0.574638 0.672240
Si Si2 0.076986 0.918306 0.179639
Si Si3 0.625407 0.624069 0.826384
Si Si4 0.581236 0.924334 0.677257
Si Si5 0.500000 0.500000 0.750000
Si Si6 0.666016 0.769704 0.322592
Si Si7 0.824715 0.198669 0.677778
Si Si8 0.076670 0.319438 0.674762
O O1 0.804565 0.500000 0.750000
O O2 0.758917 0.564459 0.500000
O O3 0.704076 0.597653 0.757052
O O4 0.851733 0.626680 0.677551
O O5 0.149742 0.875666 0.237785
O O6 0.000000 0.886344 0.250000
O O7 0.081254 0.000000 0.250000
O O8 0.072648 0.918826 0.000000
O O9 0.560685 0.560939 0.813420
O O10 0.614996 0.702712 0.741039
O O11 0.635067 0.639471 0.000000
O O12 0.500000 0.914266 0.750000
O O13 0.574100 0.934641 0.500000
O O14 0.628718 0.849985 0.702939
O O15 0.612917 0.000000 0.750000
O O16 0.676481 0.758483 0.500000
O O17 0.746524 0.771164 0.242576
O O18 0.820277 0.190633 0.500000
O O19 0.891936 0.252542 0.725903
O O20 0.064147 0.299842 0.500000
O O21 0.000000 0.346853 0.750000
#
# Coordination Sequence:
#
# PCOD9395316 Si02
#       8
#     8   8   8   8   2   8   8   8
#     4  11  24  43  69  96 133 174 216 273 333 392
#     4  11  22  39  61  89 128 171 220 277 334 395
#     4  12  26  45  71 101 137 181 227 276 338 408
#     4  10  22  41  67  96 131 173 217 271 329 394
#     4  12  30  48  72 110 146 176 230 276 338 404
#     4  11  25  44  66  97 135 174 220 277 336 398
#     4  12  24  40  64  93 126 171 220 270 331 397
#     4  11  24  42  65  94 129 170 218 274 330 393
#
# _framework density 19.890260999999999
#
# number of rings (size 3 to 8) (size 9 to 14) (size 15 to 20)
#    0.000    0.828    2.069    6.000    0.966    6.345 
#    0.000    2.759    0.000    0.000    0.000    0.000 
#    0.000    0.000    0.000    0.000    0.000    0.000 
#
# Total GULP energy -323738.495683 kJ/mol
# GULP energy per Si atom -5581.698201 kJ/mol
# Density = 1.984499 g / cm^3
# Si number density = 19.890261 Si / 1000 Ang^3
#
#
#
# Elastic Constant Matrix: (Units=GPa)
#
#
# Indices 1 2 3 4 5 6 
#
# 1 91.3829 29.7393 50.9120 0.0000 0.0000 0.0000
# 2 29.7393 105.1243 56.7693 0.0000 0.0000 0.0000
# 3 50.9120 56.7693 183.1524 0.0000 0.0000 0.0000
# 4 0.0000 0.0000 0.0000 26.4327 0.0000 0.0000
# 5 0.0000 0.0000 0.0000 0.0000 -8.9520 0.0000
# 6 0.0000 0.0000 0.0000 0.0000 0.0000 43.8354
#
#
#
# Elastic Compliance Matrix: (Units=1/GPa)
#
#
# Indices 1 2 3 4 5 6 
#
# 1 0.013333 -0.002126 -0.003047 0.000000 0.000000 0.000000
# 2 -0.002126 0.011764 -0.003055 0.000000 0.000000 0.000000
# 3 -0.003047 -0.003055 0.007254 0.000000 0.000000 0.000000
# 4 0.000000 0.000000 0.000000 0.037832 0.000000 0.000000
# 5 0.000000 0.000000 0.000000 0.000000 -0.111707 0.000000
# 6 0.000000 0.000000 0.000000 0.000000 0.000000 0.022813
#
#
# Mechanical properties :
#
#
# Convention : Reuss Voigt Hill
#
# Bulk Modulus (GPa) = 62.91974 72.72230 67.82102
# Shear Modulus (GPa) = 1643.40696 28.41250 835.90973
#
# Velocity S-wave (km/s) = 28.77552 3.78360 20.52250
# Velocity P-wave (km/s) = 33.70079 7.46516 24.40770
#
# Compressibility (1/GPa) = 0.01589326
#
# Stress axis : x y z
#
# Youngs Moduli (GPa) = 75.00444 85.00538 137.85583
#
# Poissons Ratio (x) = 0.18074 0.42006
# Poissons Ratio (y) = 0.15948 0.42119
# Poissons Ratio (z) = 0.22855 0.25971
#
# Static dielectric constant tensor:
#      x y z
#    x 1.697380 0.000000 0.000000 
#    y 0.000000 1.792500 0.000000 
#    z 0.000000 0.000000 1.670910 
# 
# From -- ./inp_files/5088.got.cif
#   From: 2010.05.17/outbox.ucp.g08.bks.cvg/sg49_3_cif.got.tgz:5088.got - 2010.06.11 16:40:14.
