data_PCOD9395302
_publ_section_title
;
Structure prediction by ZEFSAII (Michael W. Deem and Ramdas Pophale) SiO2 
 PCOD9395302
Probable space group: P C C M
;
_chemical_formula_sum "Si O2"
_cell_formula_units_Z 48
_cell_length_a 30.000000
_cell_length_b 9.000000
_cell_length_c 9.000000
_cell_angle_alpha 90.000000
_cell_angle_beta 90.000000
_cell_angle_gamma 90.000000
_cell_volume 2430.000000
_symmetry_space_group_name_H-M "P C C M"
_symmetry_group_IT_number 49
_symmetry_cell_setting 'orthorhombic'
loop_
_space_group_symop_operation_xyz
x,y,z
-x,-y,z
x,-y,1/2-z
-x,y,1/2-z
-x,-y,-z
x,y,-z
-x,y,1/2+z
x,-y,1/2+z
loop_
_atom_site_type_symbol
_atom_site_label
_atom_site_fract_x
_atom_site_fract_y
_atom_site_fract_z
Si Si1 0.453216 0.345280 0.675329
Si Si2 0.711105 0.340844 0.678987
Si Si3 0.206023 0.149926 0.831692
Si Si4 0.880753 0.351614 0.329693
Si Si5 0.366590 0.840901 0.824025
Si Si6 0.048447 0.152580 0.677601
O O1 0.438198 0.500000 0.750000
O O2 0.500000 0.305597 0.750000
O O3 0.459289 0.369936 0.500000
O O4 0.416423 0.219973 0.696113
O O5 0.717502 0.500000 0.750000
O O6 0.710631 0.349836 0.500000
O O7 0.752165 0.238926 0.730525
O O8 0.666189 0.270950 0.741267
O O9 0.161637 0.245773 0.830939
O O10 0.197018 0.000000 0.750000
O O11 0.218153 0.113410 0.000000
O O12 0.866035 0.500000 0.250000
O O13 0.895555 0.374327 0.500000
O O14 0.919842 0.282379 0.231738
O O15 0.361021 0.000000 0.750000
O O16 0.356840 0.845708 0.000000
O O17 0.045676 0.140140 0.500000
O O18 0.000000 0.173708 0.750000
O O19 0.066315 0.000000 0.750000
#
# Coordination Sequence:
#
# PCOD9395302 Si02
#       6
#     8   8   8   8   8   8
#     4  10  21  37  59  85 114 149 192 238 290 346
#     4  11  23  40  62  89 119 155 196 241 290 346
#     4  10  23  40  61  88 119 154 195 240 290 345
#     4  11  23  40  60  87 120 156 197 243 293 347
#     4  11  24  40  59  86 118 155 195 241 292 347
#     4  11  22  39  62  89 119 155 197 243 293 349
#
# _framework density 19.753086
#
# number of rings (size 3 to 8) (size 9 to 14) (size 15 to 20)
#    0.000    1.333    0.000    6.500    0.000   10.000 
#    0.000    3.333    0.000    0.000    0.000    0.000 
#    0.000    0.000    0.000    0.000    0.000    0.000 
#
# Total GULP energy -268158.012599 kJ/mol
# GULP energy per Si atom -5586.625262 kJ/mol
# Density = 1.970813 g / cm^3
# Si number density = 19.753086 Si / 1000 Ang^3
#
#
#
# Elastic Constant Matrix: (Units=GPa)
#
#
# Indices 1 2 3 4 5 6 
#
# 1 17.9344 4.4717 23.0311 0.0000 0.0000 0.0000
# 2 4.4717 56.0380 40.9292 0.0000 0.0000 0.0000
# 3 23.0311 40.9292 117.4933 0.0000 0.0000 0.0000
# 4 0.0000 0.0000 0.0000 27.1556 0.0000 0.0000
# 5 0.0000 0.0000 0.0000 0.0000 8.2107 0.0000
# 6 0.0000 0.0000 0.0000 0.0000 0.0000 -52.5190
#
#
#
# Elastic Compliance Matrix: (Units=1/GPa)
#
#
# Indices 1 2 3 4 5 6 
#
# 1 0.076231 0.006479 -0.017200 0.000000 0.000000 0.000000
# 2 0.006479 0.024486 -0.009800 0.000000 0.000000 0.000000
# 3 -0.017200 -0.009800 0.015296 0.000000 0.000000 0.000000
# 4 0.000000 0.000000 0.000000 0.036825 0.000000 0.000000
# 5 0.000000 0.000000 0.000000 0.000000 0.121793 0.000000
# 6 0.000000 0.000000 0.000000 0.000000 0.000000 -0.019041
#
#
# Mechanical properties :
#
#
# Convention : Reuss Voigt Hill
#
# Bulk Modulus (GPa) = 13.33822 36.48106 24.90964
# Shear Modulus (GPa) = 15.54625 4.77170 10.15897
#
# Velocity S-wave (km/s) = 2.80845 1.55593 2.27027
# Velocity P-wave (km/s) = 4.15736 4.66224 4.41702
#
# Compressibility (1/GPa) = 0.07497252
#
# Stress axis : x y z
#
# Youngs Moduli (GPa) = 13.11803 40.84041 65.37472
#
# Poissons Ratio (x) = -0.26462 1.12444
# Poissons Ratio (y) = -0.08500 0.64065
# Poissons Ratio (z) = 0.22563 0.40023
#
# Static dielectric constant tensor:
#      x y z
#    x 1.668750 0.000000 0.000000 
#    y 0.000000 1.587610 0.000000 
#    z 0.000000 0.000000 1.660380 
# 
# From -- ./inp_files/2041.got.cif
#   From: 2010.05.17/outbox.ucp.g08.bks.cvg/sg49_2_cif.got.tgz:2041.got - 2010.06.11 16:40:14.
