data_PCOD9395742
_publ_section_title
;
Structure prediction by ZEFSAII (Michael W. Deem and Ramdas Pophale) SiO2 
 PCOD9395742
Probable space group: P B A N
;
_chemical_formula_sum "Si O2"
_cell_formula_units_Z 34
_cell_length_a 5.259382
_cell_length_b 26.860871
_cell_length_c 11.721026
_cell_angle_alpha 90.000000
_cell_angle_beta 90.000000
_cell_angle_gamma 90.000000
_cell_volume 1655.847879
_symmetry_space_group_name_H-M "P B A N"
_symmetry_group_IT_number 50
_space_group.IT_coordinate_system_code '2'
_symmetry_cell_setting 'orthorhombic'
loop_
_space_group_symop_operation_xyz
x,y,z
1/2-x,1/2-y,z
x,1/2-y,-z
1/2-x,y,-z
-x,-y,-z
1/2+x,1/2+y,-z
-x,1/2+y,z
1/2+x,-y,z
loop_
_atom_site_type_symbol
_atom_site_label
_atom_site_fract_x
_atom_site_fract_y
_atom_site_fract_z
Si Si1 0.142675 0.861979 0.330042
Si Si2 0.750727 0.023779 0.633340
Si Si3 0.250000 0.750000 0.000000
Si Si4 0.846088 0.694576 0.338838
Si Si5 0.891351 0.669330 0.888524
O O1 0.220921 0.917125 0.363063
O O2 0.368578 0.823609 0.361715
O O3 0.876516 0.842553 0.382468
O O4 0.073672 0.862759 0.194392
O O5 0.750000 0.008601 0.500000
O O6 0.491971 0.003775 0.686385
O O7 0.433546 0.785360 0.928040
O O8 0.750000 0.750000 0.368482
O O9 0.817946 0.688869 0.201258
O O10 0.750000 0.648138 0.000000
#
# Coordination Sequence:
#
# PCOD9395742 Si02
#       5
#     8   8   2   8   8
#     4  10  21  33  54  83 113 147 186 237 283 336
#     4  10  21  40  66  88 105 134 186 252 307 347
#     4  12  18  32  48  86 110 158 204 230 248 314
#     4  10  19  32  50  79 115 157 186 220 267 327
#     4  10  20  28  49  76 116 149 190 228 261 314
#
# _framework density 20.533286
#
# number of rings (size 3 to 8) (size 9 to 14) (size 15 to 20)
#    1.412    0.471    0.000    6.706    0.000    0.000 
#    0.000    0.000    0.000    5.647    0.000    0.000 
#    0.000    0.000    0.000    0.000    0.000    0.000 
#
# Total GULP energy -189437.196850 kJ/mol
# GULP energy per Si atom -5571.682260 kJ/mol
# Density = 2.048655 g / cm^3
# Si number density = 20.533286 Si / 1000 Ang^3
#
#
#
# Elastic Constant Matrix: (Units=GPa)
#
#
# Indices 1 2 3 4 5 6 
#
# 1 154.8051 43.2271 30.7481 0.0000 0.0000 0.0000
# 2 43.2271 66.0189 -17.5150 0.0000 0.0000 0.0000
# 3 30.7481 -17.5150 59.7281 0.0000 0.0000 0.0000
# 4 0.0000 0.0000 0.0000 20.4800 0.0000 0.0000
# 5 0.0000 0.0000 0.0000 0.0000 11.3074 0.0000
# 6 0.0000 0.0000 0.0000 0.0000 0.0000 29.8990
#
#
#
# Elastic Compliance Matrix: (Units=1/GPa)
#
#
# Indices 1 2 3 4 5 6 
#
# 1 0.010622 -0.009115 -0.008141 0.000000 0.000000 0.000000
# 2 -0.009115 0.024246 0.011802 0.000000 0.000000 0.000000
# 3 -0.008141 0.011802 0.024395 0.000000 0.000000 0.000000
# 4 0.000000 0.000000 0.000000 0.048828 0.000000 0.000000
# 5 0.000000 0.000000 0.000000 0.000000 0.088437 0.000000
# 6 0.000000 0.000000 0.000000 0.000000 0.000000 0.033446
#
#
# Mechanical properties :
#
#
# Convention : Reuss Voigt Hill
#
# Bulk Modulus (GPa) = 20.67987 43.71917 32.19952
# Shear Modulus (GPa) = 19.45528 27.27675 23.36602
#
# Velocity S-wave (km/s) = 3.08149 3.64870 3.37702
# Velocity P-wave (km/s) = 4.77012 6.25210 5.56070
#
# Compressibility (1/GPa) = 0.04835620
#
# Stress axis : x y z
#
# Youngs Moduli (GPa) = 94.14514 41.24320 40.99280
#
# Poissons Ratio (x) = 0.37592 0.33372
# Poissons Ratio (y) = 0.85811 -0.48381
# Poissons Ratio (z) = 0.76644 -0.48677
#
# Static dielectric constant tensor:
#      x y z
#    x 1.742520 0.000000 0.000000 
#    y 0.000000 1.677900 0.000000 
#    z 0.000000 0.000000 1.807220 
# 
# From -- ./inp_files/23838.got.cif
#   From: 2010.05.17/outbox.cif.g08.bks.cpg/sg50_12_cif.got.tgz:23838.got - 2010.06.03 11:33:33.
