data_PCOD9395525
_publ_section_title
;
Structure prediction by ZEFSAII (Michael W. Deem and Ramdas Pophale) SiO2 
 PCOD9395525
Probable space group: P B A N
;
_chemical_formula_sum "Si O2"
_cell_formula_units_Z 56
_cell_length_a 8.363540
_cell_length_b 19.222086
_cell_length_c 18.756332
_cell_angle_alpha 90.000000
_cell_angle_beta 90.000000
_cell_angle_gamma 90.000000
_cell_volume 3015.355808
_symmetry_space_group_name_H-M "P B A N"
_symmetry_group_IT_number 50
_space_group.IT_coordinate_system_code '2'
_symmetry_cell_setting 'orthorhombic'
loop_
_space_group_symop_operation_xyz
x,y,z
1/2-x,1/2-y,z
x,1/2-y,-z
1/2-x,y,-z
-x,-y,-z
1/2+x,1/2+y,-z
-x,1/2+y,z
1/2+x,-y,z
loop_
_atom_site_type_symbol
_atom_site_label
_atom_site_fract_x
_atom_site_fract_y
_atom_site_fract_z
Si Si1 0.056799 0.421899 0.919258
Si Si2 0.441363 0.079619 0.651335
Si Si3 0.945585 0.670127 0.786558
Si Si4 0.443201 0.078102 0.080742
Si Si5 0.554416 0.670127 0.786558
Si Si6 0.441363 0.079619 0.348665
Si Si7 0.439837 0.579915 0.500000
O O1 0.250000 0.421771 0.919107
O O2 0.002177 0.368693 0.858667
O O3 0.000000 0.500000 0.902767
O O4 0.003570 0.404731 1.000000
O O5 0.496899 0.126115 0.717598
O O6 0.250000 0.078001 0.650922
O O7 0.498123 0.109039 0.574966
O O8 0.500000 1.000000 0.658982
O O9 0.997823 0.631307 0.858667
O O10 0.750000 0.670051 0.786509
O O11 0.997794 0.750000 0.783821
O O12 0.996899 0.626115 0.717598
O O13 0.498123 0.109039 0.425034
O O14 0.250000 0.580322 0.500000
O O15 0.500000 0.500000 0.500000
#
# Coordination Sequence:
#
# PCOD9395525 Si02
#       7
#     8   8   8   8   8   8   8
#     4   9  17  30  50  74  98 125 158 197 238 279
#     4  10  18  30  50  72  95 123 157 197 238 281
#     4   9  18  31  47  70  98 127 161 198 234 276
#     4   9  17  30  50  74  98 125 158 197 238 279
#     4   9  18  31  47  70  98 127 161 198 234 276
#     4  10  18  30  50  72  95 123 157 197 238 281
#     4  10  18  30  49  72  97 121 153 197 239 282
#
# _framework density 18.571605999999999
#
# number of rings (size 3 to 8) (size 9 to 14) (size 15 to 20)
#    0.000    2.571    0.000    4.714    0.000    0.571 
#    0.000    5.000    0.000   12.000    0.000    4.000 
#    0.000    0.000    0.000    0.000    0.000    0.000 
#
# Total GULP energy -312311.962607 kJ/mol
# GULP energy per Si atom -5576.999332 kJ/mol
# Density = 1.852934 g / cm^3
# Si number density = 18.571606 Si / 1000 Ang^3
#
#
#
# Elastic Constant Matrix: (Units=GPa)
#
#
# Indices 1 2 3 4 5 6 
#
# 1 35.4330 15.6109 24.1532 0.0000 0.0000 0.0000
# 2 15.6109 116.8149 117.8731 0.0000 0.0000 0.0000
# 3 24.1532 117.8731 194.3154 0.0000 0.0000 0.0000
# 4 0.0000 0.0000 0.0000 -7.3320 0.0000 0.0000
# 5 0.0000 0.0000 0.0000 0.0000 15.5212 0.0000
# 6 0.0000 0.0000 0.0000 0.0000 0.0000 17.5129
#
#
#
# Elastic Compliance Matrix: (Units=1/GPa)
#
#
# Indices 1 2 3 4 5 6 
#
# 1 0.030854 -0.000653 -0.003439 0.000000 0.000000 0.000000
# 2 -0.000653 0.022083 -0.013314 0.000000 0.000000 0.000000
# 3 -0.003439 -0.013314 0.013650 0.000000 0.000000 0.000000
# 4 0.000000 0.000000 0.000000 -0.136389 0.000000 0.000000
# 5 0.000000 0.000000 0.000000 0.000000 0.064428 0.000000
# 6 0.000000 0.000000 0.000000 0.000000 0.000000 0.057101
#
#
# Mechanical properties :
#
#
# Convention : Reuss Voigt Hill
#
# Bulk Modulus (GPa) = 31.47194 73.53751 52.50473
# Shear Modulus (GPa) = 51.47632 17.73551 34.60591
#
# Velocity S-wave (km/s) = 5.27048 3.09363 4.32137
# Velocity P-wave (km/s) = 7.34985 7.24178 7.29602
#
# Compressibility (1/GPa) = 0.03177434
#
# Stress axis : x y z
#
# Youngs Moduli (GPa) = 32.41046 45.28387 73.25810
#
# Poissons Ratio (x) = 0.02958 0.25193
# Poissons Ratio (y) = 0.02117 0.97539
# Poissons Ratio (z) = 0.11146 0.60293
#
# Static dielectric constant tensor:
#      x y z
#    x 1.639280 0.000000 0.000000 
#    y 0.000000 1.602280 0.000000 
#    z 0.000000 0.000000 1.672630 
# 
# From -- ./inp_files/28922.got.cif
#   From: 2010.05.17/outbox.cif.g08.bks.cpg/sg50_15_cif.got.tgz:28922.got - 2010.06.03 11:33:33.
