data_PCOD9395243
_publ_section_title
;
Structure prediction by ZEFSAII (Michael W. Deem and Ramdas Pophale) SiO2 
 PCOD9395243
Probable space group: P C C M
;
_chemical_formula_sum "Si O2"
_cell_formula_units_Z 64
_cell_length_a 18.000000
_cell_length_b 12.000000
_cell_length_c 15.000000
_cell_angle_alpha 90.000000
_cell_angle_beta 90.000000
_cell_angle_gamma 90.000000
_cell_volume 3240.000000
_symmetry_space_group_name_H-M "P C C M"
_symmetry_group_IT_number 49
_symmetry_cell_setting 'orthorhombic'
loop_
_space_group_symop_operation_xyz
x,y,z
-x,-y,z
x,-y,1/2-z
-x,y,1/2-z
-x,-y,-z
x,y,-z
-x,y,1/2+z
x,-y,1/2+z
loop_
_atom_site_type_symbol
_atom_site_label
_atom_site_fract_x
_atom_site_fract_y
_atom_site_fract_z
Si Si1 0.250513 0.510082 0.143763
Si Si2 0.910502 0.134424 0.750259
Si Si3 0.416045 0.235836 0.277934
Si Si4 0.803053 0.764052 0.395532
Si Si5 0.166708 0.285667 0.099177
Si Si6 0.416252 0.467627 0.354724
Si Si7 0.668720 0.812237 0.900146
Si Si8 0.338722 0.077359 0.396748
O O1 0.257052 0.500000 0.250000
O O2 0.222570 0.635858 0.122397
O O3 0.190541 0.415097 0.116875
O O4 0.335923 0.489391 0.108281
O O5 0.870747 0.192875 0.834954
O O6 0.880629 0.212186 0.668760
O O7 0.000000 0.140263 0.750000
O O8 0.891126 0.000000 0.750000
O O9 0.500000 0.245120 0.250000
O O10 0.403453 0.334775 0.348829
O O11 0.370243 0.242282 0.185757
O O12 0.398986 0.122013 0.328190
O O13 0.820586 0.773437 0.500000
O O14 0.734637 0.849002 0.376220
O O15 0.247127 0.227876 0.099348
O O16 0.133666 0.278829 0.000000
O O17 0.500000 0.500000 0.389909
O O18 0.419384 0.500000 0.250000
O O19 0.670362 0.945545 0.887365
O O20 0.636489 0.789115 0.000000
O O21 0.358299 0.099503 0.500000
#
# Coordination Sequence:
#
# PCOD9395243 Si02
#       8
#     8   8   8   8   8   8   8   8
#     4  11  20  38  68  94 128 174 217 271 325 378
#     4  11  25  45  70 101 135 170 208 254 314 384
#     4  12  22  36  59  80 114 162 207 258 323 379
#     4  11  22  41  68  99 130 168 215 263 317 381
#     4  11  23  41  67  99 132 166 212 266 319 378
#     4  10  19  34  57  90 121 161 212 265 319 380
#     4  10  22  39  59  86 119 158 209 265 315 372
#     4  10  22  39  59  86 119 157 211 266 311 373
#
# _framework density 19.753086
#
# number of rings (size 3 to 8) (size 9 to 14) (size 15 to 20)
#    0.000    1.250    3.750    3.750    0.000    3.500 
#    0.000    3.750    0.000    3.750    0.000    0.000 
#    0.000    0.000    0.000    0.000    0.000    0.000 
#
# Total GULP energy -357111.493598 kJ/mol
# GULP energy per Si atom -5579.867087 kJ/mol
# Density = 1.970813 g / cm^3
# Si number density = 19.753086 Si / 1000 Ang^3
#
#
#
# Elastic Constant Matrix: (Units=GPa)
#
#
# Indices 1 2 3 4 5 6 
#
# 1 80.9518 37.9917 32.1594 0.0000 0.0000 0.0000
# 2 37.9917 119.3849 32.9040 0.0000 0.0000 0.0000
# 3 32.1594 32.9040 77.4660 0.0000 0.0000 0.0000
# 4 0.0000 0.0000 0.0000 -113.6813 0.0000 0.0000
# 5 0.0000 0.0000 0.0000 0.0000 -23.4397 0.0000
# 6 0.0000 0.0000 0.0000 0.0000 0.0000 6.0608
#
#
#
# Elastic Compliance Matrix: (Units=1/GPa)
#
#
# Indices 1 2 3 4 5 6 
#
# 1 0.016133 -0.003724 -0.005116 0.000000 0.000000 0.000000
# 2 -0.003724 0.010347 -0.002849 0.000000 0.000000 0.000000
# 3 -0.005116 -0.002849 0.016243 0.000000 0.000000 0.000000
# 4 0.000000 0.000000 0.000000 -0.008797 0.000000 0.000000
# 5 0.000000 0.000000 0.000000 0.000000 -0.042663 0.000000
# 6 0.000000 0.000000 0.000000 0.000000 0.000000 0.164996
#
#
# Mechanical properties :
#
#
# Convention : Reuss Voigt Hill
#
# Bulk Modulus (GPa) = 51.69224 53.76812 52.73018
# Shear Modulus (GPa) = 26.86955 -14.56222 6.15367
#
# Velocity S-wave (km/s) = 3.69219 -2.71811 1.76693
# Velocity P-wave (km/s) = 6.66351 4.17473 5.56016
#
# Compressibility (1/GPa) = 0.01934526
#
# Stress axis : x y z
#
# Youngs Moduli (GPa) = 61.98445 96.65095 61.56635
#
# Poissons Ratio (x) = 0.35993 0.31496
# Poissons Ratio (y) = 0.23083 0.17538
# Poissons Ratio (z) = 0.31710 0.27533
#
# Static dielectric constant tensor:
#      x y z
#    x 1.681570 0.000000 0.000000 
#    y 0.000000 1.758820 0.000000 
#    z 0.000000 0.000000 1.577900 
# 
# From -- ./inp_files/14182.got.cif
#   From: 2010.05.17/outbox.ucp.g08.bks.cvg/sg49_8_cif.got.tgz:14182.got - 2010.06.11 16:40:14.
