data_PCOD9395662
_publ_section_title
;
Structure prediction by ZEFSAII (Michael W. Deem and Ramdas Pophale) SiO2 
 PCOD9395662
Probable space group: P B A N
;
_chemical_formula_sum "Si O2"
_cell_formula_units_Z 32
_cell_length_a 18.569246
_cell_length_b 12.931971
_cell_length_c 5.071232
_cell_angle_alpha 90.000000
_cell_angle_beta 90.000000
_cell_angle_gamma 90.000000
_cell_volume 1217.790189
_symmetry_space_group_name_H-M "P B A N"
_symmetry_group_IT_number 50
_space_group.IT_coordinate_system_code '2'
_symmetry_cell_setting 'orthorhombic'
loop_
_space_group_symop_operation_xyz
x,y,z
1/2-x,1/2-y,z
x,1/2-y,-z
1/2-x,y,-z
-x,-y,-z
1/2+x,1/2+y,-z
-x,1/2+y,z
1/2+x,-y,z
loop_
_atom_site_type_symbol
_atom_site_label
_atom_site_fract_x
_atom_site_fract_y
_atom_site_fract_z
Si Si1 0.424255 0.250000 0.500000
Si Si2 0.371980 0.632299 0.662261
Si Si3 0.250000 0.575350 0.000000
Si Si4 0.371608 0.454133 0.319572
Si Si5 0.457797 0.870501 0.831744
O O1 0.378277 0.332530 0.336783
O O2 0.473144 0.179479 0.303384
O O3 0.296318 0.646191 0.801891
O O4 0.368795 0.507078 0.607699
O O5 0.391652 0.666474 0.365245
O O6 0.435504 0.653471 0.870852
O O7 0.195060 0.501929 0.839274
O O8 0.445004 0.506196 0.205062
#
# Coordination Sequence:
#
# PCOD9395662 Si02
#       5
#     4   8   4   8   8
#     4  12  22  44  65 105 150 176 232 298 364 428
#     4   9  20  41  68  91 132 178 233 281 341 408
#     4  10  18  44  69  91 132 182 236 278 355 419
#     4   9  22  40  67 101 129 193 221 295 348 425
#     4   9  22  41  63  99 135 183 230 283 349 427
#
# _framework density 26.277103
#
# number of rings (size 3 to 8) (size 9 to 14) (size 15 to 20)
#    1.500    1.000    0.000    1.500    0.000    2.000 
#   13.500    3.750    0.000   18.000    0.000    0.000 
#    0.000    0.000    0.000    0.000    0.000    0.000 
#
# Total GULP energy -178723.878408 kJ/mol
# GULP energy per Si atom -5585.121200 kJ/mol
# Density = 2.621730 g / cm^3
# Si number density = 26.277103 Si / 1000 Ang^3
#
#
#
# Elastic Constant Matrix: (Units=GPa)
#
#
# Indices 1 2 3 4 5 6 
#
# 1 97.2829 14.2620 40.6567 0.0000 0.0000 0.0000
# 2 14.2620 96.8076 21.8918 0.0000 0.0000 0.0000
# 3 40.6567 21.8918 148.5584 0.0000 0.0000 0.0000
# 4 0.0000 0.0000 0.0000 28.9394 0.0000 0.0000
# 5 0.0000 0.0000 0.0000 0.0000 41.2911 0.0000
# 6 0.0000 0.0000 0.0000 0.0000 0.0000 40.7329
#
#
#
# Elastic Compliance Matrix: (Units=1/GPa)
#
#
# Indices 1 2 3 4 5 6 
#
# 1 0.011706 -0.001035 -0.003051 0.000000 0.000000 0.000000
# 2 -0.001035 0.010777 -0.001305 0.000000 0.000000 0.000000
# 3 -0.003051 -0.001305 0.007759 0.000000 0.000000 0.000000
# 4 0.000000 0.000000 0.000000 0.034555 0.000000 0.000000
# 5 0.000000 0.000000 0.000000 0.000000 0.024218 0.000000
# 6 0.000000 0.000000 0.000000 0.000000 0.000000 0.024550
#
#
# Mechanical properties :
#
#
# Convention : Reuss Voigt Hill
#
# Bulk Modulus (GPa) = 51.38615 55.14111 53.26363
# Shear Modulus (GPa) = 38.21633 39.91524 39.06578
#
# Velocity S-wave (km/s) = 3.81774 3.90168 3.85994
# Velocity P-wave (km/s) = 6.24752 6.42865 6.33873
#
# Compressibility (1/GPa) = 0.01946050
#
# Stress axis : x y z
#
# Youngs Moduli (GPa) = 85.42516 92.78762 128.88742
#
# Poissons Ratio (x) = 0.09600 0.39326
# Poissons Ratio (y) = 0.08838 0.16820
# Poissons Ratio (z) = 0.26065 0.12109
#
# Static dielectric constant tensor:
#      x y z
#    x 2.072180 0.000000 0.000000 
#    y 0.000000 2.381770 0.000000 
#    z 0.000000 0.000000 2.089930 
# 
# From -- ./inp_files/4001.got.cif
#   From: 2010.05.17/outbox.cif.g08.bks.cpg/sg50_3_cif.got.tgz:4001.got - 2010.06.03 11:33:33.
