data_PCOD9395206
_publ_section_title
;
Structure prediction by ZEFSAII (Michael W. Deem and Ramdas Pophale) SiO2 
 PCOD9395206
Probable space group: P C C M
;
_chemical_formula_sum "Si O2"
_cell_formula_units_Z 40
_cell_length_a 27.000000
_cell_length_b 9.000000
_cell_length_c 9.000000
_cell_angle_alpha 90.000000
_cell_angle_beta 90.000000
_cell_angle_gamma 90.000000
_cell_volume 2187.000000
_symmetry_space_group_name_H-M "P C C M"
_symmetry_group_IT_number 49
_symmetry_cell_setting 'orthorhombic'
loop_
_space_group_symop_operation_xyz
x,y,z
-x,-y,z
x,-y,1/2-z
-x,y,1/2-z
-x,-y,-z
x,y,-z
-x,y,1/2+z
x,-y,1/2+z
loop_
_atom_site_type_symbol
_atom_site_label
_atom_site_fract_x
_atom_site_fract_y
_atom_site_fract_z
Si Si1 0.641883 0.664175 0.320382
Si Si2 0.449663 0.835636 0.679657
Si Si3 0.850470 0.836723 0.679733
Si Si4 0.049957 0.832544 0.319918
Si Si5 0.248640 0.339404 0.676940
O O1 0.641663 0.500000 0.250000
O O2 0.634815 0.660606 0.500000
O O3 0.598395 0.751663 0.239348
O O4 0.697102 0.727329 0.288015
O O5 0.500000 0.767869 0.750000
O O6 0.452184 0.839859 0.500000
O O7 0.446865 0.000000 0.750000
O O8 0.856863 0.843604 0.500000
O O9 0.899025 0.765052 0.756808
O O10 0.799557 0.754091 0.716903
O O11 0.846174 0.000000 0.750000
O O12 0.048527 0.837806 0.500000
O O13 0.000000 0.763859 0.250000
O O14 0.050856 0.000000 0.250000
O O15 0.245523 0.500000 0.750000
O O16 0.247852 0.358775 0.500000
#
# Coordination Sequence:
#
# PCOD9395206 Si02
#       5
#     8   8   8   8   8
#     4  10  20  37  57  81 108 139 178 220 261 309
#     4  11  22  38  58  82 110 143 176 215 262 313
#     4  10  19  32  49  75 104 133 169 212 254 302
#     4  10  17  27  44  68  97 131 165 206 254 303
#     4   9  20  36  55  76 104 138 174 212 257 307
#
# _framework density 18.289895000000001
#
# number of rings (size 3 to 8) (size 9 to 14) (size 15 to 20)
#    0.000    2.000    0.000    7.200    0.000    3.600 
#    0.000    4.000    0.000    0.600    0.000    4.200 
#    0.000    0.000    0.000    0.000    0.000    0.000 
#
# Total GULP energy -222974.558370 kJ/mol
# GULP energy per Si atom -5574.363959 kJ/mol
# Density = 1.824827 g / cm^3
# Si number density = 18.289895 Si / 1000 Ang^3
#
#
#
# Elastic Constant Matrix: (Units=GPa)
#
#
# Indices 1 2 3 4 5 6 
#
# 1 228.4230 59.2810 86.5265 0.0000 0.0000 0.0000
# 2 59.2810 28.3965 22.8182 0.0000 0.0000 0.0000
# 3 86.5265 22.8182 144.4542 0.0000 0.0000 0.0000
# 4 0.0000 0.0000 0.0000 22.2094 0.0000 0.0000
# 5 0.0000 0.0000 0.0000 0.0000 35.6701 0.0000
# 6 0.0000 0.0000 0.0000 0.0000 0.0000 -305.4085
#
#
#
# Elastic Compliance Matrix: (Units=1/GPa)
#
#
# Indices 1 2 3 4 5 6 
#
# 1 0.010790 -0.019853 -0.003327 0.000000 0.000000 0.000000
# 2 -0.019853 0.076861 -0.000250 0.000000 0.000000 0.000000
# 3 -0.003327 -0.000250 0.008955 0.000000 0.000000 0.000000
# 4 0.000000 0.000000 0.000000 0.045026 0.000000 0.000000
# 5 0.000000 0.000000 0.000000 0.000000 0.028035 0.000000
# 6 0.000000 0.000000 0.000000 0.000000 0.000000 -0.003274
#
#
# Mechanical properties :
#
#
# Convention : Reuss Voigt Hill
#
# Bulk Modulus (GPa) = 20.10163 82.05837 51.08000
# Shear Modulus (GPa) = 21.75479 -33.99594 -6.12057
#
# Velocity S-wave (km/s) = 3.45257 -4.31597 -1.83131
# Velocity P-wave (km/s) = 5.18730 4.48620 4.84944
#
# Compressibility (1/GPa) = 0.04974721
#
# Stress axis : x y z
#
# Youngs Moduli (GPa) = 92.67424 13.01053 111.66792
#
# Poissons Ratio (x) = 0.25829 0.37157
# Poissons Ratio (y) = 1.83983 0.02787
# Poissons Ratio (z) = 0.30837 0.00325
#
# Static dielectric constant tensor:
#      x y z
#    x 1.720930 0.000000 0.000000 
#    y 0.000000 1.596290 0.000000 
#    z 0.000000 0.000000 1.601600 
# 
# From -- ./inp_files/1898.got.cif
#   From: 2010.05.17/outbox.ucp.g08.bks.cvg/sg49_1_cif.got.tgz:1898.got - 2010.06.11 16:40:14.
