data_PCOD9395083
_publ_section_title
;
Structure prediction by ZEFSAII (Michael W. Deem and Ramdas Pophale) SiO2 
 PCOD9395083
Probable space group: P C C M
;
_chemical_formula_sum "Si O2"
_cell_formula_units_Z 48
_cell_length_a 9.527615
_cell_length_b 18.161901
_cell_length_c 14.227410
_cell_angle_alpha 90.000000
_cell_angle_beta 90.000000
_cell_angle_gamma 90.000000
_cell_volume 2461.905341
_symmetry_space_group_name_H-M "P C C M"
_symmetry_group_IT_number 49
_symmetry_cell_setting 'orthorhombic'
loop_
_space_group_symop_operation_xyz
x,y,z
-x,-y,z
x,-y,1/2-z
-x,y,1/2-z
-x,-y,-z
x,y,-z
-x,y,1/2+z
x,-y,1/2+z
loop_
_atom_site_type_symbol
_atom_site_label
_atom_site_fract_x
_atom_site_fract_y
_atom_site_fract_z
Si Si1 0.082224 0.076472 0.000000
Si Si2 0.983982 0.759625 0.500000
Si Si3 0.633949 0.445782 0.500000
Si Si4 0.840223 0.080285 0.288302
Si Si5 0.311463 0.275589 0.000000
Si Si6 0.866703 0.320072 0.819487
Si Si7 0.157178 0.517255 0.140445
Si Si8 0.654701 0.778751 0.791126
O O1 0.161444 0.077673 0.098714
O O2 0.994324 0.152098 0.000000
O O3 0.000000 0.000000 0.000000
O O4 0.140650 0.724142 0.500000
O O5 0.911348 0.733503 0.595936
O O6 0.500000 0.500000 0.500000
O O7 0.620607 0.357346 0.500000
O O8 0.729150 0.468802 0.411714
O O9 0.739019 0.147274 0.263554
O O10 0.000000 0.093959 0.250000
O O11 0.799413 0.000000 0.250000
O O12 0.350177 0.234218 0.903414
O O13 0.820302 0.395864 0.867859
O O14 0.744765 0.286617 0.755612
O O15 0.000000 0.333388 0.750000
O O16 0.162511 0.500000 0.250000
O O17 0.000000 0.500000 0.106778
O O18 0.500000 0.780367 0.750000
#
# Coordination Sequence:
#
# PCOD9395083 Si02
#       8
#     4   4   4   8   4   8   8   8
#     4  12  20  37  64 106 133 169 211 281 326 384
#     4  12  23  39  74 100 134 172 230 288 329 395
#     4  12  28  43  65  94 137 177 219 273 344 424
#     4  11  22  41  70 102 136 172 226 273 326 392
#     4  12  24  47  68  96 133 184 226 282 347 390
#     4  12  22  41  69 100 127 175 229 284 337 401
#     4  11  22  43  66  97 125 165 222 285 340 389
#     4  12  27  44  69  98 144 182 223 273 341 415
#
# _framework density 19.497094000000001
#
# number of rings (size 3 to 8) (size 9 to 14) (size 15 to 20)
#    0.000    0.333    6.667    4.250    2.333    1.333 
#    0.000    1.667    0.000    2.000    0.000    0.000 
#    0.000    0.000    0.000    0.000    0.000    0.000 
#
# Total GULP energy -268321.260848 kJ/mol
# GULP energy per Si atom -5590.026268 kJ/mol
# Density = 1.945272 g / cm^3
# Si number density = 19.497094 Si / 1000 Ang^3
#
#
#
# Elastic Constant Matrix: (Units=GPa)
#
#
# Indices 1 2 3 4 5 6 
#
# 1 93.0411 24.7423 24.6204 0.0000 0.0000 0.0000
# 2 24.7423 140.0318 15.6562 0.0000 0.0000 0.0000
# 3 24.6204 15.6562 124.9310 0.0000 0.0000 0.0000
# 4 0.0000 0.0000 0.0000 14.4442 0.0000 0.0000
# 5 0.0000 0.0000 0.0000 0.0000 18.4135 0.0000
# 6 0.0000 0.0000 0.0000 0.0000 0.0000 19.2068
#
#
#
# Elastic Compliance Matrix: (Units=1/GPa)
#
#
# Indices 1 2 3 4 5 6 
#
# 1 0.011794 -0.001850 -0.002092 0.000000 0.000000 0.000000
# 2 -0.001850 0.007533 -0.000579 0.000000 0.000000 0.000000
# 3 -0.002092 -0.000579 0.008489 0.000000 0.000000 0.000000
# 4 0.000000 0.000000 0.000000 0.069232 0.000000 0.000000
# 5 0.000000 0.000000 0.000000 0.000000 0.054308 0.000000
# 6 0.000000 0.000000 0.000000 0.000000 0.000000 0.052065
#
#
# Mechanical properties :
#
#
# Convention : Reuss Voigt Hill
#
# Bulk Modulus (GPa) = 53.26957 54.22685 53.74821
# Shear Modulus (GPa) = 22.86016 29.94525 26.40270
#
# Velocity S-wave (km/s) = 3.42788 3.92329 3.68392
# Velocity P-wave (km/s) = 6.56112 6.95673 6.76182
#
# Compressibility (1/GPa) = 0.01877244
#
# Stress axis : x y z
#
# Youngs Moduli (GPa) = 84.79210 132.75137 117.79427
#
# Poissons Ratio (x) = 0.24557 0.24647
# Poissons Ratio (y) = 0.15686 0.06826
# Poissons Ratio (z) = 0.17741 0.07692
#
# Static dielectric constant tensor:
#      x y z
#    x 1.648600 0.000000 0.000000 
#    y 0.000000 1.742190 0.000000 
#    z 0.000000 0.000000 1.657270 
# 
# From -- ./inp_files/11911.got.cif
#   From: 2010.05.17/outbox.cif.g08.bks.cpg/sg49_6_cif.got.tgz:11911.got - 2010.06.03 21:02:19.
