data_PCOD9395497
_publ_section_title
;
Structure prediction by ZEFSAII (Michael W. Deem and Ramdas Pophale) SiO2 
 PCOD9395497
Probable space group: P B A N
;
_chemical_formula_sum "Si O2"
_cell_formula_units_Z 32
_cell_length_a 33.055352
_cell_length_b 5.523276
_cell_length_c 7.094867
_cell_angle_alpha 90.000000
_cell_angle_beta 90.000000
_cell_angle_gamma 90.000000
_cell_volume 1295.337058
_symmetry_space_group_name_H-M "P B A N"
_symmetry_group_IT_number 50
_space_group.IT_coordinate_system_code '2'
_symmetry_cell_setting 'orthorhombic'
loop_
_space_group_symop_operation_xyz
x,y,z
1/2-x,1/2-y,z
x,1/2-y,-z
1/2-x,y,-z
-x,-y,-z
1/2+x,1/2+y,-z
-x,1/2+y,z
1/2+x,-y,z
loop_
_atom_site_type_symbol
_atom_site_label
_atom_site_fract_x
_atom_site_fract_y
_atom_site_fract_z
Si Si1 0.513119 0.321910 0.212609
Si Si2 0.766630 0.997808 0.715502
Si Si3 0.637925 0.991915 0.225859
Si Si4 0.605492 0.488533 0.205657
O O1 0.487612 0.548012 0.297615
O O2 0.558122 0.429132 0.198265
O O3 0.498834 0.250000 0.000000
O O4 0.750000 0.750000 0.799681
O O5 0.750000 0.998793 0.500000
O O6 0.814644 0.979737 0.734731
O O7 0.750000 0.250000 0.795611
O O8 0.615920 0.747719 0.292960
O O9 0.624183 0.252004 0.299655
O O10 0.625245 0.000491 0.003927
#
# Coordination Sequence:
#
# PCOD9395497 Si02
#       4
#     8   8   8   8
#     4  10  18  26  43  66 100 150 179 195 227 286
#     4  10  21  38  56  72  91 124 168 221 266 306
#     4  10  19  32  49  69  99 134 167 208 254 303
#     4  10  19  32  45  73 108 141 168 201 246 307
#
# _framework density 24.703994999999999
#
# number of rings (size 3 to 8) (size 9 to 14) (size 15 to 20)
#    0.000    2.000    2.500    3.000    7.000    0.000 
#    0.000   15.000    0.000    0.000    0.000    0.000 
#    0.000    0.000    0.000  522.000    0.000    0.000 
#
# Total GULP energy -178631.107194 kJ/mol
# GULP energy per Si atom -5582.222100 kJ/mol
# Density = 2.464777 g / cm^3
# Si number density = 24.703995 Si / 1000 Ang^3
#
#
#
# Elastic Constant Matrix: (Units=GPa)
#
#
# Indices 1 2 3 4 5 6 
#
# 1 208.6502 97.4420 21.8518 0.0000 0.0000 0.0000
# 2 97.4420 349.3442 23.4474 0.0000 0.0000 0.0000
# 3 21.8518 23.4474 131.9212 0.0000 0.0000 0.0000
# 4 0.0000 0.0000 0.0000 -43.7602 0.0000 0.0000
# 5 0.0000 0.0000 0.0000 0.0000 -52.0391 0.0000
# 6 0.0000 0.0000 0.0000 0.0000 0.0000 68.1864
#
#
#
# Elastic Compliance Matrix: (Units=1/GPa)
#
#
# Indices 1 2 3 4 5 6 
#
# 1 0.005566 -0.001509 -0.000654 0.000000 0.000000 0.000000
# 2 -0.001509 0.003306 -0.000338 0.000000 0.000000 0.000000
# 3 -0.000654 -0.000338 0.007749 0.000000 0.000000 0.000000
# 4 0.000000 0.000000 0.000000 -0.022852 0.000000 0.000000
# 5 0.000000 0.000000 0.000000 0.000000 -0.019216 0.000000
# 6 0.000000 0.000000 0.000000 0.000000 0.000000 0.014666
#
#
# Mechanical properties :
#
#
# Convention : Reuss Voigt Hill
#
# Bulk Modulus (GPa) = 86.05744 108.37753 97.21748
# Shear Modulus (GPa) = -2619.51840 30.95572 -1294.28134
#
# Velocity S-wave (km/s) = -32.59853 3.54371 -22.91404
# Velocity P-wave (km/s) = 37.17492 7.79163 25.70277
#
# Compressibility (1/GPa) = 0.01162015
#
# Stress axis : x y z
#
# Youngs Moduli (GPa) = 179.67224 302.48498 129.05549
#
# Poissons Ratio (x) = 0.45631 0.08438
# Poissons Ratio (y) = 0.27104 0.04358
# Poissons Ratio (z) = 0.11747 0.10215
#
# Static dielectric constant tensor:
#      x y z
#    x 2.144750 0.000000 0.000000 
#    y 0.000000 2.072330 0.000000 
#    z 0.000000 0.000000 1.944280 
# 
# From -- ./inp_files/7912.got.cif
#   From: 2010.05.17/outbox.cif.g08.bks.cpg/sg50_4_cif.got.tgz:7912.got - 2010.06.03 11:33:33.
