data_PCOD9395261
_publ_section_title
;
Structure prediction by ZEFSAII (Michael W. Deem and Ramdas Pophale) SiO2 
 PCOD9395261
Probable space group: P C C M
;
_chemical_formula_sum "Si O2"
_cell_formula_units_Z 48
_cell_length_a 9.000000
_cell_length_b 30.000000
_cell_length_c 9.000000
_cell_angle_alpha 90.000000
_cell_angle_beta 90.000000
_cell_angle_gamma 90.000000
_cell_volume 2430.000000
_symmetry_space_group_name_H-M "P C C M"
_symmetry_group_IT_number 49
_symmetry_cell_setting 'orthorhombic'
loop_
_space_group_symop_operation_xyz
x,y,z
-x,-y,z
x,-y,1/2-z
-x,y,1/2-z
-x,-y,-z
x,y,-z
-x,y,1/2+z
x,-y,1/2+z
loop_
_atom_site_type_symbol
_atom_site_label
_atom_site_fract_x
_atom_site_fract_y
_atom_site_fract_z
Si Si1 0.158395 0.218096 0.679030
Si Si2 0.663976 0.141229 0.323733
Si Si3 0.151998 0.381260 0.668220
Si Si4 0.662085 0.041222 0.326507
Si Si5 0.661847 0.544287 0.823354
Si Si6 0.357976 0.296680 0.665287
O O1 0.148849 0.220063 0.500000
O O2 0.221715 0.171980 0.737586
O O3 0.279137 0.254045 0.733323
O O4 0.000000 0.227927 0.750000
O O5 0.500000 0.145269 0.250000
O O6 0.653115 0.151601 0.500000
O O7 0.721981 0.090676 0.309214
O O8 0.134199 0.399081 0.500000
O O9 0.243009 0.414559 0.770661
O O10 0.239293 0.335420 0.657947
O O11 0.000000 0.372934 0.750000
O O12 0.500000 0.043867 0.250000
O O13 0.644712 0.032039 0.500000
O O14 0.743682 0.000000 0.250000
O O15 0.729110 0.500000 0.750000
O O16 0.500000 0.549143 0.750000
O O17 0.649801 0.540365 0.000000
O O18 0.500000 0.313303 0.750000
O O19 0.406664 0.284156 0.500000
#
# Coordination Sequence:
#
# PCOD9395261 Si02
#       6
#     8   8   8   8   8   8
#     4  11  23  39  58  82 111 147 186 229 279 334
#     4  10  20  34  53  80 111 145 184 229 276 329
#     4  11  23  40  60  87 120 155 193 236 285 338
#     4   9  16  26  44  71 104 138 176 221 272 322
#     4  11  22  39  62  89 119 155 197 242 288 338
#     4  10  23  40  61  87 115 147 187 231 279 332
#
# _framework density 19.753086
#
# number of rings (size 3 to 8) (size 9 to 14) (size 15 to 20)
#    0.000    1.667    0.000    6.000    0.000    7.667 
#    0.000    1.667    0.000    0.500    0.000    3.500 
#    0.000    0.000    0.000    0.000    0.000    0.000 
#
# Total GULP energy -267682.358261 kJ/mol
# GULP energy per Si atom -5576.715797 kJ/mol
# Density = 1.970813 g / cm^3
# Si number density = 19.753086 Si / 1000 Ang^3
#
#
#
# Elastic Constant Matrix: (Units=GPa)
#
#
# Indices 1 2 3 4 5 6 
#
# 1 5.8027 13.8009 12.8209 0.0000 0.0000 0.0000
# 2 13.8009 65.7429 35.6161 0.0000 0.0000 0.0000
# 3 12.8209 35.6161 114.6970 0.0000 0.0000 0.0000
# 4 0.0000 0.0000 0.0000 22.9986 0.0000 0.0000
# 5 0.0000 0.0000 0.0000 0.0000 16.4609 0.0000
# 6 0.0000 0.0000 0.0000 0.0000 0.0000 9.8347
#
#
#
# Elastic Compliance Matrix: (Units=1/GPa)
#
#
# Indices 1 2 3 4 5 6 
#
# 1 0.383697 -0.068902 -0.021494 0.000000 0.000000 0.000000
# 2 -0.068902 0.030660 -0.001819 0.000000 0.000000 0.000000
# 3 -0.021494 -0.001819 0.011686 0.000000 0.000000 0.000000
# 4 0.000000 0.000000 0.000000 0.043481 0.000000 0.000000
# 5 0.000000 0.000000 0.000000 0.000000 0.060750 0.000000
# 6 0.000000 0.000000 0.000000 0.000000 0.000000 0.101681
#
#
# Mechanical properties :
#
#
# Convention : Reuss Voigt Hill
#
# Bulk Modulus (GPa) = 4.13885 34.52426 19.33156
# Shear Modulus (GPa) = 5.57462 18.12584 11.85023
#
# Velocity S-wave (km/s) = 1.68175 3.03251 2.45198
# Velocity P-wave (km/s) = 2.42299 5.45686 4.22186
#
# Compressibility (1/GPa) = 0.24161277
#
# Stress axis : x y z
#
# Youngs Moduli (GPa) = 2.60623 32.61558 85.57232
#
# Poissons Ratio (x) = 2.24728 1.83930
# Poissons Ratio (y) = 0.17957 0.15564
# Poissons Ratio (z) = 0.05602 0.05932
#
# Static dielectric constant tensor:
#      x y z
#    x 1.655820 0.000000 0.000000 
#    y 0.000000 1.757660 0.000000 
#    z 0.000000 0.000000 1.681110 
# 
# From -- ./inp_files/2054.got.cif
#   From: 2010.05.17/outbox.ucp.g08.bks.cvg/sg49_2_cif.got.tgz:2054.got - 2010.06.11 16:40:14.
