data_PCOD9395542
_publ_section_title
;
Structure prediction by ZEFSAII (Michael W. Deem and Ramdas Pophale) SiO2 
 PCOD9395542
Probable space group: P B A N
;
_chemical_formula_sum "Si O2"
_cell_formula_units_Z 64
_cell_length_a 10.494501
_cell_length_b 18.179222
_cell_length_c 19.719288
_cell_angle_alpha 90.000000
_cell_angle_beta 90.000000
_cell_angle_gamma 90.000000
_cell_volume 3762.082511
_symmetry_space_group_name_H-M "P B A N"
_symmetry_group_IT_number 50
_space_group.IT_coordinate_system_code '2'
_symmetry_cell_setting 'orthorhombic'
loop_
_space_group_symop_operation_xyz
x,y,z
1/2-x,1/2-y,z
x,1/2-y,-z
1/2-x,y,-z
-x,-y,-z
1/2+x,1/2+y,-z
-x,1/2+y,z
1/2+x,-y,z
loop_
_atom_site_type_symbol
_atom_site_label
_atom_site_fract_x
_atom_site_fract_y
_atom_site_fract_z
Si Si1 0.499499 0.588968 0.661445
Si Si2 0.750001 0.590612 0.578188
Si Si3 0.900180 0.163230 0.792631
Si Si4 0.099820 0.836770 0.792631
Si Si5 0.999496 0.411032 0.338555
Si Si6 0.397997 0.935160 0.922182
Si Si7 0.749999 0.088343 0.577312
Si Si8 0.397997 0.935160 0.077818
O O1 0.624750 0.611743 0.620129
O O2 0.483952 0.624646 0.734967
O O3 0.500001 0.500000 0.668306
O O4 0.376272 0.610509 0.617302
O O5 0.750000 0.616253 0.500000
O O6 0.875253 0.611743 0.620128
O O7 0.750002 0.501102 0.575394
O O8 0.923210 0.250000 0.794412
O O9 0.750000 0.151211 0.775734
O O10 0.921046 0.126485 0.865760
O O11 0.983952 0.124646 0.734967
O O12 0.078953 0.873515 0.865760
O O13 0.876269 0.389492 0.382697
O O14 0.250000 0.960393 0.914279
O O15 0.500000 1.000000 0.912313
O O16 0.410911 0.908671 0.000000
O O17 0.750000 0.114559 0.500000
#
# Coordination Sequence:
#
# PCOD9395542 Si02
#       8
#     8   8   8   8   8   8   8   8
#     4  10  18  31  51  75 102 133 169 214 260 306
#     4   9  18  30  49  77 102 127 166 219 269 308
#     4  10  20  34  52  75 105 139 176 214 249 297
#     4  10  20  34  52  75 105 139 176 214 249 297
#     4  10  18  31  51  75 102 133 169 214 260 306
#     4   9  18  34  57  83 108 135 169 210 255 301
#     4   9  16  28  49  75 100 127 166 213 261 308
#     4   9  18  34  57  83 108 135 169 210 255 301
#
# _framework density 17.011855000000001
#
# number of rings (size 3 to 8) (size 9 to 14) (size 15 to 20)
#    0.000    2.500    1.250    1.500    0.000    3.500 
#    2.250    3.125    0.000    4.500    0.000    3.500 
#    0.000    0.000    0.000    0.000    0.000    0.000 
#
# Total GULP energy -356770.079882 kJ/mol
# GULP energy per Si atom -5574.532498 kJ/mol
# Density = 1.697313 g / cm^3
# Si number density = 17.011855 Si / 1000 Ang^3
#
#
#
# Elastic Constant Matrix: (Units=GPa)
#
#
# Indices 1 2 3 4 5 6 
#
# 1 124.5282 39.9231 81.2881 0.0000 0.0000 0.0000
# 2 39.9231 40.2870 59.4360 0.0000 0.0000 0.0000
# 3 81.2881 59.4360 154.4021 0.0000 0.0000 0.0000
# 4 0.0000 0.0000 0.0000 -4.0771 0.0000 0.0000
# 5 0.0000 0.0000 0.0000 0.0000 30.0123 0.0000
# 6 0.0000 0.0000 0.0000 0.0000 0.0000 11.2488
#
#
#
# Elastic Compliance Matrix: (Units=1/GPa)
#
#
# Indices 1 2 3 4 5 6 
#
# 1 0.012911 -0.006402 -0.004333 0.000000 0.000000 0.000000
# 2 -0.006402 0.060621 -0.019965 0.000000 0.000000 0.000000
# 3 -0.004333 -0.019965 0.016443 0.000000 0.000000 0.000000
# 4 0.000000 0.000000 0.000000 -0.245270 0.000000 0.000000
# 5 0.000000 0.000000 0.000000 0.000000 0.033320 0.000000
# 6 0.000000 0.000000 0.000000 0.000000 0.000000 0.088898
#
#
# Mechanical properties :
#
#
# Convention : Reuss Voigt Hill
#
# Bulk Modulus (GPa) = 34.99551 75.61243 55.30397
# Shear Modulus (GPa) = 132.10483 16.67478 74.38981
#
# Velocity S-wave (km/s) = 8.82174 3.13419 6.61991
# Velocity P-wave (km/s) = 11.15258 7.59216 9.53994
#
# Compressibility (1/GPa) = 0.02857509
#
# Stress axis : x y z
#
# Youngs Moduli (GPa) = 77.45221 16.49587 60.81552
#
# Poissons Ratio (x) = 0.10561 0.26350
# Poissons Ratio (y) = 0.49587 1.21419
# Poissons Ratio (z) = 0.33559 0.32934
#
# Static dielectric constant tensor:
#      x y z
#    x 1.574380 0.000000 0.000000 
#    y 0.000000 1.541280 0.000000 
#    z 0.000000 0.000000 1.568510 
# 
# From -- ./inp_files/28962.got.cif
#   From: 2010.05.17/outbox.cif.g08.bks.cpg/sg50_15_cif.got.tgz:28962.got - 2010.06.03 11:33:33.
