data_PCOD9395096
_publ_section_title
;
Structure prediction by ZEFSAII (Michael W. Deem and Ramdas Pophale) SiO2 
 PCOD9395096
Probable space group: P C C M
;
_chemical_formula_sum "Si O2"
_cell_formula_units_Z 64
_cell_length_a 8.466915
_cell_length_b 27.398123
_cell_length_c 14.744541
_cell_angle_alpha 90.000000
_cell_angle_beta 90.000000
_cell_angle_gamma 90.000000
_cell_volume 3420.402919
_symmetry_space_group_name_H-M "P C C M"
_symmetry_group_IT_number 49
_symmetry_cell_setting 'orthorhombic'
loop_
_space_group_symop_operation_xyz
x,y,z
-x,-y,z
x,-y,1/2-z
-x,y,1/2-z
-x,-y,-z
x,y,-z
-x,y,1/2+z
x,-y,1/2+z
loop_
_atom_site_type_symbol
_atom_site_label
_atom_site_fract_x
_atom_site_fract_y
_atom_site_fract_z
Si Si1 0.690865 0.134487 0.396272
Si Si2 0.184120 0.500000 0.389739
Si Si3 0.809067 0.393331 0.893168
Si Si4 0.186605 0.791322 0.250000
Si Si5 0.690865 0.134487 0.896272
Si Si6 0.809067 0.606669 0.106832
Si Si7 0.307356 0.944337 0.750000
Si Si8 0.685912 0.317451 0.750000
O O1 0.747029 0.134503 0.500000
O O2 0.744856 0.180987 0.338041
O O3 0.500000 0.134467 0.397518
O O4 0.741152 0.086999 0.338127
O O5 0.185356 0.500000 0.500000
O O6 0.249861 0.447282 0.362575
O O7 0.249861 0.552718 0.362575
O O8 0.000000 0.500000 0.362193
O O9 0.736195 0.350112 0.835741
O O10 1.000000 0.392848 0.882178
O O11 0.776159 0.388108 0.000000
O O12 0.255144 0.819013 0.161959
O O13 0.230342 0.734705 0.250000
O O14 0.000000 0.797411 0.250000
O O15 0.741152 0.086999 0.838127
O O16 0.747029 0.134503 0.000000
O O17 0.736195 0.649888 0.164259
O O18 0.776159 0.611893 0.000000
O O19 0.500000 0.945350 0.750000
O O20 0.251735 0.000000 0.750000
O O21 0.500000 0.309287 0.750000
#
# Coordination Sequence:
#
# PCOD9395096 Si02
#       8
#     8   8   8   8   8   8   8   8
#     4   9  18  34  56  81 110 144 180 219 266 314
#     4   7  12  27  53  80 103 131 168 210 253 299
#     4   9  18  35  58  81 105 135 174 216 256 305
#     4  11  23  39  57  75  99 133 179 230 271 314
#     4   9  18  34  56  81 110 144 180 219 266 314
#     4   9  18  35  58  81 105 135 174 216 256 305
#     4   8  14  26  48  83 122 151 178 214 253 299
#     4  12  25  38  53  76 108 140 171 213 269 327
#
# _framework density 18.711245000000002
#
# number of rings (size 3 to 8) (size 9 to 14) (size 15 to 20)
#    0.000    2.750    0.000    4.500    0.000    3.000 
#    0.000    5.625    0.000    8.250    0.000    7.000 
#    0.000    0.000    0.000    0.000    0.000    0.000 
#
# Total GULP energy -356929.922042 kJ/mol
# GULP energy per Si atom -5577.030032 kJ/mol
# Density = 1.866866 g / cm^3
# Si number density = 18.711245 Si / 1000 Ang^3
#
#
#
# Elastic Constant Matrix: (Units=GPa)
#
#
# Indices 1 2 3 4 5 6 
#
# 1 14.9386 4.8325 19.5783 0.0000 0.0000 0.0000
# 2 4.8325 148.4066 61.2789 0.0000 0.0000 0.0000
# 3 19.5783 61.2789 133.7636 0.0000 0.0000 0.0000
# 4 0.0000 0.0000 0.0000 10.1842 0.0000 0.0000
# 5 0.0000 0.0000 0.0000 0.0000 20.9555 0.0000
# 6 0.0000 0.0000 0.0000 0.0000 0.0000 25.3986
#
#
#
# Elastic Compliance Matrix: (Units=1/GPa)
#
#
# Indices 1 2 3 4 5 6 
#
# 1 0.083817 0.002881 -0.013588 0.000000 0.000000 0.000000
# 2 0.002881 0.008409 -0.004274 0.000000 0.000000 0.000000
# 3 -0.013588 -0.004274 0.011423 0.000000 0.000000 0.000000
# 4 0.000000 0.000000 0.000000 0.098191 0.000000 0.000000
# 5 0.000000 0.000000 0.000000 0.000000 0.047720 0.000000
# 6 0.000000 0.000000 0.000000 0.000000 0.000000 0.039372
#
#
# Mechanical properties :
#
#
# Convention : Reuss Voigt Hill
#
# Bulk Modulus (GPa) = 13.57086 52.05425 32.81256
# Shear Modulus (GPa) = 14.55791 25.40227 19.98009
#
# Velocity S-wave (km/s) = 2.79235 3.68855 3.27128
# Velocity P-wave (km/s) = 4.20295 6.78386 5.64294
#
# Compressibility (1/GPa) = 0.07368730
#
# Stress axis : x y z
#
# Youngs Moduli (GPa) = 11.93081 118.91668 87.54526
#
# Poissons Ratio (x) = -0.34263 1.18954
# Poissons Ratio (y) = -0.03438 0.37418
# Poissons Ratio (z) = 0.16211 0.50826
#
# Static dielectric constant tensor:
#      x y z
#    x 1.647400 0.000000 0.000000 
#    y 0.000000 1.638040 0.000000 
#    z 0.000000 0.000000 1.656960 
# 
# From -- ./inp_files/12145.got.cif
#   From: 2010.05.17/outbox.cif.g08.bks.cpg/sg49_7_cif.got.tgz:12145.got - 2010.06.03 21:02:19.
