data_PCOD9395879
_publ_section_title
;
Structure prediction by ZEFSAII (Michael W. Deem and Ramdas Pophale) SiO2 
 PCOD9395879
Probable space group: P B A N
;
_chemical_formula_sum "Si O2"
_cell_formula_units_Z 36
_cell_length_a 14.304327
_cell_length_b 5.206933
_cell_length_c 21.155691
_cell_angle_alpha 90.000000
_cell_angle_beta 90.000000
_cell_angle_gamma 90.000000
_cell_volume 1575.711244
_symmetry_space_group_name_H-M "P B A N"
_symmetry_group_IT_number 50
_space_group.IT_coordinate_system_code '2'
_symmetry_cell_setting 'orthorhombic'
loop_
_space_group_symop_operation_xyz
x,y,z
1/2-x,1/2-y,z
x,1/2-y,-z
1/2-x,y,-z
-x,-y,-z
1/2+x,1/2+y,-z
-x,1/2+y,z
1/2+x,-y,z
loop_
_atom_site_type_symbol
_atom_site_label
_atom_site_fract_x
_atom_site_fract_y
_atom_site_fract_z
Si Si1 0.438047 0.619013 0.369176
Si Si2 0.363146 0.222700 0.165368
Si Si3 0.861410 0.268364 0.232857
Si Si4 0.104531 0.494809 0.029122
Si Si5 0.432993 0.750000 0.500000
O O1 0.477421 0.328727 0.370310
O O2 0.384803 0.652931 0.303706
O O3 0.382411 0.703980 0.432931
O O4 0.250000 0.250000 0.160422
O O5 0.395299 0.510519 0.183615
O O6 0.397030 0.073542 0.102706
O O7 0.392983 0.022757 0.219718
O O8 0.750000 0.250000 0.224735
O O9 0.152909 0.250000 0.000000
O O10 0.000000 0.500000 0.000000
O O11 0.147531 0.750000 0.000000
O O12 0.500000 0.500000 0.500000
#
# Coordination Sequence:
#
# PCOD9395879 Si02
#       5
#     8   8   8   8   4
#     4  10  19  35  54  87 112 151 196 235 283 334
#     4  10  21  39  59  79 109 151 186 224 285 348
#     4  10  21  38  57  82 117 150 188 236 283 336
#     4  10  21  39  56  81 109 139 177 228 286 322
#     4   8  16  30  53  74 117 150 184 236 282 332
#
# _framework density 22.846826
#
# number of rings (size 3 to 8) (size 9 to 14) (size 15 to 20)
#    0.000    2.222    0.000    2.667    0.000    0.444 
#   24.000    1.667    0.000    0.000    0.000   14.000 
#    0.000    0.000    0.000    0.000    0.000    0.000 
#
# Total GULP energy -200599.730668 kJ/mol
# GULP energy per Si atom -5572.214741 kJ/mol
# Density = 2.279483 g / cm^3
# Si number density = 22.846826 Si / 1000 Ang^3
#
#
#
# Elastic Constant Matrix: (Units=GPa)
#
#
# Indices 1 2 3 4 5 6 
#
# 1 74.0924 10.3993 2.0638 0.0000 0.0000 0.0000
# 2 10.3993 174.4043 36.9691 0.0000 0.0000 0.0000
# 3 2.0638 36.9691 135.9651 0.0000 0.0000 0.0000
# 4 0.0000 0.0000 0.0000 40.5443 0.0000 0.0000
# 5 0.0000 0.0000 0.0000 0.0000 144.5014 0.0000
# 6 0.0000 0.0000 0.0000 0.0000 0.0000 -24.3313
#
#
#
# Elastic Compliance Matrix: (Units=1/GPa)
#
#
# Indices 1 2 3 4 5 6 
#
# 1 0.013611 -0.000815 0.000015 0.000000 0.000000 0.000000
# 2 -0.000815 0.006133 -0.001655 0.000000 0.000000 0.000000
# 3 0.000015 -0.001655 0.007805 0.000000 0.000000 0.000000
# 4 0.000000 0.000000 0.000000 0.024664 0.000000 0.000000
# 5 0.000000 0.000000 0.000000 0.000000 0.006920 0.000000
# 6 0.000000 0.000000 0.000000 0.000000 0.000000 -0.041099
#
#
# Mechanical properties :
#
#
# Convention : Reuss Voigt Hill
#
# Bulk Modulus (GPa) = 44.17276 53.70291 48.93783
# Shear Modulus (GPa) = 163.98727 54.47819 109.23273
#
# Velocity S-wave (km/s) = 8.48131 4.88843 6.92204
# Velocity P-wave (km/s) = 10.73715 7.44439 9.23865
#
# Compressibility (1/GPa) = 0.02263839
#
# Stress axis : x y z
#
# Youngs Moduli (GPa) = 73.47213 163.04552 128.12840
#
# Poissons Ratio (x) = 0.13284 -0.00191
# Poissons Ratio (y) = 0.05986 0.21209
# Poissons Ratio (z) = -0.00110 0.26988
#
# Static dielectric constant tensor:
#      x y z
#    x 1.828200 0.000000 0.000000 
#    y 0.000000 1.867190 0.000000 
#    z 0.000000 0.000000 1.981800 
# 
# From -- ./inp_files/27087.got.cif
#   From: 2010.05.17/outbox.cif.g08.bks.cpg/sg50_14_cif.got.tgz:27087.got - 2010.06.03 11:33:33.
