data_PCOD9395704
_publ_section_title
;
Structure prediction by ZEFSAII (Michael W. Deem and Ramdas Pophale) SiO2 
 PCOD9395704
Probable space group: P B A N
;
_chemical_formula_sum "Si O2"
_cell_formula_units_Z 64
_cell_length_a 8.990678
_cell_length_b 34.900180
_cell_length_c 12.702294
_cell_angle_alpha 90.000000
_cell_angle_beta 90.000000
_cell_angle_gamma 90.000000
_cell_volume 3985.678565
_symmetry_space_group_name_H-M "P B A N"
_symmetry_group_IT_number 50
_space_group.IT_coordinate_system_code '2'
_symmetry_cell_setting 'orthorhombic'
loop_
_space_group_symop_operation_xyz
x,y,z
1/2-x,1/2-y,z
x,1/2-y,-z
1/2-x,y,-z
-x,-y,-z
1/2+x,1/2+y,-z
-x,1/2+y,z
1/2+x,-y,z
loop_
_atom_site_type_symbol
_atom_site_label
_atom_site_fract_x
_atom_site_fract_y
_atom_site_fract_z
Si Si1 0.071405 0.406992 0.203128
Si Si2 0.071406 0.406992 0.796872
Si Si3 0.573471 0.329551 0.126303
Si Si4 0.921700 0.750000 0.872082
Si Si5 0.073623 0.959110 0.624860
Si Si6 0.573623 0.040889 0.375140
Si Si7 0.073471 0.829551 0.126303
Si Si8 0.071607 0.041778 0.000000
O O1 0.250000 0.405399 0.209271
O O2 0.030159 0.433914 0.103419
O O3 0.002827 0.426572 0.305900
O O4 0.005726 0.365101 0.181788
O O5 0.005727 0.365101 0.818212
O O6 0.002827 0.426572 0.694100
O O7 0.030159 0.433914 0.896581
O O8 0.504761 0.288853 0.160133
O O9 0.750000 0.330148 0.144533
O O10 0.548923 0.333385 1.000000
O O11 0.750000 0.750000 0.838267
O O12 0.004761 0.711147 0.839867
O O13 0.923117 0.750000 0.000000
O O14 0.250000 0.960634 0.645557
O O15 0.051551 0.952904 0.500000
O O16 1.000000 1.000000 0.652055
O O17 0.250000 0.037615 0.000000
O O18 0.000000 0.000000 0.000000
#
# Coordination Sequence:
#
# PCOD9395704 Si02
#       8
#     8   8   8   8   8   8   8   8
#     4  11  21  34  51  73 102 135 171 209 253 303
#     4  11  21  34  51  73 102 135 171 209 253 303
#     4  10  19  31  48  72 102 136 171 208 249 300
#     4   9  17  29  47  69  98 135 170 207 249 296
#     4  10  21  37  55  75  99 129 170 217 261 303
#     4  10  21  37  55  75  99 129 170 217 261 303
#     4  10  19  31  48  72 102 136 171 208 249 300
#     4  10  22  34  46  67  98 133 166 202 245 298
#
# _framework density 16.057492
#
# number of rings (size 3 to 8) (size 9 to 14) (size 15 to 20)
#    0.000    1.875    1.250    3.375    0.000    8.000 
#    0.000    0.000    0.000    0.000    0.000    0.875 
#    0.000    7.000    0.000    0.000    0.000    0.000 
#
# Total GULP energy -357357.669275 kJ/mol
# GULP energy per Si atom -5583.713582 kJ/mol
# Density = 1.602094 g / cm^3
# Si number density = 16.057492 Si / 1000 Ang^3
#
#
#
# Elastic Constant Matrix: (Units=GPa)
#
#
# Indices 1 2 3 4 5 6 
#
# 1 100.3433 86.3879 50.1753 0.0000 0.0000 0.0000
# 2 86.3879 182.0772 57.3480 0.0000 0.0000 0.0000
# 3 50.1753 57.3480 45.1646 0.0000 0.0000 0.0000
# 4 0.0000 0.0000 0.0000 20.5555 0.0000 0.0000
# 5 0.0000 0.0000 0.0000 0.0000 21.4323 0.0000
# 6 0.0000 0.0000 0.0000 0.0000 0.0000 37.0584
#
#
#
# Elastic Compliance Matrix: (Units=1/GPa)
#
#
# Indices 1 2 3 4 5 6 
#
# 1 0.025066 -0.005203 -0.021241 0.000000 0.000000 0.000000
# 2 -0.005203 0.010232 -0.007213 0.000000 0.000000 0.000000
# 3 -0.021241 -0.007213 0.054897 0.000000 0.000000 0.000000
# 4 0.000000 0.000000 0.000000 0.048649 0.000000 0.000000
# 5 0.000000 0.000000 0.000000 0.000000 0.046659 0.000000
# 6 0.000000 0.000000 0.000000 0.000000 0.000000 0.026984
#
#
# Mechanical properties :
#
#
# Convention : Reuss Voigt Hill
#
# Bulk Modulus (GPa) = 43.70067 79.48973 61.59520
# Shear Modulus (GPa) = 17.39567 24.72083 21.05825
#
# Velocity S-wave (km/s) = 3.29498 3.92793 3.62529
# Velocity P-wave (km/s) = 6.46143 8.37748 7.48105
#
# Compressibility (1/GPa) = 0.02288294
#
# Stress axis : x y z
#
# Youngs Moduli (GPa) = 39.89455 97.72883 18.21588
#
# Poissons Ratio (x) = 0.50845 0.38692
# Poissons Ratio (y) = 0.20756 0.13139
# Poissons Ratio (z) = 0.84740 0.70490
#
# Static dielectric constant tensor:
#      x y z
#    x 1.532520 0.000000 0.000000 
#    y 0.000000 1.513110 0.000000 
#    z 0.000000 0.000000 1.522220 
# 
# From -- ./inp_files/19552.got.cif
#   From: 2010.05.17/outbox.cif.g08.bks.cpg/sg50_10_cif.got.tgz:19552.got - 2010.06.03 11:33:33.
