data_PCOD9395358
_publ_section_title
;
Structure prediction by ZEFSAII (Michael W. Deem and Ramdas Pophale) SiO2 
 PCOD9395358
Probable space group: P B A N
;
_chemical_formula_sum "Si O2"
_cell_formula_units_Z 48
_cell_length_a 5.494255
_cell_length_b 34.276822
_cell_length_c 14.765041
_cell_angle_alpha 90.000000
_cell_angle_beta 90.000000
_cell_angle_gamma 90.000000
_cell_volume 2780.635215
_symmetry_space_group_name_H-M "P B A N"
_symmetry_group_IT_number 50
_space_group.IT_coordinate_system_code '2'
_symmetry_cell_setting 'orthorhombic'
loop_
_space_group_symop_operation_xyz
x,y,z
1/2-x,1/2-y,z
x,1/2-y,-z
1/2-x,y,-z
-x,-y,-z
1/2+x,1/2+y,-z
-x,1/2+y,z
1/2+x,-y,z
loop_
_atom_site_type_symbol
_atom_site_label
_atom_site_fract_x
_atom_site_fract_y
_atom_site_fract_z
Si Si1 0.498653 0.233958 0.104188
Si Si2 0.508881 0.390814 0.099568
Si Si3 0.994009 0.859200 0.106033
Si Si4 0.867748 0.020286 0.113462
Si Si5 0.705124 0.038654 0.675912
Si Si6 0.212392 0.451886 0.395297
O O1 0.750000 0.250000 0.144594
O O2 0.490024 0.187388 0.106762
O O3 0.250000 0.250000 0.146271
O O4 0.498864 0.250000 0.000000
O O5 0.753416 0.375005 0.146796
O O6 0.545891 0.436680 0.086594
O O7 0.252419 0.378763 0.143515
O O8 0.501277 0.371714 0.999773
O O9 0.829718 0.023260 0.222279
O O10 0.593475 0.007811 0.086494
O O11 0.458100 0.061568 0.654521
O O12 0.957846 0.059859 0.651842
O O13 0.709353 0.999219 0.615446
O O14 0.250000 0.441925 0.500000
#
# Coordination Sequence:
#
# PCOD9395358 Si02
#       6
#     8   8   8   8   8   8
#     4  10  16  25  46  69  84 102 116 146 200 249
#     4  10  20  32  48  56  75 110 128 172 223 247
#     4  10  19  35  44  63  87  98 132 166 207 259
#     4  12  21  34  44  57  73 101 146 181 215 247
#     4  10  16  27  38  55  77  94 117 164 199 248
#     4  10  16  25  41  60  76  94 112 146 224 264
#
# _framework density 17.262242000000001
#
# number of rings (size 3 to 8) (size 9 to 14) (size 15 to 20)
#    0.000    1.667    3.333    8.500    0.000    0.000 
#    0.000   10.000    0.000    0.000    0.000    0.000 
#    0.000    0.000    0.000    0.000    0.000    0.000 
#
# Total GULP energy -267444.929461 kJ/mol
# GULP energy per Si atom -5571.769364 kJ/mol
# Density = 1.722295 g / cm^3
# Si number density = 17.262242 Si / 1000 Ang^3
#
#
#
# Elastic Constant Matrix: (Units=GPa)
#
#
# Indices 1 2 3 4 5 6 
#
# 1 227.3684 45.7231 22.5072 0.0000 0.0000 0.0000
# 2 45.7231 106.4176 2.0599 0.0000 0.0000 0.0000
# 3 22.5072 2.0599 25.6777 0.0000 0.0000 0.0000
# 4 0.0000 0.0000 0.0000 -4.7482 0.0000 0.0000
# 5 0.0000 0.0000 0.0000 0.0000 12.5250 0.0000
# 6 0.0000 0.0000 0.0000 0.0000 0.0000 23.3110
#
#
#
# Elastic Compliance Matrix: (Units=1/GPa)
#
#
# Indices 1 2 3 4 5 6 
#
# 1 0.005277 -0.002181 -0.004451 0.000000 0.000000 0.000000
# 2 -0.002181 0.010313 0.001085 0.000000 0.000000 0.000000
# 3 -0.004451 0.001085 0.042759 0.000000 0.000000 0.000000
# 4 0.000000 0.000000 0.000000 -0.210608 0.000000 0.000000
# 5 0.000000 0.000000 0.000000 0.000000 0.079840 0.000000
# 6 0.000000 0.000000 0.000000 0.000000 0.000000 0.042898
#
#
# Mechanical properties :
#
#
# Convention : Reuss Voigt Hill
#
# Bulk Modulus (GPa) = 21.16212 55.56045 38.36129
# Shear Modulus (GPa) = -1869.55127 25.49581 -922.02773
#
# Velocity S-wave (km/s) = -32.94511 3.84731 -23.13632
# Velocity P-wave (km/s) = 37.87992 7.21052 26.29540
#
# Compressibility (1/GPa) = 0.04725424
#
# Stress axis : x y z
#
# Youngs Moduli (GPa) = 189.48769 96.96343 23.38713
#
# Poissons Ratio (x) = 0.21151 0.10409
# Poissons Ratio (y) = 0.41333 -0.02537
# Poissons Ratio (z) = 0.84337 -0.10517
#
# Static dielectric constant tensor:
#      x y z
#    x 1.703300 0.000000 0.000000 
#    y 0.000000 1.557300 0.000000 
#    z 0.000000 0.000000 1.497340 
# 
# From -- ./inp_files/24089.got.cif
#   From: 2010.05.17/outbox.cif.g08.bks.cpg/sg50_13_cif.got.tgz:24089.got - 2010.06.03 11:33:33.
