data_PCOD9395392
_publ_section_title
;
Structure prediction by ZEFSAII (Michael W. Deem and Ramdas Pophale) SiO2 
 PCOD9395392
Probable space group: P B A N
;
_chemical_formula_sum "Si O2"
_cell_formula_units_Z 60
_cell_length_a 19.753212
_cell_length_b 13.823802
_cell_length_c 11.058439
_cell_angle_alpha 90.000000
_cell_angle_beta 90.000000
_cell_angle_gamma 90.000000
_cell_volume 3019.667023
_symmetry_space_group_name_H-M "P B A N"
_symmetry_group_IT_number 50
_space_group.IT_coordinate_system_code '2'
_symmetry_cell_setting 'orthorhombic'
loop_
_space_group_symop_operation_xyz
x,y,z
1/2-x,1/2-y,z
x,1/2-y,-z
1/2-x,y,-z
-x,-y,-z
1/2+x,1/2+y,-z
-x,1/2+y,z
1/2+x,-y,z
loop_
_atom_site_type_symbol
_atom_site_label
_atom_site_fract_x
_atom_site_fract_y
_atom_site_fract_z
Si Si1 0.894124 0.054543 0.582673
Si Si2 0.848422 0.757460 0.360943
Si Si3 0.973734 0.862515 0.970230
Si Si4 0.355539 0.066834 0.797852
Si Si5 0.750000 0.453950 0.500000
Si Si6 0.211759 0.443455 0.245728
Si Si7 0.935571 0.006535 0.175467
Si Si8 0.461950 0.401591 0.586991
O O1 0.882299 0.024944 0.722003
O O2 0.916970 0.954328 0.515240
O O3 0.822733 0.093222 0.531703
O O4 0.960132 0.119029 0.559924
O O5 0.824633 0.750000 0.500000
O O6 0.849882 0.655715 0.296024
O O7 0.807447 0.833488 0.279204
O O8 0.922321 0.807433 0.369781
O O9 0.907119 0.898219 0.898594
O O10 0.973262 0.750000 0.000000
O O11 0.968970 0.922732 0.093638
O O12 0.036923 0.896603 0.887406
O O13 0.278257 0.048418 0.836073
O O14 0.767941 0.512785 0.622564
O O15 0.145251 0.493207 0.189250
O O16 0.962232 0.984189 0.309314
#
# Coordination Sequence:
#
# PCOD9395392 Si02
#       8
#     8   8   8   8   4   8   8   8
#     4  10  18  30  52  77 112 142 185 234 287 354
#     4  11  18  30  47  81 119 152 184 226 298 369
#     4  11  23  39  58  81 116 158 210 255 294 343
#     4  11  21  33  52  83 114 147 188 241 300 364
#     4  10  16  30  51  82 111 148 186 230 294 364
#     4  10  20  33  51  81 120 155 187 234 304 372
#     4  10  21  39  57  79 118 161 200 249 297 355
#     4  10  18  33  50  76 114 149 188 239 294 359
#
# _framework density 19.869738999999999
#
# number of rings (size 3 to 8) (size 9 to 14) (size 15 to 20)
#    0.000    1.600    5.333    2.800    0.000    1.067 
#    0.000    0.667    0.000    0.000    0.000    7.933 
#    0.000    0.000    0.000    0.000    0.000    0.267 
#
# Total GULP energy -334530.380956 kJ/mol
# GULP energy per Si atom -5575.506349 kJ/mol
# Density = 1.982451 g / cm^3
# Si number density = 19.869739 Si / 1000 Ang^3
#
#
#
# Elastic Constant Matrix: (Units=GPa)
#
#
# Indices 1 2 3 4 5 6 
#
# 1 177.6436 23.8804 16.4169 0.0000 0.0000 0.0000
# 2 23.8804 20.5065 10.5809 0.0000 0.0000 0.0000
# 3 16.4169 10.5809 61.3771 0.0000 0.0000 0.0000
# 4 0.0000 0.0000 0.0000 18.4976 0.0000 0.0000
# 5 0.0000 0.0000 0.0000 0.0000 29.8079 0.0000
# 6 0.0000 0.0000 0.0000 0.0000 0.0000 19.6442
#
#
#
# Elastic Compliance Matrix: (Units=1/GPa)
#
#
# Indices 1 2 3 4 5 6 
#
# 1 0.006687 -0.007535 -0.000490 0.000000 0.000000 0.000000
# 2 -0.007535 0.062016 -0.008676 0.000000 0.000000 0.000000
# 3 -0.000490 -0.008676 0.017919 0.000000 0.000000 0.000000
# 4 0.000000 0.000000 0.000000 0.054061 0.000000 0.000000
# 5 0.000000 0.000000 0.000000 0.000000 0.033548 0.000000
# 6 0.000000 0.000000 0.000000 0.000000 0.000000 0.050906
#
#
# Mechanical properties :
#
#
# Convention : Reuss Voigt Hill
#
# Bulk Modulus (GPa) = 18.78919 40.14262 29.46590
# Shear Modulus (GPa) = 18.09765 27.49987 22.79876
#
# Velocity S-wave (km/s) = 3.02124 3.72426 3.39102
# Velocity P-wave (km/s) = 4.65266 6.22417 5.49488
#
# Compressibility (1/GPa) = 0.05322209
#
# Stress axis : x y z
#
# Youngs Moduli (GPa) = 149.53433 16.12488 55.80574
#
# Poissons Ratio (x) = 0.12150 0.02733
# Poissons Ratio (y) = 1.12674 0.48415
# Poissons Ratio (z) = 0.07324 0.13989
#
# Static dielectric constant tensor:
#      x y z
#    x 1.795670 0.000000 0.000000 
#    y 0.000000 1.678920 0.000000 
#    z 0.000000 0.000000 1.727120 
# 
# From -- ./inp_files/22498.got.cif
#   From: 2010.05.17/outbox.cif.g08.bks.cpg/sg50_12_cif.got.tgz:22498.got - 2010.06.03 11:33:33.
