data_PCOD9395878
_publ_section_title
;
Structure prediction by ZEFSAII (Michael W. Deem and Ramdas Pophale) SiO2 
 PCOD9395878
Probable space group: P B A N
;
_chemical_formula_sum "Si O2"
_cell_formula_units_Z 64
_cell_length_a 24.516281
_cell_length_b 11.317472
_cell_length_c 11.577082
_cell_angle_alpha 90.000000
_cell_angle_beta 90.000000
_cell_angle_gamma 90.000000
_cell_volume 3212.204074
_symmetry_space_group_name_H-M "P B A N"
_symmetry_group_IT_number 50
_space_group.IT_coordinate_system_code '2'
_symmetry_cell_setting 'orthorhombic'
loop_
_space_group_symop_operation_xyz
x,y,z
1/2-x,1/2-y,z
x,1/2-y,-z
1/2-x,y,-z
-x,-y,-z
1/2+x,1/2+y,-z
-x,1/2+y,z
1/2+x,-y,z
loop_
_atom_site_type_symbol
_atom_site_label
_atom_site_fract_x
_atom_site_fract_y
_atom_site_fract_z
Si Si1 0.957987 0.541592 0.096577
Si Si2 0.427780 0.614674 0.525316
Si Si3 0.002850 0.043931 0.670853
Si Si4 0.809578 0.477815 0.531508
Si Si5 0.175827 0.159138 0.326261
Si Si6 0.282215 0.415356 0.761920
Si Si7 0.861587 0.619277 0.950445
Si Si8 0.567011 0.743622 0.234915
O O1 0.966241 0.674739 0.146132
O O2 0.971922 0.464379 0.207894
O O3 0.896942 0.546073 0.042503
O O4 0.000000 0.500000 0.000000
O O5 0.440793 0.750000 0.500000
O O6 0.453581 0.559789 0.642509
O O7 0.457351 0.539047 0.426653
O O8 0.363546 0.595962 0.511149
O O9 0.034230 0.169040 0.671910
O O10 0.750000 0.428817 0.500000
O O11 0.815875 0.598583 0.452152
O O12 0.806358 0.496350 0.668540
O O13 0.216560 0.083601 0.244374
O O14 0.197893 0.290981 0.297209
O O15 0.112804 0.171892 0.291959
O O16 0.307806 0.428243 0.887931
O O17 0.902638 0.646598 0.844137
O O18 0.848883 0.750000 0.000000
#
# Coordination Sequence:
#
# PCOD9395878 Si02
#       8
#     8   8   8   8   8   8   8   8
#     4  11  21  34  55  78 110 154 194 230 278 347
#     4  11  24  40  58  85 114 148 194 240 302 359
#     4  11  23  39  59  83 117 154 189 244 298 357
#     4  10  20  34  56  82 112 148 194 243 293 350
#     4   9  17  31  53  82 113 148 189 233 289 353
#     4   9  17  31  53  82 114 149 187 233 291 351
#     4   9  18  32  49  75 111 149 187 233 281 338
#     4  10  19  35  53  78 113 151 189 235 288 344
#
# _framework density 19.924016000000002
#
# number of rings (size 3 to 8) (size 9 to 14) (size 15 to 20)
#    0.000    2.000    1.250    3.375    0.000    2.750 
#    0.000   13.125    0.000    0.000    0.000    0.000 
#    0.000    0.000    2.250    0.000    0.000    0.000 
#
# Total GULP energy -356408.056664 kJ/mol
# GULP energy per Si atom -5568.875885 kJ/mol
# Density = 1.987867 g / cm^3
# Si number density = 19.924016 Si / 1000 Ang^3
#
#
#
# Elastic Constant Matrix: (Units=GPa)
#
#
# Indices 1 2 3 4 5 6 
#
# 1 114.1743 38.8121 56.7848 0.0000 0.0000 0.0000
# 2 38.8121 44.8679 9.3853 0.0000 0.0000 0.0000
# 3 56.7848 9.3853 93.6457 0.0000 0.0000 0.0000
# 4 0.0000 0.0000 0.0000 26.3255 0.0000 0.0000
# 5 0.0000 0.0000 0.0000 0.0000 23.3514 0.0000
# 6 0.0000 0.0000 0.0000 0.0000 0.0000 23.7676
#
#
#
# Elastic Compliance Matrix: (Units=1/GPa)
#
#
# Indices 1 2 3 4 5 6 
#
# 1 0.018259 -0.013767 -0.009692 0.000000 0.000000 0.000000
# 2 -0.013767 0.033145 0.005026 0.000000 0.000000 0.000000
# 3 -0.009692 0.005026 0.016052 0.000000 0.000000 0.000000
# 4 0.000000 0.000000 0.000000 0.037986 0.000000 0.000000
# 5 0.000000 0.000000 0.000000 0.000000 0.042824 0.000000
# 6 0.000000 0.000000 0.000000 0.000000 0.000000 0.042074
#
#
# Mechanical properties :
#
#
# Convention : Reuss Voigt Hill
#
# Bulk Modulus (GPa) = 32.69028 51.40583 42.04805
# Shear Modulus (GPa) = 21.06129 24.53596 22.79862
#
# Velocity S-wave (km/s) = 3.25480 3.51305 3.38639
# Velocity P-wave (km/s) = 5.52884 6.50479 6.03657
#
# Compressibility (1/GPa) = 0.03059014
#
# Stress axis : x y z
#
# Youngs Moduli (GPa) = 54.76801 30.17022 62.29808
#
# Poissons Ratio (x) = 0.41536 0.60379
# Poissons Ratio (y) = 0.75400 -0.31312
# Poissons Ratio (z) = 0.53081 -0.15164
#
# Static dielectric constant tensor:
#      x y z
#    x 1.777590 0.000000 0.000000 
#    y 0.000000 1.716070 0.000000 
#    z 0.000000 0.000000 1.754110 
# 
# From -- ./inp_files/22903.got.cif
#   From: 2010.05.17/outbox.cif.g08.bks.cpg/sg50_12_cif.got.tgz:22903.got - 2010.06.03 11:33:33.
