data_PCOD9395553
_publ_section_title
;
Structure prediction by ZEFSAII (Michael W. Deem and Ramdas Pophale) SiO2 
 PCOD9395553
Probable space group: P B A N
;
_chemical_formula_sum "Si O2"
_cell_formula_units_Z 48
_cell_length_a 11.244170
_cell_length_b 22.696893
_cell_length_c 9.982214
_cell_angle_alpha 90.000000
_cell_angle_beta 90.000000
_cell_angle_gamma 90.000000
_cell_volume 2547.538109
_symmetry_space_group_name_H-M "P B A N"
_symmetry_group_IT_number 50
_space_group.IT_coordinate_system_code '2'
_symmetry_cell_setting 'orthorhombic'
loop_
_space_group_symop_operation_xyz
x,y,z
1/2-x,1/2-y,z
x,1/2-y,-z
1/2-x,y,-z
-x,-y,-z
1/2+x,1/2+y,-z
-x,1/2+y,z
1/2+x,-y,z
loop_
_atom_site_type_symbol
_atom_site_label
_atom_site_fract_x
_atom_site_fract_y
_atom_site_fract_z
Si Si1 0.569420 0.438061 0.984879
Si Si2 0.717724 0.818532 0.345804
Si Si3 0.204867 0.501096 0.757615
Si Si4 0.005142 0.103314 0.263257
Si Si5 0.926678 0.440865 0.467853
Si Si6 0.597522 0.904949 0.761358
O O1 0.676971 0.458166 0.886072
O O2 0.482528 0.399856 0.891296
O O3 0.500000 0.500000 0.000000
O O4 0.570600 0.404472 0.127002
O O5 0.750000 0.750000 0.337152
O O6 0.750000 0.837178 0.500000
O O7 0.586406 0.839499 0.298774
O O8 0.806783 0.854414 0.251907
O O9 0.104253 0.449397 0.749236
O O10 0.183290 0.538410 0.623319
O O11 0.329370 0.466945 0.764219
O O12 0.922389 0.092535 0.391955
O O13 0.000000 0.500000 0.500000
O O14 0.011736 0.405258 0.366379
#
# Coordination Sequence:
#
# PCOD9395553 Si02
#       6
#     8   8   8   8   8   8
#     4   9  18  31  43  65  91 127 160 190 232 290
#     4  10  19  30  46  69  92 128 169 195 229 276
#     4   8  17  27  44  62  86 124 159 188 232 284
#     4   9  16  28  43  61  88 120 154 195 233 259
#     4   9  16  27  43  64  87 122 163 195 227 286
#     4  10  18  32  47  65  98 132 159 191 238 274
#
# _framework density 18.841719000000001
#
# number of rings (size 3 to 8) (size 9 to 14) (size 15 to 20)
#    0.000    2.833    1.667    1.000    0.000    6.000 
#    0.000    3.333    0.000    0.000    0.000    0.000 
#    0.000    0.000    0.000  441.000    0.000    0.000 
#
# Total GULP energy -267392.869450 kJ/mol
# GULP energy per Si atom -5570.684780 kJ/mol
# Density = 1.879883 g / cm^3
# Si number density = 18.841719 Si / 1000 Ang^3
#
#
#
# Elastic Constant Matrix: (Units=GPa)
#
#
# Indices 1 2 3 4 5 6 
#
# 1 59.3069 23.3446 41.0473 0.0000 0.0000 0.0000
# 2 23.3446 57.1291 31.1688 0.0000 0.0000 0.0000
# 3 41.0473 31.1688 172.6492 0.0000 0.0000 0.0000
# 4 0.0000 0.0000 0.0000 13.8817 0.0000 0.0000
# 5 0.0000 0.0000 0.0000 0.0000 29.1640 0.0000
# 6 0.0000 0.0000 0.0000 0.0000 0.0000 22.7307
#
#
#
# Elastic Compliance Matrix: (Units=1/GPa)
#
#
# Indices 1 2 3 4 5 6 
#
# 1 0.022412 -0.006934 -0.004077 0.000000 0.000000 0.000000
# 2 -0.006934 0.021562 -0.002244 0.000000 0.000000 0.000000
# 3 -0.004077 -0.002244 0.007166 0.000000 0.000000 0.000000
# 4 0.000000 0.000000 0.000000 0.072037 0.000000 0.000000
# 5 0.000000 0.000000 0.000000 0.000000 0.034289 0.000000
# 6 0.000000 0.000000 0.000000 0.000000 0.000000 0.043993
#
#
# Mechanical properties :
#
#
# Convention : Reuss Voigt Hill
#
# Bulk Modulus (GPa) = 40.59916 53.35630 46.97773
# Shear Modulus (GPa) = 21.17025 26.05693 23.61359
#
# Velocity S-wave (km/s) = 3.35563 3.72282 3.54398
# Velocity P-wave (km/s) = 6.05045 6.84535 6.46014
#
# Compressibility (1/GPa) = 0.02463105
#
# Stress axis : x y z
#
# Youngs Moduli (GPa) = 44.61802 46.37783 139.53910
#
# Poissons Ratio (x) = 0.32159 0.56886
# Poissons Ratio (y) = 0.30939 0.31313
# Poissons Ratio (z) = 0.18189 0.10407
#
# Static dielectric constant tensor:
#      x y z
#    x 1.764400 0.000000 0.000000 
#    y 0.000000 1.645880 0.000000 
#    z 0.000000 0.000000 1.745700 
# 
# From -- ./inp_files/11517.got.cif
#   From: 2010.05.17/outbox.cif.g08.bks.cpg/sg50_6_cif.got.tgz:11517.got - 2010.06.03 11:33:33.
