data_PCOD9395926
_publ_section_title
;
Structure prediction by ZEFSAII (Michael W. Deem and Ramdas Pophale) SiO2 
 PCOD9395926
Probable space group: P B A N
;
_chemical_formula_sum "Si O2"
_cell_formula_units_Z 56
_cell_length_a 8.982861
_cell_length_b 15.855960
_cell_length_c 19.335545
_cell_angle_alpha 90.000000
_cell_angle_beta 90.000000
_cell_angle_gamma 90.000000
_cell_volume 2753.998116
_symmetry_space_group_name_H-M "P B A N"
_symmetry_group_IT_number 50
_space_group.IT_coordinate_system_code '2'
_symmetry_cell_setting 'orthorhombic'
loop_
_space_group_symop_operation_xyz
x,y,z
1/2-x,1/2-y,z
x,1/2-y,-z
1/2-x,y,-z
-x,-y,-z
1/2+x,1/2+y,-z
-x,1/2+y,z
1/2+x,-y,z
loop_
_atom_site_type_symbol
_atom_site_label
_atom_site_fract_x
_atom_site_fract_y
_atom_site_fract_z
Si Si1 0.819611 0.662321 0.923582
Si Si2 0.072630 0.153941 0.653704
Si Si3 0.177585 0.663644 0.924100
Si Si4 0.566848 0.841672 0.352491
Si Si5 0.702018 0.995605 0.163161
Si Si6 0.049024 0.991680 0.740500
Si Si7 0.928990 0.907702 0.498015
O O1 0.750000 0.750000 0.896426
O O2 0.769474 0.584224 0.876573
O O3 0.998174 0.670423 0.928444
O O4 0.750000 0.649747 0.000000
O O5 0.253655 0.151736 0.655180
O O6 0.023923 0.248258 0.671992
O O7 0.029249 0.134851 0.574475
O O8 0.015875 0.080518 0.703588
O O9 0.250000 0.750000 0.895311
O O10 0.213454 0.580720 0.880360
O O11 0.250000 0.653498 0.000000
O O12 0.530255 0.855625 0.433393
O O13 0.490960 0.915288 0.309217
O O14 0.532546 0.980777 0.185822
O O15 0.779969 0.006170 0.237385
O O16 0.750000 0.915974 0.500000
O O17 0.000000 0.000000 0.500000
#
# Coordination Sequence:
#
# PCOD9395926 Si02
#       7
#     8   8   8   8   8   8   8
#     4  11  25  44  71 100 129 169 214 263 318 376
#     4  10  21  39  63  91 122 164 217 258 320 377
#     4  11  25  44  70 101 132 165 212 269 316 371
#     4  10  21  39  64  89 122 166 213 266 312 382
#     4  12  27  42  66  93 131 171 217 256 318 382
#     4  12  24  41  61  92 126 172 213 261 313 380
#     4  10  19  35  65  91 120 157 208 267 318 372
#
# _framework density 20.334071999999999
#
# number of rings (size 3 to 8) (size 9 to 14) (size 15 to 20)
#    0.000    1.143    4.286    2.571    4.000    5.143 
#    0.000    0.000    0.000    0.857    0.000    0.000 
#    0.000    0.000    0.000    0.000    0.000    0.000 
#
# Total GULP energy -312899.088855 kJ/mol
# GULP energy per Si atom -5587.483730 kJ/mol
# Density = 2.028779 g / cm^3
# Si number density = 20.334072 Si / 1000 Ang^3
#
#
#
# Elastic Constant Matrix: (Units=GPa)
#
#
# Indices 1 2 3 4 5 6 
#
# 1 65.6208 58.0268 31.3675 0.0000 0.0000 0.0000
# 2 58.0268 186.2068 65.7476 0.0000 0.0000 0.0000
# 3 31.3675 65.7476 68.0631 0.0000 0.0000 0.0000
# 4 0.0000 0.0000 0.0000 -59.9123 0.0000 0.0000
# 5 0.0000 0.0000 0.0000 0.0000 22.6732 0.0000
# 6 0.0000 0.0000 0.0000 0.0000 0.0000 31.9686
#
#
#
# Elastic Compliance Matrix: (Units=1/GPa)
#
#
# Indices 1 2 3 4 5 6 
#
# 1 0.022272 -0.005033 -0.005403 0.000000 0.000000 0.000000
# 2 -0.005033 0.009288 -0.006652 0.000000 0.000000 0.000000
# 3 -0.005403 -0.006652 0.023608 0.000000 0.000000 0.000000
# 4 0.000000 0.000000 0.000000 -0.016691 0.000000 0.000000
# 5 0.000000 0.000000 0.000000 0.000000 0.044105 0.000000
# 6 0.000000 0.000000 0.000000 0.000000 0.000000 0.031281
#
#
# Mechanical properties :
#
#
# Convention : Reuss Voigt Hill
#
# Bulk Modulus (GPa) = 47.63660 70.01939 58.82799
# Shear Modulus (GPa) = 32.25087 9.92916 21.09001
#
# Velocity S-wave (km/s) = 3.98685 2.21215 3.22402
# Velocity P-wave (km/s) = 6.68364 6.40579 6.54619
#
# Compressibility (1/GPa) = 0.02099226
#
# Stress axis : x y z
#
# Youngs Moduli (GPa) = 44.89930 107.67087 42.35880
#
# Poissons Ratio (x) = 0.54190 0.22884
# Poissons Ratio (y) = 0.22598 0.28178
# Poissons Ratio (z) = 0.24257 0.71624
#
# Static dielectric constant tensor:
#      x y z
#    x 1.694010 0.000000 0.000000 
#    y 0.000000 1.694350 0.000000 
#    z 0.000000 0.000000 1.710210 
# 
# From -- ./inp_files/30657.got.cif
#   From: 2010.05.17/outbox.cif.g08.bks.cpg/sg50_16_cif.got.tgz:30657.got - 2010.06.03 11:33:33.
