data_PCOD9395492
_publ_section_title
;
Structure prediction by ZEFSAII (Michael W. Deem and Ramdas Pophale) SiO2 
 PCOD9395492
Probable space group: P B A N
;
_chemical_formula_sum "Si O2"
_cell_formula_units_Z 38
_cell_length_a 9.259484
_cell_length_b 22.039591
_cell_length_c 8.417576
_cell_angle_alpha 90.000000
_cell_angle_beta 90.000000
_cell_angle_gamma 90.000000
_cell_volume 1717.818844
_symmetry_space_group_name_H-M "P B A N"
_symmetry_group_IT_number 50
_space_group.IT_coordinate_system_code '2'
_symmetry_cell_setting 'orthorhombic'
loop_
_space_group_symop_operation_xyz
x,y,z
1/2-x,1/2-y,z
x,1/2-y,-z
1/2-x,y,-z
-x,-y,-z
1/2+x,1/2+y,-z
-x,1/2+y,z
1/2+x,-y,z
loop_
_atom_site_type_symbol
_atom_site_label
_atom_site_fract_x
_atom_site_fract_y
_atom_site_fract_z
Si Si1 0.011370 0.331470 0.079422
Si Si2 0.750000 0.750000 0.737791
Si Si3 0.895113 0.044047 0.403827
Si Si4 0.908965 0.859725 0.712609
Si Si5 0.667197 0.945099 0.832829
Si Si6 0.750000 0.250000 0.000000
O O1 0.140309 0.291140 0.155858
O O2 0.032027 0.398777 0.152474
O O3 0.861236 0.294881 0.092949
O O4 0.043710 0.342314 0.892439
O O5 0.846188 0.798048 0.644652
O O6 0.750000 0.047898 0.500000
O O7 0.962543 0.109595 0.379536
O O8 0.873256 0.009941 0.236079
O O9 0.000000 0.000000 0.500000
O O10 0.783074 0.910484 0.721548
O O11 0.750000 0.950144 0.000000
#
# Coordination Sequence:
#
# PCOD9395492 Si02
#       6
#     8   4   8   8   8   2
#     4  10  20  34  62  97 133 169 223 291 345 406
#     4  10  17  40  68  97 130 173 235 284 343 424
#     4  12  25  44  64  99 144 186 227 282 351 418
#     4  10  19  38  67  93 129 179 226 278 339 411
#     4   9  21  41  66  95 131 180 235 275 338 427
#     4  12  20  30  52 112 146 154 212 306 386 370
#
# _framework density 22.121075999999999
#
# number of rings (size 3 to 8) (size 9 to 14) (size 15 to 20)
#    0.000    1.684    4.211    2.526    0.000    5.053 
#    1.895    0.000    0.000   10.105    5.474    0.000 
#    0.000    0.000    0.000    0.000    0.000    0.000 
#
# Total GULP energy -212376.419154 kJ/mol
# GULP energy per Si atom -5588.853136 kJ/mol
# Density = 2.207073 g / cm^3
# Si number density = 22.121076 Si / 1000 Ang^3
#
#
#
# Elastic Constant Matrix: (Units=GPa)
#
#
# Indices 1 2 3 4 5 6 
#
# 1 145.3595 69.2288 32.0820 0.0000 0.0000 0.0000
# 2 69.2288 138.1008 43.0255 0.0000 0.0000 0.0000
# 3 32.0820 43.0255 43.6008 0.0000 0.0000 0.0000
# 4 0.0000 0.0000 0.0000 15.6327 0.0000 0.0000
# 5 0.0000 0.0000 0.0000 0.0000 17.6803 0.0000
# 6 0.0000 0.0000 0.0000 0.0000 0.0000 54.1730
#
#
#
# Elastic Compliance Matrix: (Units=1/GPa)
#
#
# Indices 1 2 3 4 5 6 
#
# 1 0.009346 -0.003671 -0.003254 0.000000 0.000000 0.000000
# 2 -0.003671 0.011898 -0.009039 0.000000 0.000000 0.000000
# 3 -0.003254 -0.009039 0.034250 0.000000 0.000000 0.000000
# 4 0.000000 0.000000 0.000000 0.063969 0.000000 0.000000
# 5 0.000000 0.000000 0.000000 0.000000 0.056560 0.000000
# 6 0.000000 0.000000 0.000000 0.000000 0.000000 0.018459
#
#
# Mechanical properties :
#
#
# Convention : Reuss Voigt Hill
#
# Bulk Modulus (GPa) = 42.43732 68.41485 55.42609
# Shear Modulus (GPa) = 21.34325 29.67885 25.51105
#
# Velocity S-wave (km/s) = 3.10955 3.66683 3.39963
# Velocity P-wave (km/s) = 5.66729 6.99444 6.36555
#
# Compressibility (1/GPa) = 0.02356416
#
# Stress axis : x y z
#
# Youngs Moduli (GPa) = 106.99505 84.04978 29.19721
#
# Poissons Ratio (x) = 0.30858 0.09501
# Poissons Ratio (y) = 0.39282 0.26392
# Poissons Ratio (z) = 0.34818 0.75975
#
# Static dielectric constant tensor:
#      x y z
#    x 1.809530 0.000000 0.000000 
#    y 0.000000 1.824570 0.000000 
#    z 0.000000 0.000000 1.769560 
# 
# From -- ./inp_files/9593.got.cif
#   From: 2010.05.17/outbox.cif.g08.bks.cpg/sg50_5_cif.got.tgz:9593.got - 2010.06.03 11:33:33.
