data_PCOD9395284
_publ_section_title
;
Structure prediction by ZEFSAII (Michael W. Deem and Ramdas Pophale) SiO2 
 PCOD9395284
Probable space group: P C C M
;
_chemical_formula_sum "Si O2"
_cell_formula_units_Z 40
_cell_length_a 12.000000
_cell_length_b 12.000000
_cell_length_c 15.000000
_cell_angle_alpha 90.000000
_cell_angle_beta 90.000000
_cell_angle_gamma 90.000000
_cell_volume 2160.000000
_symmetry_space_group_name_H-M "P C C M"
_symmetry_group_IT_number 49
_symmetry_cell_setting 'orthorhombic'
loop_
_space_group_symop_operation_xyz
x,y,z
-x,-y,z
x,-y,1/2-z
-x,y,1/2-z
-x,-y,-z
x,y,-z
-x,y,1/2+z
x,-y,1/2+z
loop_
_atom_site_type_symbol
_atom_site_label
_atom_site_fract_x
_atom_site_fract_y
_atom_site_fract_z
Si Si1 0.746613 0.675418 0.893314
Si Si2 0.819107 0.918223 0.389210
Si Si3 0.622368 0.554694 0.605701
Si Si4 0.629095 0.781736 0.275547
Si Si5 0.066525 0.845273 0.606490
O O1 0.713053 0.545018 0.877003
O O2 0.677095 0.746702 0.821441
O O3 0.870526 0.727620 0.877726
O O4 0.721567 0.694363 0.000000
O O5 0.801219 0.909818 0.500000
O O6 0.713791 0.866525 0.331766
O O7 0.936858 0.855758 0.363588
O O8 0.854754 0.047794 0.367544
O O9 0.500000 0.500000 0.620605
O O10 0.630507 0.583339 0.500000
O O11 0.629518 0.666553 0.665275
O O12 0.500000 0.816925 0.250000
O O13 0.057935 0.858073 0.500000
#
# Coordination Sequence:
#
# PCOD9395284 Si02
#       5
#     8   8   8   8   8
#     4  10  21  36  57  84 115 157 204 250 300 356
#     4   9  19  38  65  91 119 159 202 250 308 369
#     4  10  20  37  60  82 113 158 202 248 308 368
#     4  12  23  34  57  88 123 157 202 249 299 367
#     4   8  17  39  65  88 117 155 202 253 309 366
#
# _framework density 18.518519000000001
#
# number of rings (size 3 to 8) (size 9 to 14) (size 15 to 20)
#    0.000    2.200    2.000    2.400    0.000    2.400 
#    0.000    5.000    0.000   10.800    0.000    0.000 
#    0.000    0.000    0.000    0.000    0.000    0.000 
#
# Total GULP energy -222720.423439 kJ/mol
# GULP energy per Si atom -5568.010586 kJ/mol
# Density = 1.847637 g / cm^3
# Si number density = 18.518519 Si / 1000 Ang^3
#
#
#
# Elastic Constant Matrix: (Units=GPa)
#
#
# Indices 1 2 3 4 5 6 
#
# 1 133.6980 51.6533 29.8345 0.0000 0.0000 0.0000
# 2 51.6533 83.7070 12.2100 0.0000 0.0000 0.0000
# 3 29.8345 12.2100 70.7638 0.0000 0.0000 0.0000
# 4 0.0000 0.0000 0.0000 33.4126 0.0000 0.0000
# 5 0.0000 0.0000 0.0000 0.0000 37.5648 0.0000
# 6 0.0000 0.0000 0.0000 0.0000 0.0000 42.7751
#
#
#
# Elastic Compliance Matrix: (Units=1/GPa)
#
#
# Indices 1 2 3 4 5 6 
#
# 1 0.010569 -0.006024 -0.003417 0.000000 0.000000 0.000000
# 2 -0.006024 0.015688 -0.000167 0.000000 0.000000 0.000000
# 3 -0.003417 -0.000167 0.015601 0.000000 0.000000 0.000000
# 4 0.000000 0.000000 0.000000 0.029929 0.000000 0.000000
# 5 0.000000 0.000000 0.000000 0.000000 0.026621 0.000000
# 6 0.000000 0.000000 0.000000 0.000000 0.000000 0.023378
#
#
# Mechanical properties :
#
#
# Convention : Reuss Voigt Hill
#
# Bulk Modulus (GPa) = 44.16423 52.84049 48.50236
# Shear Modulus (GPa) = 33.65915 35.71523 34.68719
#
# Velocity S-wave (km/s) = 4.26795 4.39637 4.33264
# Velocity P-wave (km/s) = 6.94173 7.37337 7.16080
#
# Compressibility (1/GPa) = 0.02264276
#
# Stress axis : x y z
#
# Youngs Moduli (GPa) = 94.61523 63.74381 64.09901
#
# Poissons Ratio (x) = 0.38396 0.21901
# Poissons Ratio (y) = 0.56992 0.01072
# Poissons Ratio (z) = 0.32327 0.01066
#
# Static dielectric constant tensor:
#      x y z
#    x 1.679400 0.000000 0.000000 
#    y 0.000000 1.659270 0.000000 
#    z 0.000000 0.000000 1.683660 
# 
# From -- ./inp_files/12603.got.cif
#   From: 2010.05.17/outbox.ucp.g08.bks.cvg/sg49_7_cif.got.tgz:12603.got - 2010.06.11 16:40:14.
