data_PCOD9395533
_publ_section_title
;
Structure prediction by ZEFSAII (Michael W. Deem and Ramdas Pophale) SiO2 
 PCOD9395533
Probable space group: P B A N
;
_chemical_formula_sum "Si O2"
_cell_formula_units_Z 30
_cell_length_a 29.087784
_cell_length_b 5.774576
_cell_length_c 8.413671
_cell_angle_alpha 90.000000
_cell_angle_beta 90.000000
_cell_angle_gamma 90.000000
_cell_volume 1413.241115
_symmetry_space_group_name_H-M "P B A N"
_symmetry_group_IT_number 50
_space_group.IT_coordinate_system_code '2'
_symmetry_cell_setting 'orthorhombic'
loop_
_space_group_symop_operation_xyz
x,y,z
1/2-x,1/2-y,z
x,1/2-y,-z
1/2-x,y,-z
-x,-y,-z
1/2+x,1/2+y,-z
-x,1/2+y,z
1/2+x,-y,z
loop_
_atom_site_type_symbol
_atom_site_label
_atom_site_fract_x
_atom_site_fract_y
_atom_site_fract_z
Si Si1 0.677088 0.250000 0.000000
Si Si2 0.705931 0.912497 0.743859
Si Si3 0.622649 0.882158 0.169230
Si Si4 0.750000 0.250000 0.500000
Si Si5 0.983403 0.979337 0.812846
O O1 0.645971 0.372246 0.867400
O O2 0.704062 0.052438 0.908727
O O3 0.750000 0.750000 0.747478
O O4 0.658540 0.768867 0.728452
O O5 0.716998 0.092328 0.606196
O O6 0.570266 0.924475 0.213672
O O7 0.620264 0.750000 0.000000
O O8 0.007205 0.741284 0.750581
O O9 0.000000 0.000000 0.000000
#
# Coordination Sequence:
#
# PCOD9395533 Si02
#       5
#     4   8   8   2   8
#     4  10  22  37  60  90 124 158 196 264 325 386
#     4  11  25  41  61  88 122 164 213 265 323 392
#     4  10  20  33  55  88 125 163 208 252 324 385
#     4  12  26  46  60  78 120 170 218 268 316 388
#     4  10  18  30  52  84 130 169 204 257 317 386
#
# _framework density 21.227799999999998
#
# number of rings (size 3 to 8) (size 9 to 14) (size 15 to 20)
#    0.000    1.600    2.667    3.600    3.733   12.800 
#    0.000    0.000    0.000    0.000    0.000    1.867 
#    0.000    0.000    0.000    0.000    0.000    0.000 
#
# Total GULP energy -167400.404455 kJ/mol
# GULP energy per Si atom -5580.013482 kJ/mol
# Density = 2.117948 g / cm^3
# Si number density = 21.227800 Si / 1000 Ang^3
#
#
#
# Elastic Constant Matrix: (Units=GPa)
#
#
# Indices 1 2 3 4 5 6 
#
# 1 201.4566 95.9012 50.5574 0.0000 0.0000 0.0000
# 2 95.9012 166.5558 22.6654 0.0000 0.0000 0.0000
# 3 50.5574 22.6654 21.9989 0.0000 0.0000 0.0000
# 4 0.0000 0.0000 0.0000 24.2376 0.0000 0.0000
# 5 0.0000 0.0000 0.0000 0.0000 -5.8010 0.0000
# 6 0.0000 0.0000 0.0000 0.0000 0.0000 6.0083
#
#
#
# Elastic Compliance Matrix: (Units=1/GPa)
#
#
# Indices 1 2 3 4 5 6 
#
# 1 0.013915 -0.004257 -0.027594 0.000000 0.000000 0.000000
# 2 -0.004257 0.008286 0.001248 0.000000 0.000000 0.000000
# 3 -0.027594 0.001248 0.107587 0.000000 0.000000 0.000000
# 4 0.000000 0.000000 0.000000 0.041258 0.000000 0.000000
# 5 0.000000 0.000000 0.000000 0.000000 -0.172383 0.000000
# 6 0.000000 0.000000 0.000000 0.000000 0.000000 0.166437
#
#
# Mechanical properties :
#
#
# Convention : Reuss Voigt Hill
#
# Bulk Modulus (GPa) = 14.58136 80.91770 47.74953
# Shear Modulus (GPa) = 20.06677 19.61480 19.84078
#
# Velocity S-wave (km/s) = 3.07792 3.04306 3.06054
# Velocity P-wave (km/s) = 4.41762 7.10974 5.91877
#
# Compressibility (1/GPa) = 0.06858071
#
# Stress axis : x y z
#
# Youngs Moduli (GPa) = 71.86259 120.69203 9.29480
#
# Poissons Ratio (x) = 0.51383 0.25648
# Poissons Ratio (y) = 0.30594 -0.01160
# Poissons Ratio (z) = 1.98297 -0.15057
#
# Static dielectric constant tensor:
#      x y z
#    x 1.786440 0.000000 0.000000 
#    y 0.000000 2.099950 0.000000 
#    z 0.000000 0.000000 1.577520 
# 
# From -- ./inp_files/7925.got.cif
#   From: 2010.05.17/outbox.cif.g08.bks.cpg/sg50_4_cif.got.tgz:7925.got - 2010.06.03 11:33:33.
