data_PCOD9396558
_publ_section_title
;
Structure prediction by ZEFSAII (Michael W. Deem and Ramdas Pophale) SiO2 
 PCOD9396558
Probable space group: P B A N
;
_chemical_formula_sum "Si O2"
_cell_formula_units_Z 34
_cell_length_a 8.092865
_cell_length_b 12.187555
_cell_length_c 16.124562
_cell_angle_alpha 90.000000
_cell_angle_beta 90.000000
_cell_angle_gamma 90.000000
_cell_volume 1590.401625
_symmetry_space_group_name_H-M "P B A N"
_symmetry_group_IT_number 50
_space_group.IT_coordinate_system_code '2'
_symmetry_cell_setting 'orthorhombic'
loop_
_space_group_symop_operation_xyz
x,y,z
1/2-x,1/2-y,z
x,1/2-y,-z
1/2-x,y,-z
-x,-y,-z
1/2+x,1/2+y,-z
-x,1/2+y,z
1/2+x,-y,z
loop_
_atom_site_type_symbol
_atom_site_label
_atom_site_fract_x
_atom_site_fract_y
_atom_site_fract_z
Si Si1 0.250000 0.250000 0.500000
Si Si2 0.310919 0.633582 0.405005
Si Si3 0.250000 0.966596 0.000000
Si Si4 0.970017 0.840731 0.928029
Si Si5 0.691666 0.901457 0.635316
Si Si6 0.750000 0.750000 0.786749
O O1 0.186852 0.161240 0.430604
O O2 0.250000 0.750000 0.370504
O O3 0.250000 0.628955 0.500000
O O4 0.508431 0.622021 0.399599
O O5 0.231729 0.528637 0.361735
O O6 0.346061 0.887503 0.063409
O O7 0.135895 0.050378 0.051141
O O8 0.901235 0.786202 0.845170
O O9 0.947267 0.750000 0.000000
O O10 0.706117 0.848482 0.725092
#
# Coordination Sequence:
#
# PCOD9396558 Si02
#       6
#     2   8   4   8   8   4
#     4  10  20  40  66  92 134 184 240 266 352 406
#     4  11  24  43  70  96 132 181 244 287 339 408
#     4  10  22  38  80  98 130 182 234 272 342 404
#     4  11  21  46  67 103 135 181 227 281 334 423
#     4  11  25  41  67  98 138 186 224 292 344 412
#     4  11  25  43  69  98 154 176 225 285 355 405
#
# _framework density 21.378247999999999
#
# number of rings (size 3 to 8) (size 9 to 14) (size 15 to 20)
#    0.000    1.176    3.529    2.471    6.588    1.882 
#    0.000    0.000    0.000    0.000    0.000    0.000 
#    0.000    0.000    0.000    0.000    0.000    0.000 
#
# Total GULP energy -189755.983297 kJ/mol
# GULP energy per Si atom -5581.058332 kJ/mol
# Density = 2.132959 g / cm^3
# Si number density = 21.378248 Si / 1000 Ang^3
#
#
#
# Elastic Constant Matrix: (Units=GPa)
#
#
# Indices 1 2 3 4 5 6 
#
# 1 93.8900 59.2249 31.6038 0.0000 0.0000 0.0000
# 2 59.2249 207.6505 71.8527 0.0000 0.0000 0.0000
# 3 31.6038 71.8527 134.9206 0.0000 0.0000 0.0000
# 4 0.0000 0.0000 0.0000 30.0891 0.0000 0.0000
# 5 0.0000 0.0000 0.0000 0.0000 3.8805 0.0000
# 6 0.0000 0.0000 0.0000 0.0000 0.0000 14.8268
#
#
#
# Elastic Compliance Matrix: (Units=1/GPa)
#
#
# Indices 1 2 3 4 5 6 
#
# 1 0.013179 -0.003299 -0.001330 0.000000 0.000000 0.000000
# 2 -0.003299 0.006729 -0.002811 0.000000 0.000000 0.000000
# 3 -0.001330 -0.002811 0.009220 0.000000 0.000000 0.000000
# 4 0.000000 0.000000 0.000000 0.033235 0.000000 0.000000
# 5 0.000000 0.000000 0.000000 0.000000 0.257699 0.000000
# 6 0.000000 0.000000 0.000000 0.000000 0.000000 0.067445
#
#
# Mechanical properties :
#
#
# Convention : Reuss Voigt Hill
#
# Bulk Modulus (GPa) = 70.18088 84.64710 77.41399
# Shear Modulus (GPa) = 12.28084 28.01127 20.14606
#
# Velocity S-wave (km/s) = 2.39938 3.62369 3.07312
# Velocity P-wave (km/s) = 6.36989 7.56235 6.99159
#
# Compressibility (1/GPa) = 0.01424889
#
# Stress axis : x y z
#
# Youngs Moduli (GPa) = 75.87657 148.60432 108.45451
#
# Poissons Ratio (x) = 0.49018 0.14429
# Poissons Ratio (y) = 0.25028 0.30487
# Poissons Ratio (z) = 0.10095 0.41774
#
# Static dielectric constant tensor:
#      x y z
#    x 1.906100 0.000000 0.000000 
#    y 0.000000 1.785740 0.000000 
#    z 0.000000 0.000000 1.729600 
# 
# From -- ./inp_files/28477.got.cif
#   From: 2010.05.17/outbox.cif.g08.bks.cpg/sg50_15_cif.got.tgz:28477.got - 2010.06.03 11:33:33.
