data_PCOD9396479
_publ_section_title
;
Structure prediction by ZEFSAII (Michael W. Deem and Ramdas Pophale) SiO2 
 PCOD9396479
Probable space group: P B A N
;
_chemical_formula_sum "Si O2"
_cell_formula_units_Z 20
_cell_length_a 13.434816
_cell_length_b 9.850616
_cell_length_c 6.906982
_cell_angle_alpha 90.000000
_cell_angle_beta 90.000000
_cell_angle_gamma 90.000000
_cell_volume 914.078379
_symmetry_space_group_name_H-M "P B A N"
_symmetry_group_IT_number 50
_space_group.IT_coordinate_system_code '2'
_symmetry_cell_setting 'orthorhombic'
loop_
_space_group_symop_operation_xyz
x,y,z
1/2-x,1/2-y,z
x,1/2-y,-z
1/2-x,y,-z
-x,-y,-z
1/2+x,1/2+y,-z
-x,1/2+y,z
1/2+x,-y,z
loop_
_atom_site_type_symbol
_atom_site_label
_atom_site_fract_x
_atom_site_fract_y
_atom_site_fract_z
Si Si1 0.993208 0.250000 0.000000
Si Si2 0.651105 0.669723 0.306311
Si Si3 0.690808 0.384284 0.196939
O O1 0.065331 0.173121 0.852823
O O2 0.918506 0.340148 0.872668
O O3 0.750000 0.750000 0.239653
O O4 0.619673 0.750000 0.500000
O O5 0.680373 0.513099 0.333668
O O6 0.750000 0.250000 0.267186
O O7 0.750000 0.426317 0.000000
#
# Coordination Sequence:
#
# PCOD9396479 Si02
#       3
#     4   8   8
#     4  10  20  38  68  92 122 162 206 260 312 368
#     4  11  23  38  60  92 127 165 206 253 309 369
#     4   9  20  40  66  92 124 168 208 255 317 371
#
# _framework density 21.879961000000002
#
# number of rings (size 3 to 8) (size 9 to 14) (size 15 to 20)
#    0.000    2.400    0.000    4.200    0.000    4.800 
#    0.000   12.000    0.000   13.200    0.000    0.000 
#    0.000    0.000    0.000    0.000    0.000    0.000 
#
# Total GULP energy -111674.789344 kJ/mol
# GULP energy per Si atom -5583.739467 kJ/mol
# Density = 2.183016 g / cm^3
# Si number density = 21.879961 Si / 1000 Ang^3
#
#
#
# Elastic Constant Matrix: (Units=GPa)
#
#
# Indices 1 2 3 4 5 6 
#
# 1 144.2286 49.4720 33.4666 0.0000 0.0000 0.0000
# 2 49.4720 204.4016 64.0465 0.0000 0.0000 0.0000
# 3 33.4666 64.0465 78.9227 0.0000 0.0000 0.0000
# 4 0.0000 0.0000 0.0000 -315.6009 0.0000 0.0000
# 5 0.0000 0.0000 0.0000 0.0000 1.5141 0.0000
# 6 0.0000 0.0000 0.0000 0.0000 0.0000 -5.6933
#
#
#
# Elastic Compliance Matrix: (Units=1/GPa)
#
#
# Indices 1 2 3 4 5 6 
#
# 1 0.007888 -0.001155 -0.002408 0.000000 0.000000 0.000000
# 2 -0.001155 0.006730 -0.004971 0.000000 0.000000 0.000000
# 3 -0.002408 -0.004971 0.017726 0.000000 0.000000 0.000000
# 4 0.000000 0.000000 0.000000 -0.003169 0.000000 0.000000
# 5 0.000000 0.000000 0.000000 0.000000 0.660443 0.000000
# 6 0.000000 0.000000 0.000000 0.000000 0.000000 -0.175646
#
#
# Mechanical properties :
#
#
# Convention : Reuss Voigt Hill
#
# Bulk Modulus (GPa) = 65.46333 80.16926 72.81629
# Shear Modulus (GPa) = 9.32604 -45.25149 -17.96272
#
# Velocity S-wave (km/s) = 2.06679 -4.55265 -2.86836
# Velocity P-wave (km/s) = 5.97325 3.01406 4.73098
#
# Compressibility (1/GPa) = 0.01527573
#
# Stress axis : x y z
#
# Youngs Moduli (GPa) = 126.77093 148.59837 56.41425
#
# Poissons Ratio (x) = 0.17159 0.13584
# Poissons Ratio (y) = 0.14639 0.28046
# Poissons Ratio (z) = 0.30525 0.73875
#
# Static dielectric constant tensor:
#      x y z
#    x 1.776510 0.000000 0.000000 
#    y 0.000000 1.822210 0.000000 
#    z 0.000000 0.000000 1.855490 
# 
# From -- ./inp_files/10235.got.cif
#   From: 2010.05.17/outbox.cif.g08.bks.cpg/sg50_6_cif.got.tgz:10235.got - 2010.06.03 11:33:33.
