data_PCOD9396116
_publ_section_title
;
Structure prediction by ZEFSAII (Michael W. Deem and Ramdas Pophale) SiO2 
 PCOD9396116
Probable space group: P B A N
;
_chemical_formula_sum "Si O2"
_cell_formula_units_Z 56
_cell_length_a 7.544872
_cell_length_b 21.846634
_cell_length_c 14.684656
_cell_angle_alpha 90.000000
_cell_angle_beta 90.000000
_cell_angle_gamma 90.000000
_cell_volume 2420.472688
_symmetry_space_group_name_H-M "P B A N"
_symmetry_group_IT_number 50
_space_group.IT_coordinate_system_code '2'
_symmetry_cell_setting 'orthorhombic'
loop_
_space_group_symop_operation_xyz
x,y,z
1/2-x,1/2-y,z
x,1/2-y,-z
1/2-x,y,-z
-x,-y,-z
1/2+x,1/2+y,-z
-x,1/2+y,z
1/2+x,-y,z
loop_
_atom_site_type_symbol
_atom_site_label
_atom_site_fract_x
_atom_site_fract_y
_atom_site_fract_z
Si Si1 0.489294 0.355675 0.197610
Si Si2 0.372533 0.051481 0.358161
Si Si3 0.569887 0.622942 0.194135
Si Si4 0.458562 0.680040 0.004026
Si Si5 0.038108 0.336438 0.480334
Si Si6 0.543648 0.417560 0.364709
Si Si7 0.964219 0.737560 0.688804
O O1 0.279415 0.365826 0.203217
O O2 0.511915 0.353556 0.090943
O O3 0.591637 0.404338 0.259636
O O4 0.533783 0.292766 0.249864
O O5 0.450943 0.061458 0.255437
O O6 0.471314 0.100506 0.421561
O O7 0.168101 0.071379 0.364340
O O8 0.377988 0.982240 0.392272
O O9 0.489095 0.677779 0.253101
O O10 0.515852 0.638804 0.090542
O O11 0.537108 0.750000 0.000000
O O12 0.250000 0.688024 0.000000
O O13 0.250000 0.326904 0.500000
O O14 0.936010 0.357803 0.571434
O O15 0.982491 0.281092 0.413733
O O16 0.750000 0.750000 0.684408
#
# Coordination Sequence:
#
# PCOD9396116 Si02
#       7
#     8   8   8   8   8   8   8
#     4  10  20  33  54  83 109 140 184 224 270 325
#     4   9  19  34  54  78 107 146 185 226 266 314
#     4   9  18  34  55  78 106 141 183 226 266 316
#     4  11  22  35  54  82 111 142 175 216 274 341
#     4   9  17  30  50  79 111 141 179 223 266 317
#     4  10  20  34  53  81 111 142 186 227 268 319
#     4   9  16  28  50  79 109 139 173 221 276 311
#
# _framework density 23.135975999999999
#
# number of rings (size 3 to 8) (size 9 to 14) (size 15 to 20)
#    0.000    2.429    1.429    3.429    0.000    3.714 
#    0.000    0.714    0.000    0.000    0.000    0.000 
#    0.000    2.571    0.000    0.000    0.000    0.000 
#
# Total GULP energy -312142.493301 kJ/mol
# GULP energy per Si atom -5573.973095 kJ/mol
# Density = 2.308332 g / cm^3
# Si number density = 23.135976 Si / 1000 Ang^3
#
#
#
# Elastic Constant Matrix: (Units=GPa)
#
#
# Indices 1 2 3 4 5 6 
#
# 1 35.4291 4.1643 -0.0835 0.0000 0.0000 0.0000
# 2 4.1643 69.2025 31.5244 0.0000 0.0000 0.0000
# 3 -0.0835 31.5244 178.4429 0.0000 0.0000 0.0000
# 4 0.0000 0.0000 0.0000 27.0425 0.0000 0.0000
# 5 0.0000 0.0000 0.0000 0.0000 -6.4379 0.0000
# 6 0.0000 0.0000 0.0000 0.0000 0.0000 15.9950
#
#
#
# Elastic Compliance Matrix: (Units=1/GPa)
#
#
# Indices 1 2 3 4 5 6 
#
# 1 0.028446 -0.001868 0.000343 0.000000 0.000000 0.000000
# 2 -0.001868 0.015838 -0.002799 0.000000 0.000000 0.000000
# 3 0.000343 -0.002799 0.006099 0.000000 0.000000 0.000000
# 4 0.000000 0.000000 0.000000 0.036979 0.000000 0.000000
# 5 0.000000 0.000000 0.000000 0.000000 -0.155330 0.000000
# 6 0.000000 0.000000 0.000000 0.000000 0.000000 0.062519
#
#
# Mechanical properties :
#
#
# Convention : Reuss Voigt Hill
#
# Bulk Modulus (GPa) = 23.96075 39.36499 31.66287
# Shear Modulus (GPa) = 292.24190 23.81788 158.02989
#
# Velocity S-wave (km/s) = 11.25118 3.21202 8.27364
# Velocity P-wave (km/s) = 13.38523 5.55047 10.24627
#
# Compressibility (1/GPa) = 0.04173492
#
# Stress axis : x y z
#
# Youngs Moduli (GPa) = 35.15461 63.14036 163.97076
#
# Poissons Ratio (x) = 0.11795 -0.05630
# Poissons Ratio (y) = 0.06567 0.45893
# Poissons Ratio (z) = -0.01207 0.17672
#
# Static dielectric constant tensor:
#      x y z
#    x 1.863320 0.000000 0.000000 
#    y 0.000000 1.930610 0.000000 
#    z 0.000000 0.000000 4.347690 
# 
# From -- ./inp_files/25248.got.cif
#   From: 2010.05.17/outbox.cif.g08.bks.cpg/sg50_13_cif.got.tgz:25248.got - 2010.06.03 11:33:33.
