data_PCOD9396603
_publ_section_title
;
Structure prediction by ZEFSAII (Michael W. Deem and Ramdas Pophale) SiO2 
 PCOD9396603
Probable space group: P B A N
;
_chemical_formula_sum "Si O2"
_cell_formula_units_Z 36
_cell_length_a 9.009168
_cell_length_b 20.523616
_cell_length_c 9.128584
_cell_angle_alpha 90.000000
_cell_angle_beta 90.000000
_cell_angle_gamma 90.000000
_cell_volume 1687.881613
_symmetry_space_group_name_H-M "P B A N"
_symmetry_group_IT_number 50
_space_group.IT_coordinate_system_code '2'
_symmetry_cell_setting 'orthorhombic'
loop_
_space_group_symop_operation_xyz
x,y,z
1/2-x,1/2-y,z
x,1/2-y,-z
1/2-x,y,-z
-x,-y,-z
1/2+x,1/2+y,-z
-x,1/2+y,z
1/2+x,-y,z
loop_
_atom_site_type_symbol
_atom_site_label
_atom_site_fract_x
_atom_site_fract_y
_atom_site_fract_z
Si Si1 0.423666 0.171323 0.998383
Si Si2 0.750000 0.750000 0.500000
Si Si3 0.501224 0.171278 0.672677
Si Si4 0.385496 0.470001 0.391537
Si Si5 0.600535 0.448844 0.906799
Si Si6 0.750000 0.250000 0.500000
O O1 0.510999 0.120531 0.104934
O O2 0.415854 0.250000 0.000000
O O3 0.250000 0.149371 0.000000
O O4 0.510778 0.167832 0.846277
O O5 0.640686 0.789545 0.392169
O O6 0.462093 0.097456 0.644472
O O7 0.643924 0.203959 0.597945
O O8 0.250000 0.457414 0.500000
O O9 0.500000 0.500000 0.500000
O O10 0.362870 0.515757 0.248530
O O11 0.750000 0.438558 0.000000
O O12 0.500000 0.500000 0.000000
#
# Coordination Sequence:
#
# PCOD9396603 Si02
#       6
#     8   2   8   8   8   2
#     4  11  26  47  76 107 144 191 253 308 378 446
#     4  10  20  42  72  98 140 194 244 314 376 454
#     4  11  24  46  72 105 146 196 247 313 379 454
#     4  12  28  45  73 107 149 198 248 308 376 452
#     4  12  26  47  75 106 148 195 250 309 372 449
#     4  10  28  46  76 114 156 190 258 316 392 450
#
# _framework density 21.328510000000001
#
# number of rings (size 3 to 8) (size 9 to 14) (size 15 to 20)
#    0.000    0.667    3.333    3.333    4.667    5.778 
#    0.000    0.000    0.000    0.000    0.000    0.000 
#    0.000    0.000    0.000    0.000    0.000    0.000 
#
# Total GULP energy -200626.522540 kJ/mol
# GULP energy per Si atom -5572.958959 kJ/mol
# Density = 2.127997 g / cm^3
# Si number density = 21.328510 Si / 1000 Ang^3
#
#
#
# Elastic Constant Matrix: (Units=GPa)
#
#
# Indices 1 2 3 4 5 6 
#
# 1 126.2048 50.3140 28.5427 0.0000 0.0000 0.0000
# 2 50.3140 136.5415 36.8059 0.0000 0.0000 0.0000
# 3 28.5427 36.8059 111.6712 0.0000 0.0000 0.0000
# 4 0.0000 0.0000 0.0000 3.0999 0.0000 0.0000
# 5 0.0000 0.0000 0.0000 0.0000 3.3259 0.0000
# 6 0.0000 0.0000 0.0000 0.0000 0.0000 40.3048
#
#
#
# Elastic Compliance Matrix: (Units=1/GPa)
#
#
# Indices 1 2 3 4 5 6 
#
# 1 0.009482 -0.003118 -0.001396 0.000000 0.000000 0.000000
# 2 -0.003118 0.009063 -0.002190 0.000000 0.000000 0.000000
# 3 -0.001396 -0.002190 0.010034 0.000000 0.000000 0.000000
# 4 0.000000 0.000000 0.000000 0.322595 0.000000 0.000000
# 5 0.000000 0.000000 0.000000 0.000000 0.300668 0.000000
# 6 0.000000 0.000000 0.000000 0.000000 0.000000 0.024811
#
#
# Mechanical properties :
#
#
# Convention : Reuss Voigt Hill
#
# Bulk Modulus (GPa) = 65.91603 67.30475 66.61039
# Shear Modulus (GPa) = 7.19303 26.59645 16.89474
#
# Velocity S-wave (km/s) = 1.83843 3.53511 2.81752
# Velocity P-wave (km/s) = 5.95639 6.94891 6.47171
#
# Compressibility (1/GPa) = 0.01517082
#
# Stress axis : x y z
#
# Youngs Moduli (GPa) = 105.45920 110.33812 99.66559
#
# Poissons Ratio (x) = 0.34401 0.13914
# Poissons Ratio (y) = 0.32880 0.21829
# Poissons Ratio (z) = 0.14723 0.24166
#
# Static dielectric constant tensor:
#      x y z
#    x 1.749340 0.000000 0.000000 
#    y 0.000000 1.692880 0.000000 
#    z 0.000000 0.000000 1.743470 
# 
# From -- ./inp_files/9310.got.cif
#   From: 2010.05.17/outbox.cif.g08.bks.cpg/sg50_5_cif.got.tgz:9310.got - 2010.06.03 11:33:33.
