data_PCOD9396876
_publ_section_title
;
Structure prediction by ZEFSAII (Michael W. Deem and Ramdas Pophale) SiO2 
 PCOD9396876
Probable space group: P B A N
;
_chemical_formula_sum "Si O2"
_cell_formula_units_Z 64
_cell_length_a 8.982602
_cell_length_b 22.965247
_cell_length_c 15.377304
_cell_angle_alpha 90.000000
_cell_angle_beta 90.000000
_cell_angle_gamma 90.000000
_cell_volume 3172.148269
_symmetry_space_group_name_H-M "P B A N"
_symmetry_group_IT_number 50
_space_group.IT_coordinate_system_code '2'
_symmetry_cell_setting 'orthorhombic'
loop_
_space_group_symop_operation_xyz
x,y,z
1/2-x,1/2-y,z
x,1/2-y,-z
1/2-x,y,-z
-x,-y,-z
1/2+x,1/2+y,-z
-x,1/2+y,z
1/2+x,-y,z
loop_
_atom_site_type_symbol
_atom_site_label
_atom_site_fract_x
_atom_site_fract_y
_atom_site_fract_z
Si Si1 0.769350 0.186986 0.795806
Si Si2 0.297638 0.091093 0.275377
Si Si3 0.090809 0.449461 0.450942
Si Si4 0.345193 0.462891 0.912583
Si Si5 0.426356 0.833600 0.503151
Si Si6 0.024747 0.337326 0.695454
Si Si7 0.177617 0.919683 0.086610
Si Si8 0.538620 0.789792 0.673492
O O1 0.750000 0.250000 0.842412
O O2 0.613415 0.163539 0.760366
O O3 0.840256 0.133695 0.848084
O O4 0.875138 0.202523 0.715044
O O5 0.363845 0.047062 0.348391
O O6 0.314646 0.072323 0.176073
O O7 0.125834 0.106571 0.291152
O O8 0.372877 0.153658 0.295471
O O9 0.250000 0.438861 0.500000
O O10 0.000000 0.500000 0.500000
O O11 0.976737 0.395710 0.457907
O O12 0.293459 0.528762 0.889824
O O13 0.519688 0.451246 0.929620
O O14 0.250000 0.447270 0.000000
O O15 0.250000 0.823381 0.500000
O O16 0.476269 0.836303 0.404230
O O17 0.512720 0.791576 0.570021
O O18 0.096224 0.272787 0.705103
O O19 0.250000 0.893533 0.000000
#
# Coordination Sequence:
#
# PCOD9396876 Si02
#       8
#     8   8   8   8   8   8   8   8
#     4  10  22  40  65  97 130 171 217 266 332 398
#     4  11  24  42  64  91 132 169 213 269 334 390
#     4  11  24  42  59  89 127 168 214 258 322 396
#     4  11  25  44  71 100 127 167 221 276 331 389
#     4  11  21  37  59  88 125 167 216 268 312 375
#     4  11  22  36  64  92 128 170 221 264 325 383
#     4  11  24  44  70  97 131 164 211 271 328 399
#     4  10  21  39  60  92 127 172 213 271 319 390
#
# _framework density 20.175602000000001
#
# number of rings (size 3 to 8) (size 9 to 14) (size 15 to 20)
#    0.000    1.250    3.750    2.625    3.500    2.750 
#    0.000    1.250    0.000    1.500    0.000    0.000 
#    0.000    0.000    0.000    0.000    0.000    0.000 
#
# Total GULP energy -356781.732888 kJ/mol
# GULP energy per Si atom -5574.714576 kJ/mol
# Density = 2.012968 g / cm^3
# Si number density = 20.175602 Si / 1000 Ang^3
#
#
#
# Elastic Constant Matrix: (Units=GPa)
#
#
# Indices 1 2 3 4 5 6 
#
# 1 75.9798 20.7109 20.9856 0.0000 0.0000 0.0000
# 2 20.7109 72.2642 40.1906 0.0000 0.0000 0.0000
# 3 20.9856 40.1906 108.6490 0.0000 0.0000 0.0000
# 4 0.0000 0.0000 0.0000 30.6327 0.0000 0.0000
# 5 0.0000 0.0000 0.0000 0.0000 18.7045 0.0000
# 6 0.0000 0.0000 0.0000 0.0000 0.0000 16.6978
#
#
#
# Elastic Compliance Matrix: (Units=1/GPa)
#
#
# Indices 1 2 3 4 5 6 
#
# 1 0.014492 -0.003269 -0.001590 0.000000 0.000000 0.000000
# 2 -0.003269 0.018160 -0.006086 0.000000 0.000000 0.000000
# 3 -0.001590 -0.006086 0.011762 0.000000 0.000000 0.000000
# 4 0.000000 0.000000 0.000000 0.032645 0.000000 0.000000
# 5 0.000000 0.000000 0.000000 0.000000 0.053463 0.000000
# 6 0.000000 0.000000 0.000000 0.000000 0.000000 0.059888
#
#
# Mechanical properties :
#
#
# Convention : Reuss Voigt Hill
#
# Bulk Modulus (GPa) = 44.39749 46.74080 45.56915
# Shear Modulus (GPa) = 22.74713 24.87405 23.81059
#
# Velocity S-wave (km/s) = 3.36141 3.51505 3.43908
# Velocity P-wave (km/s) = 6.09251 6.30011 6.19718
#
# Compressibility (1/GPa) = 0.02252379
#
# Stress axis : x y z
#
# Youngs Moduli (GPa) = 69.00551 55.06634 85.01701
#
# Poissons Ratio (x) = 0.18002 0.13516
# Poissons Ratio (y) = 0.22559 0.51743
# Poissons Ratio (z) = 0.10970 0.33514
#
# Static dielectric constant tensor:
#      x y z
#    x 1.708180 0.000000 0.000000 
#    y 0.000000 2.297980 0.000000 
#    z 0.000000 0.000000 1.711440 
# 
# From -- ./inp_files/25409.got.cif
#   From: 2010.05.17/outbox.cif.g08.bks.cpg/sg50_13_cif.got.tgz:25409.got - 2010.06.03 11:33:33.
