data_PCOD9396991
_publ_section_title
;
Structure prediction by ZEFSAII (Michael W. Deem and Ramdas Pophale) SiO2 
 PCOD9396991
Probable space group: P B A N
;
_chemical_formula_sum "Si O2"
_cell_formula_units_Z 60
_cell_length_a 24.858436
_cell_length_b 18.977128
_cell_length_c 5.773967
_cell_angle_alpha 90.000000
_cell_angle_beta 90.000000
_cell_angle_gamma 90.000000
_cell_volume 2723.821134
_symmetry_space_group_name_H-M "P B A N"
_symmetry_group_IT_number 50
_space_group.IT_coordinate_system_code '2'
_symmetry_cell_setting 'orthorhombic'
loop_
_space_group_symop_operation_xyz
x,y,z
1/2-x,1/2-y,z
x,1/2-y,-z
1/2-x,y,-z
-x,-y,-z
1/2+x,1/2+y,-z
-x,1/2+y,z
1/2+x,-y,z
loop_
_atom_site_type_symbol
_atom_site_label
_atom_site_fract_x
_atom_site_fract_y
_atom_site_fract_z
Si Si1 0.402280 0.150036 0.677732
Si Si2 0.811067 0.579789 0.510848
Si Si3 0.824106 0.287043 0.247463
Si Si4 0.887098 0.967870 0.069064
Si Si5 0.013830 0.068373 0.636846
Si Si6 0.696254 0.446870 0.842710
Si Si7 0.050303 0.808204 0.302461
Si Si8 0.538184 0.750000 0.000000
O O1 0.344989 0.148973 0.559690
O O2 0.446712 0.121349 0.500882
O O3 0.424817 0.217867 0.803147
O O4 0.391457 0.089072 0.866070
O O5 0.750000 0.601923 0.500000
O O6 0.843066 0.556846 0.741397
O O7 0.808429 0.508020 0.351771
O O8 0.812037 0.250000 0.500000
O O9 0.802029 0.367004 0.248940
O O10 0.889109 0.291562 0.235644
O O11 0.808327 0.250000 0.000000
O O12 0.947826 0.963209 0.162697
O O13 0.859788 0.040424 0.983550
O O14 0.957441 0.110465 0.637978
O O15 0.000000 0.000000 0.500000
O O16 0.750000 0.458483 0.000000
O O17 0.036580 0.750000 0.500000
O O18 0.004082 0.804829 0.105850
#
# Coordination Sequence:
#
# PCOD9396991 Si02
#       8
#     8   8   8   8   8   8   8   4
#     4  10  23  37  63  98 122 178 219 274 339 407
#     4  10  21  41  66  98 129 166 221 284 353 418
#     4  11  28  47  68 101 141 184 240 295 348 424
#     4  10  22  39  61  96 132 161 217 275 337 411
#     4  11  24  38  60  98 133 171 222 284 339 406
#     4  11  24  43  71  98 126 181 226 285 361 413
#     4  11  23  41  64  93 137 188 225 272 349 424
#     4  12  20  42  64  91 135 178 232 260 340 430
#
# _framework density 22.02788
#
# number of rings (size 3 to 8) (size 9 to 14) (size 15 to 20)
#    0.000    1.333    4.667    0.000    7.467    2.933 
#    0.000    0.667    0.000    2.400    0.000    0.000 
#    0.000    0.000    0.000    0.000    0.000    0.000 
#
# Total GULP energy -334154.379777 kJ/mol
# GULP energy per Si atom -5569.239663 kJ/mol
# Density = 2.197774 g / cm^3
# Si number density = 22.027880 Si / 1000 Ang^3
#
#
#
# Elastic Constant Matrix: (Units=GPa)
#
#
# Indices 1 2 3 4 5 6 
#
# 1 113.4541 17.2361 18.4910 0.0000 0.0000 0.0000
# 2 17.2361 65.2096 2.5936 0.0000 0.0000 0.0000
# 3 18.4910 2.5936 53.3709 0.0000 0.0000 0.0000
# 4 0.0000 0.0000 0.0000 26.8304 0.0000 0.0000
# 5 0.0000 0.0000 0.0000 0.0000 -36.2827 0.0000
# 6 0.0000 0.0000 0.0000 0.0000 0.0000 20.1462
#
#
#
# Elastic Compliance Matrix: (Units=1/GPa)
#
#
# Indices 1 2 3 4 5 6 
#
# 1 0.009714 -0.002438 -0.003247 0.000000 0.000000 0.000000
# 2 -0.002438 0.015977 0.000068 0.000000 0.000000 0.000000
# 3 -0.003247 0.000068 0.019858 0.000000 0.000000 0.000000
# 4 0.000000 0.000000 0.000000 0.037271 0.000000 0.000000
# 5 0.000000 0.000000 0.000000 0.000000 -0.027561 0.000000
# 6 0.000000 0.000000 0.000000 0.000000 0.000000 0.049637
#
#
# Mechanical properties :
#
#
# Convention : Reuss Voigt Hill
#
# Bulk Modulus (GPa) = 29.14155 34.29733 31.71944
# Shear Modulus (GPa) = 39.19468 15.05306 27.12387
#
# Velocity S-wave (km/s) = 4.22278 2.61696 3.51286
# Velocity P-wave (km/s) = 6.08555 4.97344 5.55738
#
# Compressibility (1/GPa) = 0.03431527
#
# Stress axis : x y z
#
# Youngs Moduli (GPa) = 102.94661 62.59016 50.35644
#
# Poissons Ratio (x) = 0.15262 0.16351
# Poissons Ratio (y) = 0.25102 -0.00344
# Poissons Ratio (z) = 0.33426 -0.00428
#
# Static dielectric constant tensor:
#      x y z
#    x 2.000780 0.000000 0.000000 
#    y 0.000000 0.860150 0.000000 
#    z 0.000000 0.000000 1.950740 
# 
# From -- ./inp_files/6113.got.cif
#   From: 2010.05.17/outbox.cif.g08.bks.cpg/sg50_4_cif.got.tgz:6113.got - 2010.06.03 11:33:33.
