data_PCOD9396100
_publ_section_title
;
Structure prediction by ZEFSAII (Michael W. Deem and Ramdas Pophale) SiO2 
 PCOD9396100
Probable space group: P B A N
;
_chemical_formula_sum "Si O2"
_cell_formula_units_Z 48
_cell_length_a 23.455476
_cell_length_b 11.615170
_cell_length_c 9.205061
_cell_angle_alpha 90.000000
_cell_angle_beta 90.000000
_cell_angle_gamma 90.000000
_cell_volume 2507.820754
_symmetry_space_group_name_H-M "P B A N"
_symmetry_group_IT_number 50
_space_group.IT_coordinate_system_code '2'
_symmetry_cell_setting 'orthorhombic'
loop_
_space_group_symop_operation_xyz
x,y,z
1/2-x,1/2-y,z
x,1/2-y,-z
1/2-x,y,-z
-x,-y,-z
1/2+x,1/2+y,-z
-x,1/2+y,z
1/2+x,-y,z
loop_
_atom_site_type_symbol
_atom_site_label
_atom_site_fract_x
_atom_site_fract_y
_atom_site_fract_z
Si Si1 0.150318 0.797509 0.345153
Si Si2 0.069894 0.015726 0.357411
Si Si3 0.905981 0.095822 0.146329
Si Si4 0.193769 0.878620 0.063104
Si Si5 0.552805 0.598210 0.340457
Si Si6 0.465383 0.186135 0.855455
O O1 0.170868 0.750000 0.500000
O O2 0.121109 0.693431 0.253187
O O3 0.194268 0.859934 0.235714
O O4 0.104842 0.898765 0.373081
O O5 0.079196 0.095007 0.498956
O O6 0.075363 0.087563 0.209116
O O7 0.004169 0.977968 0.352384
O O8 0.970773 0.137169 0.112585
O O9 0.908602 0.975178 0.230557
O O10 0.866217 0.081719 0.005136
O O11 0.195429 0.750000 0.000000
O O12 0.250000 0.939638 0.000000
O O13 0.533898 0.718577 0.272196
O O14 0.445452 0.250000 0.000000
#
# Coordination Sequence:
#
# PCOD9396100 Si02
#       6
#     8   8   8   8   8   8
#     4  11  19  34  57  81 108 145 186 220 274 332
#     4  10  21  32  51  75 109 150 184 223 270 330
#     4  10  20  34  53  76 111 150 181 229 278 326
#     4   9  20  37  55  77 110 146 178 235 285 325
#     4  10  20  33  50  73 111 149 186 223 270 324
#     4  11  22  32  48  78 112 153 191 221 263 330
#
# _framework density 19.140122999999999
#
# number of rings (size 3 to 8) (size 9 to 14) (size 15 to 20)
#    0.000    1.833    3.333    2.000    2.333    1.333 
#    0.000    6.667    0.000    0.000    0.000    2.333 
#    0.000    2.667    0.000    0.000    0.000    0.000 
#
# Total GULP energy -267411.927155 kJ/mol
# GULP energy per Si atom -5571.081816 kJ/mol
# Density = 1.909656 g / cm^3
# Si number density = 19.140123 Si / 1000 Ang^3
#
#
#
# Elastic Constant Matrix: (Units=GPa)
#
#
# Indices 1 2 3 4 5 6 
#
# 1 43.9987 21.1968 40.8235 0.0000 0.0000 0.0000
# 2 21.1968 44.1171 33.5505 0.0000 0.0000 0.0000
# 3 40.8235 33.5505 140.2077 0.0000 0.0000 0.0000
# 4 0.0000 0.0000 0.0000 21.9197 0.0000 0.0000
# 5 0.0000 0.0000 0.0000 0.0000 7.3569 0.0000
# 6 0.0000 0.0000 0.0000 0.0000 0.0000 6.2265
#
#
#
# Elastic Compliance Matrix: (Units=1/GPa)
#
#
# Indices 1 2 3 4 5 6 
#
# 1 0.035096 -0.011114 -0.007559 0.000000 0.000000 0.000000
# 2 -0.011114 0.031229 -0.004237 0.000000 0.000000 0.000000
# 3 -0.007559 -0.004237 0.010347 0.000000 0.000000 0.000000
# 4 0.000000 0.000000 0.000000 0.045621 0.000000 0.000000
# 5 0.000000 0.000000 0.000000 0.000000 0.135927 0.000000
# 6 0.000000 0.000000 0.000000 0.000000 0.000000 0.160605
#
#
# Mechanical properties :
#
#
# Convention : Reuss Voigt Hill
#
# Bulk Modulus (GPa) = 32.41270 46.60726 39.50998
# Shear Modulus (GPa) = 10.52792 15.95079 13.23936
#
# Velocity S-wave (km/s) = 2.34785 2.88995 2.63289
# Velocity P-wave (km/s) = 4.93164 5.96147 5.47084
#
# Compressibility (1/GPa) = 0.03085211
#
# Stress axis : x y z
#
# Youngs Moduli (GPa) = 28.49349 32.02175 96.64541
#
# Poissons Ratio (x) = 0.35588 0.73056
# Poissons Ratio (y) = 0.31667 0.40948
# Poissons Ratio (z) = 0.21539 0.13567
#
# Static dielectric constant tensor:
#      x y z
#    x 1.705280 0.000000 0.000000 
#    y 0.000000 1.699530 0.000000 
#    z 0.000000 0.000000 1.751410 
# 
# From -- ./inp_files/11568.got.cif
#   From: 2010.05.17/outbox.cif.g08.bks.cpg/sg50_6_cif.got.tgz:11568.got - 2010.06.03 11:33:33.
