data_PCOD9396550
_publ_section_title
;
Structure prediction by ZEFSAII (Michael W. Deem and Ramdas Pophale) SiO2 
 PCOD9396550
Probable space group: P B A N
;
_chemical_formula_sum "Si O2"
_cell_formula_units_Z 64
_cell_length_a 15.512381
_cell_length_b 18.326185
_cell_length_c 11.043439
_cell_angle_alpha 90.000000
_cell_angle_beta 90.000000
_cell_angle_gamma 90.000000
_cell_volume 3139.459363
_symmetry_space_group_name_H-M "P B A N"
_symmetry_group_IT_number 50
_space_group.IT_coordinate_system_code '2'
_symmetry_cell_setting 'orthorhombic'
loop_
_space_group_symop_operation_xyz
x,y,z
1/2-x,1/2-y,z
x,1/2-y,-z
1/2-x,y,-z
-x,-y,-z
1/2+x,1/2+y,-z
-x,1/2+y,z
1/2+x,-y,z
loop_
_atom_site_type_symbol
_atom_site_label
_atom_site_fract_x
_atom_site_fract_y
_atom_site_fract_z
Si Si1 0.010520 0.673558 0.146742
Si Si2 0.374670 0.563512 0.703915
Si Si3 0.577237 0.050960 0.446244
Si Si4 0.683282 0.887232 0.113206
Si Si5 0.554831 0.163845 0.122720
Si Si6 0.182565 0.957021 0.212899
Si Si7 0.439155 0.102141 0.288515
Si Si8 0.768603 0.835189 0.365248
O O1 0.053803 0.616305 0.238087
O O2 0.032476 0.757366 0.180781
O O3 0.909473 0.654940 0.118980
O O4 0.060457 0.667659 0.020149
O O5 0.369557 0.578446 0.560306
O O6 0.281587 0.563658 0.765356
O O7 0.405821 0.480056 0.712562
O O8 0.638170 0.018511 0.341219
O O9 0.522261 0.110228 0.373641
O O10 0.500000 0.000000 0.500000
O O11 0.724976 0.868646 0.245062
O O12 0.670693 0.975137 0.121053
O O13 0.750000 0.870203 0.000000
O O14 0.633677 0.115559 0.169380
O O15 0.468611 0.118777 0.154015
O O16 0.368308 0.153866 0.341008
O O17 0.750000 0.750000 0.368144
O O18 0.750000 0.866887 0.500000
#
# Coordination Sequence:
#
# PCOD9396550 Si02
#       8
#     8   8   8   8   8   8   8   8
#     4  11  25  43  67  92 132 180 227 277 347 410
#     4  11  23  38  68 101 129 174 227 281 339 409
#     4   9  20  37  64  96 129 174 212 274 337 408
#     4  12  26  42  71 104 137 180 232 293 340 413
#     4  10  24  45  63  89 131 181 223 279 339 413
#     4  11  24  41  66  99 136 171 225 286 339 402
#     4  10  20  40  64  91 133 166 223 275 336 406
#     4  11  25  40  63 100 140 178 218 276 347 421
#
# _framework density 20.385674999999999
#
# number of rings (size 3 to 8) (size 9 to 14) (size 15 to 20)
#    0.000    1.375    1.250    4.125    7.000    2.750 
#    0.000    3.125    0.000    3.000    0.000    0.000 
#    0.000    0.000    0.000    0.000    0.000    0.000 
#
# Total GULP energy -356541.031588 kJ/mol
# GULP energy per Si atom -5570.953619 kJ/mol
# Density = 2.033928 g / cm^3
# Si number density = 20.385675 Si / 1000 Ang^3
#
#
#
# Elastic Constant Matrix: (Units=GPa)
#
#
# Indices 1 2 3 4 5 6 
#
# 1 82.2030 47.7316 22.0905 0.0000 0.0000 0.0000
# 2 47.7316 93.2309 30.3442 0.0000 0.0000 0.0000
# 3 22.0905 30.3442 86.8663 0.0000 0.0000 0.0000
# 4 0.0000 0.0000 0.0000 87.9240 0.0000 0.0000
# 5 0.0000 0.0000 0.0000 0.0000 43.3016 0.0000
# 6 0.0000 0.0000 0.0000 0.0000 0.0000 36.7163
#
#
#
# Elastic Compliance Matrix: (Units=1/GPa)
#
#
# Indices 1 2 3 4 5 6 
#
# 1 0.017480 -0.008465 -0.001488 0.000000 0.000000 0.000000
# 2 -0.008465 0.016201 -0.003507 0.000000 0.000000 0.000000
# 3 -0.001488 -0.003507 0.013115 0.000000 0.000000 0.000000
# 4 0.000000 0.000000 0.000000 0.011373 0.000000 0.000000
# 5 0.000000 0.000000 0.000000 0.000000 0.023094 0.000000
# 6 0.000000 0.000000 0.000000 0.000000 0.000000 0.027236
#
#
# Mechanical properties :
#
#
# Convention : Reuss Voigt Hill
#
# Bulk Modulus (GPa) = 50.30993 51.40366 50.85679
# Shear Modulus (GPa) = 35.19996 44.39732 39.79864
#
# Velocity S-wave (km/s) = 4.15987 4.67183 4.42326
# Velocity P-wave (km/s) = 6.91414 7.37371 7.14762
#
# Compressibility (1/GPa) = 0.01987679
#
# Stress axis : x y z
#
# Youngs Moduli (GPa) = 57.20759 61.72366 76.24622
#
# Poissons Ratio (x) = 0.52249 0.11348
# Poissons Ratio (y) = 0.48426 0.26738
# Poissons Ratio (z) = 0.08514 0.21645
#
# Static dielectric constant tensor:
#      x y z
#    x 1.740790 0.000000 0.000000 
#    y 0.000000 1.784030 0.000000 
#    z 0.000000 0.000000 1.678150 
# 
# From -- ./inp_files/21362.got.cif
#   From: 2010.05.17/outbox.cif.g08.bks.cpg/sg50_11_cif.got.tgz:21362.got - 2010.06.03 11:33:33.
