data_PCOD9396215
_publ_section_title
;
Structure prediction by ZEFSAII (Michael W. Deem and Ramdas Pophale) SiO2 
 PCOD9396215
Probable space group: P B A N
;
_chemical_formula_sum "Si O2"
_cell_formula_units_Z 48
_cell_length_a 15.770034
_cell_length_b 8.585533
_cell_length_c 17.034434
_cell_angle_alpha 90.000000
_cell_angle_beta 90.000000
_cell_angle_gamma 90.000000
_cell_volume 2306.362666
_symmetry_space_group_name_H-M "P B A N"
_symmetry_group_IT_number 50
_space_group.IT_coordinate_system_code '2'
_symmetry_cell_setting 'orthorhombic'
loop_
_space_group_symop_operation_xyz
x,y,z
1/2-x,1/2-y,z
x,1/2-y,-z
1/2-x,y,-z
-x,-y,-z
1/2+x,1/2+y,-z
-x,1/2+y,z
1/2+x,-y,z
loop_
_atom_site_type_symbol
_atom_site_label
_atom_site_fract_x
_atom_site_fract_y
_atom_site_fract_z
Si Si1 0.966756 0.788409 0.859834
Si Si2 0.894356 0.051657 0.416310
Si Si3 0.894266 0.421027 0.054198
Si Si4 0.250000 0.750000 0.500000
Si Si5 0.203555 0.953487 0.904600
Si Si6 0.097831 0.002442 0.767800
Si Si7 0.250000 0.250000 0.000000
Si Si8 0.536059 0.750000 0.500000
O O1 0.914736 0.676438 0.801365
O O2 0.027544 0.672576 0.909280
O O3 0.915433 0.901711 0.918655
O O4 0.021067 0.899275 0.802288
O O5 0.811100 0.140803 0.447422
O O6 0.973401 0.165216 0.437848
O O7 0.893517 0.015767 0.324268
O O8 0.910052 0.888649 0.461415
O O9 0.874103 0.100546 0.038395
O O10 0.798622 0.388654 0.085320
O O11 0.178727 0.940796 0.815280
O O12 0.208127 0.128292 0.939615
#
# Coordination Sequence:
#
# PCOD9396215 Si02
#       8
#     8   8   8   2   8   8   2   4
#     4  10  22  37  57  86 117 155 198 243 283 336
#     4  10  21  41  64  92 120 155 196 244 298 365
#     4   9  21  39  56  78 115 161 203 234 285 345
#     4  10  24  42  64  90 124 154 192 246 304 366
#     4  10  20  35  57  79 113 156 194 240 290 340
#     4  11  22  36  59  89 119 147 191 245 292 334
#     4   8  16  36  52  70 108 158 192 212 272 348
#     4   9  20  42  68  83 116 164 196 225 300 386
#
# _framework density 20.811990999999999
#
# number of rings (size 3 to 8) (size 9 to 14) (size 15 to 20)
#    0.000    2.333    0.000    3.000    0.000    7.000 
#    0.000   11.667    0.000   12.000    0.000    0.000 
#    0.000    0.000    0.000    0.000    0.000    0.000 
#
# Total GULP energy -267850.715361 kJ/mol
# GULP energy per Si atom -5580.223237 kJ/mol
# Density = 2.076462 g / cm^3
# Si number density = 20.811991 Si / 1000 Ang^3
#
#
#
# Elastic Constant Matrix: (Units=GPa)
#
#
# Indices 1 2 3 4 5 6 
#
# 1 104.9167 55.1718 75.3944 0.0000 0.0000 0.0000
# 2 55.1718 120.5452 56.2960 0.0000 0.0000 0.0000
# 3 75.3944 56.2960 179.7098 0.0000 0.0000 0.0000
# 4 0.0000 0.0000 0.0000 21.4359 0.0000 0.0000
# 5 0.0000 0.0000 0.0000 0.0000 19.4060 0.0000
# 6 0.0000 0.0000 0.0000 0.0000 0.0000 44.3619
#
#
#
# Elastic Compliance Matrix: (Units=1/GPa)
#
#
# Indices 1 2 3 4 5 6 
#
# 1 0.015720 -0.004820 -0.005085 0.000000 0.000000 0.000000
# 2 -0.004820 0.011195 -0.001485 0.000000 0.000000 0.000000
# 3 -0.005085 -0.001485 0.008163 0.000000 0.000000 0.000000
# 4 0.000000 0.000000 0.000000 0.046651 0.000000 0.000000
# 5 0.000000 0.000000 0.000000 0.000000 0.051530 0.000000
# 6 0.000000 0.000000 0.000000 0.000000 0.000000 0.022542
#
#
# Mechanical properties :
#
#
# Convention : Reuss Voigt Hill
#
# Bulk Modulus (GPa) = 81.31227 86.54402 83.92814
# Shear Modulus (GPa) = 27.37002 31.59473 29.48238
#
# Velocity S-wave (km/s) = 3.63038 3.90051 3.76787
# Velocity P-wave (km/s) = 7.53177 7.87142 7.70347
#
# Compressibility (1/GPa) = 0.01229827
#
# Stress axis : x y z
#
# Youngs Moduli (GPa) = 63.61133 89.32430 122.50218
#
# Poissons Ratio (x) = 0.43055 0.62296
# Poissons Ratio (y) = 0.30661 0.18189
# Poissons Ratio (z) = 0.32348 0.13263
#
# Static dielectric constant tensor:
#      x y z
#    x 1.786290 0.000000 0.000000 
#    y 0.000000 1.900590 0.000000 
#    z 0.000000 0.000000 1.694450 
# 
# From -- ./inp_files/28774.got.cif
#   From: 2010.05.17/outbox.cif.g08.bks.cpg/sg50_15_cif.got.tgz:28774.got - 2010.06.03 11:33:33.
