data_PCOD9396143
_publ_section_title
;
Structure prediction by ZEFSAII (Michael W. Deem and Ramdas Pophale) SiO2 
 PCOD9396143
Probable space group: P B A N
;
_chemical_formula_sum "Si O2"
_cell_formula_units_Z 48
_cell_length_a 19.482680
_cell_length_b 26.399729
_cell_length_c 5.650366
_cell_angle_alpha 90.000000
_cell_angle_beta 90.000000
_cell_angle_gamma 90.000000
_cell_volume 2906.194965
_symmetry_space_group_name_H-M "P B A N"
_symmetry_group_IT_number 50
_space_group.IT_coordinate_system_code '2'
_symmetry_cell_setting 'orthorhombic'
loop_
_space_group_symop_operation_xyz
x,y,z
1/2-x,1/2-y,z
x,1/2-y,-z
1/2-x,y,-z
-x,-y,-z
1/2+x,1/2+y,-z
-x,1/2+y,z
1/2+x,-y,z
loop_
_atom_site_type_symbol
_atom_site_label
_atom_site_fract_x
_atom_site_fract_y
_atom_site_fract_z
Si Si1 0.483915 0.726583 0.252425
Si Si2 0.250000 0.569776 0.500000
Si Si3 0.055412 0.624063 0.922810
Si Si4 0.693803 0.340187 0.187616
Si Si5 0.351078 0.750000 0.500000
Si Si6 0.104334 0.969640 0.401965
Si Si7 0.491194 0.043300 0.802967
O O1 0.513072 0.750000 0.500000
O O2 0.482759 0.666067 0.233752
O O3 0.402609 0.737110 0.285988
O O4 0.506795 0.750000 0.000000
O O5 0.275182 0.607796 0.706948
O O6 0.315472 0.535996 0.440327
O O7 0.085197 0.577439 0.770426
O O8 0.998480 0.598725 0.090907
O O9 0.119632 0.647563 0.069288
O O10 0.684811 0.299741 0.398811
O O11 0.750000 0.320611 0.000000
O O12 0.056225 0.961005 0.629216
O O13 0.078980 0.024701 0.315728
O O14 0.500000 0.000000 0.000000
#
# Coordination Sequence:
#
# PCOD9396143 Si02
#       7
#     8   4   8   8   4   8   8
#     4  10  21  35  53  71  99 138 184 233 271 316
#     4  12  22  35  54  74 104 132 188 243 288 328
#     4  11  19  37  53  66  98 135 187 236 276 325
#     4  12  24  37  46  70 101 150 190 240 281 313
#     4  10  24  39  44  66 106 146 192 235 274 317
#     4  10  20  34  54  79  94 132 178 239 283 334
#     4   9  20  35  55  72  97 127 180 229 280 341
#
# _framework density 16.516442000000001
#
# number of rings (size 3 to 8) (size 9 to 14) (size 15 to 20)
#    0.500    1.000    5.000    1.000    2.333    0.333 
#    4.500    0.000    0.000    0.000    0.000    0.000 
#    0.000    0.000    0.000    0.000    0.000   69.167 
#
# Total GULP energy -267220.959240 kJ/mol
# GULP energy per Si atom -5567.103317 kJ/mol
# Density = 1.647885 g / cm^3
# Si number density = 16.516442 Si / 1000 Ang^3
#
#
#
# Elastic Constant Matrix: (Units=GPa)
#
#
# Indices 1 2 3 4 5 6 
#
# 1 62.9816 41.4636 22.1316 0.0000 0.0000 0.0000
# 2 41.4636 72.9620 26.0459 0.0000 0.0000 0.0000
# 3 22.1316 26.0459 74.5185 0.0000 0.0000 0.0000
# 4 0.0000 0.0000 0.0000 41.5131 0.0000 0.0000
# 5 0.0000 0.0000 0.0000 0.0000 17.1943 0.0000
# 6 0.0000 0.0000 0.0000 0.0000 0.0000 192.9600
#
#
#
# Elastic Compliance Matrix: (Units=1/GPa)
#
#
# Indices 1 2 3 4 5 6 
#
# 1 0.025910 -0.013685 -0.002912 0.000000 0.000000 0.000000
# 2 -0.013685 0.022888 -0.003935 0.000000 0.000000 0.000000
# 3 -0.002912 -0.003935 0.015660 0.000000 0.000000 0.000000
# 4 0.000000 0.000000 0.000000 0.024089 0.000000 0.000000
# 5 0.000000 0.000000 0.000000 0.000000 0.058159 0.000000
# 6 0.000000 0.000000 0.000000 0.000000 0.000000 0.005182
#
#
# Mechanical properties :
#
#
# Convention : Reuss Voigt Hill
#
# Bulk Modulus (GPa) = 42.74782 43.30494 43.02638
# Shear Modulus (GPa) = 24.90649 58.38820 41.64735
#
# Velocity S-wave (km/s) = 3.88749 5.95217 5.02697
# Velocity P-wave (km/s) = 6.78883 8.57403 7.73312
#
# Compressibility (1/GPa) = 0.02339300
#
# Stress axis : x y z
#
# Youngs Moduli (GPa) = 38.59442 43.69150 63.85764
#
# Poissons Ratio (x) = 0.59792 0.18595
# Poissons Ratio (y) = 0.52817 0.25130
# Poissons Ratio (z) = 0.11239 0.17194
#
# Static dielectric constant tensor:
#      x y z
#    x 1.547640 0.000000 0.000000 
#    y 0.000000 1.593240 0.000000 
#    z 0.000000 0.000000 1.677840 
# 
# From -- ./inp_files/3720.got.cif
#   From: 2010.05.17/outbox.cif.g08.bks.cpg/sg50_2_cif.got.tgz:3720.got - 2010.06.03 11:33:33.
