data_PCOD9396261
_publ_section_title
;
Structure prediction by ZEFSAII (Michael W. Deem and Ramdas Pophale) SiO2 
 PCOD9396261
Probable space group: P B A N
;
_chemical_formula_sum "Si O2"
_cell_formula_units_Z 64
_cell_length_a 25.701101
_cell_length_b 15.063183
_cell_length_c 8.964851
_cell_angle_alpha 90.000000
_cell_angle_beta 90.000000
_cell_angle_gamma 90.000000
_cell_volume 3470.655891
_symmetry_space_group_name_H-M "P B A N"
_symmetry_group_IT_number 50
_space_group.IT_coordinate_system_code '2'
_symmetry_cell_setting 'orthorhombic'
loop_
_space_group_symop_operation_xyz
x,y,z
1/2-x,1/2-y,z
x,1/2-y,-z
1/2-x,y,-z
-x,-y,-z
1/2+x,1/2+y,-z
-x,1/2+y,z
1/2+x,-y,z
loop_
_atom_site_type_symbol
_atom_site_label
_atom_site_fract_x
_atom_site_fract_y
_atom_site_fract_z
Si Si1 0.497918 0.909159 0.725395
Si Si2 0.072493 0.961555 0.900804
Si Si3 0.662917 0.255801 0.677351
Si Si4 0.045661 0.776323 0.774508
Si Si5 0.043165 0.341383 0.567241
Si Si6 0.685472 0.073711 0.839179
Si Si7 0.798030 0.438356 0.195287
Si Si8 0.403938 0.019710 0.761354
O O1 0.488247 0.812927 0.801708
O O2 0.531910 0.899941 0.577169
O O3 0.441635 0.948307 0.682313
O O4 0.527921 0.978842 0.828441
O O5 0.056034 0.856967 0.891212
O O6 0.128086 0.966910 0.814638
O O7 0.082931 0.999431 0.065575
O O8 0.667053 0.250000 0.500000
O O9 0.602253 0.256858 0.724550
O O10 0.684816 0.170142 0.763359
O O11 0.691896 0.343820 0.729527
O O12 0.013001 0.821417 0.641240
O O13 0.064840 0.250000 0.500000
O O14 0.077797 0.387513 0.692935
O O15 0.738951 0.029085 0.784457
O O16 0.691473 0.077726 0.018692
O O17 0.843072 0.502193 0.255933
#
# Coordination Sequence:
#
# PCOD9396261 Si02
#       8
#     8   8   8   8   8   8   8   8
#     4  11  20  35  56  77 111 150 180 227 282 331
#     4  10  22  36  54  82 114 142 184 242 270 334
#     4  11  20  31  50  77 112 148 188 227 257 323
#     4  10  21  35  53  80 115 151 187 217 279 339
#     4  10  22  37  53  78 112 151 185 222 281 347
#     4   9  21  37  51  72 109 147 188 224 278 329
#     4  10  20  36  54  73 103 151 187 226 275 333
#     4  11  21  35  55  81 108 140 193 230 277 329
#
# _framework density 18.440318000000001
#
# number of rings (size 3 to 8) (size 9 to 14) (size 15 to 20)
#    0.000    1.750    2.500    2.625    0.000    3.500 
#    2.250    0.000    0.000    0.000    0.000    6.125 
#    0.000   16.000    0.000    0.000    0.000    0.250 
#
# Total GULP energy -356806.954891 kJ/mol
# GULP energy per Si atom -5575.108670 kJ/mol
# Density = 1.839835 g / cm^3
# Si number density = 18.440318 Si / 1000 Ang^3
#
#
#
# Elastic Constant Matrix: (Units=GPa)
#
#
# Indices 1 2 3 4 5 6 
#
# 1 126.2944 37.3540 20.9800 0.0000 0.0000 0.0000
# 2 37.3540 71.2286 27.6319 0.0000 0.0000 0.0000
# 3 20.9800 27.6319 40.8762 0.0000 0.0000 0.0000
# 4 0.0000 0.0000 0.0000 27.4253 0.0000 0.0000
# 5 0.0000 0.0000 0.0000 0.0000 8.2261 0.0000
# 6 0.0000 0.0000 0.0000 0.0000 0.0000 24.6902
#
#
#
# Elastic Compliance Matrix: (Units=1/GPa)
#
#
# Indices 1 2 3 4 5 6 
#
# 1 0.009496 -0.004187 -0.002043 0.000000 0.000000 0.000000
# 2 -0.004187 0.020876 -0.011963 0.000000 0.000000 0.000000
# 3 -0.002043 -0.011963 0.033600 0.000000 0.000000 0.000000
# 4 0.000000 0.000000 0.000000 0.036463 0.000000 0.000000
# 5 0.000000 0.000000 0.000000 0.000000 0.121565 0.000000
# 6 0.000000 0.000000 0.000000 0.000000 0.000000 0.040502
#
#
# Mechanical properties :
#
#
# Convention : Reuss Voigt Hill
#
# Bulk Modulus (GPa) = 36.25194 45.59236 40.92215
# Shear Modulus (GPa) = 16.22943 22.23054 19.22999
#
# Velocity S-wave (km/s) = 2.96988 3.47586 3.23278
# Velocity P-wave (km/s) = 5.60910 6.39427 6.01451
#
# Compressibility (1/GPa) = 0.02758473
#
# Stress axis : x y z
#
# Youngs Moduli (GPa) = 105.30870 47.90208 29.76230
#
# Poissons Ratio (x) = 0.20058 0.06081
# Poissons Ratio (y) = 0.44095 0.35604
# Poissons Ratio (z) = 0.21518 0.57304
#
# Static dielectric constant tensor:
#      x y z
#    x 1.666150 0.000000 0.000000 
#    y 0.000000 1.643270 0.000000 
#    z 0.000000 0.000000 1.663810 
# 
# From -- ./inp_files/16121.got.cif
#   From: 2010.05.17/outbox.cif.g08.bks.cpg/sg50_9_cif.got.tgz:16121.got - 2010.06.03 11:33:33.
