data_PCOD9396744
_publ_section_title
;
Structure prediction by ZEFSAII (Michael W. Deem and Ramdas Pophale) SiO2 
 PCOD9396744
Probable space group: P B A N
;
_chemical_formula_sum "Si O2"
_cell_formula_units_Z 32
_cell_length_a 5.302980
_cell_length_b 38.366121
_cell_length_c 7.148044
_cell_angle_alpha 90.000000
_cell_angle_beta 90.000000
_cell_angle_gamma 90.000000
_cell_volume 1454.303665
_symmetry_space_group_name_H-M "P B A N"
_symmetry_group_IT_number 50
_space_group.IT_coordinate_system_code '2'
_symmetry_cell_setting 'orthorhombic'
loop_
_space_group_symop_operation_xyz
x,y,z
1/2-x,1/2-y,z
x,1/2-y,-z
1/2-x,y,-z
-x,-y,-z
1/2+x,1/2+y,-z
-x,1/2+y,z
1/2+x,-y,z
loop_
_atom_site_type_symbol
_atom_site_label
_atom_site_fract_x
_atom_site_fract_y
_atom_site_fract_z
Si Si1 0.999485 0.916125 0.873031
Si Si2 0.000357 0.734558 0.290267
Si Si3 0.998705 0.838195 0.871448
Si Si4 0.674536 0.485790 0.285642
O O1 0.984425 0.877237 0.788376
O O2 0.049418 0.947816 0.732141
O O3 0.750000 0.921097 0.000000
O O4 0.250000 0.916094 0.000000
O O5 0.750000 0.750000 0.201831
O O6 0.000279 0.750000 0.500000
O O7 0.002867 0.693028 0.276704
O O8 0.250000 0.750000 0.200940
O O9 0.750000 0.833976 0.000000
O O10 0.250000 0.835747 0.000000
O O11 0.750000 0.494091 0.500000
O O12 0.456688 0.510809 0.200913
#
# Coordination Sequence:
#
# PCOD9396744 Si02
#       4
#     8   8   8   8
#     4  10  21  37  58  85 116 148 193 238 285 342
#     4  10  21  37  56  81 114 143 185 239 275 341
#     4  10  21  37  58  83 114 150 187 234 288 341
#     4  10  21  37  57  83 118 153 193 235 284 340
#
# _framework density 22.003658999999999
#
# number of rings (size 3 to 8) (size 9 to 14) (size 15 to 20)
#    0.000    2.000    0.000    3.000    0.000    6.000 
#    4.500    0.000   11.000    0.000    0.000    0.000 
#    0.000    0.000    0.000    0.000    0.000    0.000 
#
# Total GULP energy -178463.756325 kJ/mol
# GULP energy per Si atom -5576.992385 kJ/mol
# Density = 2.195358 g / cm^3
# Si number density = 22.003659 Si / 1000 Ang^3
#
#
#
# Elastic Constant Matrix: (Units=GPa)
#
#
# Indices 1 2 3 4 5 6 
#
# 1 223.2449 53.2269 22.6449 0.0000 0.0000 0.0000
# 2 53.2269 204.0056 34.5901 0.0000 0.0000 0.0000
# 3 22.6449 34.5901 63.8313 0.0000 0.0000 0.0000
# 4 0.0000 0.0000 0.0000 94.8111 0.0000 0.0000
# 5 0.0000 0.0000 0.0000 0.0000 -4.5477 0.0000
# 6 0.0000 0.0000 0.0000 0.0000 0.0000 31.6715
#
#
#
# Elastic Compliance Matrix: (Units=1/GPa)
#
#
# Indices 1 2 3 4 5 6 
#
# 1 0.004851 -0.001072 -0.001140 0.000000 0.000000 0.000000
# 2 -0.001072 0.005635 -0.002673 0.000000 0.000000 0.000000
# 3 -0.001140 -0.002673 0.017519 0.000000 0.000000 0.000000
# 4 0.000000 0.000000 0.000000 0.010547 0.000000 0.000000
# 5 0.000000 0.000000 0.000000 0.000000 -0.219889 0.000000
# 6 0.000000 0.000000 0.000000 0.000000 0.000000 0.031574
#
#
# Mechanical properties :
#
#
# Convention : Reuss Voigt Hill
#
# Bulk Modulus (GPa) = 54.84150 79.11173 66.97662
# Shear Modulus (GPa) = -37.33724 49.76163 6.21219
#
# Velocity S-wave (km/s) = -4.12377 4.76070 1.68208
# Velocity P-wave (km/s) = 1.51787 8.13947 5.85469
#
# Compressibility (1/GPa) = 0.01823437
#
# Stress axis : x y z
#
# Youngs Moduli (GPa) = 206.15731 177.46719 57.08030
#
# Poissons Ratio (x) = 0.19030 0.06506
# Poissons Ratio (y) = 0.22107 0.15258
# Poissons Ratio (z) = 0.23496 0.47439
#
# Static dielectric constant tensor:
#      x y z
#    x 1.902020 0.000000 0.000000 
#    y 0.000000 1.832420 0.000000 
#    z 0.000000 0.000000 1.791920 
# 
# From -- ./inp_files/7992.got.cif
#   From: 2010.05.17/outbox.cif.g08.bks.cpg/sg50_4_cif.got.tgz:7992.got - 2010.06.03 11:33:33.
