data_PCOD9396427
_publ_section_title
;
Structure prediction by ZEFSAII (Michael W. Deem and Ramdas Pophale) SiO2 
 PCOD9396427
Probable space group: P B A N
;
_chemical_formula_sum "Si O2"
_cell_formula_units_Z 44
_cell_length_a 15.296060
_cell_length_b 25.042975
_cell_length_c 5.371214
_cell_angle_alpha 90.000000
_cell_angle_beta 90.000000
_cell_angle_gamma 90.000000
_cell_volume 2057.491048
_symmetry_space_group_name_H-M "P B A N"
_symmetry_group_IT_number 50
_space_group.IT_coordinate_system_code '2'
_symmetry_cell_setting 'orthorhombic'
loop_
_space_group_symop_operation_xyz
x,y,z
1/2-x,1/2-y,z
x,1/2-y,-z
1/2-x,y,-z
-x,-y,-z
1/2+x,1/2+y,-z
-x,1/2+y,z
1/2+x,-y,z
loop_
_atom_site_type_symbol
_atom_site_label
_atom_site_fract_x
_atom_site_fract_y
_atom_site_fract_z
Si Si1 0.546736 0.946226 0.917482
Si Si2 0.049555 0.312857 0.481994
Si Si3 0.096954 0.886704 0.305703
Si Si4 0.157786 0.512484 0.389209
Si Si5 0.750000 0.412624 0.000000
Si Si6 0.352999 0.147495 0.974309
O O1 0.472019 0.901877 0.907867
O O2 0.592980 0.964106 0.661472
O O3 0.625311 0.916066 0.053500
O O4 0.500000 0.000000 0.000000
O O5 0.033598 0.250000 0.500000
O O6 0.105058 0.327501 0.726995
O O7 0.956173 0.344108 0.467333
O O8 0.102798 0.329572 0.230061
O O9 0.111563 0.942933 0.444218
O O10 0.191713 0.876971 0.185915
O O11 0.250000 0.494469 0.500000
O O12 0.186292 0.546915 0.146921
O O13 0.250000 0.156114 0.000000
#
# Coordination Sequence:
#
# PCOD9396427 Si02
#       6
#     8   8   8   8   4   8
#     4  11  21  36  61  90 132 171 215 253 315 389
#     4  11  25  46  71  97 126 174 222 282 350 402
#     4  10  22  38  63  91 127 172 219 272 324 392
#     4  10  21  35  58  88 131 173 213 254 320 387
#     4  10  20  38  58  93 124 172 209 268 318 386
#     4  11  26  43  67 102 137 170 220 278 329 404
#
# _framework density 21.385266999999999
#
# number of rings (size 3 to 8) (size 9 to 14) (size 15 to 20)
#    0.000    1.455    1.818    2.727    3.818    6.545 
#    0.000    0.000    0.000    6.000    0.000    0.000 
#    0.000    0.000    0.000    0.000    0.000    0.000 
#
# Total GULP energy -245311.714838 kJ/mol
# GULP energy per Si atom -5575.266246 kJ/mol
# Density = 2.133659 g / cm^3
# Si number density = 21.385267 Si / 1000 Ang^3
#
#
#
# Elastic Constant Matrix: (Units=GPa)
#
#
# Indices 1 2 3 4 5 6 
#
# 1 116.9475 37.4688 33.9961 0.0000 0.0000 0.0000
# 2 37.4688 82.4530 13.5052 0.0000 0.0000 0.0000
# 3 33.9961 13.5052 91.8672 0.0000 0.0000 0.0000
# 4 0.0000 0.0000 0.0000 13.2965 0.0000 0.0000
# 5 0.0000 0.0000 0.0000 0.0000 31.8869 0.0000
# 6 0.0000 0.0000 0.0000 0.0000 0.0000 7.7145
#
#
#
# Elastic Compliance Matrix: (Units=1/GPa)
#
#
# Indices 1 2 3 4 5 6 
#
# 1 0.010957 -0.004422 -0.003405 0.000000 0.000000 0.000000
# 2 -0.004422 0.014212 -0.000453 0.000000 0.000000 0.000000
# 3 -0.003405 -0.000453 0.012212 0.000000 0.000000 0.000000
# 4 0.000000 0.000000 0.000000 0.075208 0.000000 0.000000
# 5 0.000000 0.000000 0.000000 0.000000 0.031361 0.000000
# 6 0.000000 0.000000 0.000000 0.000000 0.000000 0.129626
#
#
# Mechanical properties :
#
#
# Convention : Reuss Voigt Hill
#
# Bulk Modulus (GPa) = 48.02618 51.24531 49.63574
# Shear Modulus (GPa) = 16.83077 24.33275 20.58176
#
# Velocity S-wave (km/s) = 2.80844 3.37683 3.10567
# Velocity P-wave (km/s) = 5.74655 6.26250 6.01006
#
# Compressibility (1/GPa) = 0.02082198
#
# Stress axis : x y z
#
# Youngs Moduli (GPa) = 91.26394 70.36506 81.88775
#
# Poissons Ratio (x) = 0.31112 0.27881
# Poissons Ratio (y) = 0.40353 0.03709
# Poissons Ratio (z) = 0.31074 0.03187
#
# Static dielectric constant tensor:
#      x y z
#    x 1.859220 0.000000 0.000000 
#    y 0.000000 1.765300 0.000000 
#    z 0.000000 0.000000 1.931100 
# 
# From -- ./inp_files/3493.got.cif
#   From: 2010.05.17/outbox.cif.g08.bks.cpg/sg50_2_cif.got.tgz:3493.got - 2010.06.03 11:33:33.
