data_PCOD9396809
_publ_section_title
;
Structure prediction by ZEFSAII (Michael W. Deem and Ramdas Pophale) SiO2 
 PCOD9396809
Probable space group: P B A N
;
_chemical_formula_sum "Si O2"
_cell_formula_units_Z 32
_cell_length_a 5.313948
_cell_length_b 33.965035
_cell_length_c 7.183756
_cell_angle_alpha 90.000000
_cell_angle_beta 90.000000
_cell_angle_gamma 90.000000
_cell_volume 1296.584841
_symmetry_space_group_name_H-M "P B A N"
_symmetry_group_IT_number 50
_space_group.IT_coordinate_system_code '2'
_symmetry_cell_setting 'orthorhombic'
loop_
_space_group_symop_operation_xyz
x,y,z
1/2-x,1/2-y,z
x,1/2-y,-z
1/2-x,y,-z
-x,-y,-z
1/2+x,1/2+y,-z
-x,1/2+y,z
1/2+x,-y,z
loop_
_atom_site_type_symbol
_atom_site_label
_atom_site_fract_x
_atom_site_fract_y
_atom_site_fract_z
Si Si1 0.785719 0.389768 0.715729
Si Si2 0.722013 0.479621 0.223591
Si Si3 0.004617 0.232581 0.789923
Si Si4 0.794277 0.646718 0.724328
O O1 0.750000 0.378272 0.500000
O O2 0.856799 0.435309 0.727299
O O3 0.499566 0.385609 0.786750
O O4 0.012267 0.362910 0.795560
O O5 0.499962 0.508390 0.290409
O O6 0.750000 0.481658 0.000000
O O7 0.250000 0.250000 0.696336
O O8 0.062923 0.186470 0.785905
O O9 0.750000 0.250000 0.706838
O O10 0.001986 0.250000 0.000000
O O11 0.750000 0.647884 0.500000
#
# Coordination Sequence:
#
# PCOD9396809 Si02
#       4
#     8   8   8   8
#     4  10  21  38  60  89 119 155 200 245 292 355
#     4  10  21  38  58  85 123 158 199 244 292 347
#     4  10  21  39  59  85 119 151 192 253 293 362
#     4  10  21  39  60  85 121 155 196 246 300 354
#
# _framework density 24.680218
#
# number of rings (size 3 to 8) (size 9 to 14) (size 15 to 20)
#    0.000    2.000    0.000    3.000    0.000    1.500 
#   13.500    1.250    0.000    0.000    0.000    0.000 
#    0.000    0.000    0.000    0.000    0.000    0.000 
#
# Total GULP energy -178582.283419 kJ/mol
# GULP energy per Si atom -5580.696357 kJ/mol
# Density = 2.462404 g / cm^3
# Si number density = 24.680218 Si / 1000 Ang^3
#
#
#
# Elastic Constant Matrix: (Units=GPa)
#
#
# Indices 1 2 3 4 5 6 
#
# 1 239.3309 55.6289 16.0709 0.0000 0.0000 0.0000
# 2 55.6289 105.8288 -22.6378 0.0000 0.0000 0.0000
# 3 16.0709 -22.6378 107.4847 0.0000 0.0000 0.0000
# 4 0.0000 0.0000 0.0000 29.8123 0.0000 0.0000
# 5 0.0000 0.0000 0.0000 0.0000 -33.8125 0.0000
# 6 0.0000 0.0000 0.0000 0.0000 0.0000 47.1716
#
#
#
# Elastic Compliance Matrix: (Units=1/GPa)
#
#
# Indices 1 2 3 4 5 6 
#
# 1 0.004939 -0.002884 -0.001346 0.000000 0.000000 0.000000
# 2 -0.002884 0.011579 0.002870 0.000000 0.000000 0.000000
# 3 -0.001346 0.002870 0.010109 0.000000 0.000000 0.000000
# 4 0.000000 0.000000 0.000000 0.033543 0.000000 0.000000
# 5 0.000000 0.000000 0.000000 0.000000 -0.029575 0.000000
# 6 0.000000 0.000000 0.000000 0.000000 0.000000 0.021199
#
#
# Mechanical properties :
#
#
# Convention : Reuss Voigt Hill
#
# Bulk Modulus (GPa) = 41.82799 61.19649 51.51224
# Shear Modulus (GPa) = 80.01994 35.53977 57.77986
#
# Velocity S-wave (km/s) = 5.70027 3.79886 4.84378
# Velocity P-wave (km/s) = 7.76588 6.64014 7.22497
#
# Compressibility (1/GPa) = 0.02390744
#
# Stress axis : x y z
#
# Youngs Moduli (GPa) = 202.46756 86.36199 98.91835
#
# Poissons Ratio (x) = 0.24908 0.13314
# Poissons Ratio (y) = 0.58394 -0.28389
# Poissons Ratio (z) = 0.27250 -0.24786
#
# Static dielectric constant tensor:
#      x y z
#    x 1.921040 0.000000 0.000000 
#    y 0.000000 2.080670 0.000000 
#    z 0.000000 0.000000 1.983910 
# 
# From -- ./inp_files/7890.got.cif
#   From: 2010.05.17/outbox.cif.g08.bks.cpg/sg50_4_cif.got.tgz:7890.got - 2010.06.03 11:33:33.
