data_PCOD9396381
_publ_section_title
;
Structure prediction by ZEFSAII (Michael W. Deem and Ramdas Pophale) SiO2 
 PCOD9396381
Probable space group: P B A N
;
_chemical_formula_sum "Si O2"
_cell_formula_units_Z 48
_cell_length_a 16.624018
_cell_length_b 16.527828
_cell_length_c 8.765045
_cell_angle_alpha 90.000000
_cell_angle_beta 90.000000
_cell_angle_gamma 90.000000
_cell_volume 2408.274212
_symmetry_space_group_name_H-M "P B A N"
_symmetry_group_IT_number 50
_space_group.IT_coordinate_system_code '2'
_symmetry_cell_setting 'orthorhombic'
loop_
_space_group_symop_operation_xyz
x,y,z
1/2-x,1/2-y,z
x,1/2-y,-z
1/2-x,y,-z
-x,-y,-z
1/2+x,1/2+y,-z
-x,1/2+y,z
1/2+x,-y,z
loop_
_atom_site_type_symbol
_atom_site_label
_atom_site_fract_x
_atom_site_fract_y
_atom_site_fract_z
Si Si1 0.900659 0.669982 0.901755
Si Si2 0.590091 0.004725 0.936308
Si Si3 0.903840 0.168900 0.901619
Si Si4 0.339916 0.168765 0.435503
Si Si5 0.912373 0.003992 0.431020
Si Si6 0.840612 0.332172 0.436355
O O1 0.875253 0.584094 0.977039
O O2 0.851612 0.675710 0.745402
O O3 0.998367 0.665132 0.871225
O O4 0.887241 0.750000 0.000000
O O5 0.589528 0.009358 0.752784
O O6 0.622361 0.087817 0.007664
O O7 0.500000 0.000000 0.000000
O O8 0.855000 0.170709 0.744313
O O9 0.890385 0.250000 0.000000
O O10 0.381566 0.250000 0.500000
O O11 0.250000 0.169435 0.500000
O O12 0.373281 0.081047 0.478445
O O13 0.874478 0.084300 0.500164
O O14 0.000000 0.000000 0.500000
O O15 0.880931 0.250000 0.500000
O O16 0.750000 0.330918 0.500000
#
# Coordination Sequence:
#
# PCOD9396381 Si02
#       6
#     8   8   8   8   8   8
#     4   9  19  35  60  89 116 152 202 255 305 360
#     4   9  18  34  55  86 117 148 195 251 308 358
#     4  10  20  37  62  90 119 155 204 260 312 371
#     4  10  22  39  58  84 124 165 201 245 307 377
#     4  11  22  38  64  92 120 159 208 263 312 365
#     4  11  24  41  60  89 127 165 204 252 316 389
#
# _framework density 19.931284000000002
#
# number of rings (size 3 to 8) (size 9 to 14) (size 15 to 20)
#    0.000    2.000    0.000    4.500    0.000    8.000 
#    0.000    7.500    0.000   10.000    0.000    0.000 
#    0.000    0.000    0.000    0.000    0.000    0.000 
#
# Total GULP energy -267612.333283 kJ/mol
# GULP energy per Si atom -5575.256943 kJ/mol
# Density = 1.988592 g / cm^3
# Si number density = 19.931284 Si / 1000 Ang^3
#
#
#
# Elastic Constant Matrix: (Units=GPa)
#
#
# Indices 1 2 3 4 5 6 
#
# 1 65.7119 54.5701 41.1739 0.0000 0.0000 0.0000
# 2 54.5701 254.5727 96.9168 0.0000 0.0000 0.0000
# 3 41.1739 96.9168 112.9614 0.0000 0.0000 0.0000
# 4 0.0000 0.0000 0.0000 46.1126 0.0000 0.0000
# 5 0.0000 0.0000 0.0000 0.0000 24.2995 0.0000
# 6 0.0000 0.0000 0.0000 0.0000 0.0000 157.3361
#
#
#
# Elastic Compliance Matrix: (Units=1/GPa)
#
#
# Indices 1 2 3 4 5 6 
#
# 1 0.020600 -0.002313 -0.005524 0.000000 0.000000 0.000000
# 2 -0.002313 0.006093 -0.004385 0.000000 0.000000 0.000000
# 3 -0.005524 -0.004385 0.014628 0.000000 0.000000 0.000000
# 4 0.000000 0.000000 0.000000 0.021686 0.000000 0.000000
# 5 0.000000 0.000000 0.000000 0.000000 0.041153 0.000000
# 6 0.000000 0.000000 0.000000 0.000000 0.000000 0.006356
#
#
# Mechanical properties :
#
#
# Convention : Reuss Voigt Hill
#
# Bulk Modulus (GPa) = 59.25000 90.95197 75.10098
# Shear Modulus (GPa) = 35.56544 61.58867 48.57705
#
# Velocity S-wave (km/s) = 4.22880 5.56485 4.94218
# Velocity P-wave (km/s) = 7.32362 9.32856 8.38622
#
# Compressibility (1/GPa) = 0.01687764
#
# Stress axis : x y z
#
# Youngs Moduli (GPa) = 48.54374 164.11756 68.36104
#
# Poissons Ratio (x) = 0.37954 0.37766
# Poissons Ratio (y) = 0.11226 0.29975
# Poissons Ratio (z) = 0.26818 0.71962
#
# Static dielectric constant tensor:
#      x y z
#    x 1.657640 0.000000 0.000000 
#    y 0.000000 1.874930 0.000000 
#    z 0.000000 0.000000 1.675790 
# 
# From -- ./inp_files/14240.got.cif
#   From: 2010.05.17/outbox.cif.g08.bks.cpg/sg50_8_cif.got.tgz:14240.got - 2010.06.03 11:33:33.
