data_PCOD9396417
_publ_section_title
;
Structure prediction by ZEFSAII (Michael W. Deem and Ramdas Pophale) SiO2 
 PCOD9396417
Probable space group: P B A N
;
_chemical_formula_sum "Si O2"
_cell_formula_units_Z 58
_cell_length_a 9.646745
_cell_length_b 25.403074
_cell_length_c 11.762617
_cell_angle_alpha 90.000000
_cell_angle_beta 90.000000
_cell_angle_gamma 90.000000
_cell_volume 2882.511365
_symmetry_space_group_name_H-M "P B A N"
_symmetry_group_IT_number 50
_space_group.IT_coordinate_system_code '2'
_symmetry_cell_setting 'orthorhombic'
loop_
_space_group_symop_operation_xyz
x,y,z
1/2-x,1/2-y,z
x,1/2-y,-z
1/2-x,y,-z
-x,-y,-z
1/2+x,1/2+y,-z
-x,1/2+y,z
1/2+x,-y,z
loop_
_atom_site_type_symbol
_atom_site_label
_atom_site_fract_x
_atom_site_fract_y
_atom_site_fract_z
Si Si1 0.101213 0.380061 0.469135
Si Si2 0.250000 0.750000 0.500000
Si Si3 0.411053 0.917295 0.001777
Si Si4 0.594572 0.197623 0.055031
Si Si5 0.320808 0.480209 0.669556
Si Si6 0.118927 0.824240 0.313427
Si Si7 0.160882 0.602518 0.388218
Si Si8 0.442582 0.488270 0.174428
O O1 0.250000 0.354775 0.500000
O O2 0.140609 0.438779 0.426969
O O3 0.014804 0.354486 0.364868
O O4 0.995797 0.382926 0.576663
O O5 0.158146 0.783838 0.413391
O O6 0.482735 0.938331 0.116628
O O7 0.250000 0.905516 0.000000
O O8 0.472964 0.860320 0.967423
O O9 0.407234 0.969325 0.921890
O O10 0.598036 0.202286 0.191689
O O11 0.527234 0.250000 0.000000
O O12 0.750000 0.197367 0.000000
O O13 0.321987 0.540671 0.630197
O O14 0.181672 0.471486 0.742428
O O15 0.448062 0.478726 0.754523
O O16 0.252459 0.863555 0.297490
O O17 0.250000 0.614463 0.500000
#
# Coordination Sequence:
#
# PCOD9396417 Si02
#       8
#     8   2   8   8   8   8   8   8
#     4  11  22  39  58  95 136 171 212 257 327 396
#     4  12  20  44  72  92 116 164 226 274 328 378
#     4  10  20  38  56  81 130 157 216 270 313 393
#     4  10  21  39  64 100 125 157 213 280 333 373
#     4  12  21  34  58  89 130 170 210 256 320 387
#     4  11  23  42  69  97 128 167 219 278 320 387
#     4  10  20  38  59  89 128 172 212 259 315 378
#     4  11  22  34  55  90 119 178 211 255 326 379
#
# _framework density 20.121343
#
# number of rings (size 3 to 8) (size 9 to 14) (size 15 to 20)
#    0.000    1.241    3.448    5.793    1.931    0.000 
#    0.000    0.345    0.000    0.000    0.000    7.724 
#    0.000    0.000    0.000    0.000    0.000    0.000 
#
# Total GULP energy -323087.844590 kJ/mol
# GULP energy per Si atom -5570.480079 kJ/mol
# Density = 2.007555 g / cm^3
# Si number density = 20.121343 Si / 1000 Ang^3
#
#
#
# Elastic Constant Matrix: (Units=GPa)
#
#
# Indices 1 2 3 4 5 6 
#
# 1 115.8746 16.0996 29.4669 0.0000 0.0000 0.0000
# 2 16.0996 104.6941 32.9651 0.0000 0.0000 0.0000
# 3 29.4669 32.9651 82.8125 0.0000 0.0000 0.0000
# 4 0.0000 0.0000 0.0000 35.2488 0.0000 0.0000
# 5 0.0000 0.0000 0.0000 0.0000 16.2559 0.0000
# 6 0.0000 0.0000 0.0000 0.0000 0.0000 14.0063
#
#
#
# Elastic Compliance Matrix: (Units=1/GPa)
#
#
# Indices 1 2 3 4 5 6 
#
# 1 0.009507 -0.000454 -0.003202 0.000000 0.000000 0.000000
# 2 -0.000454 0.010942 -0.004194 0.000000 0.000000 0.000000
# 3 -0.003202 -0.004194 0.014885 0.000000 0.000000 0.000000
# 4 0.000000 0.000000 0.000000 0.028370 0.000000 0.000000
# 5 0.000000 0.000000 0.000000 0.000000 0.061516 0.000000
# 6 0.000000 0.000000 0.000000 0.000000 0.000000 0.071396
#
#
# Mechanical properties :
#
#
# Convention : Reuss Voigt Hill
#
# Bulk Modulus (GPa) = 50.93371 51.16050 51.04710
# Shear Modulus (GPa) = 22.84551 28.09217 25.46884
#
# Velocity S-wave (km/s) = 3.37321 3.74055 3.56162
# Velocity P-wave (km/s) = 6.36707 6.64355 6.50678
#
# Compressibility (1/GPa) = 0.01963336
#
# Stress axis : x y z
#
# Youngs Moduli (GPa) = 105.18097 91.39057 67.18360
#
# Poissons Ratio (x) = 0.04146 0.21515
# Poissons Ratio (y) = 0.04772 0.28179
# Poissons Ratio (z) = 0.33683 0.38332
#
# Static dielectric constant tensor:
#      x y z
#    x 1.730000 0.000000 0.000000 
#    y 0.000000 2.032270 0.000000 
#    z 0.000000 0.000000 1.756540 
# 
# From -- ./inp_files/19409.got.cif
#   From: 2010.05.17/outbox.cif.g08.bks.cpg/sg50_10_cif.got.tgz:19409.got - 2010.06.03 11:33:33.
