data_PCOD9396356
_publ_section_title
;
Structure prediction by ZEFSAII (Michael W. Deem and Ramdas Pophale) SiO2 
 PCOD9396356
Probable space group: P B A N
;
_chemical_formula_sum "Si O2"
_cell_formula_units_Z 58
_cell_length_a 9.420151
_cell_length_b 10.631739
_cell_length_c 28.052814
_cell_angle_alpha 90.000000
_cell_angle_beta 90.000000
_cell_angle_gamma 90.000000
_cell_volume 2809.561888
_symmetry_space_group_name_H-M "P B A N"
_symmetry_group_IT_number 50
_space_group.IT_coordinate_system_code '2'
_symmetry_cell_setting 'orthorhombic'
loop_
_space_group_symop_operation_xyz
x,y,z
1/2-x,1/2-y,z
x,1/2-y,-z
1/2-x,y,-z
-x,-y,-z
1/2+x,1/2+y,-z
-x,1/2+y,z
1/2+x,-y,z
loop_
_atom_site_type_symbol
_atom_site_label
_atom_site_fract_x
_atom_site_fract_y
_atom_site_fract_z
Si Si1 0.487128 0.499566 0.382555
Si Si2 0.860799 0.061749 0.217629
Si Si3 0.250000 0.750000 0.000000
Si Si4 0.769664 0.604502 0.943290
Si Si5 0.441917 0.668576 0.184365
Si Si6 0.266918 0.894445 0.320085
Si Si7 0.419977 0.605012 0.080819
Si Si8 0.265041 0.102876 0.446966
O O1 0.384628 0.563092 0.342405
O O2 0.604293 0.410605 0.357608
O O3 0.368607 0.438350 0.415660
O O4 0.589312 0.578491 0.417994
O O5 0.708272 0.101453 0.196163
O O6 0.949636 0.193716 0.209805
O O7 0.821668 0.035562 0.272888
O O8 0.939105 0.937665 0.196835
O O9 0.349422 0.826690 0.964084
O O10 0.750000 0.750000 0.931726
O O11 0.670059 0.519468 0.911322
O O12 0.926529 0.560150 0.933628
O O13 0.750000 0.591108 0.000000
O O14 0.435213 0.689587 0.127457
O O15 0.250000 0.750000 0.306275
O O16 0.250000 0.250000 0.452179
O O17 0.250000 0.044034 0.500000
#
# Coordination Sequence:
#
# PCOD9396356 Si02
#       8
#     8   8   2   8   8   8   8   8
#     4  10  22  36  60  93 121 171 218 262 324 378
#     4  11  24  46  67  98 128 174 212 277 333 398
#     4  12  24  40  72  96 128 172 214 254 324 380
#     4  11  25  43  65  96 130 164 215 258 313 380
#     4  11  25  45  69  95 134 165 221 260 331 401
#     4  11  21  39  63  87 128 161 216 273 320 384
#     4  12  26  43  69  95 133 170 211 264 316 389
#     4  10  20  37  58  88 130 169 214 266 318 379
#
# _framework density 20.643788000000001
#
# number of rings (size 3 to 8) (size 9 to 14) (size 15 to 20)
#    0.000    1.103    2.069    4.966    3.862    0.552 
#    0.000    0.000    0.000    6.621    0.000    0.000 
#    0.000    0.000    0.000    0.000    0.000    0.000 
#
# Total GULP energy -323506.038062 kJ/mol
# GULP energy per Si atom -5577.690311 kJ/mol
# Density = 2.059680 g / cm^3
# Si number density = 20.643788 Si / 1000 Ang^3
#
#
#
# Elastic Constant Matrix: (Units=GPa)
#
#
# Indices 1 2 3 4 5 6 
#
# 1 130.6507 21.2839 26.2882 0.0000 0.0000 0.0000
# 2 21.2839 57.5664 16.8109 0.0000 0.0000 0.0000
# 3 26.2882 16.8109 110.8478 0.0000 0.0000 0.0000
# 4 0.0000 0.0000 0.0000 18.6231 0.0000 0.0000
# 5 0.0000 0.0000 0.0000 0.0000 63.5237 0.0000
# 6 0.0000 0.0000 0.0000 0.0000 0.0000 19.0541
#
#
#
# Elastic Compliance Matrix: (Units=1/GPa)
#
#
# Indices 1 2 3 4 5 6 
#
# 1 0.008405 -0.002642 -0.001593 0.000000 0.000000 0.000000
# 2 -0.002642 0.019007 -0.002256 0.000000 0.000000 0.000000
# 3 -0.001593 -0.002256 0.009741 0.000000 0.000000 0.000000
# 4 0.000000 0.000000 0.000000 0.053697 0.000000 0.000000
# 5 0.000000 0.000000 0.000000 0.000000 0.015742 0.000000
# 6 0.000000 0.000000 0.000000 0.000000 0.000000 0.052482
#
#
# Mechanical properties :
#
#
# Convention : Reuss Voigt Hill
#
# Bulk Modulus (GPa) = 41.37126 47.53675 44.45400
# Shear Modulus (GPa) = 27.76032 35.88562 31.82297
#
# Velocity S-wave (km/s) = 3.67103 4.17385 3.93049
# Velocity P-wave (km/s) = 6.16869 6.80479 6.49453
#
# Compressibility (1/GPa) = 0.02417137
#
# Stress axis : x y z
#
# Youngs Moduli (GPa) = 118.97818 52.61213 102.65703
#
# Poissons Ratio (x) = 0.13903 0.16348
# Poissons Ratio (y) = 0.31440 0.23158
# Poissons Ratio (z) = 0.18948 0.11869
#
# Static dielectric constant tensor:
#      x y z
#    x 1.728710 0.000000 0.000000 
#    y 0.000000 1.740530 0.000000 
#    z 0.000000 0.000000 1.825270 
# 
# From -- ./inp_files/32144.got.cif
#   From: 2010.05.17/outbox.cif.g08.bks.cpg/sg50_17_cif.got.tgz:32144.got - 2010.06.03 11:33:33.
