data_PCOD9396827
_publ_section_title
;
Structure prediction by ZEFSAII (Michael W. Deem and Ramdas Pophale) SiO2 
 PCOD9396827
Probable space group: P B A N
;
_chemical_formula_sum "Si O2"
_cell_formula_units_Z 48
_cell_length_a 8.975412
_cell_length_b 24.708450
_cell_length_c 9.225335
_cell_angle_alpha 90.000000
_cell_angle_beta 90.000000
_cell_angle_gamma 90.000000
_cell_volume 2045.888877
_symmetry_space_group_name_H-M "P B A N"
_symmetry_group_IT_number 50
_space_group.IT_coordinate_system_code '2'
_symmetry_cell_setting 'orthorhombic'
loop_
_space_group_symop_operation_xyz
x,y,z
1/2-x,1/2-y,z
x,1/2-y,-z
1/2-x,y,-z
-x,-y,-z
1/2+x,1/2+y,-z
-x,1/2+y,z
1/2+x,-y,z
loop_
_atom_site_type_symbol
_atom_site_label
_atom_site_fract_x
_atom_site_fract_y
_atom_site_fract_z
Si Si1 0.267343 0.571300 0.343743
Si Si2 0.423304 0.737245 0.835747
Si Si3 0.010370 0.672573 0.613491
Si Si4 0.030430 0.126848 0.292135
Si Si5 0.818315 0.871875 0.142215
Si Si6 0.412263 0.548693 0.071293
O O1 0.250000 0.545936 0.500000
O O2 0.353682 0.629717 0.357544
O O3 0.362643 0.536395 0.234954
O O4 0.101794 0.583846 0.292372
O O5 0.250000 0.750000 0.853194
O O6 0.448094 0.768706 0.679033
O O7 0.472666 0.676393 0.805756
O O8 0.486095 0.750000 0.000000
O O9 0.958202 0.654180 0.453130
O O10 0.878008 0.663018 0.726900
O O11 0.177429 0.100628 0.222088
O O12 0.961653 0.905231 0.087757
O O13 0.750000 0.844874 0.000000
O O14 0.250000 0.562659 0.000000
O O15 0.500000 0.500000 0.000000
#
# Coordination Sequence:
#
# PCOD9396827 Si02
#       6
#     8   8   8   8   8   8
#     4   9  20  39  65  96 132 176 226 276 338 416
#     4  11  22  35  58  95 142 191 241 290 333 383
#     4  10  21  38  60  94 134 187 241 282 338 393
#     4  11  21  38  64  94 135 186 236 287 333 403
#     4  11  23  40  63  95 131 168 222 281 351 415
#     4  11  24  44  71 100 130 164 213 276 361 446
#
# _framework density 23.461686
#
# number of rings (size 3 to 8) (size 9 to 14) (size 15 to 20)
#    0.000    1.500    1.667    3.500    0.000    2.667 
#    0.000    4.167    0.000    4.000    0.000    0.000 
#    0.000    0.000    0.000    0.000    0.000    0.000 
#
# Total GULP energy -267206.563597 kJ/mol
# GULP energy per Si atom -5566.803408 kJ/mol
# Density = 2.340829 g / cm^3
# Si number density = 23.461686 Si / 1000 Ang^3
#
#
#
# Elastic Constant Matrix: (Units=GPa)
#
#
# Indices 1 2 3 4 5 6 
#
# 1 149.7702 22.0931 51.5845 0.0000 0.0000 0.0000
# 2 22.0931 39.7001 28.6590 0.0000 0.0000 0.0000
# 3 51.5845 28.6590 152.6321 0.0000 0.0000 0.0000
# 4 0.0000 0.0000 0.0000 14.5982 0.0000 0.0000
# 5 0.0000 0.0000 0.0000 0.0000 51.0650 0.0000
# 6 0.0000 0.0000 0.0000 0.0000 0.0000 4.9448
#
#
#
# Elastic Compliance Matrix: (Units=1/GPa)
#
#
# Indices 1 2 3 4 5 6 
#
# 1 0.007822 -0.002828 -0.002112 0.000000 0.000000 0.000000
# 2 -0.002828 0.030161 -0.004707 0.000000 0.000000 0.000000
# 3 -0.002112 -0.004707 0.008150 0.000000 0.000000 0.000000
# 4 0.000000 0.000000 0.000000 0.068501 0.000000 0.000000
# 5 0.000000 0.000000 0.000000 0.000000 0.019583 0.000000
# 6 0.000000 0.000000 0.000000 0.000000 0.000000 0.202235
#
#
# Mechanical properties :
#
#
# Convention : Reuss Voigt Hill
#
# Bulk Modulus (GPa) = 37.26262 60.75282 49.00772
# Shear Modulus (GPa) = 13.71021 30.10600 21.90811
#
# Velocity S-wave (km/s) = 2.41999 3.58606 3.05910
# Velocity P-wave (km/s) = 4.87086 6.56484 5.78024
#
# Compressibility (1/GPa) = 0.02683655
#
# Stress axis : x y z
#
# Youngs Moduli (GPa) = 127.85082 33.15567 122.70624
#
# Poissons Ratio (x) = 0.09376 0.25922
# Poissons Ratio (y) = 0.36153 0.57763
# Poissons Ratio (z) = 0.27008 0.15608
#
# Static dielectric constant tensor:
#      x y z
#    x 1.946810 0.000000 0.000000 
#    y 0.000000 2.368400 0.000000 
#    z 0.000000 0.000000 2.016570 
# 
# From -- ./inp_files/10123.got.cif
#   From: 2010.05.17/outbox.cif.g08.bks.cpg/sg50_6_cif.got.tgz:10123.got - 2010.06.03 11:33:33.
