data_PCOD9396864
_publ_section_title
;
Structure prediction by ZEFSAII (Michael W. Deem and Ramdas Pophale) SiO2 
 PCOD9396864
Probable space group: P B A N
;
_chemical_formula_sum "Si O2"
_cell_formula_units_Z 40
_cell_length_a 14.513011
_cell_length_b 7.913875
_cell_length_c 14.080636
_cell_angle_alpha 90.000000
_cell_angle_beta 90.000000
_cell_angle_gamma 90.000000
_cell_volume 1617.219549
_symmetry_space_group_name_H-M "P B A N"
_symmetry_group_IT_number 50
_space_group.IT_coordinate_system_code '2'
_symmetry_cell_setting 'orthorhombic'
loop_
_space_group_symop_operation_xyz
x,y,z
1/2-x,1/2-y,z
x,1/2-y,-z
1/2-x,y,-z
-x,-y,-z
1/2+x,1/2+y,-z
-x,1/2+y,z
1/2+x,-y,z
loop_
_atom_site_type_symbol
_atom_site_label
_atom_site_fract_x
_atom_site_fract_y
_atom_site_fract_z
Si Si1 0.636210 0.426645 0.681808
Si Si2 0.400290 0.925542 0.893541
Si Si3 0.811904 0.582179 0.701064
Si Si4 0.979497 0.764092 0.609942
Si Si5 0.614681 0.478672 0.096740
O O1 0.633219 0.484279 0.791701
O O2 0.743866 0.439154 0.658430
O O3 0.576396 0.563264 0.624790
O O4 0.573271 0.260231 0.670447
O O5 0.382263 0.725083 0.896882
O O6 0.509477 0.958037 0.896176
O O7 0.358009 0.012866 0.987006
O O8 0.750000 0.750000 0.691949
O O9 0.905711 0.623785 0.645508
O O10 0.834479 0.549501 0.811596
O O11 0.002874 0.750000 0.500000
#
# Coordination Sequence:
#
# PCOD9396864 Si02
#       5
#     8   8   8   8   8
#     4  11  23  42  68  97 129 175 223 277 334 405
#     4  10  21  38  69  95 136 179 222 267 339 399
#     4  10  24  41  67 100 135 177 224 282 338 398
#     4  11  24  46  70  94 131 178 223 281 349 398
#     4  10  21  40  64 101 137 182 220 272 332 405
#
# _framework density 24.733808
#
# number of rings (size 3 to 8) (size 9 to 14) (size 15 to 20)
#    0.000    1.600    2.000    1.800    2.800    5.200 
#    0.000    5.000    0.000    0.000    0.000    0.000 
#    0.000    0.000    0.000    0.000    0.000    0.000 
#
# Total GULP energy -223750.781065 kJ/mol
# GULP energy per Si atom -5593.769527 kJ/mol
# Density = 2.467751 g / cm^3
# Si number density = 24.733808 Si / 1000 Ang^3
#
#
#
# Elastic Constant Matrix: (Units=GPa)
#
#
# Indices 1 2 3 4 5 6 
#
# 1 159.4322 4.9375 36.5802 0.0000 0.0000 0.0000
# 2 4.9375 54.3049 -7.6939 0.0000 0.0000 0.0000
# 3 36.5802 -7.6939 119.7711 0.0000 0.0000 0.0000
# 4 0.0000 0.0000 0.0000 30.1746 0.0000 0.0000
# 5 0.0000 0.0000 0.0000 0.0000 -6.4781 0.0000
# 6 0.0000 0.0000 0.0000 0.0000 0.0000 32.1165
#
#
#
# Elastic Compliance Matrix: (Units=1/GPa)
#
#
# Indices 1 2 3 4 5 6 
#
# 1 0.006790 -0.000920 -0.002133 0.000000 0.000000 0.000000
# 2 -0.000920 0.018708 0.001483 0.000000 0.000000 0.000000
# 3 -0.002133 0.001483 0.009096 0.000000 0.000000 0.000000
# 4 0.000000 0.000000 0.000000 0.033140 0.000000 0.000000
# 5 0.000000 0.000000 0.000000 0.000000 -0.154367 0.000000
# 6 0.000000 0.000000 0.000000 0.000000 0.000000 0.031137
#
#
# Mechanical properties :
#
#
# Convention : Reuss Voigt Hill
#
# Bulk Modulus (GPa) = 31.79181 44.57286 38.18234
# Shear Modulus (GPa) = -119.41302 31.14157 -44.13572
#
# Velocity S-wave (km/s) = -6.95587 3.55219 -4.22883
# Velocity P-wave (km/s) = 7.18544 5.90628 2.89365
#
# Compressibility (1/GPa) = 0.03145464
#
# Stress axis : x y z
#
# Youngs Moduli (GPa) = 147.27305 53.45244 109.93935
#
# Poissons Ratio (x) = 0.04915 0.23449
# Poissons Ratio (y) = 0.13543 -0.16300
# Poissons Ratio (z) = 0.31412 -0.07925
#
# Static dielectric constant tensor:
#      x y z
#    x 1.903260 0.000000 0.000000 
#    y 0.000000 2.052380 0.000000 
#    z 0.000000 0.000000 1.917670 
# 
# From -- ./inp_files/26278.got.cif
#   From: 2010.05.17/outbox.cif.g08.bks.cpg/sg50_14_cif.got.tgz:26278.got - 2010.06.03 11:33:33.
