data_PCOD9396021
_publ_section_title
;
Structure prediction by ZEFSAII (Michael W. Deem and Ramdas Pophale) SiO2 
 PCOD9396021
Probable space group: P B A N
;
_chemical_formula_sum "Si O2"
_cell_formula_units_Z 56
_cell_length_a 14.962514
_cell_length_b 14.031963
_cell_length_c 11.441339
_cell_angle_alpha 90.000000
_cell_angle_beta 90.000000
_cell_angle_gamma 90.000000
_cell_volume 2402.148514
_symmetry_space_group_name_H-M "P B A N"
_symmetry_group_IT_number 50
_space_group.IT_coordinate_system_code '2'
_symmetry_cell_setting 'orthorhombic'
loop_
_space_group_symop_operation_xyz
x,y,z
1/2-x,1/2-y,z
x,1/2-y,-z
1/2-x,y,-z
-x,-y,-z
1/2+x,1/2+y,-z
-x,1/2+y,z
1/2+x,-y,z
loop_
_atom_site_type_symbol
_atom_site_label
_atom_site_fract_x
_atom_site_fract_y
_atom_site_fract_z
Si Si1 0.893575 0.027340 0.864602
Si Si2 0.703224 0.058016 0.773325
Si Si3 0.429468 0.230290 0.265663
Si Si4 0.939304 0.929475 0.639126
Si Si5 0.673024 0.912074 0.573103
Si Si6 0.601834 0.297165 0.373893
Si Si7 0.417889 0.414468 0.925797
O O1 0.973658 0.081493 0.930326
O O2 0.937955 0.007049 0.739133
O O3 0.795436 0.068286 0.843710
O O4 0.882898 0.932221 0.944074
O O5 0.534693 0.113523 0.603638
O O6 0.675515 0.156344 0.710346
O O7 0.714878 0.984635 0.665550
O O8 0.628103 0.002932 0.852350
O O9 0.396914 0.336235 0.296505
O O10 0.536168 0.232749 0.292998
O O11 0.400958 0.183132 0.143799
O O12 0.886277 0.960544 0.526462
O O13 0.750000 0.862430 0.500000
O O14 0.611575 0.838189 0.637935
O O15 0.625078 0.250000 0.500000
#
# Coordination Sequence:
#
# PCOD9396021 Si02
#       7
#     8   8   8   8   8   8   8
#     4  11  22  40  65  93 128 172 227 275 324 394
#     4  11  23  39  65  93 131 170 225 276 333 393
#     4   9  20  37  60  90 124 171 215 276 343 395
#     4  10  19  38  56  91 128 172 219 266 337 402
#     4  11  20  35  59  93 126 174 218 272 332 412
#     4  10  20  40  61  93 130 175 220 273 345 411
#     4  10  22  41  65  91 126 173 225 278 324 396
#
# _framework density 23.312465
#
# number of rings (size 3 to 8) (size 9 to 14) (size 15 to 20)
#    0.857    0.857    4.286    0.857    0.000    3.429 
#    0.000    0.714    0.000    1.714    0.000    4.000 
#    0.000    0.000    0.000    0.000    0.000    0.000 
#
# Total GULP energy -312208.179962 kJ/mol
# GULP energy per Si atom -5575.146071 kJ/mol
# Density = 2.325941 g / cm^3
# Si number density = 23.312465 Si / 1000 Ang^3
#
#
#
# Elastic Constant Matrix: (Units=GPa)
#
#
# Indices 1 2 3 4 5 6 
#
# 1 121.9247 23.0286 32.1746 0.0000 0.0000 0.0000
# 2 23.0286 62.0822 21.9449 0.0000 0.0000 0.0000
# 3 32.1746 21.9449 98.4489 0.0000 0.0000 0.0000
# 4 0.0000 0.0000 0.0000 29.5243 0.0000 0.0000
# 5 0.0000 0.0000 0.0000 0.0000 31.9811 0.0000
# 6 0.0000 0.0000 0.0000 0.0000 0.0000 20.1309
#
#
#
# Elastic Compliance Matrix: (Units=1/GPa)
#
#
# Indices 1 2 3 4 5 6 
#
# 1 0.009345 -0.002591 -0.002476 0.000000 0.000000 0.000000
# 2 -0.002591 0.018204 -0.003211 0.000000 0.000000 0.000000
# 3 -0.002476 -0.003211 0.011683 0.000000 0.000000 0.000000
# 4 0.000000 0.000000 0.000000 0.033870 0.000000 0.000000
# 5 0.000000 0.000000 0.000000 0.000000 0.031268 0.000000
# 6 0.000000 0.000000 0.000000 0.000000 0.000000 0.049675
#
#
# Mechanical properties :
#
#
# Convention : Reuss Voigt Hill
#
# Bulk Modulus (GPa) = 44.10262 48.52800 46.31531
# Shear Modulus (GPa) = 28.06470 30.01442 29.03956
#
# Velocity S-wave (km/s) = 3.47342 3.59205 3.53323
# Velocity P-wave (km/s) = 5.91991 6.16970 6.04609
#
# Compressibility (1/GPa) = 0.02267439
#
# Stress axis : x y z
#
# Youngs Moduli (GPa) = 107.01314 54.93366 85.59699
#
# Poissons Ratio (x) = 0.14233 0.21198
# Poissons Ratio (y) = 0.27726 0.27485
# Poissons Ratio (z) = 0.26501 0.17639
#
# Static dielectric constant tensor:
#      x y z
#    x 1.985190 0.000000 0.000000 
#    y 0.000000 1.902490 0.000000 
#    z 0.000000 0.000000 1.944020 
# 
# From -- ./inp_files/21166.got.cif
#   From: 2010.05.17/outbox.cif.g08.bks.cpg/sg50_11_cif.got.tgz:21166.got - 2010.06.03 11:33:33.
