data_PCOD9396800
_publ_section_title
;
Structure prediction by ZEFSAII (Michael W. Deem and Ramdas Pophale) SiO2 
 PCOD9396800
Probable space group: P B A N
;
_chemical_formula_sum "Si O2"
_cell_formula_units_Z 32
_cell_length_a 16.866438
_cell_length_b 8.846457
_cell_length_c 8.498204
_cell_angle_alpha 90.000000
_cell_angle_beta 90.000000
_cell_angle_gamma 90.000000
_cell_volume 1268.001879
_symmetry_space_group_name_H-M "P B A N"
_symmetry_group_IT_number 50
_space_group.IT_coordinate_system_code '2'
_symmetry_cell_setting 'orthorhombic'
loop_
_space_group_symop_operation_xyz
x,y,z
1/2-x,1/2-y,z
x,1/2-y,-z
1/2-x,y,-z
-x,-y,-z
1/2+x,1/2+y,-z
-x,1/2+y,z
1/2+x,-y,z
loop_
_atom_site_type_symbol
_atom_site_label
_atom_site_fract_x
_atom_site_fract_y
_atom_site_fract_z
Si Si1 0.655752 0.574024 0.988753
Si Si2 0.670276 0.151409 0.304739
Si Si3 0.043784 0.848364 0.840716
Si Si4 0.427767 0.411365 0.421021
O O1 0.664015 0.440983 0.856711
O O2 0.631196 0.750000 0.000000
O O3 0.750000 0.591947 0.000000
O O4 0.597144 0.493062 0.114519
O O5 0.750000 0.250000 0.319778
O O6 0.594126 0.259652 0.290994
O O7 0.649397 0.018720 0.427357
O O8 0.960484 0.888348 0.758379
O O9 0.036809 0.750000 0.000000
O O10 0.413809 0.250000 0.500000
O O11 0.500000 0.500000 0.500000
#
# Coordination Sequence:
#
# PCOD9396800 Si02
#       4
#     8   8   8   8
#     4  10  21  37  71 114 155 198 263 329 383 464
#     4  11  23  45  77 107 158 210 261 320 404 478
#     4  10  23  44  76 111 156 207 260 321 405 477
#     4  12  27  49  73 115 160 208 264 332 396 486
#
# _framework density 25.236554999999999
#
# number of rings (size 3 to 8) (size 9 to 14) (size 15 to 20)
#    0.000    1.250    5.000    0.000    3.500    5.000 
#    0.000    2.500    0.000    1.500    0.000    0.000 
#    0.000    0.000    0.000    0.000    0.000    0.000 
#
# Total GULP energy -178492.677351 kJ/mol
# GULP energy per Si atom -5577.896167 kJ/mol
# Density = 2.517912 g / cm^3
# Si number density = 25.236555 Si / 1000 Ang^3
#
#
#
# Elastic Constant Matrix: (Units=GPa)
#
#
# Indices 1 2 3 4 5 6 
#
# 1 165.4912 99.0013 20.2948 0.0000 0.0000 0.0000
# 2 99.0013 231.9034 61.4013 0.0000 0.0000 0.0000
# 3 20.2948 61.4013 84.5758 0.0000 0.0000 0.0000
# 4 0.0000 0.0000 0.0000 59.0338 0.0000 0.0000
# 5 0.0000 0.0000 0.0000 0.0000 3.8833 0.0000
# 6 0.0000 0.0000 0.0000 0.0000 0.0000 74.2763
#
#
#
# Elastic Compliance Matrix: (Units=1/GPa)
#
#
# Indices 1 2 3 4 5 6 
#
# 1 0.008149 -0.003666 0.000706 0.000000 0.000000 0.000000
# 2 -0.003666 0.006987 -0.004193 0.000000 0.000000 0.000000
# 3 0.000706 -0.004193 0.014698 0.000000 0.000000 0.000000
# 4 0.000000 0.000000 0.000000 0.016939 0.000000 0.000000
# 5 0.000000 0.000000 0.000000 0.000000 0.257511 0.000000
# 6 0.000000 0.000000 0.000000 0.000000 0.000000 0.013463
#
#
# Mechanical properties :
#
#
# Convention : Reuss Voigt Hill
#
# Bulk Modulus (GPa) = 64.39628 93.70723 79.05175
# Shear Modulus (GPa) = 14.82663 47.52356 31.17509
#
# Velocity S-wave (km/s) = 2.42648 4.34421 3.51852
# Velocity P-wave (km/s) = 5.78125 7.89778 6.92091
#
# Compressibility (1/GPa) = 0.01552885
#
# Stress axis : x y z
#
# Youngs Moduli (GPa) = 122.71412 143.11697 68.03433
#
# Poissons Ratio (x) = 0.52463 -0.04802
# Poissons Ratio (y) = 0.44984 0.28527
# Poissons Ratio (z) = -0.08662 0.60010
#
# Static dielectric constant tensor:
#      x y z
#    x 1.884240 0.000000 0.000000 
#    y 0.000000 2.000530 0.000000 
#    z 0.000000 0.000000 2.179140 
# 
# From -- ./inp_files/14859.got.cif
#   From: 2010.05.17/outbox.cif.g08.bks.cpg/sg50_8_cif.got.tgz:14859.got - 2010.06.03 11:33:33.
