data_PCOD9396817
_publ_section_title
;
Structure prediction by ZEFSAII (Michael W. Deem and Ramdas Pophale) SiO2 
 PCOD9396817
Probable space group: P B A N
;
_chemical_formula_sum "Si O2"
_cell_formula_units_Z 40
_cell_length_a 9.443587
_cell_length_b 20.570013
_cell_length_c 9.566483
_cell_angle_alpha 90.000000
_cell_angle_beta 90.000000
_cell_angle_gamma 90.000000
_cell_volume 1858.334356
_symmetry_space_group_name_H-M "P B A N"
_symmetry_group_IT_number 50
_space_group.IT_coordinate_system_code '2'
_symmetry_cell_setting 'orthorhombic'
loop_
_space_group_symop_operation_xyz
x,y,z
1/2-x,1/2-y,z
x,1/2-y,-z
1/2-x,y,-z
-x,-y,-z
1/2+x,1/2+y,-z
-x,1/2+y,z
1/2+x,-y,z
loop_
_atom_site_type_symbol
_atom_site_label
_atom_site_fract_x
_atom_site_fract_y
_atom_site_fract_z
Si Si1 0.476675 0.166309 0.147850
Si Si2 0.975522 0.315037 0.827916
Si Si3 0.772286 0.862542 0.653155
Si Si4 0.640221 0.005375 0.598530
Si Si5 0.242990 0.586633 0.841386
O O1 0.532832 0.237906 0.185781
O O2 0.329538 0.164064 0.227884
O O3 0.579842 0.105975 0.191508
O O4 0.460687 0.166305 0.980258
O O5 0.070236 0.349009 0.708164
O O6 0.819953 0.344202 0.835451
O O7 0.750000 0.832268 0.500000
O O8 0.715606 0.936400 0.633429
O O9 0.750000 0.043711 0.500000
O O10 0.500000 0.000000 0.500000
O O11 0.656959 0.042391 0.744560
O O12 0.250000 0.561256 0.000000
#
# Coordination Sequence:
#
# PCOD9396817 Si02
#       5
#     8   8   8   8   8
#     4  10  21  38  60  85 117 153 191 241 302 356
#     4  10  21  38  59  86 118 151 190 244 302 354
#     4  11  23  38  57  83 116 155 197 241 291 353
#     4  11  23  41  60  83 121 162 198 246 304 355
#     4  10  21  38  62  89 115 151 201 247 292 356
#
# _framework density 21.524652
#
# number of rings (size 3 to 8) (size 9 to 14) (size 15 to 20)
#    0.000    1.600    0.000    5.400    0.000    7.200 
#    0.000    5.000    0.000    3.600    0.000    0.000 
#    0.000    0.000    0.000    0.000    0.000    0.000 
#
# Total GULP energy -222755.773530 kJ/mol
# GULP energy per Si atom -5568.894338 kJ/mol
# Density = 2.147566 g / cm^3
# Si number density = 21.524652 Si / 1000 Ang^3
#
#
#
# Elastic Constant Matrix: (Units=GPa)
#
#
# Indices 1 2 3 4 5 6 
#
# 1 92.3681 -4.7917 45.9309 0.0000 0.0000 0.0000
# 2 -4.7917 62.8833 24.0272 0.0000 0.0000 0.0000
# 3 45.9309 24.0272 77.2175 0.0000 0.0000 0.0000
# 4 0.0000 0.0000 0.0000 6.0169 0.0000 0.0000
# 5 0.0000 0.0000 0.0000 0.0000 30.0844 0.0000
# 6 0.0000 0.0000 0.0000 0.0000 0.0000 25.4051
#
#
#
# Elastic Compliance Matrix: (Units=1/GPa)
#
#
# Indices 1 2 3 4 5 6 
#
# 1 0.017102 0.005890 -0.012005 0.000000 0.000000 0.000000
# 2 0.005890 0.020077 -0.009751 0.000000 0.000000 0.000000
# 3 -0.012005 -0.009751 0.023126 0.000000 0.000000 0.000000
# 4 0.000000 0.000000 0.000000 0.166200 0.000000 0.000000
# 5 0.000000 0.000000 0.000000 0.000000 0.033240 0.000000
# 6 0.000000 0.000000 0.000000 0.000000 0.000000 0.039362
#
#
# Mechanical properties :
#
#
# Convention : Reuss Voigt Hill
#
# Bulk Modulus (GPa) = 34.99882 40.31127 37.65505
# Shear Modulus (GPa) = 14.69025 23.45477 19.07251
#
# Velocity S-wave (km/s) = 2.61528 3.30460 2.97993
# Velocity P-wave (km/s) = 5.04130 5.77314 5.41959
#
# Compressibility (1/GPa) = 0.02857239
#
# Stress axis : x y z
#
# Youngs Moduli (GPa) = 58.47423 49.80810 43.24215
#
# Poissons Ratio (x) = -0.29338 0.51913
# Poissons Ratio (y) = -0.34443 0.42165
# Poissons Ratio (z) = 0.70200 0.48567
#
# Static dielectric constant tensor:
#      x y z
#    x 1.793300 0.000000 0.000000 
#    y 0.000000 1.846820 0.000000 
#    z 0.000000 0.000000 1.881430 
# 
# From -- ./inp_files/9557.got.cif
#   From: 2010.05.17/outbox.cif.g08.bks.cpg/sg50_5_cif.got.tgz:9557.got - 2010.06.03 11:33:33.
