data_PCOD9396348
_publ_section_title
;
Structure prediction by ZEFSAII (Michael W. Deem and Ramdas Pophale) SiO2 
 PCOD9396348
Probable space group: P B A N
;
_chemical_formula_sum "Si O2"
_cell_formula_units_Z 60
_cell_length_a 22.956467
_cell_length_b 5.505036
_cell_length_c 23.063986
_cell_angle_alpha 90.000000
_cell_angle_beta 90.000000
_cell_angle_gamma 90.000000
_cell_volume 2914.738383
_symmetry_space_group_name_H-M "P B A N"
_symmetry_group_IT_number 50
_space_group.IT_coordinate_system_code '2'
_symmetry_cell_setting 'orthorhombic'
loop_
_space_group_symop_operation_xyz
x,y,z
1/2-x,1/2-y,z
x,1/2-y,-z
1/2-x,y,-z
-x,-y,-z
1/2+x,1/2+y,-z
-x,1/2+y,z
1/2+x,-y,z
loop_
_atom_site_type_symbol
_atom_site_label
_atom_site_fract_x
_atom_site_fract_y
_atom_site_fract_z
Si Si1 0.319945 0.730401 0.372338
Si Si2 0.250000 0.250000 0.225268
Si Si3 0.773985 0.493546 0.065950
Si Si4 0.973102 0.920737 0.823097
Si Si5 0.646509 0.420676 0.258602
Si Si6 0.652158 0.448413 0.840401
Si Si7 0.179063 0.236604 0.567652
Si Si8 0.019165 0.502133 0.305874
O O1 0.250000 0.750000 0.376636
O O2 0.337220 0.714813 0.305137
O O3 0.341365 0.485338 0.402520
O O4 0.340482 0.985116 0.401684
O O5 0.201211 0.398223 0.260226
O O6 0.290231 0.435246 0.188372
O O7 0.750000 0.750000 0.085659
O O8 0.839198 0.464310 0.089635
O O9 0.750000 0.250000 0.094625
O O10 0.750000 0.485697 0.000000
O O11 0.904401 0.891407 0.828893
O O12 0.994352 0.182686 0.847070
O O13 0.984932 0.957720 0.754842
O O14 0.641541 0.303422 0.194347
O O15 0.585828 0.519611 0.283912
O O16 0.250000 0.250000 0.570844
O O17 0.163475 0.250000 0.500000
O O18 0.994052 0.261264 0.335931
#
# Coordination Sequence:
#
# PCOD9396348 Si02
#       8
#     8   4   8   8   8   8   8   8
#     4  10  21  33  49  79 117 154 191 241 302 357
#     4  12  24  34  51  86 125 170 192 226 306 390
#     4  10  22  41  60  86 119 152 202 246 294 355
#     4  10  20  37  57  83 113 154 202 250 290 348
#     4  12  25  35  56  84 132 163 194 247 306 387
#     4  12  23  37  60  86 126 161 202 244 303 374
#     4   9  18  34  54  72 104 156 211 248 279 342
#     4  10  20  39  56  76 111 161 203 246 286 351
#
# _framework density 20.585037
#
# number of rings (size 3 to 8) (size 9 to 14) (size 15 to 20)
#    0.000    1.467    3.333    4.000    4.667    1.600 
#    0.000    0.000    0.000    0.000    0.000   11.200 
#    0.000   10.667    0.000    0.000    0.000    0.000 
#
# Total GULP energy -334074.244528 kJ/mol
# GULP energy per Si atom -5567.904075 kJ/mol
# Density = 2.053818 g / cm^3
# Si number density = 20.585037 Si / 1000 Ang^3
#
#
#
# Elastic Constant Matrix: (Units=GPa)
#
#
# Indices 1 2 3 4 5 6 
#
# 1 68.0243 35.8072 8.7031 0.0000 0.0000 0.0000
# 2 35.8072 155.9453 28.4895 0.0000 0.0000 0.0000
# 3 8.7031 28.4895 81.0489 0.0000 0.0000 0.0000
# 4 0.0000 0.0000 0.0000 74.0041 0.0000 0.0000
# 5 0.0000 0.0000 0.0000 0.0000 -2.8647 0.0000
# 6 0.0000 0.0000 0.0000 0.0000 0.0000 16.6898
#
#
#
# Elastic Compliance Matrix: (Units=1/GPa)
#
#
# Indices 1 2 3 4 5 6 
#
# 1 0.016739 -0.003756 -0.000477 0.000000 0.000000 0.000000
# 2 -0.003756 0.007696 -0.002302 0.000000 0.000000 0.000000
# 3 -0.000477 -0.002302 0.013199 0.000000 0.000000 0.000000
# 4 0.000000 0.000000 0.000000 0.013513 0.000000 0.000000
# 5 0.000000 0.000000 0.000000 0.000000 -0.349082 0.000000
# 6 0.000000 0.000000 0.000000 0.000000 0.000000 0.059917
#
#
# Mechanical properties :
#
#
# Convention : Reuss Voigt Hill
#
# Bulk Modulus (GPa) = 40.71196 50.11314 45.41255
# Shear Modulus (GPa) = -23.06684 33.03378 4.98347
#
# Velocity S-wave (km/s) = -3.35111 4.01028 1.55762
# Velocity P-wave (km/s) = 2.20162 6.77055 5.03426
#
# Compressibility (1/GPa) = 0.02456281
#
# Stress axis : x y z
#
# Youngs Moduli (GPa) = 59.74088 129.94598 75.76611
#
# Poissons Ratio (x) = 0.48812 0.03614
# Poissons Ratio (y) = 0.22441 0.17439
# Poissons Ratio (z) = 0.02850 0.29909
#
# Static dielectric constant tensor:
#      x y z
#    x 1.706940 0.000000 0.000000 
#    y 0.000000 1.854750 0.000000 
#    z 0.000000 0.000000 1.549370 
# 
# From -- ./inp_files/31889.got.cif
#   From: 2010.05.17/outbox.cif.g08.bks.cpg/sg50_16_cif.got.tgz:31889.got - 2010.06.03 11:33:33.
