data_PCOD9396562
_publ_section_title
;
Structure prediction by ZEFSAII (Michael W. Deem and Ramdas Pophale) SiO2 
 PCOD9396562
Probable space group: P B A N
;
_chemical_formula_sum "Si O2"
_cell_formula_units_Z 26
_cell_length_a 20.681808
_cell_length_b 10.573746
_cell_length_c 4.893371
_cell_angle_alpha 90.000000
_cell_angle_beta 90.000000
_cell_angle_gamma 90.000000
_cell_volume 1070.102847
_symmetry_space_group_name_H-M "P B A N"
_symmetry_group_IT_number 50
_space_group.IT_coordinate_system_code '2'
_symmetry_cell_setting 'orthorhombic'
loop_
_space_group_symop_operation_xyz
x,y,z
1/2-x,1/2-y,z
x,1/2-y,-z
1/2-x,y,-z
-x,-y,-z
1/2+x,1/2+y,-z
-x,1/2+y,z
1/2+x,-y,z
loop_
_atom_site_type_symbol
_atom_site_label
_atom_site_fract_x
_atom_site_fract_y
_atom_site_fract_z
Si Si1 0.006466 0.875044 0.822360
Si Si2 0.850291 0.048237 0.205562
Si Si3 0.632569 0.878878 0.337479
Si Si4 0.250000 0.750000 0.000000
O O1 0.080996 0.881299 0.740340
O O2 0.945748 0.882644 0.618963
O O3 0.995108 0.750000 0.000000
O O4 0.000000 0.000000 0.000000
O O5 0.798539 0.153694 0.144584
O O6 0.832832 0.983974 0.487406
O O7 0.857053 0.932933 0.975169
O O8 0.652238 0.750000 0.500000
#
# Coordination Sequence:
#
# PCOD9396562 Si02
#       4
#     8   8   8   2
#     4  10  20  40  67 107 143 183 231 300 371 430
#     4  11  25  44  71 102 143 194 239 291 357 436
#     4  11  23  44  72 106 143 178 238 305 370 430
#     4  12  28  54  70 102 148 198 256 286 348 454
#
# _framework density 24.296728999999999
#
# number of rings (size 3 to 8) (size 9 to 14) (size 15 to 20)
#    0.000    1.231    1.538    5.538    0.000    6.154 
#    0.000    4.615    0.000    0.000    0.000    0.000 
#    0.000    0.000    0.000    0.000    0.000    0.000 
#
# Total GULP energy -144917.077295 kJ/mol
# GULP energy per Si atom -5573.733742 kJ/mol
# Density = 2.424143 g / cm^3
# Si number density = 24.296729 Si / 1000 Ang^3
#
#
#
# Elastic Constant Matrix: (Units=GPa)
#
#
# Indices 1 2 3 4 5 6 
#
# 1 79.4771 27.0308 -15.1487 0.0000 0.0000 0.0000
# 2 27.0308 135.9391 14.7519 0.0000 0.0000 0.0000
# 3 -15.1487 14.7519 77.3284 0.0000 0.0000 0.0000
# 4 0.0000 0.0000 0.0000 3.4121 0.0000 0.0000
# 5 0.0000 0.0000 0.0000 0.0000 -7.5726 0.0000
# 6 0.0000 0.0000 0.0000 0.0000 0.0000 27.8894
#
#
#
# Elastic Compliance Matrix: (Units=1/GPa)
#
#
# Indices 1 2 3 4 5 6 
#
# 1 0.014330 -0.003221 0.003422 0.000000 0.000000 0.000000
# 2 -0.003221 0.008236 -0.002202 0.000000 0.000000 0.000000
# 3 0.003422 -0.002202 0.014022 0.000000 0.000000 0.000000
# 4 0.000000 0.000000 0.000000 0.293077 0.000000 0.000000
# 5 0.000000 0.000000 0.000000 0.000000 -0.132054 0.000000
# 6 0.000000 0.000000 0.000000 0.000000 0.000000 0.035856
#
#
# Mechanical properties :
#
#
# Convention : Reuss Voigt Hill
#
# Bulk Modulus (GPa) = 30.68855 38.44584 34.56720
# Shear Modulus (GPa) = 20.13450 22.48648 21.31049
#
# Velocity S-wave (km/s) = 2.88182 3.04549 2.96479
# Velocity P-wave (km/s) = 4.87149 5.31268 5.09686
#
# Compressibility (1/GPa) = 0.03258544
#
# Stress axis : x y z
#
# Youngs Moduli (GPa) = 69.78456 121.42373 71.31522
#
# Poissons Ratio (x) = 0.39107 -0.24402
# Poissons Ratio (y) = 0.22476 0.15704
# Poissons Ratio (z) = -0.23878 0.26738
#
# Static dielectric constant tensor:
#      x y z
#    x 1.960180 0.000000 0.000000 
#    y 0.000000 1.956790 0.000000 
#    z 0.000000 0.000000 1.970850 
# 
# From -- ./inp_files/5664.got.cif
#   From: 2010.05.17/outbox.cif.g08.bks.cpg/sg50_3_cif.got.tgz:5664.got - 2010.06.03 11:33:33.
