data_PCOD9396989
_publ_section_title
;
Structure prediction by ZEFSAII (Michael W. Deem and Ramdas Pophale) SiO2 
 PCOD9396989
Probable space group: P B A N
;
_chemical_formula_sum "Si O2"
_cell_formula_units_Z 58
_cell_length_a 25.203591
_cell_length_b 13.856806
_cell_length_c 7.195858
_cell_angle_alpha 90.000000
_cell_angle_beta 90.000000
_cell_angle_gamma 90.000000
_cell_volume 2513.090594
_symmetry_space_group_name_H-M "P B A N"
_symmetry_group_IT_number 50
_space_group.IT_coordinate_system_code '2'
_symmetry_cell_setting 'orthorhombic'
loop_
_space_group_symop_operation_xyz
x,y,z
1/2-x,1/2-y,z
x,1/2-y,-z
1/2-x,y,-z
-x,-y,-z
1/2+x,1/2+y,-z
-x,1/2+y,z
1/2+x,-y,z
loop_
_atom_site_type_symbol
_atom_site_label
_atom_site_fract_x
_atom_site_fract_y
_atom_site_fract_z
Si Si1 0.941364 0.526463 0.189364
Si Si2 0.750000 0.750000 0.000000
Si Si3 0.544607 0.934579 0.771018
Si Si4 0.511550 0.766231 0.279503
Si Si5 0.146283 0.968944 0.683844
Si Si6 0.388504 0.736716 0.726451
Si Si7 0.332369 0.930571 0.727716
Si Si8 0.753469 0.579018 0.726145
O O1 0.881781 0.500996 0.234979
O O2 0.984320 0.456616 0.286906
O O3 0.961884 0.632293 0.237307
O O4 0.946087 0.514150 0.967684
O O5 0.731741 0.669374 0.845015
O O6 0.546375 0.820873 0.800045
O O7 0.590142 0.978665 0.643900
O O8 0.511432 0.750000 0.500000
O O9 0.450316 0.760361 0.214803
O O10 0.133686 0.867931 0.783037
O O11 0.173060 0.931593 0.495388
O O12 0.185396 0.049250 0.767293
O O13 0.390067 0.750000 0.500000
O O14 0.351660 0.825229 0.790894
O O15 0.279599 0.984490 0.788404
O O16 0.750000 0.596385 0.500000
#
# Coordination Sequence:
#
# PCOD9396989 Si02
#       8
#     8   2   8   8   8   8   8   8
#     4  11  23  37  57  88 129 169 213 262 322 387
#     4  12  26  48  80  88 136 176 222 284 332 382
#     4  11  23  37  57  88 129 169 213 262 322 387
#     4  11  21  36  59  87 119 166 218 258 316 385
#     4  10  21  41  66  95 129 166 216 269 322 392
#     4   9  18  34  64  96 126 167 206 255 324 388
#     4  10  21  41  66  95 129 166 216 269 322 392
#     4  10  25  46  73 104 130 171 225 274 329 395
#
# _framework density 23.079151
#
# number of rings (size 3 to 8) (size 9 to 14) (size 15 to 20)
#    0.000    1.655    2.759    1.448    1.931    2.759 
#    0.000    4.828    0.000    0.828    0.000    0.000 
#    0.000    0.000    0.000    0.000    0.000    0.000 
#
# Total GULP energy -323580.542976 kJ/mol
# GULP energy per Si atom -5578.974879 kJ/mol
# Density = 2.302662 g / cm^3
# Si number density = 23.079151 Si / 1000 Ang^3
#
#
#
# Elastic Constant Matrix: (Units=GPa)
#
#
# Indices 1 2 3 4 5 6 
#
# 1 77.6018 20.9922 2.7969 0.0000 0.0000 0.0000
# 2 20.9922 141.2229 -5.4932 0.0000 0.0000 0.0000
# 3 2.7969 -5.4932 77.5334 0.0000 0.0000 0.0000
# 4 0.0000 0.0000 0.0000 13.4074 0.0000 0.0000
# 5 0.0000 0.0000 0.0000 0.0000 2.6645 0.0000
# 6 0.0000 0.0000 0.0000 0.0000 0.0000 62.1131
#
#
#
# Elastic Compliance Matrix: (Units=1/GPa)
#
#
# Indices 1 2 3 4 5 6 
#
# 1 0.013457 -0.002025 -0.000629 0.000000 0.000000 0.000000
# 2 -0.002025 0.007405 0.000598 0.000000 0.000000 0.000000
# 3 -0.000629 0.000598 0.012963 0.000000 0.000000 0.000000
# 4 0.000000 0.000000 0.000000 0.074586 0.000000 0.000000
# 5 0.000000 0.000000 0.000000 0.000000 0.375305 0.000000
# 6 0.000000 0.000000 0.000000 0.000000 0.000000 0.016100
#
#
# Mechanical properties :
#
#
# Convention : Reuss Voigt Hill
#
# Bulk Modulus (GPa) = 33.65560 36.99444 35.32502
# Shear Modulus (GPa) = 9.73082 34.17448 21.95265
#
# Velocity S-wave (km/s) = 2.05559 3.85223 3.08748
# Velocity P-wave (km/s) = 4.49981 5.98752 5.29616
#
# Compressibility (1/GPa) = 0.02971274
#
# Stress axis : x y z
#
# Youngs Moduli (GPa) = 74.31255 135.03981 77.14444
#
# Poissons Ratio (x) = 0.27342 0.04851
# Poissons Ratio (y) = 0.15046 -0.04611
# Poissons Ratio (z) = 0.04673 -0.08071
#
# Static dielectric constant tensor:
#      x y z
#    x 1.849520 0.000000 0.000000 
#    y 0.000000 1.851330 0.000000 
#    z 0.000000 0.000000 1.971400 
# 
# From -- ./inp_files/16560.got.cif
#   From: 2010.05.17/outbox.cif.g08.bks.cpg/sg50_9_cif.got.tgz:16560.got - 2010.06.03 11:33:33.
