data_PCOD9396033
_publ_section_title
;
Structure prediction by ZEFSAII (Michael W. Deem and Ramdas Pophale) SiO2 
 PCOD9396033
Probable space group: P B A N
;
_chemical_formula_sum "Si O2"
_cell_formula_units_Z 58
_cell_length_a 17.593529
_cell_length_b 14.295614
_cell_length_c 11.496627
_cell_angle_alpha 90.000000
_cell_angle_beta 90.000000
_cell_angle_gamma 90.000000
_cell_volume 2891.520100
_symmetry_space_group_name_H-M "P B A N"
_symmetry_group_IT_number 50
_space_group.IT_coordinate_system_code '2'
_symmetry_cell_setting 'orthorhombic'
loop_
_space_group_symop_operation_xyz
x,y,z
1/2-x,1/2-y,z
x,1/2-y,-z
1/2-x,y,-z
-x,-y,-z
1/2+x,1/2+y,-z
-x,1/2+y,z
1/2+x,-y,z
loop_
_atom_site_type_symbol
_atom_site_label
_atom_site_fract_x
_atom_site_fract_y
_atom_site_fract_z
Si Si1 0.758575 0.918682 0.862299
Si Si2 0.174447 0.613382 0.817289
Si Si3 0.015149 0.511203 0.863443
Si Si4 0.334933 0.657114 0.447192
Si Si5 0.750000 0.250000 0.000000
Si Si6 0.107820 0.364074 0.265648
Si Si7 0.094650 0.349850 0.743817
Si Si8 0.342681 0.053600 0.509757
O O1 0.687867 0.869293 0.801874
O O2 0.835100 0.863350 0.832503
O O3 0.768605 0.024138 0.811967
O O4 0.750000 0.926469 0.000000
O O5 0.093496 0.567848 0.846558
O O6 0.170527 0.661555 0.691835
O O7 0.200452 0.684054 0.916466
O O8 0.027856 0.412884 0.797285
O O9 0.948827 0.568627 0.802628
O O10 0.000000 0.500000 0.000000
O O11 0.373098 0.750000 0.500000
O O12 0.250000 0.654957 0.500000
O O13 0.367197 0.555106 0.478648
O O14 0.077108 0.258698 0.268665
O O15 0.122936 0.400850 0.394987
O O16 0.126524 0.392968 0.623390
O O17 0.250000 0.058853 0.500000
#
# Coordination Sequence:
#
# PCOD9396033 Si02
#       8
#     8   8   8   8   2   8   8   8
#     4  11  21  40  68  98 134 173 231 290 337 392
#     4  11  23  44  63 102 139 173 235 294 329 409
#     4  11  27  49  65  94 146 185 223 286 349 410
#     4  10  19  38  65  97 135 174 217 278 345 397
#     4  12  24  36  78 100 126 188 250 282 344 396
#     4  12  25  41  72 103 131 192 222 271 367 409
#     4  11  24  45  68 100 141 171 231 290 333 416
#     4  11  21  42  71 105 142 172 225 294 344 403
#
# _framework density 20.058654000000001
#
# number of rings (size 3 to 8) (size 9 to 14) (size 15 to 20)
#    0.000    0.966    4.828    4.138    0.000    4.966 
#    2.483    0.000    0.000    0.000    0.000    0.000 
#    0.000    0.000    0.000    0.000    0.000    0.000 
#
# Total GULP energy -324332.974404 kJ/mol
# GULP energy per Si atom -5591.947835 kJ/mol
# Density = 2.001300 g / cm^3
# Si number density = 20.058654 Si / 1000 Ang^3
#
#
#
# Elastic Constant Matrix: (Units=GPa)
#
#
# Indices 1 2 3 4 5 6 
#
# 1 23.2529 14.9900 15.5249 0.0000 0.0000 0.0000
# 2 14.9900 132.5704 59.9774 0.0000 0.0000 0.0000
# 3 15.5249 59.9774 170.4040 0.0000 0.0000 0.0000
# 4 0.0000 0.0000 0.0000 22.3571 0.0000 0.0000
# 5 0.0000 0.0000 0.0000 0.0000 50.2714 0.0000
# 6 0.0000 0.0000 0.0000 0.0000 0.0000 8.5452
#
#
#
# Elastic Compliance Matrix: (Units=1/GPa)
#
#
# Indices 1 2 3 4 5 6 
#
# 1 0.047564 -0.004065 -0.002903 0.000000 0.000000 0.000000
# 2 -0.004065 0.009319 -0.002910 0.000000 0.000000 0.000000
# 3 -0.002903 -0.002910 0.007157 0.000000 0.000000 0.000000
# 4 0.000000 0.000000 0.000000 0.044729 0.000000 0.000000
# 5 0.000000 0.000000 0.000000 0.000000 0.019892 0.000000
# 6 0.000000 0.000000 0.000000 0.000000 0.000000 0.117024
#
#
# Mechanical properties :
#
#
# Convention : Reuss Voigt Hill
#
# Bulk Modulus (GPa) = 22.58081 56.35689 39.46885
# Shear Modulus (GPa) = 17.84430 31.95042 24.89736
#
# Velocity S-wave (km/s) = 2.98586 3.99538 3.52693
# Velocity P-wave (km/s) = 4.81342 7.03144 6.02537
#
# Compressibility (1/GPa) = 0.04428539
#
# Stress axis : x y z
#
# Youngs Moduli (GPa) = 21.02438 107.30508 139.72318
#
# Poissons Ratio (x) = 0.43619 0.40556
# Poissons Ratio (y) = 0.08546 0.40656
# Poissons Ratio (z) = 0.06103 0.31223
#
# Static dielectric constant tensor:
#      x y z
#    x 1.657040 0.000000 0.000000 
#    y 0.000000 1.736850 0.000000 
#    z 0.000000 0.000000 1.670790 
# 
# From -- ./inp_files/21911.got.cif
#   From: 2010.05.17/outbox.cif.g08.bks.cpg/sg50_11_cif.got.tgz:21911.got - 2010.06.03 11:33:33.
