data_PCOD9396380
_publ_section_title
;
Structure prediction by ZEFSAII (Michael W. Deem and Ramdas Pophale) SiO2 
 PCOD9396380
Probable space group: P B A N
;
_chemical_formula_sum "Si O2"
_cell_formula_units_Z 40
_cell_length_a 22.877112
_cell_length_b 9.592185
_cell_length_c 7.380103
_cell_angle_alpha 90.000000
_cell_angle_beta 90.000000
_cell_angle_gamma 90.000000
_cell_volume 1619.500803
_symmetry_space_group_name_H-M "P B A N"
_symmetry_group_IT_number 50
_space_group.IT_coordinate_system_code '2'
_symmetry_cell_setting 'orthorhombic'
loop_
_space_group_symop_operation_xyz
x,y,z
1/2-x,1/2-y,z
x,1/2-y,-z
1/2-x,y,-z
-x,-y,-z
1/2+x,1/2+y,-z
-x,1/2+y,z
1/2+x,-y,z
loop_
_atom_site_type_symbol
_atom_site_label
_atom_site_fract_x
_atom_site_fract_y
_atom_site_fract_z
Si Si1 0.479824 0.873941 0.869366
Si Si2 0.821350 0.027398 0.172438
Si Si3 0.399796 0.285568 0.784812
Si Si4 0.868568 0.187226 0.677797
Si Si5 0.194841 0.052325 0.251388
O O1 0.531260 0.805581 0.746221
O O2 0.420116 0.904002 0.766918
O O3 0.460795 0.750000 0.000000
O O4 0.500000 0.000000 0.000000
O O5 0.835117 0.188699 0.215380
O O6 0.764877 0.942639 0.249219
O O7 0.875955 0.940021 0.241443
O O8 0.817061 0.003650 0.954989
O O9 0.350259 0.178636 0.711701
O O10 0.400627 0.250000 0.000000
O O11 0.896581 0.250000 0.500000
O O12 0.820449 0.075657 0.619541
#
# Coordination Sequence:
#
# PCOD9396380 Si02
#       5
#     8   8   8   8   8
#     4  11  21  39  65  89 120 160 206 256 307 372
#     4  10  20  37  63  89 117 155 203 252 303 367
#     4   9  18  35  61  91 117 146 195 258 308 352
#     4  12  25  39  57  86 125 163 202 252 311 370
#     4  10  20  37  62  90 117 154 204 255 305 365
#
# _framework density 24.698968000000001
#
# number of rings (size 3 to 8) (size 9 to 14) (size 15 to 20)
#    0.000    1.600    0.000    7.800    0.000    5.600 
#    0.000   10.000    0.000    2.400    0.000    0.000 
#    0.000    0.000    0.000    0.000    0.000    0.000 
#
# Total GULP energy -222925.221803 kJ/mol
# GULP energy per Si atom -5573.130545 kJ/mol
# Density = 2.464275 g / cm^3
# Si number density = 24.698968 Si / 1000 Ang^3
#
#
#
# Elastic Constant Matrix: (Units=GPa)
#
#
# Indices 1 2 3 4 5 6 
#
# 1 141.3627 4.2295 8.6432 0.0000 0.0000 0.0000
# 2 4.2295 93.1184 2.4669 0.0000 0.0000 0.0000
# 3 8.6432 2.4669 28.8937 0.0000 0.0000 0.0000
# 4 0.0000 0.0000 0.0000 18.2618 0.0000 0.0000
# 5 0.0000 0.0000 0.0000 0.0000 12.2039 0.0000
# 6 0.0000 0.0000 0.0000 0.0000 0.0000 43.2403
#
#
#
# Elastic Compliance Matrix: (Units=1/GPa)
#
#
# Indices 1 2 3 4 5 6 
#
# 1 0.007213 -0.000271 -0.002134 0.000000 0.000000 0.000000
# 2 -0.000271 0.010774 -0.000839 0.000000 0.000000 0.000000
# 3 -0.002134 -0.000839 0.035320 0.000000 0.000000 0.000000
# 4 0.000000 0.000000 0.000000 0.054759 0.000000 0.000000
# 5 0.000000 0.000000 0.000000 0.000000 0.081941 0.000000
# 6 0.000000 0.000000 0.000000 0.000000 0.000000 0.023127
#
#
# Mechanical properties :
#
#
# Convention : Reuss Voigt Hill
#
# Bulk Modulus (GPa) = 21.35958 32.67267 27.01612
# Shear Modulus (GPa) = 21.25607 31.27688 26.26647
#
# Velocity S-wave (km/s) = 2.93679 3.56240 3.26462
# Velocity P-wave (km/s) = 4.49070 5.49345 5.01719
#
# Compressibility (1/GPa) = 0.04681740
#
# Stress axis : x y z
#
# Youngs Moduli (GPa) = 138.64594 92.81993 28.31282
#
# Poissons Ratio (x) = 0.02516 0.06043
# Poissons Ratio (y) = 0.03758 0.02375
# Poissons Ratio (z) = 0.29593 0.07785
#
# Static dielectric constant tensor:
#      x y z
#    x 1.931150 0.000000 0.000000 
#    y 0.000000 1.900750 0.000000 
#    z 0.000000 0.000000 6.663870 
# 
# From -- ./inp_files/15810.got.cif
#   From: 2010.05.17/outbox.cif.g08.bks.cpg/sg50_8_cif.got.tgz:15810.got - 2010.06.03 11:33:33.
