data_PCOD9396053
_publ_section_title
;
Structure prediction by ZEFSAII (Michael W. Deem and Ramdas Pophale) SiO2 
 PCOD9396053
Probable space group: P B A N
;
_chemical_formula_sum "Si O2"
_cell_formula_units_Z 56
_cell_length_a 13.465220
_cell_length_b 14.062185
_cell_length_c 15.161693
_cell_angle_alpha 90.000000
_cell_angle_beta 90.000000
_cell_angle_gamma 90.000000
_cell_volume 2870.872857
_symmetry_space_group_name_H-M "P B A N"
_symmetry_group_IT_number 50
_space_group.IT_coordinate_system_code '2'
_symmetry_cell_setting 'orthorhombic'
loop_
_space_group_symop_operation_xyz
x,y,z
1/2-x,1/2-y,z
x,1/2-y,-z
1/2-x,y,-z
-x,-y,-z
1/2+x,1/2+y,-z
-x,1/2+y,z
1/2+x,-y,z
loop_
_atom_site_type_symbol
_atom_site_label
_atom_site_fract_x
_atom_site_fract_y
_atom_site_fract_z
Si Si1 0.917220 0.745921 0.760136
Si Si2 0.233170 0.642705 0.375679
Si Si3 0.742401 0.107370 0.832670
Si Si4 0.988609 0.327687 0.578729
Si Si5 0.256517 0.401638 0.232878
Si Si6 0.672326 0.959871 0.427481
Si Si7 0.910155 0.244987 0.898654
O O1 0.845952 0.654792 0.755054
O O2 0.844470 0.830125 0.793663
O O3 0.966659 0.775380 0.666474
O O4 0.001900 0.729136 0.830883
O O5 0.250000 0.750000 0.402622
O O6 0.248588 0.635874 0.270551
O O7 0.117094 0.625122 0.396139
O O8 0.312586 0.573591 0.422096
O O9 0.831249 0.159835 0.883686
O O10 0.644423 0.156619 0.871565
O O11 0.746181 0.993429 0.829317
O O12 0.981745 0.250000 0.500000
O O13 0.066932 0.411426 0.556506
O O14 0.289171 0.431920 0.330896
O O15 0.750000 0.923659 0.500000
O O16 0.940608 0.250000 0.000000
#
# Coordination Sequence:
#
# PCOD9396053 Si02
#       7
#     8   8   8   8   8   8   8
#     4  10  20  42  61  93 125 159 212 253 312 368
#     4  11  22  41  60  91 128 165 206 264 307 365
#     4  10  19  41  60  89 120 157 202 247 311 366
#     4  11  23  40  68  91 125 175 213 259 312 366
#     4   9  21  38  65  85 125 170 198 258 312 370
#     4  10  23  40  59  91 129 166 220 257 305 367
#     4  11  22  40  66  91 120 158 205 259 312 375
#
# _framework density 19.506263000000001
#
# number of rings (size 3 to 8) (size 9 to 14) (size 15 to 20)
#    0.000    1.714    2.857    1.714    2.000    3.143 
#   12.857    5.714    0.000    0.000    0.000    0.000 
#    0.000    0.000    0.000    0.000    0.000    0.000 
#
# Total GULP energy -312620.346773 kJ/mol
# GULP energy per Si atom -5582.506192 kJ/mol
# Density = 1.946187 g / cm^3
# Si number density = 19.506263 Si / 1000 Ang^3
#
#
#
# Elastic Constant Matrix: (Units=GPa)
#
#
# Indices 1 2 3 4 5 6 
#
# 1 53.3115 9.5495 -4.7814 0.0000 0.0000 0.0000
# 2 9.5495 98.9494 -3.3948 0.0000 0.0000 0.0000
# 3 -4.7814 -3.3948 58.2660 0.0000 0.0000 0.0000
# 4 0.0000 0.0000 0.0000 14.6934 0.0000 0.0000
# 5 0.0000 0.0000 0.0000 0.0000 -58.3427 0.0000
# 6 0.0000 0.0000 0.0000 0.0000 0.0000 7.3163
#
#
#
# Elastic Compliance Matrix: (Units=1/GPa)
#
#
# Indices 1 2 3 4 5 6 
#
# 1 0.019213 -0.001804 0.001472 0.000000 0.000000 0.000000
# 2 -0.001804 0.010296 0.000452 0.000000 0.000000 0.000000
# 3 0.001472 0.000452 0.017310 0.000000 0.000000 0.000000
# 4 0.000000 0.000000 0.000000 0.068058 0.000000 0.000000
# 5 0.000000 0.000000 0.000000 0.000000 -0.017140 0.000000
# 6 0.000000 0.000000 0.000000 0.000000 0.000000 0.136680
#
#
# Mechanical properties :
#
#
# Convention : Reuss Voigt Hill
#
# Bulk Modulus (GPa) = 21.25055 23.69705 22.47380
# Shear Modulus (GPa) = 20.01099 6.67699 13.34399
#
# Velocity S-wave (km/s) = 3.20640 1.85214 2.61834
# Velocity P-wave (km/s) = 4.96245 4.09252 4.54833
#
# Compressibility (1/GPa) = 0.04705760
#
# Stress axis : x y z
#
# Youngs Moduli (GPa) = 52.04878 97.12745 57.77094
#
# Poissons Ratio (x) = 0.17519 -0.08501
# Poissons Ratio (y) = 0.09388 -0.02610
# Poissons Ratio (z) = -0.07659 -0.04389
#
# Static dielectric constant tensor:
#      x y z
#    x 1.685470 0.000000 0.000000 
#    y 0.000000 1.740570 0.000000 
#    z 0.000000 0.000000 1.673110 
# 
# From -- ./inp_files/25939.got.cif
#   From: 2010.05.17/outbox.cif.g08.bks.cpg/sg50_13_cif.got.tgz:25939.got - 2010.06.03 11:33:33.
