data_PCOD9396497
_publ_section_title
;
Structure prediction by ZEFSAII (Michael W. Deem and Ramdas Pophale) SiO2 
 PCOD9396497
Probable space group: P B A N
;
_chemical_formula_sum "Si O2"
_cell_formula_units_Z 40
_cell_length_a 14.401121
_cell_length_b 5.185055
_cell_length_c 25.689494
_cell_angle_alpha 90.000000
_cell_angle_beta 90.000000
_cell_angle_gamma 90.000000
_cell_volume 1918.250045
_symmetry_space_group_name_H-M "P B A N"
_symmetry_group_IT_number 50
_space_group.IT_coordinate_system_code '2'
_symmetry_cell_setting 'orthorhombic'
loop_
_space_group_symop_operation_xyz
x,y,z
1/2-x,1/2-y,z
x,1/2-y,-z
1/2-x,y,-z
-x,-y,-z
1/2+x,1/2+y,-z
-x,1/2+y,z
1/2+x,-y,z
loop_
_atom_site_type_symbol
_atom_site_label
_atom_site_fract_x
_atom_site_fract_y
_atom_site_fract_z
Si Si1 0.437375 0.289196 0.764148
Si Si2 0.250000 0.750000 0.374334
Si Si3 0.444345 0.263003 0.114094
Si Si4 0.250000 0.250000 0.302064
Si Si5 0.824298 0.082646 0.042177
Si Si6 0.440026 0.746138 0.437497
O O1 0.493646 0.550961 0.752966
O O2 0.415970 0.278096 0.826047
O O3 0.342606 0.270085 0.732569
O O4 0.256356 0.500062 0.338220
O O5 0.341841 0.766316 0.409481
O O6 0.467781 0.564803 0.107016
O O7 0.373309 0.137054 0.074076
O O8 0.750000 0.250000 0.076927
O O9 0.886571 0.250000 0.000000
O O10 0.750000 0.992070 0.000000
O O11 0.426536 0.750000 0.500000
O O12 0.493543 0.484385 0.423476
#
# Coordination Sequence:
#
# PCOD9396497 Si02
#       6
#     8   4   8   4   8   8
#     4  10  23  44  63  90 124 160 214 268 309 379
#     4  12  25  40  64 100 130 168 223 264 320 388
#     4  10  20  39  62  84 112 155 200 244 302 362
#     4  12  26  42  65  96 125 176 210 264 346 370
#     4   6  16  36  52  87 119 148 184 233 300 362
#     4  10  22  41  65  95 133 178 218 263 320 375
#
# _framework density 20.852338
#
# number of rings (size 3 to 8) (size 9 to 14) (size 15 to 20)
#    1.200    1.200    0.000    2.700    0.000    5.600 
#   12.600    5.000    0.000    0.000    0.000    0.000 
#    0.000    0.000    0.000    0.000    0.000    0.000 
#
# Total GULP energy -223053.021057 kJ/mol
# GULP energy per Si atom -5576.325526 kJ/mol
# Density = 2.080488 g / cm^3
# Si number density = 20.852338 Si / 1000 Ang^3
#
#
#
# Elastic Constant Matrix: (Units=GPa)
#
#
# Indices 1 2 3 4 5 6 
#
# 1 116.9303 14.1480 74.1525 0.0000 0.0000 0.0000
# 2 14.1480 110.6127 33.7641 0.0000 0.0000 0.0000
# 3 74.1525 33.7641 72.8592 0.0000 0.0000 0.0000
# 4 0.0000 0.0000 0.0000 7.4876 0.0000 0.0000
# 5 0.0000 0.0000 0.0000 0.0000 557.4105 0.0000
# 6 0.0000 0.0000 0.0000 0.0000 0.0000 18.9068
#
#
#
# Elastic Compliance Matrix: (Units=1/GPa)
#
#
# Indices 1 2 3 4 5 6 
#
# 1 0.026912 0.005729 -0.030045 0.000000 0.000000 0.000000
# 2 0.005729 0.011750 -0.011275 0.000000 0.000000 0.000000
# 3 -0.030045 -0.011275 0.049528 0.000000 0.000000 0.000000
# 4 0.000000 0.000000 0.000000 0.133555 0.000000 0.000000
# 5 0.000000 0.000000 0.000000 0.000000 0.001794 0.000000
# 6 0.000000 0.000000 0.000000 0.000000 0.000000 0.052891
#
#
# Mechanical properties :
#
#
# Convention : Reuss Voigt Hill
#
# Bulk Modulus (GPa) = 58.79787 60.50350 59.65068
# Shear Modulus (GPa) = 14.15302 128.65013 71.40158
#
# Velocity S-wave (km/s) = 2.60806 7.86319 5.85797
# Velocity P-wave (km/s) = 6.10965 10.56020 8.62687
#
# Compressibility (1/GPa) = 0.01700742
#
# Stress axis : x y z
#
# Youngs Moduli (GPa) = 37.15814 85.10924 20.19051
#
# Poissons Ratio (x) = -0.48757 0.60661
# Poissons Ratio (y) = -0.21287 0.22766
# Poissons Ratio (z) = 1.11640 0.95965
#
# Static dielectric constant tensor:
#      x y z
#    x 1.949930 0.000000 0.000000 
#    y 0.000000 1.873500 0.000000 
#    z 0.000000 0.000000 1.739240 
# 
# From -- ./inp_files/31734.got.cif
#   From: 2010.05.17/outbox.cif.g08.bks.cpg/sg50_16_cif.got.tgz:31734.got - 2010.06.03 11:33:33.
