data_PCOD9396523
_publ_section_title
;
Structure prediction by ZEFSAII (Michael W. Deem and Ramdas Pophale) SiO2 
 PCOD9396523
Probable space group: P B A N
;
_chemical_formula_sum "Si O2"
_cell_formula_units_Z 34
_cell_length_a 26.363826
_cell_length_b 10.084024
_cell_length_c 5.244610
_cell_angle_alpha 90.000000
_cell_angle_beta 90.000000
_cell_angle_gamma 90.000000
_cell_volume 1394.297684
_symmetry_space_group_name_H-M "P B A N"
_symmetry_group_IT_number 50
_space_group.IT_coordinate_system_code '2'
_symmetry_cell_setting 'orthorhombic'
loop_
_space_group_symop_operation_xyz
x,y,z
1/2-x,1/2-y,z
x,1/2-y,-z
1/2-x,y,-z
-x,-y,-z
1/2+x,1/2+y,-z
-x,1/2+y,z
1/2+x,-y,z
loop_
_atom_site_type_symbol
_atom_site_label
_atom_site_fract_x
_atom_site_fract_y
_atom_site_fract_z
Si Si1 0.397494 0.603853 0.353523
Si Si2 0.953793 0.642527 0.297898
Si Si3 0.250000 0.750000 0.000000
Si Si4 0.536211 0.250000 0.000000
Si Si5 0.168126 0.960711 0.846597
Si Si6 0.642732 0.750000 0.000000
O O1 0.442160 0.499917 0.405808
O O2 0.427653 0.729904 0.242181
O O3 0.359528 0.578826 0.584931
O O4 0.365363 0.571886 0.096174
O O5 0.971024 0.750000 0.500000
O O6 0.995368 0.638768 0.076130
O O7 0.898210 0.693820 0.203871
O O8 0.285287 0.643340 0.852924
O O9 0.173299 0.122850 0.881293
#
# Coordination Sequence:
#
# PCOD9396523 Si02
#       6
#     8   8   2   4   8   4
#     4  11  25  45  69 103 147 203 241 302 373 444
#     4  10  20  39  67 102 149 195 259 301 346 433
#     4  12  30  52  78 118 136 180 234 326 386 480
#     4  11  25  36  64 108 156 206 250 304 365 437
#     4  11  26  47  77 102 147 183 250 304 387 455
#     4   9  20  45  71 105 140 201 235 303 370 443
#
# _framework density 24.385035999999999
#
# number of rings (size 3 to 8) (size 9 to 14) (size 15 to 20)
#    0.000    1.412    2.353    1.412    3.294    6.118 
#    0.000    0.000    0.000    2.824    0.000    0.000 
#    0.000    0.000    0.000    0.000    0.000    0.000 
#
# Total GULP energy -189488.228492 kJ/mol
# GULP energy per Si atom -5573.183191 kJ/mol
# Density = 2.432953 g / cm^3
# Si number density = 24.385036 Si / 1000 Ang^3
#
#
#
# Elastic Constant Matrix: (Units=GPa)
#
#
# Indices 1 2 3 4 5 6 
#
# 1 75.3325 61.6959 53.3604 0.0000 0.0000 0.0000
# 2 61.6959 176.9919 35.9275 0.0000 0.0000 0.0000
# 3 53.3604 35.9275 156.5854 0.0000 0.0000 0.0000
# 4 0.0000 0.0000 0.0000 21.5253 0.0000 0.0000
# 5 0.0000 0.0000 0.0000 0.0000 4829.1134 0.0000
# 6 0.0000 0.0000 0.0000 0.0000 0.0000 -28.1166
#
#
#
# Elastic Compliance Matrix: (Units=1/GPa)
#
#
# Indices 1 2 3 4 5 6 
#
# 1 0.023443 -0.006870 -0.006413 0.000000 0.000000 0.000000
# 2 -0.006870 0.007939 0.000520 0.000000 0.000000 0.000000
# 3 -0.006413 0.000520 0.008452 0.000000 0.000000 0.000000
# 4 0.000000 0.000000 0.000000 0.046457 0.000000 0.000000
# 5 0.000000 0.000000 0.000000 0.000000 0.000207 0.000000
# 6 0.000000 0.000000 0.000000 0.000000 0.000000 -0.035566
#
#
# Mechanical properties :
#
#
# Convention : Reuss Voigt Hill
#
# Bulk Modulus (GPa) = 69.88830 78.98638 74.43734
# Shear Modulus (GPa) = 61.55474 981.69951 521.62713
#
# Velocity S-wave (km/s) = 5.02968 20.08623 14.64163
# Velocity P-wave (km/s) = 7.90270 23.88313 17.78843
#
# Compressibility (1/GPa) = 0.01430855
#
# Stress axis : x y z
#
# Youngs Moduli (GPa) = 42.65622 125.95549 118.31073
#
# Poissons Ratio (x) = 0.86533 0.75867
# Poissons Ratio (y) = 0.29306 -0.06147
# Poissons Ratio (z) = 0.27354 -0.06544
#
# Static dielectric constant tensor:
#      x y z
#    x 1.914000 0.000000 0.000000 
#    y 0.000000 2.176620 0.000000 
#    z 0.000000 0.000000 2.108030 
# 
# From -- ./inp_files/5821.got.cif
#   From: 2010.05.17/outbox.cif.g08.bks.cpg/sg50_3_cif.got.tgz:5821.got - 2010.06.03 11:33:33.
