data_PCOD9396304
_publ_section_title
;
Structure prediction by ZEFSAII (Michael W. Deem and Ramdas Pophale) SiO2 
 PCOD9396304
Probable space group: P B A N
;
_chemical_formula_sum "Si O2"
_cell_formula_units_Z 40
_cell_length_a 8.021924
_cell_length_b 24.903740
_cell_length_c 8.577167
_cell_angle_alpha 90.000000
_cell_angle_beta 90.000000
_cell_angle_gamma 90.000000
_cell_volume 1713.511339
_symmetry_space_group_name_H-M "P B A N"
_symmetry_group_IT_number 50
_space_group.IT_coordinate_system_code '2'
_symmetry_cell_setting 'orthorhombic'
loop_
_space_group_symop_operation_xyz
x,y,z
1/2-x,1/2-y,z
x,1/2-y,-z
1/2-x,y,-z
-x,-y,-z
1/2+x,1/2+y,-z
-x,1/2+y,z
1/2+x,-y,z
loop_
_atom_site_type_symbol
_atom_site_label
_atom_site_fract_x
_atom_site_fract_y
_atom_site_fract_z
Si Si1 0.383924 0.533251 0.120423
Si Si2 0.547577 0.748172 0.317387
Si Si3 0.600941 0.542260 0.605907
Si Si4 0.950004 0.636754 0.827822
Si Si5 0.052165 0.362011 0.801808
O O1 0.322452 0.490258 0.246783
O O2 0.463806 0.581424 0.219315
O O3 0.250000 0.555673 0.000000
O O4 0.500000 0.500000 0.000000
O O5 0.750000 0.750000 0.295767
O O6 0.513549 0.750000 0.500000
O O7 0.485746 0.693011 0.240237
O O8 0.485557 0.803870 0.245975
O O9 0.750000 0.564449 0.500000
O O10 0.500000 0.500000 0.500000
O O11 0.495667 0.590035 0.687548
O O12 0.754246 0.635889 0.787441
O O13 0.972211 0.633422 0.014154
#
# Coordination Sequence:
#
# PCOD9396304 Si02
#       5
#     8   8   8   8   8
#     4  12  24  43  65  95 129 175 223 270 326 400
#     4   9  19  32  56  92 126 159 202 266 329 379
#     4  12  26  39  61  94 132 168 210 272 335 390
#     4  10  20  37  62  90 124 166 213 267 316 388
#     4  10  20  36  61  89 126 163 212 262 323 389
#
# _framework density 23.343878
#
# number of rings (size 3 to 8) (size 9 to 14) (size 15 to 20)
#    0.000    1.400    2.000    4.200    8.400    2.400 
#    0.000    0.000    0.000    2.400    0.000    2.800 
#    0.000    0.000    0.000    0.000    0.000    0.000 
#
# Total GULP energy -223509.832140 kJ/mol
# GULP energy per Si atom -5587.745804 kJ/mol
# Density = 2.329075 g / cm^3
# Si number density = 23.343878 Si / 1000 Ang^3
#
#
#
# Elastic Constant Matrix: (Units=GPa)
#
#
# Indices 1 2 3 4 5 6 
#
# 1 28.6951 19.0436 9.3402 0.0000 0.0000 0.0000
# 2 19.0436 193.7101 58.6447 0.0000 0.0000 0.0000
# 3 9.3402 58.6447 102.0555 0.0000 0.0000 0.0000
# 4 0.0000 0.0000 0.0000 62.1240 0.0000 0.0000
# 5 0.0000 0.0000 0.0000 0.0000 23.2443 0.0000
# 6 0.0000 0.0000 0.0000 0.0000 0.0000 20.2761
#
#
#
# Elastic Compliance Matrix: (Units=1/GPa)
#
#
# Indices 1 2 3 4 5 6 
#
# 1 0.037493 -0.003205 -0.001590 0.000000 0.000000 0.000000
# 2 -0.003205 0.006523 -0.003455 0.000000 0.000000 0.000000
# 3 -0.001590 -0.003455 0.011930 0.000000 0.000000 0.000000
# 4 0.000000 0.000000 0.000000 0.016097 0.000000 0.000000
# 5 0.000000 0.000000 0.000000 0.000000 0.043021 0.000000
# 6 0.000000 0.000000 0.000000 0.000000 0.000000 0.049319
#
#
# Mechanical properties :
#
#
# Convention : Reuss Voigt Hill
#
# Bulk Modulus (GPa) = 25.35064 55.39087 40.37075
# Shear Modulus (GPa) = 25.76885 36.95768 31.36326
#
# Velocity S-wave (km/s) = 3.32607 3.98324 3.66940
# Velocity P-wave (km/s) = 5.06296 6.70333 5.94005
#
# Compressibility (1/GPa) = 0.03944674
#
# Stress axis : x y z
#
# Youngs Moduli (GPa) = 26.67136 153.29226 83.82462
#
# Poissons Ratio (x) = 0.49124 0.13328
# Poissons Ratio (y) = 0.08547 0.28964
# Poissons Ratio (z) = 0.04241 0.52968
#
# Static dielectric constant tensor:
#      x y z
#    x 1.952100 0.000000 0.000000 
#    y 0.000000 1.934150 0.000000 
#    z 0.000000 0.000000 1.921620 
# 
# From -- ./inp_files/9512.got.cif
#   From: 2010.05.17/outbox.cif.g08.bks.cpg/sg50_5_cif.got.tgz:9512.got - 2010.06.03 11:33:33.
