data_PCOD9396374
_publ_section_title
;
Structure prediction by ZEFSAII (Michael W. Deem and Ramdas Pophale) SiO2 
 PCOD9396374
Probable space group: P B A N
;
_chemical_formula_sum "Si O2"
_cell_formula_units_Z 56
_cell_length_a 9.239641
_cell_length_b 15.283090
_cell_length_c 19.768692
_cell_angle_alpha 90.000000
_cell_angle_beta 90.000000
_cell_angle_gamma 90.000000
_cell_volume 2791.542235
_symmetry_space_group_name_H-M "P B A N"
_symmetry_group_IT_number 50
_space_group.IT_coordinate_system_code '2'
_symmetry_cell_setting 'orthorhombic'
loop_
_space_group_symop_operation_xyz
x,y,z
1/2-x,1/2-y,z
x,1/2-y,-z
1/2-x,y,-z
-x,-y,-z
1/2+x,1/2+y,-z
-x,1/2+y,z
1/2+x,-y,z
loop_
_atom_site_type_symbol
_atom_site_label
_atom_site_fract_x
_atom_site_fract_y
_atom_site_fract_z
Si Si1 0.829102 0.905081 0.565455
Si Si2 0.824833 0.405822 0.566550
Si Si3 0.172806 0.661607 0.283112
Si Si4 0.574730 0.353455 0.003380
Si Si5 0.789832 0.506189 0.802987
Si Si6 0.829620 0.662718 0.285590
Si Si7 0.038273 0.001964 0.104150
O O1 0.750000 0.865205 0.500000
O O2 0.807013 0.853057 0.634522
O O3 0.002197 0.915023 0.555354
O O4 0.752231 0.999606 0.574177
O O5 0.750000 0.365172 0.500000
O O6 0.801459 0.356793 0.637222
O O7 0.250000 0.750000 0.262779
O O8 0.231327 0.582903 0.237821
O O9 0.000668 0.667320 0.273422
O O10 0.520243 0.416255 0.942467
O O11 0.531950 0.250000 0.000000
O O12 0.750000 0.355076 0.000000
O O13 0.517570 0.409118 0.068064
O O14 0.738977 0.583421 0.755308
O O15 0.955523 0.511573 0.825425
O O16 0.704280 0.509932 0.873812
O O17 0.750000 0.750000 0.264020
#
# Coordination Sequence:
#
# PCOD9396374 Si02
#       7
#     8   8   8   8   8   8   8
#     4  10  20  37  61  89 121 166 217 271 334 388
#     4  10  20  37  61  90 120 164 218 273 334 388
#     4  11  26  42  64  94 128 174 221 271 330 390
#     4  10  22  43  71 102 132 168 216 261 310 373
#     4  12  24  45  65  94 138 174 218 257 324 384
#     4  11  26  42  63  95 130 172 221 272 328 388
#     4  11  24  42  70  99 132 175 209 263 315 376
#
# _framework density 20.060596
#
# number of rings (size 3 to 8) (size 9 to 14) (size 15 to 20)
#    0.000    1.286    4.286    1.714    2.000    5.143 
#    0.000    3.571    0.000    0.000    0.000    0.000 
#    0.000    0.000    0.000    0.000    0.000    0.000 
#
# Total GULP energy -312724.594455 kJ/mol
# GULP energy per Si atom -5584.367758 kJ/mol
# Density = 2.001494 g / cm^3
# Si number density = 20.060596 Si / 1000 Ang^3
#
#
#
# Elastic Constant Matrix: (Units=GPa)
#
#
# Indices 1 2 3 4 5 6 
#
# 1 63.2319 50.9263 29.1308 0.0000 0.0000 0.0000
# 2 50.9263 176.5582 56.1681 0.0000 0.0000 0.0000
# 3 29.1308 56.1681 77.9464 0.0000 0.0000 0.0000
# 4 0.0000 0.0000 0.0000 -70.1617 0.0000 0.0000
# 5 0.0000 0.0000 0.0000 0.0000 39.4507 0.0000
# 6 0.0000 0.0000 0.0000 0.0000 0.0000 21.8022
#
#
#
# Elastic Compliance Matrix: (Units=1/GPa)
#
#
# Indices 1 2 3 4 5 6 
#
# 1 0.021853 -0.004807 -0.004703 0.000000 0.000000 0.000000
# 2 -0.004807 0.008406 -0.004261 0.000000 0.000000 0.000000
# 3 -0.004703 -0.004261 0.017657 0.000000 0.000000 0.000000
# 4 0.000000 0.000000 0.000000 -0.014253 0.000000 0.000000
# 5 0.000000 0.000000 0.000000 0.000000 0.025348 0.000000
# 6 0.000000 0.000000 0.000000 0.000000 0.000000 0.045867
#
#
# Mechanical properties :
#
#
# Convention : Reuss Voigt Hill
#
# Bulk Modulus (GPa) = 49.08125 65.57630 57.32878
# Shear Modulus (GPa) = 35.91647 10.31898 23.11773
#
# Velocity S-wave (km/s) = 4.23590 2.27048 3.39838
# Velocity P-wave (km/s) = 6.96013 6.29551 6.63615
#
# Compressibility (1/GPa) = 0.02037438
#
# Stress axis : x y z
#
# Youngs Moduli (GPa) = 45.76006 118.96468 56.63387
#
# Poissons Ratio (x) = 0.57187 0.26636
# Poissons Ratio (y) = 0.21997 0.24130
# Poissons Ratio (z) = 0.21522 0.50687
#
# Static dielectric constant tensor:
#      x y z
#    x 1.682830 0.000000 0.000000 
#    y 0.000000 1.680580 0.000000 
#    z 0.000000 0.000000 1.725690 
# 
# From -- ./inp_files/30661.got.cif
#   From: 2010.05.17/outbox.cif.g08.bks.cpg/sg50_16_cif.got.tgz:30661.got - 2010.06.03 11:33:33.
