data_PCOD9396557
_publ_section_title
;
Structure prediction by ZEFSAII (Michael W. Deem and Ramdas Pophale) SiO2 
 PCOD9396557
Probable space group: P B A N
;
_chemical_formula_sum "Si O2"
_cell_formula_units_Z 40
_cell_length_a 9.792521
_cell_length_b 24.384768
_cell_length_c 7.820226
_cell_angle_alpha 90.000000
_cell_angle_beta 90.000000
_cell_angle_gamma 90.000000
_cell_volume 1867.378884
_symmetry_space_group_name_H-M "P B A N"
_symmetry_group_IT_number 50
_space_group.IT_coordinate_system_code '2'
_symmetry_cell_setting 'orthorhombic'
loop_
_space_group_symop_operation_xyz
x,y,z
1/2-x,1/2-y,z
x,1/2-y,-z
1/2-x,y,-z
-x,-y,-z
1/2+x,1/2+y,-z
-x,1/2+y,z
1/2+x,-y,z
loop_
_atom_site_type_symbol
_atom_site_label
_atom_site_fract_x
_atom_site_fract_y
_atom_site_fract_z
Si Si1 0.312600 0.939457 0.274046
Si Si2 0.403377 0.311653 0.065358
Si Si3 0.684472 0.937530 0.705414
Si Si4 0.438266 0.378957 0.385630
Si Si5 0.948407 0.412093 0.076018
O O1 0.404543 0.896418 0.377404
O O2 0.158688 0.921634 0.229651
O O3 0.327425 0.999721 0.352522
O O4 0.384226 0.940111 0.088615
O O5 0.414178 0.324341 0.270615
O O6 0.423928 0.250000 0.000000
O O7 0.250000 0.326522 0.000000
O O8 0.518317 0.349788 0.978330
O O9 0.842651 0.922180 0.718990
O O10 0.619289 0.891737 0.575697
O O11 0.594920 0.934506 0.872702
#
# Coordination Sequence:
#
# PCOD9396557 Si02
#       5
#     8   8   8   8   8
#     4  10  21  35  55  88 123 168 197 239 302 364
#     4  10  20  40  66  84 109 152 207 268 312 353
#     4  11  20  35  56  84 128 161 198 243 298 371
#     4  10  22  36  56  89 122 154 207 250 300 371
#     4  10  21  36  57  88 120 157 213 250 292 371
#
# _framework density 21.420399
#
# number of rings (size 3 to 8) (size 9 to 14) (size 15 to 20)
#    0.000    1.800    2.000    2.400    0.000    7.200 
#    0.000    9.000    0.000    0.000    0.000    8.400 
#    0.000    0.000    0.000    0.000    0.000    0.000 
#
# Total GULP energy -222834.501540 kJ/mol
# GULP energy per Si atom -5570.862538 kJ/mol
# Density = 2.137165 g / cm^3
# Si number density = 21.420399 Si / 1000 Ang^3
#
#
#
# Elastic Constant Matrix: (Units=GPa)
#
#
# Indices 1 2 3 4 5 6 
#
# 1 58.1510 8.5445 6.9232 0.0000 0.0000 0.0000
# 2 8.5445 117.3158 27.0626 0.0000 0.0000 0.0000
# 3 6.9232 27.0626 87.5793 0.0000 0.0000 0.0000
# 4 0.0000 0.0000 0.0000 1.6437 0.0000 0.0000
# 5 0.0000 0.0000 0.0000 0.0000 43.6654 0.0000
# 6 0.0000 0.0000 0.0000 0.0000 0.0000 15.0300
#
#
#
# Elastic Compliance Matrix: (Units=1/GPa)
#
#
# Indices 1 2 3 4 5 6 
#
# 1 0.017474 -0.001027 -0.001064 0.000000 0.000000 0.000000
# 2 -0.001027 0.009239 -0.002774 0.000000 0.000000 0.000000
# 3 -0.001064 -0.002774 0.012359 0.000000 0.000000 0.000000
# 4 0.000000 0.000000 0.000000 0.608392 0.000000 0.000000
# 5 0.000000 0.000000 0.000000 0.000000 0.022901 0.000000
# 6 0.000000 0.000000 0.000000 0.000000 0.000000 0.066534
#
#
# Mechanical properties :
#
#
# Convention : Reuss Voigt Hill
#
# Bulk Modulus (GPa) = 34.08004 38.67851 36.37928
# Shear Modulus (GPa) = 6.61017 26.76887 16.68952
#
# Velocity S-wave (km/s) = 1.75859 3.53893 2.79434
# Velocity P-wave (km/s) = 4.47975 5.89871 5.23750
#
# Compressibility (1/GPa) = 0.02934269
#
# Stress axis : x y z
#
# Youngs Moduli (GPa) = 57.22713 108.24102 80.91018
#
# Poissons Ratio (x) = 0.11119 0.08608
# Poissons Ratio (y) = 0.05879 0.22441
# Poissons Ratio (z) = 0.06088 0.30022
#
# Static dielectric constant tensor:
#      x y z
#    x 1.781790 0.000000 0.000000 
#    y 0.000000 1.758450 0.000000 
#    z 0.000000 0.000000 1.903960 
# 
# From -- ./inp_files/11316.got.cif
#   From: 2010.05.17/outbox.cif.g08.bks.cpg/sg50_6_cif.got.tgz:11316.got - 2010.06.03 11:33:33.
