data_PCOD9396432
_publ_section_title
;
Structure prediction by ZEFSAII (Michael W. Deem and Ramdas Pophale) SiO2 
 PCOD9396432
Probable space group: P B A N
;
_chemical_formula_sum "Si O2"
_cell_formula_units_Z 48
_cell_length_a 14.997969
_cell_length_b 8.920481
_cell_length_c 16.248267
_cell_angle_alpha 90.000000
_cell_angle_beta 90.000000
_cell_angle_gamma 90.000000
_cell_volume 2173.840978
_symmetry_space_group_name_H-M "P B A N"
_symmetry_group_IT_number 50
_space_group.IT_coordinate_system_code '2'
_symmetry_cell_setting 'orthorhombic'
loop_
_space_group_symop_operation_xyz
x,y,z
1/2-x,1/2-y,z
x,1/2-y,-z
1/2-x,y,-z
-x,-y,-z
1/2+x,1/2+y,-z
-x,1/2+y,z
1/2+x,-y,z
loop_
_atom_site_type_symbol
_atom_site_label
_atom_site_fract_x
_atom_site_fract_y
_atom_site_fract_z
Si Si1 0.494849 0.250000 0.000000
Si Si2 0.429687 0.506430 0.106541
Si Si3 0.019111 0.906900 0.366966
Si Si4 0.656601 0.195834 0.230498
Si Si5 0.250000 0.250000 0.721980
Si Si6 0.600317 0.517262 0.219859
Si Si7 0.879520 0.665975 0.421592
O O1 0.436019 0.339606 0.068858
O O2 0.560242 0.121002 0.032190
O O3 0.348851 0.558713 0.165406
O O4 0.517553 0.550910 0.160040
O O5 0.090380 0.846318 0.302366
O O6 0.946089 0.994867 0.310336
O O7 0.962701 0.772619 0.402040
O O8 0.075617 0.004376 0.431136
O O9 0.750000 0.250000 0.266155
O O10 0.627278 0.352332 0.189444
O O11 0.318980 0.361513 0.770334
O O12 0.185370 0.338901 0.657865
O O13 0.839450 0.750000 0.500000
#
# Coordination Sequence:
#
# PCOD9396432 Si02
#       7
#     4   8   8   8   4   8   8
#     4  10  20  38  63  89 122 162 214 240 316 397
#     4  10  21  37  64  89 124 169 205 261 312 390
#     4  10  21  37  60  86 122 163 209 267 312 380
#     4  11  21  36  62  91 124 159 217 268 320 364
#     4  10  23  36  62  89 130 160 210 272 322 377
#     4  10  20  38  59  93 122 162 217 260 319 378
#     4  11  21  38  59  87 122 167 210 258 327 390
#
# _framework density 22.080732999999999
#
# number of rings (size 3 to 8) (size 9 to 14) (size 15 to 20)
#    0.000    1.667    3.333    1.750    0.000    1.333 
#    0.000    0.417    0.000    3.500    0.000    0.000 
#    0.000    0.000    0.000    0.000    0.000    0.000 
#
# Total GULP energy -267268.117785 kJ/mol
# GULP energy per Si atom -5568.085787 kJ/mol
# Density = 2.203048 g / cm^3
# Si number density = 22.080733 Si / 1000 Ang^3
#
#
#
# Elastic Constant Matrix: (Units=GPa)
#
#
# Indices 1 2 3 4 5 6 
#
# 1 107.0304 32.1456 21.7834 0.0000 0.0000 0.0000
# 2 32.1456 89.6639 20.5882 0.0000 0.0000 0.0000
# 3 21.7834 20.5882 58.3545 0.0000 0.0000 0.0000
# 4 0.0000 0.0000 0.0000 15.0642 0.0000 0.0000
# 5 0.0000 0.0000 0.0000 0.0000 16.3430 0.0000
# 6 0.0000 0.0000 0.0000 0.0000 0.0000 26.3141
#
#
#
# Elastic Compliance Matrix: (Units=1/GPa)
#
#
# Indices 1 2 3 4 5 6 
#
# 1 0.010913 -0.003239 -0.002931 0.000000 0.000000 0.000000
# 2 -0.003239 0.013097 -0.003412 0.000000 0.000000 0.000000
# 3 -0.002931 -0.003412 0.019434 0.000000 0.000000 0.000000
# 4 0.000000 0.000000 0.000000 0.066383 0.000000 0.000000
# 5 0.000000 0.000000 0.000000 0.000000 0.061188 0.000000
# 6 0.000000 0.000000 0.000000 0.000000 0.000000 0.038002
#
#
# Mechanical properties :
#
#
# Convention : Reuss Voigt Hill
#
# Bulk Modulus (GPa) = 41.18474 44.89812 43.04143
# Shear Modulus (GPa) = 21.16179 23.57970 22.37074
#
# Velocity S-wave (km/s) = 3.09913 3.27140 3.18643
# Velocity P-wave (km/s) = 5.61236 5.88618 5.75090
#
# Compressibility (1/GPa) = 0.02428084
#
# Stress axis : x y z
#
# Youngs Moduli (GPa) = 91.63792 76.35056 51.45525
#
# Poissons Ratio (x) = 0.24733 0.15080
# Poissons Ratio (y) = 0.29685 0.17555
# Poissons Ratio (z) = 0.26856 0.26049
#
# Static dielectric constant tensor:
#      x y z
#    x 1.915220 0.000000 0.000000 
#    y 0.000000 1.887830 0.000000 
#    z 0.000000 0.000000 1.897710 
# 
# From -- ./inp_files/29474.got.cif
#   From: 2010.05.17/outbox.cif.g08.bks.cpg/sg50_15_cif.got.tgz:29474.got - 2010.06.03 11:33:33.
