data_PCOD9396400
_publ_section_title
;
Structure prediction by ZEFSAII (Michael W. Deem and Ramdas Pophale) SiO2 
 PCOD9396400
Probable space group: P B A N
;
_chemical_formula_sum "Si O2"
_cell_formula_units_Z 52
_cell_length_a 5.218949
_cell_length_b 22.849245
_cell_length_c 19.848207
_cell_angle_alpha 90.000000
_cell_angle_beta 90.000000
_cell_angle_gamma 90.000000
_cell_volume 2366.879717
_symmetry_space_group_name_H-M "P B A N"
_symmetry_group_IT_number 50
_space_group.IT_coordinate_system_code '2'
_symmetry_cell_setting 'orthorhombic'
loop_
_space_group_symop_operation_xyz
x,y,z
1/2-x,1/2-y,z
x,1/2-y,-z
1/2-x,y,-z
-x,-y,-z
1/2+x,1/2+y,-z
-x,1/2+y,z
1/2+x,-y,z
loop_
_atom_site_type_symbol
_atom_site_label
_atom_site_fract_x
_atom_site_fract_y
_atom_site_fract_z
Si Si1 0.250000 0.250000 0.376133
Si Si2 0.243570 0.035748 0.725419
Si Si3 0.489462 0.711707 0.817235
Si Si4 0.011471 0.151475 0.042477
Si Si5 0.476058 0.647486 0.690756
Si Si6 0.771041 0.534891 0.112437
Si Si7 0.153541 0.681437 0.570926
O O1 0.421896 0.287639 0.326207
O O2 0.357016 0.197314 0.421897
O O3 0.329852 0.093616 0.685604
O O4 0.264381 0.044482 0.806485
O O5 0.958701 0.013474 0.709993
O O6 0.750000 0.750000 0.810806
O O7 0.460287 0.692615 0.894108
O O8 0.444529 0.654105 0.770743
O O9 0.250000 0.750000 0.796703
O O10 0.126418 0.091373 0.073739
O O11 0.750000 0.143705 0.000000
O O12 0.250000 0.175894 0.000000
O O13 0.249633 0.645419 0.635651
O O14 0.981619 0.484799 0.095917
O O15 0.250000 0.750000 0.573790
O O16 0.250000 0.657483 0.500000
#
# Coordination Sequence:
#
# PCOD9396400 Si02
#       7
#     4   8   8   8   8   8   8
#     4  10  20  37  64 100 131 176 206 268 327 380
#     4  10  23  40  65  93 127 169 213 270 327 380
#     4  12  26  43  64  91 125 164 212 265 313 379
#     4  12  26  43  62  89 121 166 208 256 321 385
#     4  11  22  39  65  97 129 166 223 264 325 384
#     4  10  21  40  62  89 118 153 202 264 324 374
#     4   9  20  36  59  97 136 169 209 256 327 386
#
# _framework density 21.969853000000001
#
# number of rings (size 3 to 8) (size 9 to 14) (size 15 to 20)
#    0.000    1.385    2.308    3.231    2.154    8.615 
#    0.000    0.000    0.000    0.923    0.000    0.000 
#    0.000    0.000    0.000    0.000    0.000    0.000 
#
# Total GULP energy -289831.185448 kJ/mol
# GULP energy per Si atom -5573.676643 kJ/mol
# Density = 2.191985 g / cm^3
# Si number density = 21.969853 Si / 1000 Ang^3
#
#
#
# Elastic Constant Matrix: (Units=GPa)
#
#
# Indices 1 2 3 4 5 6 
#
# 1 57.5516 -14.8966 23.7370 0.0000 0.0000 0.0000
# 2 -14.8966 31.3862 13.6745 0.0000 0.0000 0.0000
# 3 23.7370 13.6745 94.3856 0.0000 0.0000 0.0000
# 4 0.0000 0.0000 0.0000 13.8159 0.0000 0.0000
# 5 0.0000 0.0000 0.0000 0.0000 20.5809 0.0000
# 6 0.0000 0.0000 0.0000 0.0000 0.0000 2.4236
#
#
#
# Elastic Compliance Matrix: (Units=1/GPa)
#
#
# Indices 1 2 3 4 5 6 
#
# 1 0.024907 0.015531 -0.008514 0.000000 0.000000 0.000000
# 2 0.015531 0.043692 -0.010236 0.000000 0.000000 0.000000
# 3 -0.008514 -0.010236 0.014219 0.000000 0.000000 0.000000
# 4 0.000000 0.000000 0.000000 0.072380 0.000000 0.000000
# 5 0.000000 0.000000 0.000000 0.000000 0.048589 0.000000
# 6 0.000000 0.000000 0.000000 0.000000 0.000000 0.412612
#
#
# Mechanical properties :
#
#
# Convention : Reuss Voigt Hill
#
# Bulk Modulus (GPa) = 13.09230 25.37257 19.23244
# Shear Modulus (GPa) = 7.71250 18.08466 12.89858
#
# Velocity S-wave (km/s) = 1.87566 2.87219 2.42565
# Velocity P-wave (km/s) = 3.26542 4.75112 4.07653
#
# Compressibility (1/GPa) = 0.07638076
#
# Stress axis : x y z
#
# Youngs Moduli (GPa) = 40.14874 22.88732 70.32832
#
# Poissons Ratio (x) = -0.35547 0.59878
# Poissons Ratio (y) = -0.62355 0.71988
# Poissons Ratio (z) = 0.34183 0.23428
#
# Static dielectric constant tensor:
#      x y z
#    x 2.239180 0.000000 0.000000 
#    y 0.000000 1.741110 0.000000 
#    z 0.000000 0.000000 1.937840 
# 
# From -- ./inp_files/30402.got.cif
#   From: 2010.05.17/outbox.cif.g08.bks.cpg/sg50_16_cif.got.tgz:30402.got - 2010.06.03 11:33:33.
