data_PCOD9396532
_publ_section_title
;
Structure prediction by ZEFSAII (Michael W. Deem and Ramdas Pophale) SiO2 
 PCOD9396532
Probable space group: P B A N
;
_chemical_formula_sum "Si O2"
_cell_formula_units_Z 52
_cell_length_a 8.102056
_cell_length_b 19.265497
_cell_length_c 15.411192
_cell_angle_alpha 90.000000
_cell_angle_beta 90.000000
_cell_angle_gamma 90.000000
_cell_volume 2405.535048
_symmetry_space_group_name_H-M "P B A N"
_symmetry_group_IT_number 50
_space_group.IT_coordinate_system_code '2'
_symmetry_cell_setting 'orthorhombic'
loop_
_space_group_symop_operation_xyz
x,y,z
1/2-x,1/2-y,z
x,1/2-y,-z
1/2-x,y,-z
-x,-y,-z
1/2+x,1/2+y,-z
-x,1/2+y,z
1/2+x,-y,z
loop_
_atom_site_type_symbol
_atom_site_label
_atom_site_fract_x
_atom_site_fract_y
_atom_site_fract_z
Si Si1 0.076901 0.576872 0.176130
Si Si2 0.316869 0.601141 0.630147
Si Si3 0.921128 0.777541 0.246753
Si Si4 0.580961 0.287585 0.090046
Si Si5 0.669625 0.534853 0.591178
Si Si6 0.250000 0.750000 0.358329
Si Si7 0.196113 0.428175 0.223652
O O1 0.166666 0.604337 0.264348
O O2 0.113596 0.629813 0.097461
O O3 0.121600 0.495423 0.175908
O O4 0.881341 0.580368 0.189811
O O5 0.489097 0.567079 0.600239
O O6 0.173358 0.548667 0.601634
O O7 0.291757 0.677939 0.595824
O O8 0.750000 0.750000 0.288946
O O9 0.904312 0.857275 0.217800
O O10 0.946652 0.731060 0.161560
O O11 0.082678 0.766494 0.304548
O O12 0.750000 0.250000 0.117315
O O13 0.537650 0.250000 0.000000
O O14 0.750000 0.553589 0.500000
O O15 0.778980 0.557738 0.673644
#
# Coordination Sequence:
#
# PCOD9396532 Si02
#       7
#     8   8   8   8   8   4   8
#     4  10  20  40  59 100 123 165 224 266 329 393
#     4  10  21  38  64  98 126 177 222 277 332 406
#     4  12  22  42  67  97 129 177 224 270 330 408
#     4  11  23  41  67  93 131 173 218 269 336 406
#     4  10  21  40  66  94 132 176 225 275 345 405
#     4  12  24  40  68  98 138 168 234 280 332 390
#     4  10  23  36  68  94 125 166 223 277 319 394
#
# _framework density 21.616813
#
# number of rings (size 3 to 8) (size 9 to 14) (size 15 to 20)
#    0.000    1.385    3.846    1.385   10.769    0.308 
#    0.000    1.154    0.000    3.231    0.000    0.000 
#    0.000    0.000    0.000    0.000    0.000    0.000 
#
# Total GULP energy -290438.943222 kJ/mol
# GULP energy per Si atom -5585.364293 kJ/mol
# Density = 2.156761 g / cm^3
# Si number density = 21.616813 Si / 1000 Ang^3
#
#
#
# Elastic Constant Matrix: (Units=GPa)
#
#
# Indices 1 2 3 4 5 6 
#
# 1 119.5807 54.7101 28.8102 0.0000 0.0000 0.0000
# 2 54.7101 213.1766 35.2319 0.0000 0.0000 0.0000
# 3 28.8102 35.2319 61.2093 0.0000 0.0000 0.0000
# 4 0.0000 0.0000 0.0000 -36.6076 0.0000 0.0000
# 5 0.0000 0.0000 0.0000 0.0000 8.9372 0.0000
# 6 0.0000 0.0000 0.0000 0.0000 0.0000 32.3022
#
#
#
# Elastic Compliance Matrix: (Units=1/GPa)
#
#
# Indices 1 2 3 4 5 6 
#
# 1 0.010154 -0.002007 -0.003624 0.000000 0.000000 0.000000
# 2 -0.002007 0.005581 -0.002268 0.000000 0.000000 0.000000
# 3 -0.003624 -0.002268 0.019348 0.000000 0.000000 0.000000
# 4 0.000000 0.000000 0.000000 -0.027317 0.000000 0.000000
# 5 0.000000 0.000000 0.000000 0.000000 0.111892 0.000000
# 6 0.000000 0.000000 0.000000 0.000000 0.000000 0.030958
#
#
# Mechanical properties :
#
#
# Convention : Reuss Voigt Hill
#
# Bulk Modulus (GPa) = 51.85173 70.16344 61.00759
# Shear Modulus (GPa) = 28.92823 19.27400 24.10112
#
# Velocity S-wave (km/s) = 3.66215 2.98924 3.34267
# Velocity P-wave (km/s) = 6.47461 6.66651 6.57126
#
# Compressibility (1/GPa) = 0.01928576
#
# Stress axis : x y z
#
# Youngs Moduli (GPa) = 98.48421 179.18606 51.68382
#
# Poissons Ratio (x) = 0.35962 0.18731
# Poissons Ratio (y) = 0.19765 0.11720
# Poissons Ratio (z) = 0.35691 0.40633
#
# Static dielectric constant tensor:
#      x y z
#    x 1.797780 0.000000 0.000000 
#    y 0.000000 1.836200 0.000000 
#    z 0.000000 0.000000 1.812060 
# 
# From -- ./inp_files/28855.got.cif
#   From: 2010.05.17/outbox.cif.g08.bks.cpg/sg50_15_cif.got.tgz:28855.got - 2010.06.03 11:33:33.
