data_PCOD9396025
_publ_section_title
;
Structure prediction by ZEFSAII (Michael W. Deem and Ramdas Pophale) SiO2 
 PCOD9396025
Probable space group: P B A N
;
_chemical_formula_sum "Si O2"
_cell_formula_units_Z 64
_cell_length_a 17.964145
_cell_length_b 14.668663
_cell_length_c 11.944903
_cell_angle_alpha 90.000000
_cell_angle_beta 90.000000
_cell_angle_gamma 90.000000
_cell_volume 3147.601259
_symmetry_space_group_name_H-M "P B A N"
_symmetry_group_IT_number 50
_space_group.IT_coordinate_system_code '2'
_symmetry_cell_setting 'orthorhombic'
loop_
_space_group_symop_operation_xyz
x,y,z
1/2-x,1/2-y,z
x,1/2-y,-z
1/2-x,y,-z
-x,-y,-z
1/2+x,1/2+y,-z
-x,1/2+y,z
1/2+x,-y,z
loop_
_atom_site_type_symbol
_atom_site_label
_atom_site_fract_x
_atom_site_fract_y
_atom_site_fract_z
Si Si1 0.050056 0.698962 0.297700
Si Si2 0.166304 0.067277 0.237475
Si Si3 0.392468 0.220315 0.619979
Si Si4 0.472730 0.074035 0.148284
Si Si5 0.162650 0.099755 0.711509
Si Si6 0.537121 0.875997 0.091765
Si Si7 0.081485 0.531636 0.454789
Si Si8 0.894830 0.116074 0.691106
O O1 0.073286 0.604034 0.353671
O O2 0.113992 0.775397 0.297354
O O3 0.981064 0.731897 0.374640
O O4 0.011232 0.684420 0.177090
O O5 0.124684 0.117824 0.341504
O O6 0.252235 0.084915 0.258542
O O7 0.122883 0.114283 0.133390
O O8 0.152294 0.958782 0.240630
O O9 0.363668 0.250000 0.500000
O O10 0.354690 0.292893 0.701914
O O11 0.389149 0.063715 0.189367
O O12 0.522695 0.103940 0.254009
O O13 0.505523 0.977143 0.114308
O O14 0.473151 0.139269 0.039884
O O15 0.132068 0.048762 0.598913
O O16 0.112899 0.584783 0.562868
O O17 0.000000 0.500000 0.500000
#
# Coordination Sequence:
#
# PCOD9396025 Si02
#       8
#     8   8   8   8   8   8   8   8
#     4  11  20  36  60  92 115 158 205 255 303 361
#     4  10  24  39  54  87 128 159 202 250 311 377
#     4  11  21  35  58  84 120 157 202 244 302 375
#     4  10  19  38  62  87 114 157 203 251 307 354
#     4  12  22  37  60  88 121 163 197 250 324 376
#     4   9  20  39  62  86 117 153 205 259 299 363
#     4  12  20  35  60  89 121 155 205 253 299 372
#     4  11  21  37  57  87 123 160 202 249 299 365
#
# _framework density 20.332944000000001
#
# number of rings (size 3 to 8) (size 9 to 14) (size 15 to 20)
#    0.000    1.250    3.750    4.500    0.000    3.500 
#    0.000    0.625    0.000    3.000    0.000    0.000 
#    0.000    0.000    0.000    0.000    0.000    0.000 
#
# Total GULP energy -356900.164564 kJ/mol
# GULP energy per Si atom -5576.565071 kJ/mol
# Density = 2.028667 g / cm^3
# Si number density = 20.332944 Si / 1000 Ang^3
#
#
#
# Elastic Constant Matrix: (Units=GPa)
#
#
# Indices 1 2 3 4 5 6 
#
# 1 48.3364 9.0256 3.9051 0.0000 0.0000 0.0000
# 2 9.0256 99.0126 11.0792 0.0000 0.0000 0.0000
# 3 3.9051 11.0792 103.2952 0.0000 0.0000 0.0000
# 4 0.0000 0.0000 0.0000 28.7589 0.0000 0.0000
# 5 0.0000 0.0000 0.0000 0.0000 8.3097 0.0000
# 6 0.0000 0.0000 0.0000 0.0000 0.0000 22.2451
#
#
#
# Elastic Compliance Matrix: (Units=1/GPa)
#
#
# Indices 1 2 3 4 5 6 
#
# 1 0.021083 -0.001855 -0.000598 0.000000 0.000000 0.000000
# 2 -0.001855 0.010386 -0.001044 0.000000 0.000000 0.000000
# 3 -0.000598 -0.001044 0.009816 0.000000 0.000000 0.000000
# 4 0.000000 0.000000 0.000000 0.034772 0.000000 0.000000
# 5 0.000000 0.000000 0.000000 0.000000 0.120341 0.000000
# 6 0.000000 0.000000 0.000000 0.000000 0.000000 0.044954
#
#
# Mechanical properties :
#
#
# Convention : Reuss Voigt Hill
#
# Bulk Modulus (GPa) = 29.16257 33.18491 31.17374
# Shear Modulus (GPa) = 19.24742 26.97169 23.10955
#
# Velocity S-wave (km/s) = 3.08004 3.64607 3.37494
# Velocity P-wave (km/s) = 5.19832 5.83792 5.52738
#
# Compressibility (1/GPa) = 0.03429053
#
# Stress axis : x y z
#
# Youngs Moduli (GPa) = 47.43150 96.28705 101.87908
#
# Poissons Ratio (x) = 0.17861 0.06093
# Poissons Ratio (y) = 0.08798 0.10634
# Poissons Ratio (z) = 0.02837 0.10051
#
# Static dielectric constant tensor:
#      x y z
#    x 1.689860 0.000000 0.000000 
#    y 0.000000 1.802170 0.000000 
#    z 0.000000 0.000000 1.779130 
# 
# From -- ./inp_files/21951.got.cif
#   From: 2010.05.17/outbox.cif.g08.bks.cpg/sg50_11_cif.got.tgz:21951.got - 2010.06.03 11:33:33.
