data_PCOD9396411
_publ_section_title
;
Structure prediction by ZEFSAII (Michael W. Deem and Ramdas Pophale) SiO2 
 PCOD9396411
Probable space group: P B A N
;
_chemical_formula_sum "Si O2"
_cell_formula_units_Z 64
_cell_length_a 14.911418
_cell_length_b 8.211246
_cell_length_c 22.422388
_cell_angle_alpha 90.000000
_cell_angle_beta 90.000000
_cell_angle_gamma 90.000000
_cell_volume 2745.426816
_symmetry_space_group_name_H-M "P B A N"
_symmetry_group_IT_number 50
_space_group.IT_coordinate_system_code '2'
_symmetry_cell_setting 'orthorhombic'
loop_
_space_group_symop_operation_xyz
x,y,z
1/2-x,1/2-y,z
x,1/2-y,-z
1/2-x,y,-z
-x,-y,-z
1/2+x,1/2+y,-z
-x,1/2+y,z
1/2+x,-y,z
loop_
_atom_site_type_symbol
_atom_site_label
_atom_site_fract_x
_atom_site_fract_y
_atom_site_fract_z
Si Si1 0.004665 0.698806 0.681243
Si Si2 0.489063 0.460254 0.406505
Si Si3 0.354185 0.053236 0.490527
Si Si4 0.544143 0.651571 0.061775
Si Si5 0.287190 0.563116 0.938182
Si Si6 0.271030 0.437686 0.189203
Si Si7 0.949132 0.550559 0.144558
Si Si8 0.400701 0.962839 0.242176
O O1 0.045393 0.532729 0.656651
O O2 0.926951 0.632299 0.724718
O O3 0.069383 0.815614 0.716484
O O4 0.983659 0.773369 0.615667
O O5 0.418682 0.507938 0.456687
O O6 0.590563 0.493047 0.431623
O O7 0.355312 0.250000 0.500000
O O8 0.250000 0.002498 0.500000
O O9 0.608266 0.492359 0.057663
O O10 0.574119 0.779754 0.112483
O O11 0.453687 0.580267 0.091070
O O12 0.537965 0.750000 0.000000
O O13 0.250000 0.750000 0.934924
O O14 0.251401 0.474490 0.879845
O O15 0.250000 0.493848 0.000000
O O16 0.250000 0.250000 0.201565
O O17 0.374345 0.483829 0.193656
O O18 0.202954 0.541412 0.227565
O O19 0.041901 0.550563 0.181038
#
# Coordination Sequence:
#
# PCOD9396411 Si02
#       8
#     8   8   8   8   8   8   8   8
#     4  10  22  42  69  98 145 185 245 300 363 419
#     4  10  20  41  66 103 147 193 228 313 357 420
#     4  10  20  37  68 105 142 197 247 284 361 431
#     4  12  26  47  74 109 146 183 228 295 373 460
#     4  11  26  45  71 104 143 174 227 287 366 449
#     4  12  24  46  73  98 134 184 234 297 361 435
#     4  12  25  46  72 100 140 184 238 293 362 444
#     4  11  24  46  70 101 132 188 244 296 359 438
#
# _framework density 23.311494
#
# number of rings (size 3 to 8) (size 9 to 14) (size 15 to 20)
#    0.000    1.000    3.750    2.625    1.750    1.000 
#    0.000   11.250    0.000    0.000    0.000    0.000 
#    0.000    0.000    0.000    0.000    0.000    0.000 
#
# Total GULP energy -356989.913373 kJ/mol
# GULP energy per Si atom -5577.967396 kJ/mol
# Density = 2.325844 g / cm^3
# Si number density = 23.311494 Si / 1000 Ang^3
#
#
#
# Elastic Constant Matrix: (Units=GPa)
#
#
# Indices 1 2 3 4 5 6 
#
# 1 133.6373 48.8150 34.5951 0.0000 0.0000 0.0000
# 2 48.8150 60.7303 23.8446 0.0000 0.0000 0.0000
# 3 34.5951 23.8446 94.2339 0.0000 0.0000 0.0000
# 4 0.0000 0.0000 0.0000 43.3752 0.0000 0.0000
# 5 0.0000 0.0000 0.0000 0.0000 17.8469 0.0000
# 6 0.0000 0.0000 0.0000 0.0000 0.0000 25.0776
#
#
#
# Elastic Compliance Matrix: (Units=1/GPa)
#
#
# Indices 1 2 3 4 5 6 
#
# 1 0.010918 -0.007996 -0.001985 0.000000 0.000000 0.000000
# 2 -0.007996 0.024139 -0.003173 0.000000 0.000000 0.000000
# 3 -0.001985 -0.003173 0.012143 0.000000 0.000000 0.000000
# 4 0.000000 0.000000 0.000000 0.023055 0.000000 0.000000
# 5 0.000000 0.000000 0.000000 0.000000 0.056032 0.000000
# 6 0.000000 0.000000 0.000000 0.000000 0.000000 0.039876
#
#
# Mechanical properties :
#
#
# Convention : Reuss Voigt Hill
#
# Bulk Modulus (GPa) = 47.86266 55.90121 51.88194
# Shear Modulus (GPa) = 25.07088 29.34974 27.21031
#
# Velocity S-wave (km/s) = 3.28300 3.55212 3.42021
# Velocity P-wave (km/s) = 5.91161 6.39184 6.15641
#
# Compressibility (1/GPa) = 0.02089311
#
# Stress axis : x y z
#
# Youngs Moduli (GPa) = 91.59502 41.42619 82.35004
#
# Poissons Ratio (x) = 0.33126 0.16344
# Poissons Ratio (y) = 0.73242 0.26126
# Poissons Ratio (z) = 0.18179 0.13143
#
# Static dielectric constant tensor:
#      x y z
#    x 1.944370 0.000000 0.000000 
#    y 0.000000 1.992540 0.000000 
#    z 0.000000 0.000000 1.894910 
# 
# From -- ./inp_files/31777.got.cif
#   From: 2010.05.17/outbox.cif.g08.bks.cpg/sg50_16_cif.got.tgz:31777.got - 2010.06.03 11:33:33.
