data_PCOD9396008
_publ_section_title
;
Structure prediction by ZEFSAII (Michael W. Deem and Ramdas Pophale) SiO2 
 PCOD9396008
Probable space group: P B A N
;
_chemical_formula_sum "Si O2"
_cell_formula_units_Z 64
_cell_length_a 12.951734
_cell_length_b 22.464804
_cell_length_c 9.547622
_cell_angle_alpha 90.000000
_cell_angle_beta 90.000000
_cell_angle_gamma 90.000000
_cell_volume 2777.958585
_symmetry_space_group_name_H-M "P B A N"
_symmetry_group_IT_number 50
_space_group.IT_coordinate_system_code '2'
_symmetry_cell_setting 'orthorhombic'
loop_
_space_group_symop_operation_xyz
x,y,z
1/2-x,1/2-y,z
x,1/2-y,-z
1/2-x,y,-z
-x,-y,-z
1/2+x,1/2+y,-z
-x,1/2+y,z
1/2+x,-y,z
loop_
_atom_site_type_symbol
_atom_site_label
_atom_site_fract_x
_atom_site_fract_y
_atom_site_fract_z
Si Si1 0.630800 0.103559 0.029670
Si Si2 0.133106 0.392647 0.755093
Si Si3 0.366706 0.721037 0.861749
Si Si4 0.142426 0.081521 0.698771
Si Si5 0.381534 0.000369 0.549435
Si Si6 0.417315 0.874031 0.649602
Si Si7 0.875604 0.969098 0.007529
Si Si8 0.011586 0.799807 0.592908
O O1 0.612574 0.132193 0.185214
O O2 0.750000 0.092017 0.000000
O O3 0.616634 0.151586 0.904236
O O4 0.585800 0.036193 0.026544
O O5 0.255990 0.380507 0.737842
O O6 0.121366 0.456195 0.680317
O O7 0.064776 0.345796 0.670278
O O8 0.099591 0.410952 0.911616
O O9 0.250000 0.750000 0.852807
O O10 0.424908 0.730916 0.718019
O O11 0.414858 0.750000 0.000000
O O12 0.104574 0.045913 0.832623
O O13 0.042598 0.117649 0.649243
O O14 0.170756 0.031763 0.583795
O O15 0.359240 0.934025 0.599421
O O16 0.500000 0.000000 0.500000
O O17 0.408187 0.829995 0.516776
O O18 0.750000 0.970314 0.000000
O O19 0.954932 0.750000 0.500000
#
# Coordination Sequence:
#
# PCOD9396008 Si02
#       8
#     8   8   8   8   8   8   8   8
#     4  11  22  42  70 102 141 191 239 288 363 455
#     4  11  21  44  67 102 145 192 234 298 369 434
#     4  11  25  50  74  94 138 189 240 301 369 428
#     4  10  22  39  67 100 148 189 227 293 365 438
#     4  10  19  37  63  98 146 185 223 281 367 432
#     4  11  24  42  66 105 146 182 244 297 362 440
#     4   9  21  36  63 105 143 178 236 288 358 441
#     4  12  28  46  71 103 138 189 254 307 363 440
#
# _framework density 23.038501
#
# number of rings (size 3 to 8) (size 9 to 14) (size 15 to 20)
#    0.000    1.375    5.000    1.125    3.500    0.750 
#    0.000    1.250    0.000    0.000    0.000    0.000 
#    0.000    0.000    0.000    0.000    0.000    0.000 
#
# Total GULP energy -356732.485054 kJ/mol
# GULP energy per Si atom -5573.945079 kJ/mol
# Density = 2.298606 g / cm^3
# Si number density = 23.038501 Si / 1000 Ang^3
#
#
#
# Elastic Constant Matrix: (Units=GPa)
#
#
# Indices 1 2 3 4 5 6 
#
# 1 74.0732 18.9569 28.9510 0.0000 0.0000 0.0000
# 2 18.9569 87.7903 32.0158 0.0000 0.0000 0.0000
# 3 28.9510 32.0158 157.8543 0.0000 0.0000 0.0000
# 4 0.0000 0.0000 0.0000 -17.4779 0.0000 0.0000
# 5 0.0000 0.0000 0.0000 0.0000 33.1308 0.0000
# 6 0.0000 0.0000 0.0000 0.0000 0.0000 36.5743
#
#
#
# Elastic Compliance Matrix: (Units=1/GPa)
#
#
# Indices 1 2 3 4 5 6 
#
# 1 0.015002 -0.002415 -0.002262 0.000000 0.000000 0.000000
# 2 -0.002415 0.012689 -0.002131 0.000000 0.000000 0.000000
# 3 -0.002262 -0.002131 0.007182 0.000000 0.000000 0.000000
# 4 0.000000 0.000000 0.000000 -0.057215 0.000000 0.000000
# 5 0.000000 0.000000 0.000000 0.000000 0.030183 0.000000
# 6 0.000000 0.000000 0.000000 0.000000 0.000000 0.027342
#
#
# Mechanical properties :
#
#
# Convention : Reuss Voigt Hill
#
# Bulk Modulus (GPa) = 47.03884 53.28502 50.16193
# Shear Modulus (GPa) = 89.47176 26.43172 57.95174
#
# Velocity S-wave (km/s) = 6.23859 3.39083 5.02085
# Velocity P-wave (km/s) = 8.50619 6.20558 7.44528
#
# Compressibility (1/GPa) = 0.02125903
#
# Stress axis : x y z
#
# Youngs Moduli (GPa) = 66.65741 78.80691 139.23862
#
# Poissons Ratio (x) = 0.19029 0.31491
# Poissons Ratio (y) = 0.16095 0.29668
# Poissons Ratio (z) = 0.15076 0.16792
#
# Static dielectric constant tensor:
#      x y z
#    x 2.063940 0.000000 0.000000 
#    y 0.000000 1.939470 0.000000 
#    z 0.000000 0.000000 1.849020 
# 
# From -- ./inp_files/13470.got.cif
#   From: 2010.05.17/outbox.cif.g08.bks.cpg/sg50_7_cif.got.tgz:13470.got - 2010.06.03 11:33:33.
