data_PCOD9396006
_publ_section_title
;
Structure prediction by ZEFSAII (Michael W. Deem and Ramdas Pophale) SiO2 
 PCOD9396006
Probable space group: P B A N
;
_chemical_formula_sum "Si O2"
_cell_formula_units_Z 48
_cell_length_a 17.378923
_cell_length_b 9.795871
_cell_length_c 15.286496
_cell_angle_alpha 90.000000
_cell_angle_beta 90.000000
_cell_angle_gamma 90.000000
_cell_volume 2602.398880
_symmetry_space_group_name_H-M "P B A N"
_symmetry_group_IT_number 50
_space_group.IT_coordinate_system_code '2'
_symmetry_cell_setting 'orthorhombic'
loop_
_space_group_symop_operation_xyz
x,y,z
1/2-x,1/2-y,z
x,1/2-y,-z
1/2-x,y,-z
-x,-y,-z
1/2+x,1/2+y,-z
-x,1/2+y,z
1/2+x,-y,z
loop_
_atom_site_type_symbol
_atom_site_label
_atom_site_fract_x
_atom_site_fract_y
_atom_site_fract_z
Si Si1 0.039645 0.615101 0.057184
Si Si2 0.707125 0.120142 0.406878
Si Si3 0.221562 0.404074 0.738113
Si Si4 0.814049 0.138991 0.163177
Si Si5 0.070265 0.719850 0.695196
Si Si6 0.958446 0.924351 0.759016
O O1 0.128454 0.597022 0.085458
O O2 0.994329 0.617556 0.148665
O O3 0.034014 0.750000 0.000000
O O4 0.000000 0.500000 0.000000
O O5 0.750000 0.250000 0.364817
O O6 0.750000 0.107582 0.500000
O O7 0.618240 0.165734 0.389723
O O8 0.721540 0.982088 0.354758
O O9 0.250000 0.250000 0.735232
O O10 0.272175 0.504947 0.798503
O O11 0.132313 0.401186 0.764156
O O12 0.750000 0.250000 0.137118
O O13 0.868081 0.213783 0.236613
O O14 0.033029 0.584687 0.738064
O O15 0.003779 0.833226 0.687187
#
# Coordination Sequence:
#
# PCOD9396006 Si02
#       6
#     8   8   8   8   8   8
#     4  11  25  40  60  88 124 164 199 267 340 365
#     4  10  19  37  65  95 124 163 206 257 314 376
#     4  11  23  37  65  95 119 166 215 262 314 368
#     4  11  20  41  64  88 119 163 228 253 303 407
#     4  10  19  37  63  97 119 170 212 253 314 381
#     4  10  22  37  63  86 126 161 215 258 304 398
#
# _framework density 18.444521999999999
#
# number of rings (size 3 to 8) (size 9 to 14) (size 15 to 20)
#    0.000    1.500    5.000    2.000    7.000    0.667 
#    0.000    0.000    0.000   25.000    0.000    0.000 
#    0.000    0.000    0.000    0.000    0.000    0.000 
#
# Total GULP energy -267340.763621 kJ/mol
# GULP energy per Si atom -5569.599242 kJ/mol
# Density = 1.840254 g / cm^3
# Si number density = 18.444522 Si / 1000 Ang^3
#
#
#
# Elastic Constant Matrix: (Units=GPa)
#
#
# Indices 1 2 3 4 5 6 
#
# 1 120.6700 86.3607 57.0434 0.0000 0.0000 0.0000
# 2 86.3607 162.1569 41.0688 0.0000 0.0000 0.0000
# 3 57.0434 41.0688 83.9134 0.0000 0.0000 0.0000
# 4 0.0000 0.0000 0.0000 24.8618 0.0000 0.0000
# 5 0.0000 0.0000 0.0000 0.0000 19.6191 0.0000
# 6 0.0000 0.0000 0.0000 0.0000 0.0000 39.1614
#
#
#
# Elastic Compliance Matrix: (Units=1/GPa)
#
#
# Indices 1 2 3 4 5 6 
#
# 1 0.017286 -0.007112 -0.008270 0.000000 0.000000 0.000000
# 2 -0.007112 0.009965 -0.000043 0.000000 0.000000 0.000000
# 3 -0.008270 -0.000043 0.017560 0.000000 0.000000 0.000000
# 4 0.000000 0.000000 0.000000 0.040222 0.000000 0.000000
# 5 0.000000 0.000000 0.000000 0.000000 0.050971 0.000000
# 6 0.000000 0.000000 0.000000 0.000000 0.000000 0.025535
#
#
# Mechanical properties :
#
#
# Convention : Reuss Voigt Hill
#
# Bulk Modulus (GPa) = 71.62330 81.74291 76.68310
# Shear Modulus (GPa) = 25.37508 28.87962 27.12735
#
# Velocity S-wave (km/s) = 3.71314 3.96126 3.83920
# Velocity P-wave (km/s) = 7.56962 8.08310 7.83057
#
# Compressibility (1/GPa) = 0.01396194
#
# Stress axis : x y z
#
# Youngs Moduli (GPa) = 57.84914 100.34952 56.94715
#
# Poissons Ratio (x) = 0.71365 0.47098
# Poissons Ratio (y) = 0.41140 0.00243
# Poissons Ratio (z) = 0.47844 0.00429
#
# Static dielectric constant tensor:
#      x y z
#    x 1.674270 0.000000 0.000000 
#    y 0.000000 1.665510 0.000000 
#    z 0.000000 0.000000 1.698850 
# 
# From -- ./inp_files/26862.got.cif
#   From: 2010.05.17/outbox.cif.g08.bks.cpg/sg50_14_cif.got.tgz:26862.got - 2010.06.03 11:33:33.
