data_PCOD9396752
_publ_section_title
;
Structure prediction by ZEFSAII (Michael W. Deem and Ramdas Pophale) SiO2 
 PCOD9396752
Probable space group: P B A N
;
_chemical_formula_sum "Si O2"
_cell_formula_units_Z 44
_cell_length_a 8.156517
_cell_length_b 14.100827
_cell_length_c 16.892467
_cell_angle_alpha 90.000000
_cell_angle_beta 90.000000
_cell_angle_gamma 90.000000
_cell_volume 1942.864036
_symmetry_space_group_name_H-M "P B A N"
_symmetry_group_IT_number 50
_space_group.IT_coordinate_system_code '2'
_symmetry_cell_setting 'orthorhombic'
loop_
_space_group_symop_operation_xyz
x,y,z
1/2-x,1/2-y,z
x,1/2-y,-z
1/2-x,y,-z
-x,-y,-z
1/2+x,1/2+y,-z
-x,1/2+y,z
1/2+x,-y,z
loop_
_atom_site_type_symbol
_atom_site_label
_atom_site_fract_x
_atom_site_fract_y
_atom_site_fract_z
Si Si1 0.458159 0.250000 0.000000
Si Si2 0.089515 0.631449 0.287436
Si Si3 0.148988 0.889036 0.887072
Si Si4 0.058862 0.226038 0.587529
Si Si5 0.968377 0.424737 0.302930
Si Si6 0.541555 0.606166 0.127983
O O1 0.569181 0.173849 0.954097
O O2 0.378352 0.317083 0.931142
O O3 0.078629 0.654216 0.194740
O O4 0.278917 0.603999 0.299041
O O5 0.034090 0.712339 0.346553
O O6 0.984009 0.537340 0.301342
O O7 0.345245 0.885746 0.883906
O O8 0.098583 0.999466 0.892904
O O9 0.250000 0.250000 0.589337
O O10 0.995777 0.250000 0.500000
O O11 0.039426 0.118887 0.617019
O O12 0.061694 0.386528 0.223608
#
# Coordination Sequence:
#
# PCOD9396752 Si02
#       6
#     4   8   8   8   8   8
#     4  12  21  34  57  82 115 154 189 232 285 334
#     4  10  21  39  62  86 115 154 196 237 286 342
#     4  10  21  37  57  82 112 149 192 235 280 334
#     4  11  24  40  60  89 120 149 187 235 287 346
#     4  10  21  39  62  86 115 154 196 237 286 342
#     4  10  21  37  57  82 112 149 192 235 280 334
#
# _framework density 22.646979000000002
#
# number of rings (size 3 to 8) (size 9 to 14) (size 15 to 20)
#    0.000    1.636    0.000    4.909    0.000    6.545 
#    0.000    1.818    0.000    0.000    0.000    0.000 
#    0.000    0.000    0.000    0.000    0.000    0.000 
#
# Total GULP energy -246198.390308 kJ/mol
# GULP energy per Si atom -5595.417962 kJ/mol
# Density = 2.259543 g / cm^3
# Si number density = 22.646979 Si / 1000 Ang^3
#
#
#
# Elastic Constant Matrix: (Units=GPa)
#
#
# Indices 1 2 3 4 5 6 
#
# 1 41.1293 18.0877 23.5363 0.0000 0.0000 0.0000
# 2 18.0877 86.1670 56.0076 0.0000 0.0000 0.0000
# 3 23.5363 56.0076 132.4095 0.0000 0.0000 0.0000
# 4 0.0000 0.0000 0.0000 32.6034 0.0000 0.0000
# 5 0.0000 0.0000 0.0000 0.0000 20.4448 0.0000
# 6 0.0000 0.0000 0.0000 0.0000 0.0000 33.6593
#
#
#
# Elastic Compliance Matrix: (Units=1/GPa)
#
#
# Indices 1 2 3 4 5 6 
#
# 1 0.027865 -0.003627 -0.003419 0.000000 0.000000 0.000000
# 2 -0.003627 0.016478 -0.006325 0.000000 0.000000 0.000000
# 3 -0.003419 -0.006325 0.010836 0.000000 0.000000 0.000000
# 4 0.000000 0.000000 0.000000 0.030672 0.000000 0.000000
# 5 0.000000 0.000000 0.000000 0.000000 0.048912 0.000000
# 6 0.000000 0.000000 0.000000 0.000000 0.000000 0.029710
#
#
# Mechanical properties :
#
#
# Convention : Reuss Voigt Hill
#
# Bulk Modulus (GPa) = 35.16637 50.55213 42.85925
# Shear Modulus (GPa) = 24.91359 28.14643 26.53001
#
# Velocity S-wave (km/s) = 3.32035 3.52921 3.42637
# Velocity P-wave (km/s) = 5.50104 6.24318 5.88382
#
# Compressibility (1/GPa) = 0.02843626
#
# Stress axis : x y z
#
# Youngs Moduli (GPa) = 35.88713 60.68650 92.28834
#
# Poissons Ratio (x) = 0.22011 0.31553
# Poissons Ratio (y) = 0.13016 0.58375
# Poissons Ratio (z) = 0.12270 0.38386
#
# Static dielectric constant tensor:
#      x y z
#    x 1.842300 0.000000 0.000000 
#    y 0.000000 1.839270 0.000000 
#    z 0.000000 0.000000 1.868110 
# 
# From -- ./inp_files/28628.got.cif
#   From: 2010.05.17/outbox.cif.g08.bks.cpg/sg50_15_cif.got.tgz:28628.got - 2010.06.03 11:33:33.
