data_PCOD9396292
_publ_section_title
;
Structure prediction by ZEFSAII (Michael W. Deem and Ramdas Pophale) SiO2 
 PCOD9396292
Probable space group: P B A N
;
_chemical_formula_sum "Si O2"
_cell_formula_units_Z 64
_cell_length_a 9.099914
_cell_length_b 14.434827
_cell_length_c 24.996246
_cell_angle_alpha 90.000000
_cell_angle_beta 90.000000
_cell_angle_gamma 90.000000
_cell_volume 3283.398998
_symmetry_space_group_name_H-M "P B A N"
_symmetry_group_IT_number 50
_space_group.IT_coordinate_system_code '2'
_symmetry_cell_setting 'orthorhombic'
loop_
_space_group_symop_operation_xyz
x,y,z
1/2-x,1/2-y,z
x,1/2-y,-z
1/2-x,y,-z
-x,-y,-z
1/2+x,1/2+y,-z
-x,1/2+y,z
1/2+x,-y,z
loop_
_atom_site_type_symbol
_atom_site_label
_atom_site_fract_x
_atom_site_fract_y
_atom_site_fract_z
Si Si1 0.530421 0.529636 0.856280
Si Si2 0.218003 0.991661 0.778214
Si Si3 0.338884 0.073093 0.445151
Si Si4 0.525873 0.080120 0.292791
Si Si5 0.911889 0.365655 0.067308
Si Si6 0.538985 0.939281 0.389589
Si Si7 0.422246 0.267908 0.627953
Si Si8 0.433213 0.645754 0.945832
O O1 0.389751 0.557149 0.820522
O O2 0.663834 0.539823 0.815939
O O3 0.524200 0.427074 0.884083
O O4 0.542543 0.595142 0.906663
O O5 0.319350 0.930672 0.738306
O O6 0.110430 0.061037 0.746741
O O7 0.250000 0.083211 0.500000
O O8 0.416388 0.167341 0.425122
O O9 0.211236 0.053866 0.402074
O O10 0.450887 0.988606 0.437653
O O11 0.501869 0.173887 0.325915
O O12 0.513552 0.997328 0.336096
O O13 0.736018 0.383475 0.065402
O O14 0.934967 0.254713 0.068421
O O15 0.967518 0.383131 0.006743
O O16 0.505554 0.831186 0.383038
O O17 0.250000 0.250000 0.642203
#
# Coordination Sequence:
#
# PCOD9396292 Si02
#       8
#     8   8   8   8   8   8   8   8
#     4  11  19  37  55  84 113 147 185 235 289 343
#     4  10  22  35  58  80 112 149 186 239 297 337
#     4  10  20  36  59  90 126 155 185 232 294 337
#     4  10  20  41  56  78 113 149 196 245 286 335
#     4   9  18  34  57  82 111 151 187 227 277 346
#     4  10  20  37  62  84 111 157 197 237 280 340
#     4   9  19  35  61  85 111 154 202 237 276 344
#     4   9  18  34  57  81 112 150 190 225 276 345
#
# _framework density 19.491997000000001
#
# number of rings (size 3 to 8) (size 9 to 14) (size 15 to 20)
#    0.000    2.250    1.250    3.750    0.000    2.250 
#    0.000   16.250    0.000    4.500    0.000    0.000 
#    0.000    0.000    0.000    0.000    0.000    0.000 
#
# Total GULP energy -356536.343333 kJ/mol
# GULP energy per Si atom -5570.880365 kJ/mol
# Density = 1.944763 g / cm^3
# Si number density = 19.491997 Si / 1000 Ang^3
#
#
#
# Elastic Constant Matrix: (Units=GPa)
#
#
# Indices 1 2 3 4 5 6 
#
# 1 51.7203 14.8435 18.7778 0.0000 0.0000 0.0000
# 2 14.8435 87.9373 27.9525 0.0000 0.0000 0.0000
# 3 18.7778 27.9525 94.2470 0.0000 0.0000 0.0000
# 4 0.0000 0.0000 0.0000 -9.0563 0.0000 0.0000
# 5 0.0000 0.0000 0.0000 0.0000 32.0192 0.0000
# 6 0.0000 0.0000 0.0000 0.0000 0.0000 17.0327
#
#
#
# Elastic Compliance Matrix: (Units=1/GPa)
#
#
# Indices 1 2 3 4 5 6 
#
# 1 0.021322 -0.002483 -0.003512 0.000000 0.000000 0.000000
# 2 -0.002483 0.012845 -0.003315 0.000000 0.000000 0.000000
# 3 -0.003512 -0.003315 0.012293 0.000000 0.000000 0.000000
# 4 0.000000 0.000000 0.000000 -0.110420 0.000000 0.000000
# 5 0.000000 0.000000 0.000000 0.000000 0.031231 0.000000
# 6 0.000000 0.000000 0.000000 0.000000 0.000000 0.058711
#
#
# Mechanical properties :
#
#
# Convention : Reuss Voigt Hill
#
# Bulk Modulus (GPa) = 35.91824 39.67248 37.79536
# Shear Modulus (GPa) = 92.79669 19.48784 56.14227
#
# Velocity S-wave (km/s) = 6.90731 3.16537 5.37264
# Velocity P-wave (km/s) = 9.05990 5.81006 7.61047
#
# Compressibility (1/GPa) = 0.02784101
#
# Stress axis : x y z
#
# Youngs Moduli (GPa) = 46.89911 77.85424 81.34530
#
# Poissons Ratio (x) = 0.19330 0.28568
# Poissons Ratio (y) = 0.11644 0.26965
# Poissons Ratio (z) = 0.16471 0.25807
#
# Static dielectric constant tensor:
#      x y z
#    x 1.708840 0.000000 0.000000 
#    y 0.000000 1.702130 0.000000 
#    z 0.000000 0.000000 1.725070 
# 
# From -- ./inp_files/31605.got.cif
#   From: 2010.05.17/outbox.cif.g08.bks.cpg/sg50_16_cif.got.tgz:31605.got - 2010.06.03 11:33:33.
