data_PCOD9396805
_publ_section_title
;
Structure prediction by ZEFSAII (Michael W. Deem and Ramdas Pophale) SiO2 
 PCOD9396805
Probable space group: P B A N
;
_chemical_formula_sum "Si O2"
_cell_formula_units_Z 54
_cell_length_a 17.235113
_cell_length_b 5.446182
_cell_length_c 24.773880
_cell_angle_alpha 90.000000
_cell_angle_beta 90.000000
_cell_angle_gamma 90.000000
_cell_volume 2325.414174
_symmetry_space_group_name_H-M "P B A N"
_symmetry_group_IT_number 50
_space_group.IT_coordinate_system_code '2'
_symmetry_cell_setting 'orthorhombic'
loop_
_space_group_symop_operation_xyz
x,y,z
1/2-x,1/2-y,z
x,1/2-y,-z
1/2-x,y,-z
-x,-y,-z
1/2+x,1/2+y,-z
-x,1/2+y,z
1/2+x,-y,z
loop_
_atom_site_type_symbol
_atom_site_label
_atom_site_fract_x
_atom_site_fract_y
_atom_site_fract_z
Si Si1 0.448644 0.750000 0.500000
Si Si2 0.293520 0.000525 0.911087
Si Si3 0.038590 0.412933 0.350584
Si Si4 0.672324 0.107080 0.584584
Si Si5 0.295267 0.500167 0.219887
Si Si6 0.030862 0.493745 0.938806
Si Si7 0.474660 0.940828 0.769298
Si Si8 0.750000 0.750000 0.500000
O O1 0.500000 0.500000 0.500000
O O2 0.390835 0.734949 0.448486
O O3 0.250000 0.250000 0.926740
O O4 0.301492 0.003935 0.845649
O O5 0.377427 0.997696 0.937144
O O6 0.250000 0.750000 0.925652
O O7 0.125703 0.477879 0.367382
O O8 0.013238 0.144482 0.370752
O O9 0.022202 0.412764 0.286784
O O10 0.750000 0.250000 0.601335
O O11 0.698819 0.913487 0.539567
O O12 0.250000 0.250000 0.235941
O O13 0.383529 0.516918 0.240638
O O14 0.250000 0.750000 0.235024
O O15 0.997128 0.740154 0.913479
O O16 0.000000 0.500000 0.000000
O O17 0.511140 0.179129 0.796842
#
# Coordination Sequence:
#
# PCOD9396805 Si02
#       8
#     4   8   8   8   8   8   8   2
#     4  12  24  40  65  93 122 160 198 244 300 352
#     4  10  21  38  60  90 126 163 210 266 330 382
#     4  10  24  45  66  92 130 167 208 247 301 371
#     4  12  25  43  66  96 129 164 206 256 303 364
#     4  10  21  38  65  98 128 163 206 264 324 381
#     4  10  21  38  56  83 123 168 220 268 317 384
#     4  10  21  41  66  93 130 166 210 249 309 383
#     4  12  24  44  68  96 132 154 210 250 314 346
#
# _framework density 23.221668000000001
#
# number of rings (size 3 to 8) (size 9 to 14) (size 15 to 20)
#    0.000    1.481    1.481    3.111    2.074    1.185 
#    0.000   17.778    0.000    0.000    0.000    0.000 
#    0.000    0.000    0.000    0.000    0.000    0.000 
#
# Total GULP energy -301989.471760 kJ/mol
# GULP energy per Si atom -5592.397625 kJ/mol
# Density = 2.316881 g / cm^3
# Si number density = 23.221668 Si / 1000 Ang^3
#
#
#
# Elastic Constant Matrix: (Units=GPa)
#
#
# Indices 1 2 3 4 5 6 
#
# 1 181.9534 85.3340 38.7779 0.0000 0.0000 0.0000
# 2 85.3340 222.1652 18.7082 0.0000 0.0000 0.0000
# 3 38.7779 18.7082 69.4508 0.0000 0.0000 0.0000
# 4 0.0000 0.0000 0.0000 22.3316 0.0000 0.0000
# 5 0.0000 0.0000 0.0000 0.0000 50.1656 0.0000
# 6 0.0000 0.0000 0.0000 0.0000 0.0000 51.2723
#
#
#
# Elastic Compliance Matrix: (Units=1/GPa)
#
#
# Indices 1 2 3 4 5 6 
#
# 1 0.007436 -0.002565 -0.003461 0.000000 0.000000 0.000000
# 2 -0.002565 0.005490 -0.000047 0.000000 0.000000 0.000000
# 3 -0.003461 -0.000047 0.016344 0.000000 0.000000 0.000000
# 4 0.000000 0.000000 0.000000 0.044780 0.000000 0.000000
# 5 0.000000 0.000000 0.000000 0.000000 0.019934 0.000000
# 6 0.000000 0.000000 0.000000 0.000000 0.000000 0.019504
#
#
# Mechanical properties :
#
#
# Convention : Reuss Voigt Hill
#
# Bulk Modulus (GPa) = 58.39517 84.35663 71.37590
# Shear Modulus (GPa) = 38.06850 46.80383 42.43617
#
# Velocity S-wave (km/s) = 4.05328 4.49433 4.27949
# Velocity P-wave (km/s) = 6.86345 7.95849 7.43117
#
# Compressibility (1/GPa) = 0.01712470
#
# Stress axis : x y z
#
# Youngs Moduli (GPa) = 134.47224 182.14005 61.18498
#
# Poissons Ratio (x) = 0.46717 0.21178
# Poissons Ratio (y) = 0.34491 0.00287
# Poissons Ratio (z) = 0.46544 0.00853
#
# Static dielectric constant tensor:
#      x y z
#    x 1.843780 0.000000 0.000000 
#    y 0.000000 1.954620 0.000000 
#    z 0.000000 0.000000 1.884570 
# 
# From -- ./inp_files/32543.got.cif
#   From: 2010.05.17/outbox.cif.g08.bks.cpg/sg50_17_cif.got.tgz:32543.got - 2010.06.03 11:33:33.
