data_PCOD9396235
_publ_section_title
;
Structure prediction by ZEFSAII (Michael W. Deem and Ramdas Pophale) SiO2 
 PCOD9396235
Probable space group: P B A N
;
_chemical_formula_sum "Si O2"
_cell_formula_units_Z 48
_cell_length_a 10.534084
_cell_length_b 16.120826
_cell_length_c 12.878354
_cell_angle_alpha 90.000000
_cell_angle_beta 90.000000
_cell_angle_gamma 90.000000
_cell_volume 2186.978061
_symmetry_space_group_name_H-M "P B A N"
_symmetry_group_IT_number 50
_space_group.IT_coordinate_system_code '2'
_symmetry_cell_setting 'orthorhombic'
loop_
_space_group_symop_operation_xyz
x,y,z
1/2-x,1/2-y,z
x,1/2-y,-z
1/2-x,y,-z
-x,-y,-z
1/2+x,1/2+y,-z
-x,1/2+y,z
1/2+x,-y,z
loop_
_atom_site_type_symbol
_atom_site_label
_atom_site_fract_x
_atom_site_fract_y
_atom_site_fract_z
Si Si1 0.830559 0.961736 0.861195
Si Si2 0.608659 0.397782 0.988840
Si Si3 0.755242 0.349319 0.379263
Si Si4 0.590973 0.795725 0.109392
Si Si5 0.404470 0.522097 0.745794
Si Si6 0.504698 0.851873 0.761924
O O1 0.800975 0.864725 0.872418
O O2 0.948891 0.967190 0.780663
O O3 0.878191 0.003075 0.968368
O O4 0.710704 0.017035 0.828804
O O5 0.546169 0.372825 0.878521
O O6 0.750000 0.362813 0.000000
O O7 0.529533 0.354651 0.079981
O O8 0.750000 0.250000 0.375869
O O9 0.750000 0.374017 0.500000
O O10 0.643494 0.404122 0.327277
O O11 0.885352 0.360154 0.314971
O O12 0.564079 0.738148 0.209262
O O13 0.612040 0.750000 0.000000
O O14 0.403422 0.423642 0.716954
#
# Coordination Sequence:
#
# PCOD9396235 Si02
#       6
#     8   8   8   8   8   8
#     4  11  22  40  63  91 131 183 219 269 327 378
#     4  10  20  35  59  91 126 181 226 263 318 380
#     4  11  24  44  74 101 125 165 222 281 340 408
#     4  10  22  36  55  93 135 175 223 270 317 388
#     4  11  22  44  68  93 132 172 215 276 333 401
#     4  10  23  41  62  97 131 173 220 267 339 389
#
# _framework density 21.948094000000001
#
# number of rings (size 3 to 8) (size 9 to 14) (size 15 to 20)
#    0.000    1.500    3.333    2.500    2.333    6.333 
#    0.000    4.167    0.000    0.000    0.000    0.000 
#    0.000    0.000    0.000    0.000    0.000    0.000 
#
# Total GULP energy -267250.854233 kJ/mol
# GULP energy per Si atom -5567.726130 kJ/mol
# Density = 2.189814 g / cm^3
# Si number density = 21.948094 Si / 1000 Ang^3
#
#
#
# Elastic Constant Matrix: (Units=GPa)
#
#
# Indices 1 2 3 4 5 6 
#
# 1 62.9524 10.7680 21.3169 0.0000 0.0000 0.0000
# 2 10.7680 108.6029 33.8705 0.0000 0.0000 0.0000
# 3 21.3169 33.8705 90.9409 0.0000 0.0000 0.0000
# 4 0.0000 0.0000 0.0000 23.2374 0.0000 0.0000
# 5 0.0000 0.0000 0.0000 0.0000 13.2091 0.0000
# 6 0.0000 0.0000 0.0000 0.0000 0.0000 33.0750
#
#
#
# Elastic Compliance Matrix: (Units=1/GPa)
#
#
# Indices 1 2 3 4 5 6 
#
# 1 0.017279 -0.000509 -0.003861 0.000000 0.000000 0.000000
# 2 -0.000509 0.010433 -0.003766 0.000000 0.000000 0.000000
# 3 -0.003861 -0.003766 0.013304 0.000000 0.000000 0.000000
# 4 0.000000 0.000000 0.000000 0.043034 0.000000 0.000000
# 5 0.000000 0.000000 0.000000 0.000000 0.075706 0.000000
# 6 0.000000 0.000000 0.000000 0.000000 0.000000 0.030234
#
#
# Mechanical properties :
#
#
# Convention : Reuss Voigt Hill
#
# Bulk Modulus (GPa) = 40.41426 43.82302 42.11864
# Shear Modulus (GPa) = 23.30886 27.00702 25.15794
#
# Velocity S-wave (km/s) = 3.26237 3.51165 3.38930
# Velocity P-wave (km/s) = 5.71352 6.03757 5.87778
#
# Compressibility (1/GPa) = 0.02474374
#
# Stress axis : x y z
#
# Youngs Moduli (GPa) = 57.87224 95.84994 75.16599
#
# Poissons Ratio (x) = 0.04881 0.29020
# Poissons Ratio (y) = 0.02947 0.28310
# Poissons Ratio (z) = 0.22343 0.36101
#
# Static dielectric constant tensor:
#      x y z
#    x 1.978270 0.000000 0.000000 
#    y 0.000000 1.981540 0.000000 
#    z 0.000000 0.000000 1.820430 
# 
# From -- ./inp_files/20204.got.cif
#   From: 2010.05.17/outbox.cif.g08.bks.cpg/sg50_11_cif.got.tgz:20204.got - 2010.06.03 11:33:33.
