data_PCOD9396055
_publ_section_title
;
Structure prediction by ZEFSAII (Michael W. Deem and Ramdas Pophale) SiO2 
 PCOD9396055
Probable space group: P B A N
;
_chemical_formula_sum "Si O2"
_cell_formula_units_Z 58
_cell_length_a 18.126004
_cell_length_b 16.543616
_cell_length_c 9.271097
_cell_angle_alpha 90.000000
_cell_angle_beta 90.000000
_cell_angle_gamma 90.000000
_cell_volume 2780.120611
_symmetry_space_group_name_H-M "P B A N"
_symmetry_group_IT_number 50
_space_group.IT_coordinate_system_code '2'
_symmetry_cell_setting 'orthorhombic'
loop_
_space_group_symop_operation_xyz
x,y,z
1/2-x,1/2-y,z
x,1/2-y,-z
1/2-x,y,-z
-x,-y,-z
1/2+x,1/2+y,-z
-x,1/2+y,z
1/2+x,-y,z
loop_
_atom_site_type_symbol
_atom_site_label
_atom_site_fract_x
_atom_site_fract_y
_atom_site_fract_z
Si Si1 0.019522 0.398939 0.875914
Si Si2 0.590820 0.802969 0.365240
Si Si3 0.250000 0.750000 0.000000
Si Si4 0.282729 0.448767 0.864215
Si Si5 0.920565 0.850925 0.186735
Si Si6 0.320031 0.460973 0.399582
Si Si7 0.354135 0.886520 0.027103
Si Si8 0.428549 0.932750 0.752557
O O1 0.034914 0.357968 0.723001
O O2 0.044494 0.491378 0.852245
O O3 0.060956 0.360742 0.015473
O O4 0.934209 0.387314 0.904839
O O5 0.565603 0.750000 0.500000
O O6 0.607449 0.735361 0.243330
O O7 0.650470 0.869075 0.420649
O O8 0.304923 0.811821 0.078159
O O9 0.351745 0.409150 0.784935
O O10 0.214949 0.460772 0.759198
O O11 0.250000 0.399738 0.000000
O O12 0.314455 0.531749 0.926921
O O13 0.996649 0.880047 0.265179
O O14 0.250000 0.480604 0.500000
O O15 0.386677 0.526497 0.384053
O O16 0.370906 0.884614 0.854757
#
# Coordination Sequence:
#
# PCOD9396055 Si02
#       8
#     8   8   2   8   8   8   8   8
#     4  10  20  39  66  91 120 163 213 272 321 375
#     4  11  25  43  57  90 132 169 213 260 325 391
#     4  12  24  28  56  96 134 162 182 248 338 408
#     4  12  20  38  62  91 125 157 211 270 320 383
#     4  11  21  37  67  94 120 166 215 273 327 381
#     4  11  24  42  63  88 128 174 213 264 331 391
#     4  11  20  37  59  95 127 154 206 263 326 375
#     4  10  19  41  67  91 122 161 218 278 318 381
#
# _framework density 20.862404000000002
#
# number of rings (size 3 to 8) (size 9 to 14) (size 15 to 20)
#    0.000    1.103    4.828    2.897    3.862    1.931 
#    2.483    2.759    0.000    0.000    0.000    1.931 
#    0.000    0.000    0.000    0.000    0.000    0.000 
#
# Total GULP energy -323270.894692 kJ/mol
# GULP energy per Si atom -5573.636115 kJ/mol
# Density = 2.081492 g / cm^3
# Si number density = 20.862404 Si / 1000 Ang^3
#
#
#
# Elastic Constant Matrix: (Units=GPa)
#
#
# Indices 1 2 3 4 5 6 
#
# 1 88.5309 30.4312 8.6215 0.0000 0.0000 0.0000
# 2 30.4312 65.6463 1.2793 0.0000 0.0000 0.0000
# 3 8.6215 1.2793 48.9248 0.0000 0.0000 0.0000
# 4 0.0000 0.0000 0.0000 383.4964 0.0000 0.0000
# 5 0.0000 0.0000 0.0000 0.0000 29.7587 0.0000
# 6 0.0000 0.0000 0.0000 0.0000 0.0000 18.4305
#
#
#
# Elastic Compliance Matrix: (Units=1/GPa)
#
#
# Indices 1 2 3 4 5 6 
#
# 1 0.013679 -0.006297 -0.002246 0.000000 0.000000 0.000000
# 2 -0.006297 0.018140 0.000635 0.000000 0.000000 0.000000
# 3 -0.002246 0.000635 0.020819 0.000000 0.000000 0.000000
# 4 0.000000 0.000000 0.000000 0.002608 0.000000 0.000000
# 5 0.000000 0.000000 0.000000 0.000000 0.033604 0.000000
# 6 0.000000 0.000000 0.000000 0.000000 0.000000 0.054258
#
#
# Mechanical properties :
#
#
# Convention : Reuss Voigt Hill
#
# Bulk Modulus (GPa) = 27.15762 31.52955 29.34359
# Shear Modulus (GPa) = 29.20636 97.18848 63.19742
#
# Velocity S-wave (km/s) = 3.74565 6.83276 5.50983
# Velocity P-wave (km/s) = 5.63492 8.79743 7.38739
#
# Compressibility (1/GPa) = 0.03682208
#
# Stress axis : x y z
#
# Youngs Moduli (GPa) = 73.10603 55.12706 48.03382
#
# Poissons Ratio (x) = 0.34715 0.10787
# Poissons Ratio (y) = 0.46036 -0.03052
# Poissons Ratio (z) = 0.16418 -0.03503
#
# Static dielectric constant tensor:
#      x y z
#    x 1.804140 0.000000 0.000000 
#    y 0.000000 1.803300 0.000000 
#    z 0.000000 0.000000 1.810580 
# 
# From -- ./inp_files/14494.got.cif
#   From: 2010.05.17/outbox.cif.g08.bks.cpg/sg50_8_cif.got.tgz:14494.got - 2010.06.03 11:33:33.
