data_PCOD9396131
_publ_section_title
;
Structure prediction by ZEFSAII (Michael W. Deem and Ramdas Pophale) SiO2 
 PCOD9396131
Probable space group: P B A N
;
_chemical_formula_sum "Si O2"
_cell_formula_units_Z 40
_cell_length_a 25.773932
_cell_length_b 12.590750
_cell_length_c 4.967239
_cell_angle_alpha 90.000000
_cell_angle_beta 90.000000
_cell_angle_gamma 90.000000
_cell_volume 1611.934297
_symmetry_space_group_name_H-M "P B A N"
_symmetry_group_IT_number 50
_space_group.IT_coordinate_system_code '2'
_symmetry_cell_setting 'orthorhombic'
loop_
_space_group_symop_operation_xyz
x,y,z
1/2-x,1/2-y,z
x,1/2-y,-z
1/2-x,y,-z
-x,-y,-z
1/2+x,1/2+y,-z
-x,1/2+y,z
1/2+x,-y,z
loop_
_atom_site_type_symbol
_atom_site_label
_atom_site_fract_x
_atom_site_fract_y
_atom_site_fract_z
Si Si1 0.639374 0.852843 0.856605
Si Si2 0.634942 0.079509 0.080574
Si Si3 0.038566 0.616220 0.272772
Si Si4 0.527661 0.866486 0.767320
Si Si5 0.691740 0.042794 0.596076
O O1 0.584128 0.816089 0.737847
O O2 0.674413 0.919491 0.646989
O O3 0.625957 0.950847 0.061178
O O4 0.663308 0.750000 0.000000
O O5 0.589084 0.136144 0.913687
O O6 0.684170 0.095600 0.886730
O O7 0.651223 0.096764 0.386637
O O8 0.021467 0.653265 0.570332
O O9 0.039990 0.489269 0.295617
O O10 0.991394 0.643607 0.073518
O O11 0.750000 0.048574 0.500000
#
# Coordination Sequence:
#
# PCOD9396131 Si02
#       5
#     8   8   8   8   8
#     4   9  21  33  46  64  89 121 160 195 236 272
#     4   9  19  32  49  65  83 117 145 204 236 282
#     4   9  16  28  45  68  86 100 143 184 241 286
#     4   9  17  26  45  66  86 109 136 193 227 289
#     4  10  20  34  47  62  85 117 162 201 240 271
#
# _framework density 24.814903999999999
#
# number of rings (size 3 to 8) (size 9 to 14) (size 15 to 20)
#    1.200    1.600    0.000    1.800    8.400    0.800 
#    0.000    3.000    0.000    0.000    0.000    0.000 
#    0.000    0.000    0.000    0.000    0.000   28.000 
#
# Total GULP energy -222706.817528 kJ/mol
# GULP energy per Si atom -5567.670438 kJ/mol
# Density = 2.475842 g / cm^3
# Si number density = 24.814904 Si / 1000 Ang^3
#
#
#
# Elastic Constant Matrix: (Units=GPa)
#
#
# Indices 1 2 3 4 5 6 
#
# 1 85.4076 -14.8403 0.9393 0.0000 0.0000 0.0000
# 2 -14.8403 24.4237 -15.5501 0.0000 0.0000 0.0000
# 3 0.9393 -15.5501 123.6820 0.0000 0.0000 0.0000
# 4 0.0000 0.0000 0.0000 -1.3157 0.0000 0.0000
# 5 0.0000 0.0000 0.0000 0.0000 37.0397 0.0000
# 6 0.0000 0.0000 0.0000 0.0000 0.0000 7.1369
#
#
#
# Elastic Compliance Matrix: (Units=1/GPa)
#
#
# Indices 1 2 3 4 5 6 
#
# 1 0.013201 0.008649 0.000987 0.000000 0.000000 0.000000
# 2 0.008649 0.050174 0.006242 0.000000 0.000000 0.000000
# 3 0.000987 0.006242 0.008863 0.000000 0.000000 0.000000
# 4 0.000000 0.000000 0.000000 -0.760070 0.000000 0.000000
# 5 0.000000 0.000000 0.000000 0.000000 0.026998 0.000000
# 6 0.000000 0.000000 0.000000 0.000000 0.000000 0.140117
#
#
# Mechanical properties :
#
#
# Convention : Reuss Voigt Hill
#
# Bulk Modulus (GPa) = 9.61580 19.40123 14.50851
# Shear Modulus (GPa) = -9.65603 26.10314 8.22356
#
# Velocity S-wave (km/s) = -1.97476 3.24684 1.82240
# Velocity P-wave (km/s) = 1.14723 4.67882 3.20743
#
# Compressibility (1/GPa) = 0.10399553
#
# Stress axis : x y z
#
# Youngs Moduli (GPa) = 75.75401 19.93067 112.83369
#
# Poissons Ratio (x) = -0.17239 -0.11139
# Poissons Ratio (y) = -0.65523 -0.70436
# Poissons Ratio (z) = -0.07479 -0.12442
#
# Static dielectric constant tensor:
#      x y z
#    x 1.935960 0.000000 0.000000 
#    y 0.000000 2.117040 0.000000 
#    z 0.000000 0.000000 2.002210 
# 
# From -- ./inp_files/5900.got.cif
#   From: 2010.05.17/outbox.cif.g08.bks.cpg/sg50_3_cif.got.tgz:5900.got - 2010.06.03 11:33:33.
