data_PCOD9396316
_publ_section_title
;
Structure prediction by ZEFSAII (Michael W. Deem and Ramdas Pophale) SiO2 
 PCOD9396316
Probable space group: P B A N
;
_chemical_formula_sum "Si O2"
_cell_formula_units_Z 48
_cell_length_a 12.219270
_cell_length_b 22.896773
_cell_length_c 8.712389
_cell_angle_alpha 90.000000
_cell_angle_beta 90.000000
_cell_angle_gamma 90.000000
_cell_volume 2437.568325
_symmetry_space_group_name_H-M "P B A N"
_symmetry_group_IT_number 50
_space_group.IT_coordinate_system_code '2'
_symmetry_cell_setting 'orthorhombic'
loop_
_space_group_symop_operation_xyz
x,y,z
1/2-x,1/2-y,z
x,1/2-y,-z
1/2-x,y,-z
-x,-y,-z
1/2+x,1/2+y,-z
-x,1/2+y,z
1/2+x,-y,z
loop_
_atom_site_type_symbol
_atom_site_label
_atom_site_fract_x
_atom_site_fract_y
_atom_site_fract_z
Si Si1 0.895234 0.892627 0.660221
Si Si2 0.464157 0.832068 0.852281
Si Si3 0.953467 0.198021 0.213550
Si Si4 0.643259 0.592908 0.300433
Si Si5 0.938727 0.474729 0.848521
Si Si6 0.237556 0.627143 0.164691
O O1 0.887612 0.903590 0.479342
O O2 0.772212 0.898000 0.720872
O O3 0.948028 0.829350 0.690829
O O4 0.973702 0.938319 0.748343
O O5 0.445632 0.767200 0.788290
O O6 0.575589 0.859116 0.792266
O O7 0.365049 0.874424 0.793235
O O8 0.470761 0.824814 0.037287
O O9 0.840056 0.167713 0.266474
O O10 0.607235 0.530111 0.240073
O O11 0.833681 0.431066 0.868099
O O12 0.000000 0.500000 0.000000
O O13 0.250000 0.659370 0.000000
#
# Coordination Sequence:
#
# PCOD9396316 Si02
#       6
#     8   8   8   8   8   8
#     4  10  24  43  56  84 121 161 207 242 311 363
#     4  10  20  36  62  92 117 155 204 251 310 352
#     4   9  19  38  61  87 122 154 200 259 297 367
#     4  11  24  39  60  84 121 164 201 250 299 375
#     4  11  23  38  63  88 121 157 201 257 301 367
#     4   9  18  34  58  92 119 152 193 248 310 355
#
# _framework density 19.691755000000001
#
# number of rings (size 3 to 8) (size 9 to 14) (size 15 to 20)
#    0.000    2.000    0.000    4.000    4.667    5.333 
#    0.000    5.833    0.000    4.000    0.000    0.000 
#    0.000    0.000    0.000    0.000    0.000    0.000 
#
# Total GULP energy -267638.359527 kJ/mol
# GULP energy per Si atom -5575.799157 kJ/mol
# Density = 1.964694 g / cm^3
# Si number density = 19.691755 Si / 1000 Ang^3
#
#
#
# Elastic Constant Matrix: (Units=GPa)
#
#
# Indices 1 2 3 4 5 6 
#
# 1 145.5890 43.8137 47.2875 0.0000 0.0000 0.0000
# 2 43.8137 93.2190 23.2927 0.0000 0.0000 0.0000
# 3 47.2875 23.2927 29.1918 0.0000 0.0000 0.0000
# 4 0.0000 0.0000 0.0000 18.6456 0.0000 0.0000
# 5 0.0000 0.0000 0.0000 0.0000 25.6778 0.0000
# 6 0.0000 0.0000 0.0000 0.0000 0.0000 21.2647
#
#
#
# Elastic Compliance Matrix: (Units=1/GPa)
#
#
# Indices 1 2 3 4 5 6 
#
# 1 0.014600 -0.001190 -0.022701 0.000000 0.000000 0.000000
# 2 -0.001190 0.013496 -0.008841 0.000000 0.000000 0.000000
# 3 -0.022701 -0.008841 0.078084 0.000000 0.000000 0.000000
# 4 0.000000 0.000000 0.000000 0.053632 0.000000 0.000000
# 5 0.000000 0.000000 0.000000 0.000000 0.038944 0.000000
# 6 0.000000 0.000000 0.000000 0.000000 0.000000 0.047026
#
#
# Mechanical properties :
#
#
# Convention : Reuss Voigt Hill
#
# Bulk Modulus (GPa) = 24.56061 55.19861 39.87961
# Shear Modulus (GPa) = 15.39322 23.35801 19.37561
#
# Velocity S-wave (km/s) = 2.79894 3.44784 3.14019
# Velocity P-wave (km/s) = 4.79010 6.62890 5.78305
#
# Compressibility (1/GPa) = 0.04071560
#
# Stress axis : x y z
#
# Youngs Moduli (GPa) = 68.49294 74.09709 12.80674
#
# Poissons Ratio (x) = 0.08816 0.29073
# Poissons Ratio (y) = 0.08149 0.11323
# Poissons Ratio (z) = 1.55486 0.65511
#
# Static dielectric constant tensor:
#      x y z
#    x 1.736100 0.000000 0.000000 
#    y 0.000000 1.694710 0.000000 
#    z 0.000000 0.000000 1.703860 
# 
# From -- ./inp_files/11520.got.cif
#   From: 2010.05.17/outbox.cif.g08.bks.cpg/sg50_6_cif.got.tgz:11520.got - 2010.06.03 11:33:33.
