data_PCOD9396849
_publ_section_title
;
Structure prediction by ZEFSAII (Michael W. Deem and Ramdas Pophale) SiO2 
 PCOD9396849
Probable space group: P B A N
;
_chemical_formula_sum "Si O2"
_cell_formula_units_Z 54
_cell_length_a 30.304187
_cell_length_b 14.058408
_cell_length_c 5.892592
_cell_angle_alpha 90.000000
_cell_angle_beta 90.000000
_cell_angle_gamma 90.000000
_cell_volume 2510.412867
_symmetry_space_group_name_H-M "P B A N"
_symmetry_group_IT_number 50
_space_group.IT_coordinate_system_code '2'
_symmetry_cell_setting 'orthorhombic'
loop_
_space_group_symop_operation_xyz
x,y,z
1/2-x,1/2-y,z
x,1/2-y,-z
1/2-x,y,-z
-x,-y,-z
1/2+x,1/2+y,-z
-x,1/2+y,z
1/2+x,-y,z
loop_
_atom_site_type_symbol
_atom_site_label
_atom_site_fract_x
_atom_site_fract_y
_atom_site_fract_z
Si Si1 0.004418 0.051788 0.249576
Si Si2 0.369129 0.019623 0.209019
Si Si3 0.911694 0.644423 0.429603
Si Si4 0.149343 0.750000 0.500000
Si Si5 0.677258 0.883773 0.170864
Si Si6 0.917430 0.157950 0.153199
Si Si7 0.750000 0.750000 0.000000
Si Si8 0.300846 0.931370 0.566939
O O1 0.052333 0.101375 0.259426
O O2 0.964461 0.126698 0.247058
O O3 0.000000 0.000000 0.500000
O O4 0.000000 0.000000 0.000000
O O5 0.393283 0.937847 0.059633
O O6 0.330620 0.972345 0.360504
O O7 0.405976 0.068700 0.366310
O O8 0.346047 0.102706 0.070140
O O9 0.925706 0.750000 0.500000
O O10 0.862190 0.650052 0.331216
O O11 0.116651 0.808341 0.657681
O O12 0.179604 0.672196 0.625761
O O13 0.693124 0.988886 0.242023
O O14 0.718413 0.814855 0.152917
O O15 0.922980 0.250000 0.000000
O O16 0.250000 0.923298 0.500000
#
# Coordination Sequence:
#
# PCOD9396849 Si02
#       8
#     8   8   8   4   8   8   2   8
#     4  12  28  49  76 108 151 198 250 310 380 455
#     4  10  21  43  66  95 136 182 239 301 373 448
#     4  11  25  43  69 101 139 189 241 309 377 451
#     4  10  23  40  66  98 138 180 242 301 376 450
#     4  11  23  42  65  94 138 184 243 305 383 441
#     4  11  24  42  71  99 139 186 244 301 377 451
#     4  12  24  40  66 100 134 194 252 312 374 478
#     4  10  21  38  64  96 134 182 234 301 372 449
#
# _framework density 21.510407000000001
#
# number of rings (size 3 to 8) (size 9 to 14) (size 15 to 20)
#    0.000    1.185    1.481    3.778    3.111    1.185 
#    1.333    2.963    0.000    2.667    0.000    0.000 
#    0.000    0.000    0.000    0.000    0.000    0.000 
#
# Total GULP energy -301417.580738 kJ/mol
# GULP energy per Si atom -5581.807051 kJ/mol
# Density = 2.146145 g / cm^3
# Si number density = 21.510407 Si / 1000 Ang^3
#
#
#
# Elastic Constant Matrix: (Units=GPa)
#
#
# Indices 1 2 3 4 5 6 
#
# 1 148.6823 74.2077 39.3442 0.0000 0.0000 0.0000
# 2 74.2077 121.4317 40.1657 0.0000 0.0000 0.0000
# 3 39.3442 40.1657 66.6663 0.0000 0.0000 0.0000
# 4 0.0000 0.0000 0.0000 18.8376 0.0000 0.0000
# 5 0.0000 0.0000 0.0000 0.0000 24.5064 0.0000
# 6 0.0000 0.0000 0.0000 0.0000 0.0000 59.2451
#
#
#
# Elastic Compliance Matrix: (Units=1/GPa)
#
#
# Indices 1 2 3 4 5 6 
#
# 1 0.010078 -0.005234 -0.002794 0.000000 0.000000 0.000000
# 2 -0.005234 0.013003 -0.004745 0.000000 0.000000 0.000000
# 3 -0.002794 -0.004745 0.019508 0.000000 0.000000 0.000000
# 4 0.000000 0.000000 0.000000 0.053085 0.000000 0.000000
# 5 0.000000 0.000000 0.000000 0.000000 0.040806 0.000000
# 6 0.000000 0.000000 0.000000 0.000000 0.000000 0.016879
#
#
# Mechanical properties :
#
#
# Convention : Reuss Voigt Hill
#
# Bulk Modulus (GPa) = 58.67863 71.57950 65.12907
# Shear Modulus (GPa) = 27.08763 32.72200 29.90481
#
# Velocity S-wave (km/s) = 3.55248 3.90451 3.73265
# Velocity P-wave (km/s) = 6.64569 7.32638 6.99432
#
# Compressibility (1/GPa) = 0.01704198
#
# Stress axis : x y z
#
# Youngs Moduli (GPa) = 99.23092 76.90298 51.26146
#
# Poissons Ratio (x) = 0.40254 0.14321
# Poissons Ratio (y) = 0.51941 0.24325
# Poissons Ratio (z) = 0.27723 0.36493
#
# Static dielectric constant tensor:
#      x y z
#    x 1.692810 0.000000 0.000000 
#    y 0.000000 1.830690 0.000000 
#    z 0.000000 0.000000 1.834470 
# 
# From -- ./inp_files/7217.got.cif
#   From: 2010.05.17/outbox.cif.g08.bks.cpg/sg50_4_cif.got.tgz:7217.got - 2010.06.03 11:33:33.
