data_PCOD9396458
_publ_section_title
;
Structure prediction by ZEFSAII (Michael W. Deem and Ramdas Pophale) SiO2 
 PCOD9396458
Probable space group: P B A N
;
_chemical_formula_sum "Si O2"
_cell_formula_units_Z 56
_cell_length_a 20.577261
_cell_length_b 13.538301
_cell_length_c 9.662895
_cell_angle_alpha 90.000000
_cell_angle_beta 90.000000
_cell_angle_gamma 90.000000
_cell_volume 2691.900432
_symmetry_space_group_name_H-M "P B A N"
_symmetry_group_IT_number 50
_space_group.IT_coordinate_system_code '2'
_symmetry_cell_setting 'orthorhombic'
loop_
_space_group_symop_operation_xyz
x,y,z
1/2-x,1/2-y,z
x,1/2-y,-z
1/2-x,y,-z
-x,-y,-z
1/2+x,1/2+y,-z
-x,1/2+y,z
1/2+x,-y,z
loop_
_atom_site_type_symbol
_atom_site_label
_atom_site_fract_x
_atom_site_fract_y
_atom_site_fract_z
Si Si1 0.502187 0.992536 0.262455
Si Si2 0.328231 0.262932 0.659177
Si Si3 0.311331 0.857602 0.569027
Si Si4 0.864769 0.951564 0.174544
Si Si5 0.133928 0.087608 0.137025
Si Si6 0.258531 0.916711 0.844157
Si Si7 0.043782 0.866660 0.479703
O O1 0.435452 0.999836 0.180390
O O2 0.511953 0.098058 0.337199
O O3 0.564958 0.961542 0.175900
O O4 0.490533 0.917654 0.390264
O O5 0.250000 0.250000 0.665577
O O6 0.348922 0.250000 0.500000
O O7 0.350215 0.370382 0.709893
O O8 0.356612 0.180863 0.763379
O O9 0.315000 0.750000 0.500000
O O10 0.250000 0.912675 0.500000
O O11 0.291405 0.847885 0.729171
O O12 0.381254 0.903421 0.537398
O O13 0.811753 0.038191 0.190247
O O14 0.860414 0.895253 0.027179
O O15 0.192246 0.009807 0.159861
O O16 0.250000 0.877227 0.000000
O O17 0.042643 0.750000 0.500000
#
# Coordination Sequence:
#
# PCOD9396458 Si02
#       7
#     8   8   8   8   8   8   8
#     4  11  24  39  64  96 131 181 218 271 330 394
#     4  11  25  41  65 102 135 169 219 279 336 399
#     4  10  20  38  63  89 117 160 210 266 320 379
#     4  11  24  41  65  94 131 173 222 270 330 401
#     4  11  23  42  64  92 134 175 219 270 329 396
#     4  10  21  39  64  92 126 169 214 269 327 393
#     4  10  23  40  61  94 133 168 216 273 326 385
#
# _framework density 20.803146000000002
#
# number of rings (size 3 to 8) (size 9 to 14) (size 15 to 20)
#    0.000    1.429    2.857    1.714    6.000    1.714 
#    0.000    1.429    0.000    0.000    0.000    0.000 
#    0.000    0.000    0.000    0.000    0.000    0.000 
#
# Total GULP energy -312735.937458 kJ/mol
# GULP energy per Si atom -5584.570312 kJ/mol
# Density = 2.075580 g / cm^3
# Si number density = 20.803146 Si / 1000 Ang^3
#
#
#
# Elastic Constant Matrix: (Units=GPa)
#
#
# Indices 1 2 3 4 5 6 
#
# 1 114.4530 -2.6043 -5.9691 0.0000 0.0000 0.0000
# 2 -2.6043 50.0974 16.7084 0.0000 0.0000 0.0000
# 3 -5.9691 16.7084 90.3797 0.0000 0.0000 0.0000
# 4 0.0000 0.0000 0.0000 28.7390 0.0000 0.0000
# 5 0.0000 0.0000 0.0000 0.0000 16.6083 0.0000
# 6 0.0000 0.0000 0.0000 0.0000 0.0000 25.0343
#
#
#
# Elastic Compliance Matrix: (Units=1/GPa)
#
#
# Indices 1 2 3 4 5 6 
#
# 1 0.008771 0.000280 0.000528 0.000000 0.000000 0.000000
# 2 0.000280 0.021282 -0.003916 0.000000 0.000000 0.000000
# 3 0.000528 -0.003916 0.011823 0.000000 0.000000 0.000000
# 4 0.000000 0.000000 0.000000 0.034796 0.000000 0.000000
# 5 0.000000 0.000000 0.000000 0.000000 0.060211 0.000000
# 6 0.000000 0.000000 0.000000 0.000000 0.000000 0.039945
#
#
# Mechanical properties :
#
#
# Convention : Reuss Voigt Hill
#
# Bulk Modulus (GPa) = 28.04312 30.13335 29.08824
# Shear Modulus (GPa) = 25.65009 30.52932 28.08970
#
# Velocity S-wave (km/s) = 3.51521 3.83500 3.67858
# Velocity P-wave (km/s) = 5.47586 5.84175 5.66176
#
# Compressibility (1/GPa) = 0.03565937
#
# Stress axis : x y z
#
# Youngs Moduli (GPa) = 114.01090 46.98876 84.57953
#
# Poissons Ratio (x) = -0.01316 -0.04462
# Poissons Ratio (y) = -0.03193 0.33120
# Poissons Ratio (z) = -0.06014 0.18400
#
# Static dielectric constant tensor:
#      x y z
#    x 1.779040 0.000000 0.000000 
#    y 0.000000 1.730970 0.000000 
#    z 0.000000 0.000000 1.769610 
# 
# From -- ./inp_files/13308.got.cif
#   From: 2010.05.17/outbox.cif.g08.bks.cpg/sg50_7_cif.got.tgz:13308.got - 2010.06.03 11:33:33.
