data_PCOD9396583
_publ_section_title
;
Structure prediction by ZEFSAII (Michael W. Deem and Ramdas Pophale) SiO2 
 PCOD9396583
Probable space group: P B A N
;
_chemical_formula_sum "Si O2"
_cell_formula_units_Z 56
_cell_length_a 14.531775
_cell_length_b 12.424161
_cell_length_c 12.622332
_cell_angle_alpha 90.000000
_cell_angle_beta 90.000000
_cell_angle_gamma 90.000000
_cell_volume 2278.900347
_symmetry_space_group_name_H-M "P B A N"
_symmetry_group_IT_number 50
_space_group.IT_coordinate_system_code '2'
_symmetry_cell_setting 'orthorhombic'
loop_
_space_group_symop_operation_xyz
x,y,z
1/2-x,1/2-y,z
x,1/2-y,-z
1/2-x,y,-z
-x,-y,-z
1/2+x,1/2+y,-z
-x,1/2+y,z
1/2+x,-y,z
loop_
_atom_site_type_symbol
_atom_site_label
_atom_site_fract_x
_atom_site_fract_y
_atom_site_fract_z
Si Si1 0.610624 0.300522 0.889712
Si Si2 0.408432 0.355329 0.955074
Si Si3 0.498049 0.897242 0.386376
Si Si4 0.171213 0.822793 0.689723
Si Si5 0.202981 0.431976 0.241710
Si Si6 0.101534 0.039871 0.176014
Si Si7 0.646431 0.920536 0.542733
O O1 0.499986 0.311499 0.898131
O O2 0.650143 0.219979 0.805535
O O3 0.636219 0.419887 0.851917
O O4 0.640942 0.250000 0.000000
O O5 0.352967 0.421270 0.867382
O O6 0.357248 0.250000 0.000000
O O7 0.434057 0.419123 0.062326
O O8 0.426906 0.802066 0.365182
O O9 0.530158 0.949098 0.273234
O O10 0.587539 0.864128 0.451074
O O11 0.424537 0.978886 0.441544
O O12 0.250000 0.750000 0.639691
O O13 0.200717 0.946721 0.708535
O O14 0.306756 0.399552 0.214596
O O15 0.159033 0.368636 0.341132
O O16 0.750000 0.943580 0.500000
#
# Coordination Sequence:
#
# PCOD9396583 Si02
#       7
#     8   8   8   8   8   8   8
#     4  11  22  38  62  96 143 190 233 295 363 431
#     4  11  25  43  66 100 138 190 238 298 364 438
#     4  10  22  39  71 105 141 188 242 295 362 432
#     4  11  22  41  65 103 144 185 237 300 358 429
#     4  11  23  42  70 106 142 186 245 295 363 440
#     4  12  22  41  69 101 143 188 240 298 364 439
#     4  10  20  41  70 105 138 188 238 296 355 429
#
# _framework density 24.573253999999999
#
# number of rings (size 3 to 8) (size 9 to 14) (size 15 to 20)
#    0.000    1.143    2.857    5.143    0.000    1.429 
#    0.000    0.000    0.000   57.429    0.000    0.000 
#    0.000    0.000    0.000    0.000    0.000    0.000 
#
# Total GULP energy -312481.040524 kJ/mol
# GULP energy per Si atom -5580.018581 kJ/mol
# Density = 2.451732 g / cm^3
# Si number density = 24.573254 Si / 1000 Ang^3
#
#
#
# Elastic Constant Matrix: (Units=GPa)
#
#
# Indices 1 2 3 4 5 6 
#
# 1 178.4203 9.7854 64.8955 0.0000 0.0000 0.0000
# 2 9.7854 39.6264 31.6715 0.0000 0.0000 0.0000
# 3 64.8955 31.6715 124.6895 0.0000 0.0000 0.0000
# 4 0.0000 0.0000 0.0000 -2.9073 0.0000 0.0000
# 5 0.0000 0.0000 0.0000 0.0000 19.7016 0.0000
# 6 0.0000 0.0000 0.0000 0.0000 0.0000 16.6778
#
#
#
# Elastic Compliance Matrix: (Units=1/GPa)
#
#
# Indices 1 2 3 4 5 6 
#
# 1 0.006982 0.001481 -0.004010 0.000000 0.000000 0.000000
# 2 0.001481 0.031978 -0.008893 0.000000 0.000000 0.000000
# 3 -0.004010 -0.008893 0.012366 0.000000 0.000000 0.000000
# 4 0.000000 0.000000 0.000000 -0.343962 0.000000 0.000000
# 5 0.000000 0.000000 0.000000 0.000000 0.050757 0.000000
# 6 0.000000 0.000000 0.000000 0.000000 0.000000 0.059960
#
#
# Mechanical properties :
#
#
# Convention : Reuss Voigt Hill
#
# Bulk Modulus (GPa) = 35.11099 61.71567 48.41333
# Shear Modulus (GPa) = -33.42677 22.45334 -5.48672
#
# Velocity S-wave (km/s) = -3.69221 3.02608 -1.49588
# Velocity P-wave (km/s) = 1.96399 6.11384 4.09401
#
# Compressibility (1/GPa) = 0.02848111
#
# Stress axis : x y z
#
# Youngs Moduli (GPa) = 143.22441 31.27159 80.86793
#
# Poissons Ratio (x) = -0.04631 0.32428
# Poissons Ratio (y) = -0.21209 0.71917
# Poissons Ratio (z) = 0.57433 0.27810
#
# Static dielectric constant tensor:
#      x y z
#    x 2.025800 0.000000 0.000000 
#    y 0.000000 2.192630 0.000000 
#    z 0.000000 0.000000 2.011660 
# 
# From -- ./inp_files/21146.got.cif
#   From: 2010.05.17/outbox.cif.g08.bks.cpg/sg50_11_cif.got.tgz:21146.got - 2010.06.03 11:33:33.
