data_PCOD9396494
_publ_section_title
;
Structure prediction by ZEFSAII (Michael W. Deem and Ramdas Pophale) SiO2 
 PCOD9396494
Probable space group: P B A N
;
_chemical_formula_sum "Si O2"
_cell_formula_units_Z 44
_cell_length_a 28.752403
_cell_length_b 14.263801
_cell_length_c 5.053698
_cell_angle_alpha 90.000000
_cell_angle_beta 90.000000
_cell_angle_gamma 90.000000
_cell_volume 2072.615319
_symmetry_space_group_name_H-M "P B A N"
_symmetry_group_IT_number 50
_space_group.IT_coordinate_system_code '2'
_symmetry_cell_setting 'orthorhombic'
loop_
_space_group_symop_operation_xyz
x,y,z
1/2-x,1/2-y,z
x,1/2-y,-z
1/2-x,y,-z
-x,-y,-z
1/2+x,1/2+y,-z
-x,1/2+y,z
1/2+x,-y,z
loop_
_atom_site_type_symbol
_atom_site_label
_atom_site_fract_x
_atom_site_fract_y
_atom_site_fract_z
Si Si1 0.074488 0.250000 0.500000
Si Si2 0.750000 0.892557 0.500000
Si Si3 0.750000 0.030471 0.000000
Si Si4 0.347394 0.111839 0.663321
Si Si5 0.063940 0.852778 0.891129
Si Si6 0.494642 0.605389 0.389032
Si Si7 0.845913 0.479151 0.843159
O O1 0.110294 0.315344 0.662058
O O2 0.040325 0.171743 0.628112
O O3 0.701619 0.843376 0.430063
O O4 0.748010 0.961969 0.748979
O O5 0.700363 0.078583 0.941801
O O6 0.350455 0.026145 0.448588
O O7 0.345839 0.065825 0.951676
O O8 0.039335 0.849118 0.607411
O O9 0.109518 0.915275 0.878753
O O10 0.074570 0.750000 0.000000
O O11 0.028455 0.897096 0.102598
O O12 0.500000 0.500000 0.500000
#
# Coordination Sequence:
#
# PCOD9396494 Si02
#       7
#     4   4   4   8   8   8   8
#     4  12  24  41  60  90 118 151 212 244 296 352
#     4   8  16  35  54  84 119 152 186 229 304 340
#     4   8  16  32  59  85 116 150 194 242 278 372
#     4  10  22  36  61  88 119 155 193 246 284 370
#     4  12  23  42  60  87 118 159 199 254 308 356
#     4  12  26  43  62  84 121 160 204 254 305 356
#     4  10  20  39  61  88 118 158 198 236 310 347
#
# _framework density 21.229219000000001
#
# number of rings (size 3 to 8) (size 9 to 14) (size 15 to 20)
#    0.000    1.455    1.818    3.818    0.000    4.000 
#    0.000    0.455    0.000    6.545    0.000   10.182 
#    0.000    0.000    0.000    0.000    0.000    0.000 
#
# Total GULP energy -245185.540799 kJ/mol
# GULP energy per Si atom -5572.398655 kJ/mol
# Density = 2.118090 g / cm^3
# Si number density = 21.229219 Si / 1000 Ang^3
#
#
#
# Elastic Constant Matrix: (Units=GPa)
#
#
# Indices 1 2 3 4 5 6 
#
# 1 151.0582 27.5052 6.6566 0.0000 0.0000 0.0000
# 2 27.5052 72.1266 -6.6306 0.0000 0.0000 0.0000
# 3 6.6566 -6.6306 95.0089 0.0000 0.0000 0.0000
# 4 0.0000 0.0000 0.0000 -71.9751 0.0000 0.0000
# 5 0.0000 0.0000 0.0000 0.0000 14.8128 0.0000
# 6 0.0000 0.0000 0.0000 0.0000 0.0000 19.9760
#
#
#
# Elastic Compliance Matrix: (Units=1/GPa)
#
#
# Indices 1 2 3 4 5 6 
#
# 1 0.007159 -0.002794 -0.000697 0.000000 0.000000 0.000000
# 2 -0.002794 0.015045 0.001246 0.000000 0.000000 0.000000
# 3 -0.000697 0.001246 0.010661 0.000000 0.000000 0.000000
# 4 0.000000 0.000000 0.000000 -0.013894 0.000000 0.000000
# 5 0.000000 0.000000 0.000000 0.000000 0.067509 0.000000
# 6 0.000000 0.000000 0.000000 0.000000 0.000000 0.050060
#
#
# Mechanical properties :
#
#
# Convention : Reuss Voigt Hill
#
# Bulk Modulus (GPa) = 35.24250 41.47288 38.35769
# Shear Modulus (GPa) = 33.22495 11.94025 22.58260
#
# Velocity S-wave (km/s) = 3.96037 2.37416 3.26506
# Velocity P-wave (km/s) = 6.12778 5.20516 5.68522
#
# Compressibility (1/GPa) = 0.02837483
#
# Stress axis : x y z
#
# Youngs Moduli (GPa) = 139.67554 66.46898 93.79918
#
# Poissons Ratio (x) = 0.18573 0.06534
# Poissons Ratio (y) = 0.39029 -0.11685
# Poissons Ratio (z) = 0.09730 -0.08280
#
# Static dielectric constant tensor:
#      x y z
#    x 1.901090 0.000000 0.000000 
#    y 0.000000 1.818880 0.000000 
#    z 0.000000 0.000000 1.725230 
# 
# From -- ./inp_files/6567.got.cif
#   From: 2010.05.17/outbox.cif.g08.bks.cpg/sg50_4_cif.got.tgz:6567.got - 2010.06.03 11:33:33.
