data_PCOD9396294
_publ_section_title
;
Structure prediction by ZEFSAII (Michael W. Deem and Ramdas Pophale) SiO2 
 PCOD9396294
Probable space group: P B A N
;
_chemical_formula_sum "Si O2"
_cell_formula_units_Z 46
_cell_length_a 5.028071
_cell_length_b 18.392478
_cell_length_c 25.371228
_cell_angle_alpha 90.000000
_cell_angle_beta 90.000000
_cell_angle_gamma 90.000000
_cell_volume 2346.297809
_symmetry_space_group_name_H-M "P B A N"
_symmetry_group_IT_number 50
_space_group.IT_coordinate_system_code '2'
_symmetry_cell_setting 'orthorhombic'
loop_
_space_group_symop_operation_xyz
x,y,z
1/2-x,1/2-y,z
x,1/2-y,-z
1/2-x,y,-z
-x,-y,-z
1/2+x,1/2+y,-z
-x,1/2+y,z
1/2+x,-y,z
loop_
_atom_site_type_symbol
_atom_site_label
_atom_site_fract_x
_atom_site_fract_y
_atom_site_fract_z
Si Si1 0.514708 0.299426 0.289386
Si Si2 0.232844 0.050019 0.886761
Si Si3 0.631334 0.553971 0.772004
Si Si4 0.250000 0.750000 0.500000
Si Si5 0.322837 0.456421 0.560781
Si Si6 0.448823 0.182755 0.595616
Si Si7 0.250000 0.446138 0.000000
O O1 0.250000 0.250000 0.290193
O O2 0.438405 0.375905 0.262758
O O3 0.605015 0.317100 0.349633
O O4 0.750000 0.250000 0.265015
O O5 0.322929 0.084579 0.831809
O O6 0.263990 0.091298 0.942612
O O7 0.430887 0.979618 0.886513
O O8 0.396018 0.494786 0.764327
O O9 0.397049 0.803516 0.458973
O O10 0.250000 0.439248 0.500000
O O11 0.628473 0.475021 0.570561
O O12 0.222973 0.389686 0.594050
O O13 0.250000 0.250000 0.596777
O O14 0.500000 0.500000 0.000000
#
# Coordination Sequence:
#
# PCOD9396294 Si02
#       7
#     8   8   8   2   8   8   4
#     4  11  24  42  59  84 115 147 188 239 289 345
#     4   8  14  24  42  72 106 143 181 225 273 319
#     4  10  20  36  60  85 114 151 194 236 283 340
#     4  12  22  40  64  82 104 136 188 224 276 340
#     4  10  23  38  57  82 112 137 166 210 267 330
#     4  11  25  40  62  84 108 141 184 223 278 341
#     4   8  12  20  36  64 107 142 173 222 276 314
#
# _framework density 19.605353000000001
#
# number of rings (size 3 to 8) (size 9 to 14) (size 15 to 20)
#    0.000    2.087    0.870    2.348    6.087    1.391 
#    0.000    0.000    0.000    0.000    0.000    0.609 
#    0.000    1.391    0.000    0.000    0.000    0.000 
#
# Total GULP energy -256102.512798 kJ/mol
# GULP energy per Si atom -5567.445930 kJ/mol
# Density = 1.956073 g / cm^3
# Si number density = 19.605353 Si / 1000 Ang^3
#
#
#
# Elastic Constant Matrix: (Units=GPa)
#
#
# Indices 1 2 3 4 5 6 
#
# 1 87.0079 8.5412 4.5766 0.0000 0.0000 0.0000
# 2 8.5412 72.0675 39.9512 0.0000 0.0000 0.0000
# 3 4.5766 39.9512 121.7556 0.0000 0.0000 0.0000
# 4 0.0000 0.0000 0.0000 3.7737 0.0000 0.0000
# 5 0.0000 0.0000 0.0000 0.0000 14.7122 0.0000
# 6 0.0000 0.0000 0.0000 0.0000 0.0000 28.8209
#
#
#
# Elastic Compliance Matrix: (Units=1/GPa)
#
#
# Indices 1 2 3 4 5 6 
#
# 1 0.011629 -0.001388 0.000018 0.000000 0.000000 0.000000
# 2 -0.001388 0.017127 -0.005568 0.000000 0.000000 0.000000
# 3 0.000018 -0.005568 0.010039 0.000000 0.000000 0.000000
# 4 0.000000 0.000000 0.000000 0.264990 0.000000 0.000000
# 5 0.000000 0.000000 0.000000 0.000000 0.067971 0.000000
# 6 0.000000 0.000000 0.000000 0.000000 0.000000 0.034697
#
#
# Mechanical properties :
#
#
# Convention : Reuss Voigt Hill
#
# Bulk Modulus (GPa) = 40.12891 42.99656 41.56273
# Shear Modulus (GPa) = 11.66497 24.64551 18.15524
#
# Velocity S-wave (km/s) = 2.44189 3.54938 3.04638
# Velocity P-wave (km/s) = 5.33509 6.22705 5.79824
#
# Compressibility (1/GPa) = 0.02491969
#
# Stress axis : x y z
#
# Youngs Moduli (GPa) = 85.99534 58.38782 99.60807
#
# Poissons Ratio (x) = 0.08107 -0.00184
# Poissons Ratio (y) = 0.11940 0.55458
# Poissons Ratio (z) = -0.00159 0.32508
#
# Static dielectric constant tensor:
#      x y z
#    x 1.774310 0.000000 0.000000 
#    y 0.000000 1.456570 0.000000 
#    z 0.000000 0.000000 1.802800 
# 
# From -- ./inp_files/31482.got.cif
#   From: 2010.05.17/outbox.cif.g08.bks.cpg/sg50_16_cif.got.tgz:31482.got - 2010.06.03 11:33:33.
