data_PCOD9396531
_publ_section_title
;
Structure prediction by ZEFSAII (Michael W. Deem and Ramdas Pophale) SiO2 
 PCOD9396531
Probable space group: P B A N
;
_chemical_formula_sum "Si O2"
_cell_formula_units_Z 64
_cell_length_a 12.634353
_cell_length_b 23.788173
_cell_length_c 10.760422
_cell_angle_alpha 90.000000
_cell_angle_beta 90.000000
_cell_angle_gamma 90.000000
_cell_volume 3234.025193
_symmetry_space_group_name_H-M "P B A N"
_symmetry_group_IT_number 50
_space_group.IT_coordinate_system_code '2'
_symmetry_cell_setting 'orthorhombic'
loop_
_space_group_symop_operation_xyz
x,y,z
1/2-x,1/2-y,z
x,1/2-y,-z
1/2-x,y,-z
-x,-y,-z
1/2+x,1/2+y,-z
-x,1/2+y,z
1/2+x,-y,z
loop_
_atom_site_type_symbol
_atom_site_label
_atom_site_fract_x
_atom_site_fract_y
_atom_site_fract_z
Si Si1 0.873416 0.400879 0.246450
Si Si2 0.875819 0.655491 0.022902
Si Si3 0.979687 0.673665 0.287066
Si Si4 0.367263 0.340004 0.542202
Si Si5 0.557644 0.537226 0.397285
Si Si6 0.857963 0.072382 0.270456
Si Si7 0.015325 0.205066 0.784330
Si Si8 0.447709 0.939845 0.002435
O O1 0.758262 0.405921 0.304819
O O2 0.963072 0.435046 0.319095
O O3 0.918770 0.338669 0.225762
O O4 0.872245 0.429764 0.112996
O O5 0.897075 0.664853 0.171266
O O6 0.951895 0.602282 0.996171
O O7 0.750000 0.649031 0.000000
O O8 0.923037 0.698073 0.916502
O O9 0.934513 0.680912 0.424764
O O10 0.028000 0.732695 0.241812
O O11 0.055412 0.619783 0.304405
O O12 0.250000 0.326103 0.500000
O O13 0.378971 0.408123 0.555330
O O14 0.405043 0.312851 0.672122
O O15 0.500000 0.500000 0.500000
O O16 0.623920 0.490303 0.323167
O O17 0.879451 0.068788 0.124431
O O18 0.500000 0.000000 0.000000
#
# Coordination Sequence:
#
# PCOD9396531 Si02
#       8
#     8   8   8   8   8   8   8   8
#     4  10  23  41  63  90 124 162 201 252 312 362
#     4  10  22  38  63  93 124 164 207 255 317 366
#     4  11  23  41  63  91 125 164 213 257 302 371
#     4  11  24  40  64  91 124 166 205 253 316 369
#     4  11  23  41  59  89 125 155 202 253 302 364
#     4  11  23  39  66  91 122 164 203 249 312 371
#     4  10  23  43  61  90 130 160 210 266 299 364
#     4  10  20  40  58  91 127 157 203 252 302 373
#
# _framework density 19.789580000000001
#
# number of rings (size 3 to 8) (size 9 to 14) (size 15 to 20)
#    0.000    1.500    2.500    1.875    1.750    4.500 
#    0.000    0.000    0.000    6.000    0.000    0.000 
#    0.000    0.000    0.000    0.000    0.000    0.000 
#
# Total GULP energy -356744.781145 kJ/mol
# GULP energy per Si atom -5574.137205 kJ/mol
# Density = 1.974454 g / cm^3
# Si number density = 19.789580 Si / 1000 Ang^3
#
#
#
# Elastic Constant Matrix: (Units=GPa)
#
#
# Indices 1 2 3 4 5 6 
#
# 1 84.8489 2.7689 4.1043 0.0000 0.0000 0.0000
# 2 2.7689 83.8626 2.3731 0.0000 0.0000 0.0000
# 3 4.1043 2.3731 75.4008 0.0000 0.0000 0.0000
# 4 0.0000 0.0000 0.0000 32.1074 0.0000 0.0000
# 5 0.0000 0.0000 0.0000 0.0000 5.2087 0.0000
# 6 0.0000 0.0000 0.0000 0.0000 0.0000 -3.3147
#
#
#
# Elastic Compliance Matrix: (Units=1/GPa)
#
#
# Indices 1 2 3 4 5 6 
#
# 1 0.011828 -0.000373 -0.000632 0.000000 0.000000 0.000000
# 2 -0.000373 0.011947 -0.000356 0.000000 0.000000 0.000000
# 3 -0.000632 -0.000356 0.013308 0.000000 0.000000 0.000000
# 4 0.000000 0.000000 0.000000 0.031146 0.000000 0.000000
# 5 0.000000 0.000000 0.000000 0.000000 0.191986 0.000000
# 6 0.000000 0.000000 0.000000 0.000000 0.000000 -0.301683
#
#
# Mechanical properties :
#
#
# Convention : Reuss Voigt Hill
#
# Bulk Modulus (GPa) = 29.10180 29.17830 29.14005
# Shear Modulus (GPa) = -183.19314 22.45800 -80.36757
#
# Velocity S-wave (km/s) = -9.63179 3.37239 -6.37959
# Velocity P-wave (km/s) = 10.43828 5.47178 6.28560
#
# Compressibility (1/GPa) = 0.03436214
#
# Stress axis : x y z
#
# Youngs Moduli (GPa) = 84.54229 83.70558 75.14238
#
# Poissons Ratio (x) = 0.03119 0.04750
# Poissons Ratio (y) = 0.03151 0.02673
# Poissons Ratio (z) = 0.05344 0.02977
#
# Static dielectric constant tensor:
#      x y z
#    x 1.708950 0.000000 0.000000 
#    y 0.000000 1.598170 0.000000 
#    z 0.000000 0.000000 1.928830 
# 
# From -- ./inp_files/20526.got.cif
#   From: 2010.05.17/outbox.cif.g08.bks.cpg/sg50_11_cif.got.tgz:20526.got - 2010.06.03 11:33:33.
