data_PCOD9396535
_publ_section_title
;
Structure prediction by ZEFSAII (Michael W. Deem and Ramdas Pophale) SiO2 
 PCOD9396535
Probable space group: P B A N
;
_chemical_formula_sum "Si O2"
_cell_formula_units_Z 46
_cell_length_a 8.619686
_cell_length_b 18.948056
_cell_length_c 14.514687
_cell_angle_alpha 90.000000
_cell_angle_beta 90.000000
_cell_angle_gamma 90.000000
_cell_volume 2370.630022
_symmetry_space_group_name_H-M "P B A N"
_symmetry_group_IT_number 50
_space_group.IT_coordinate_system_code '2'
_symmetry_cell_setting 'orthorhombic'
loop_
_space_group_symop_operation_xyz
x,y,z
1/2-x,1/2-y,z
x,1/2-y,-z
1/2-x,y,-z
-x,-y,-z
1/2+x,1/2+y,-z
-x,1/2+y,z
1/2+x,-y,z
loop_
_atom_site_type_symbol
_atom_site_label
_atom_site_fract_x
_atom_site_fract_y
_atom_site_fract_z
Si Si1 0.312705 0.678091 0.778911
Si Si2 0.490113 0.549150 0.869464
Si Si3 0.378559 0.193635 0.674116
Si Si4 0.750000 0.967577 0.000000
Si Si5 0.223841 0.442258 0.389578
Si Si6 0.404803 0.940224 0.706468
Si Si7 0.250000 0.250000 0.500000
O O1 0.250000 0.750000 0.824211
O O2 0.406377 0.619126 0.834867
O O3 0.447379 0.702352 0.707853
O O4 0.168579 0.633031 0.739820
O O5 0.367274 0.513309 0.938390
O O6 0.537395 0.490665 0.791591
O O7 0.642193 0.571404 0.926623
O O8 0.250000 0.250000 0.713674
O O9 0.319861 0.113101 0.674609
O O10 0.361827 0.207389 0.565715
O O11 0.250000 0.438321 0.500000
O O12 0.273644 0.517918 0.350219
O O13 0.046806 0.428744 0.362776
#
# Coordination Sequence:
#
# PCOD9396535 Si02
#       7
#     8   8   8   4   8   8   2
#     4  12  25  42  66 100 132 177 220 275 338 408
#     4  11  21  43  70 100 129 171 214 273 327 418
#     4  10  20  40  61  87 130 180 225 272 339 391
#     4  10  22  40  75 101 126 164 218 260 344 400
#     4  12  21  37  60  92 133 177 232 285 328 389
#     4  12  23  40  64  95 133 174 225 275 335 401
#     4   8  20  40  58  84 128 182 220 276 328 388
#
# _framework density 19.404125000000001
#
# number of rings (size 3 to 8) (size 9 to 14) (size 15 to 20)
#    0.522    0.348    6.087    1.565    0.000    0.000 
#    0.000    2.609    0.000    1.043    0.000    0.000 
#    0.000    0.000    0.000    0.000    0.000    0.000 
#
# Total GULP energy -256113.220506 kJ/mol
# GULP energy per Si atom -5567.678707 kJ/mol
# Density = 1.935996 g / cm^3
# Si number density = 19.404125 Si / 1000 Ang^3
#
#
#
# Elastic Constant Matrix: (Units=GPa)
#
#
# Indices 1 2 3 4 5 6 
#
# 1 110.8892 28.1805 41.6742 0.0000 0.0000 0.0000
# 2 28.1805 107.5503 23.7620 0.0000 0.0000 0.0000
# 3 41.6742 23.7620 78.1807 0.0000 0.0000 0.0000
# 4 0.0000 0.0000 0.0000 6.0463 0.0000 0.0000
# 5 0.0000 0.0000 0.0000 0.0000 32.1845 0.0000
# 6 0.0000 0.0000 0.0000 0.0000 0.0000 39.4463
#
#
#
# Elastic Compliance Matrix: (Units=1/GPa)
#
#
# Indices 1 2 3 4 5 6 
#
# 1 0.011591 -0.001792 -0.005634 0.000000 0.000000 0.000000
# 2 -0.001792 0.010244 -0.002158 0.000000 0.000000 0.000000
# 3 -0.005634 -0.002158 0.016450 0.000000 0.000000 0.000000
# 4 0.000000 0.000000 0.000000 0.165392 0.000000 0.000000
# 5 0.000000 0.000000 0.000000 0.000000 0.031071 0.000000
# 6 0.000000 0.000000 0.000000 0.000000 0.000000 0.025351
#
#
# Mechanical properties :
#
#
# Convention : Reuss Voigt Hill
#
# Bulk Modulus (GPa) = 52.31077 53.76150 53.03614
# Shear Modulus (GPa) = 17.50460 29.06898 23.28679
#
# Velocity S-wave (km/s) = 3.00677 3.87471 3.46800
# Velocity P-wave (km/s) = 6.25070 6.91261 6.58997
#
# Compressibility (1/GPa) = 0.01911652
#
# Stress axis : x y z
#
# Youngs Moduli (GPa) = 86.27578 97.61383 60.79067
#
# Poissons Ratio (x) = 0.17496 0.34248
# Poissons Ratio (y) = 0.15463 0.13120
# Poissons Ratio (z) = 0.48605 0.21068
#
# Static dielectric constant tensor:
#      x y z
#    x 1.696470 0.000000 0.000000 
#    y 0.000000 1.753050 0.000000 
#    z 0.000000 0.000000 1.707720 
# 
# From -- ./inp_files/24927.got.cif
#   From: 2010.05.17/outbox.cif.g08.bks.cpg/sg50_13_cif.got.tgz:24927.got - 2010.06.03 11:33:33.
