data_PCOD9396794
_publ_section_title
;
Structure prediction by ZEFSAII (Michael W. Deem and Ramdas Pophale) SiO2 
 PCOD9396794
Probable space group: P B A N
;
_chemical_formula_sum "Si O2"
_cell_formula_units_Z 52
_cell_length_a 28.569869
_cell_length_b 12.436185
_cell_length_c 7.476715
_cell_angle_alpha 90.000000
_cell_angle_beta 90.000000
_cell_angle_gamma 90.000000
_cell_volume 2656.478158
_symmetry_space_group_name_H-M "P B A N"
_symmetry_group_IT_number 50
_space_group.IT_coordinate_system_code '2'
_symmetry_cell_setting 'orthorhombic'
loop_
_space_group_symop_operation_xyz
x,y,z
1/2-x,1/2-y,z
x,1/2-y,-z
1/2-x,y,-z
-x,-y,-z
1/2+x,1/2+y,-z
-x,1/2+y,z
1/2+x,-y,z
loop_
_atom_site_type_symbol
_atom_site_label
_atom_site_fract_x
_atom_site_fract_y
_atom_site_fract_z
Si Si1 0.801376 0.593373 0.564651
Si Si2 0.128915 0.768743 0.795220
Si Si3 0.296050 0.932398 0.107945
Si Si4 0.621684 0.750000 0.500000
Si Si5 0.458836 0.862758 0.399194
Si Si6 0.943672 0.934858 0.665172
Si Si7 0.145087 0.972296 0.237193
O O1 0.750000 0.630893 0.500000
O O2 0.790866 0.516913 0.732706
O O3 0.840131 0.683413 0.618116
O O4 0.827147 0.531379 0.398276
O O5 0.177361 0.831791 0.806866
O O6 0.088830 0.838053 0.703611
O O7 0.137645 0.652450 0.710054
O O8 0.113882 0.750000 0.000000
O O9 0.250000 0.900198 0.000000
O O10 0.327541 0.978740 0.947714
O O11 0.586380 0.662790 0.582030
O O12 0.469811 0.750000 0.500000
O O13 0.504922 0.893655 0.285212
O O14 0.450530 0.965008 0.528301
O O15 0.906532 0.981523 0.803732
#
# Coordination Sequence:
#
# PCOD9396794 Si02
#       7
#     8   8   8   4   8   8   8
#     4  11  22  40  63  88 122 170 214 260 316 381
#     4  10  22  38  60  89 128 165 202 265 317 378
#     4  11  23  41  62  91 128 166 213 265 321 376
#     4  10  21  38  62  92 124 166 212 259 310 366
#     4  11  20  38  67  96 123 164 211 258 325 385
#     4  10  21  37  65  95 126 162 211 262 309 388
#     4  10  21  40  62  90 130 164 209 259 315 379
#
# _framework density 19.57479
#
# number of rings (size 3 to 8) (size 9 to 14) (size 15 to 20)
#    0.000    1.538    3.846    2.077    0.000    2.769 
#    0.000    8.462    0.000    0.000    0.000    0.000 
#    0.000    0.000    0.000    0.000    0.000    0.000 
#
# Total GULP energy -289685.253980 kJ/mol
# GULP energy per Si atom -5570.870269 kJ/mol
# Density = 1.953024 g / cm^3
# Si number density = 19.574790 Si / 1000 Ang^3
#
#
#
# Elastic Constant Matrix: (Units=GPa)
#
#
# Indices 1 2 3 4 5 6 
#
# 1 115.1776 36.1974 16.8660 0.0000 0.0000 0.0000
# 2 36.1974 101.9725 17.9706 0.0000 0.0000 0.0000
# 3 16.8660 17.9706 23.5763 0.0000 0.0000 0.0000
# 4 0.0000 0.0000 0.0000 3.7684 0.0000 0.0000
# 5 0.0000 0.0000 0.0000 0.0000 65.4565 0.0000
# 6 0.0000 0.0000 0.0000 0.0000 0.0000 31.8078
#
#
#
# Elastic Compliance Matrix: (Units=1/GPa)
#
#
# Indices 1 2 3 4 5 6 
#
# 1 0.010316 -0.002728 -0.005301 0.000000 0.000000 0.000000
# 2 -0.002728 0.012050 -0.007233 0.000000 0.000000 0.000000
# 3 -0.005301 -0.007233 0.051721 0.000000 0.000000 0.000000
# 4 0.000000 0.000000 0.000000 0.265363 0.000000 0.000000
# 5 0.000000 0.000000 0.000000 0.000000 0.015277 0.000000
# 6 0.000000 0.000000 0.000000 0.000000 0.000000 0.031439
#
#
# Mechanical properties :
#
#
# Convention : Reuss Voigt Hill
#
# Bulk Modulus (GPa) = 22.95515 42.53273 32.74394
# Shear Modulus (GPa) = 11.59530 31.51937 21.55734
#
# Velocity S-wave (km/s) = 2.43648 4.01709 3.32216
# Velocity P-wave (km/s) = 4.43482 6.57962 5.61066
#
# Compressibility (1/GPa) = 0.04356320
#
# Stress axis : x y z
#
# Youngs Moduli (GPa) = 96.93999 82.99080 19.33455
#
# Poissons Ratio (x) = 0.22637 0.10248
# Poissons Ratio (y) = 0.26442 0.13985
# Poissons Ratio (z) = 0.51383 0.60029
#
# Static dielectric constant tensor:
#      x y z
#    x 1.723000 0.000000 0.000000 
#    y 0.000000 1.749660 0.000000 
#    z 0.000000 0.000000 1.674480 
# 
# From -- ./inp_files/17050.got.cif
#   From: 2010.05.17/outbox.cif.g08.bks.cpg/sg50_9_cif.got.tgz:17050.got - 2010.06.03 11:33:33.
