data_PCOD9396250
_publ_section_title
;
Structure prediction by ZEFSAII (Michael W. Deem and Ramdas Pophale) SiO2 
 PCOD9396250
Probable space group: P B A N
;
_chemical_formula_sum "Si O2"
_cell_formula_units_Z 42
_cell_length_a 22.266071
_cell_length_b 5.036117
_cell_length_c 19.681146
_cell_angle_alpha 90.000000
_cell_angle_beta 90.000000
_cell_angle_gamma 90.000000
_cell_volume 2206.936228
_symmetry_space_group_name_H-M "P B A N"
_symmetry_group_IT_number 50
_space_group.IT_coordinate_system_code '2'
_symmetry_cell_setting 'orthorhombic'
loop_
_space_group_symop_operation_xyz
x,y,z
1/2-x,1/2-y,z
x,1/2-y,-z
1/2-x,y,-z
-x,-y,-z
1/2+x,1/2+y,-z
-x,1/2+y,z
1/2+x,-y,z
loop_
_atom_site_type_symbol
_atom_site_label
_atom_site_fract_x
_atom_site_fract_y
_atom_site_fract_z
Si Si1 0.124778 0.810714 0.129552
Si Si2 0.250000 0.250000 0.500000
Si Si3 0.843854 0.250000 0.500000
Si Si4 0.457705 0.852033 0.405629
Si Si5 0.539004 0.369179 0.243854
Si Si6 0.319351 0.186968 0.076691
Si Si7 0.458721 0.750000 0.000000
O O1 0.095322 0.718657 0.199262
O O2 0.175687 0.609782 0.104049
O O3 0.077961 0.762708 0.069101
O O4 0.146099 0.112372 0.126279
O O5 0.198387 0.488980 0.516961
O O6 0.892543 0.323873 0.559249
O O7 0.503611 0.613237 0.422743
O O8 0.448583 0.849861 0.324055
O O9 0.514699 0.661990 0.227792
O O10 0.250000 0.250000 0.074769
O O11 0.343198 0.250000 0.000000
O O12 0.500000 0.500000 0.000000
#
# Coordination Sequence:
#
# PCOD9396250 Si02
#       7
#     8   2   4   8   8   8   4
#     4  12  21  37  56  76 109 143 176 228 282 330
#     4  10  24  36  60  88 128 174 192 230 292 326
#     4  11  20  39  62  91 124 159 204 240 272 347
#     4  10  20  35  63  93 120 150 193 246 295 335
#     4  10  21  37  56  84 117 151 176 220 290 346
#     4  11  22  38  57  77  99 136 188 242 284 319
#     4  12  22  32  49  78 103 132 172 212 262 342
#
# _framework density 19.030909999999999
#
# number of rings (size 3 to 8) (size 9 to 14) (size 15 to 20)
#    0.000    1.143    1.905    5.714    0.000    1.524 
#    0.000    0.000   12.571    0.000    0.000    0.000 
#    0.000    0.000    0.000    0.000    0.000    0.000 
#
# Total GULP energy -233917.628095 kJ/mol
# GULP energy per Si atom -5569.467336 kJ/mol
# Density = 1.898759 g / cm^3
# Si number density = 19.030910 Si / 1000 Ang^3
#
#
#
# Elastic Constant Matrix: (Units=GPa)
#
#
# Indices 1 2 3 4 5 6 
#
# 1 90.0538 17.4895 19.2151 0.0000 0.0000 0.0000
# 2 17.4895 93.4985 -1.8033 0.0000 0.0000 0.0000
# 3 19.2151 -1.8033 60.6890 0.0000 0.0000 0.0000
# 4 0.0000 0.0000 0.0000 18.1936 0.0000 0.0000
# 5 0.0000 0.0000 0.0000 0.0000 12.8068 0.0000
# 6 0.0000 0.0000 0.0000 0.0000 0.0000 42.6297
#
#
#
# Elastic Compliance Matrix: (Units=1/GPa)
#
#
# Indices 1 2 3 4 5 6 
#
# 1 0.012426 -0.002402 -0.004005 0.000000 0.000000 0.000000
# 2 -0.002402 0.011166 0.001092 0.000000 0.000000 0.000000
# 3 -0.004005 0.001092 0.017778 0.000000 0.000000 0.000000
# 4 0.000000 0.000000 0.000000 0.054964 0.000000 0.000000
# 5 0.000000 0.000000 0.000000 0.000000 0.078084 0.000000
# 6 0.000000 0.000000 0.000000 0.000000 0.000000 0.023458
#
#
# Mechanical properties :
#
#
# Convention : Reuss Voigt Hill
#
# Bulk Modulus (GPa) = 32.53141 34.89378 33.71260
# Shear Modulus (GPa) = 22.85699 28.68201 25.76950
#
# Velocity S-wave (km/s) = 3.46937 3.88639 3.68378
# Velocity P-wave (km/s) = 5.76019 6.20595 5.98722
#
# Compressibility (1/GPa) = 0.03073952
#
# Stress axis : x y z
#
# Youngs Moduli (GPa) = 80.47944 89.56046 56.24898
#
# Poissons Ratio (x) = 0.21508 0.22530
# Poissons Ratio (y) = 0.19327 -0.06143
# Poissons Ratio (z) = 0.32236 -0.09781
#
# Static dielectric constant tensor:
#      x y z
#    x 1.649830 0.000000 0.000000 
#    y 0.000000 2.106700 0.000000 
#    z 0.000000 0.000000 1.668950 
# 
# From -- ./inp_files/31150.got.cif
#   From: 2010.05.17/outbox.cif.g08.bks.cpg/sg50_16_cif.got.tgz:31150.got - 2010.06.03 11:33:33.
