data_PCOD9396929
_publ_section_title
;
Structure prediction by ZEFSAII (Michael W. Deem and Ramdas Pophale) SiO2 
 PCOD9396929
Probable space group: P B A N
;
_chemical_formula_sum "Si O2"
_cell_formula_units_Z 32
_cell_length_a 5.454953
_cell_length_b 33.449438
_cell_length_c 7.100919
_cell_angle_alpha 90.000000
_cell_angle_beta 90.000000
_cell_angle_gamma 90.000000
_cell_volume 1295.669982
_symmetry_space_group_name_H-M "P B A N"
_symmetry_group_IT_number 50
_space_group.IT_coordinate_system_code '2'
_symmetry_cell_setting 'orthorhombic'
loop_
_space_group_symop_operation_xyz
x,y,z
1/2-x,1/2-y,z
x,1/2-y,-z
1/2-x,y,-z
-x,-y,-z
1/2+x,1/2+y,-z
-x,1/2+y,z
1/2+x,-y,z
loop_
_atom_site_type_symbol
_atom_site_label
_atom_site_fract_x
_atom_site_fract_y
_atom_site_fract_z
Si Si1 0.016669 0.606579 0.701326
Si Si2 0.503204 0.733174 0.785371
Si Si3 0.221245 0.980137 0.227722
Si Si4 0.488036 0.139077 0.727188
O O1 0.099434 0.560649 0.698376
O O2 0.246984 0.626689 0.801122
O O3 0.000340 0.626955 0.494843
O O4 0.753285 0.615235 0.791914
O O5 0.250000 0.750000 0.704394
O O6 0.529287 0.685766 0.768613
O O7 0.750000 0.750000 0.698424
O O8 0.501721 0.750000 0.000000
O O9 0.505785 0.988139 0.284106
O O10 0.250000 0.978660 0.000000
#
# Coordination Sequence:
#
# PCOD9396929 Si02
#       4
#     8   8   8   8
#     4  10  21  40  61  93 125 168 206 261 320 375
#     4  10  21  40  62  88 122 162 212 262 317 377
#     4  10  21  40  64  91 127 167 211 258 312 382
#     4  10  21  40  61  88 131 157 214 259 318 381
#
# _framework density 24.697648999999998
#
# number of rings (size 3 to 8) (size 9 to 14) (size 15 to 20)
#    0.000    2.000    0.000    3.000    0.000    0.000 
#   13.500   30.000    0.000    0.000    0.000    0.000 
#    0.000    0.000    0.000    0.000    0.000    0.000 
#
# Total GULP energy -178645.048012 kJ/mol
# GULP energy per Si atom -5582.657750 kJ/mol
# Density = 2.464144 g / cm^3
# Si number density = 24.697649 Si / 1000 Ang^3
#
#
#
# Elastic Constant Matrix: (Units=GPa)
#
#
# Indices 1 2 3 4 5 6 
#
# 1 271.0112 64.9112 25.7659 0.0000 0.0000 0.0000
# 2 64.9112 174.4202 22.8921 0.0000 0.0000 0.0000
# 3 25.7659 22.8921 160.9388 0.0000 0.0000 0.0000
# 4 0.0000 0.0000 0.0000 35.2379 0.0000 0.0000
# 5 0.0000 0.0000 0.0000 0.0000 -44.8708 0.0000
# 6 0.0000 0.0000 0.0000 0.0000 0.0000 54.3424
#
#
#
# Elastic Compliance Matrix: (Units=1/GPa)
#
#
# Indices 1 2 3 4 5 6 
#
# 1 0.004082 -0.001461 -0.000446 0.000000 0.000000 0.000000
# 2 -0.001461 0.006365 -0.000672 0.000000 0.000000 0.000000
# 3 -0.000446 -0.000672 0.006380 0.000000 0.000000 0.000000
# 4 0.000000 0.000000 0.000000 0.028379 0.000000 0.000000
# 5 0.000000 0.000000 0.000000 0.000000 -0.022286 0.000000
# 6 0.000000 0.000000 0.000000 0.000000 0.000000 0.018402
#
#
# Mechanical properties :
#
#
# Convention : Reuss Voigt Hill
#
# Bulk Modulus (GPa) = 85.67776 92.61208 89.14492
# Shear Modulus (GPa) = 99.26914 41.79532 70.53223
#
# Velocity S-wave (km/s) = 6.34673 4.11820 5.34979
# Velocity P-wave (km/s) = 9.40606 7.75838 8.62167
#
# Compressibility (1/GPa) = 0.01167164
#
# Stress axis : x y z
#
# Youngs Moduli (GPa) = 244.97096 157.10900 156.72934
#
# Poissons Ratio (x) = 0.22948 0.06987
# Poissons Ratio (y) = 0.35782 0.10525
# Poissons Ratio (z) = 0.10920 0.10550
#
# Static dielectric constant tensor:
#      x y z
#    x 2.000000 0.000000 0.000000 
#    y 0.000000 1.985100 0.000000 
#    z 0.000000 0.000000 1.908540 
# 
# From -- ./inp_files/7995.got.cif
#   From: 2010.05.17/outbox.cif.g08.bks.cpg/sg50_4_cif.got.tgz:7995.got - 2010.06.03 11:33:33.
