data_PCOD9396078
_publ_section_title
;
Structure prediction by ZEFSAII (Michael W. Deem and Ramdas Pophale) SiO2 
 PCOD9396078
Probable space group: P B A N
;
_chemical_formula_sum "Si O2"
_cell_formula_units_Z 58
_cell_length_a 23.343570
_cell_length_b 8.283324
_cell_length_c 15.747485
_cell_angle_alpha 90.000000
_cell_angle_beta 90.000000
_cell_angle_gamma 90.000000
_cell_volume 3044.970763
_symmetry_space_group_name_H-M "P B A N"
_symmetry_group_IT_number 50
_space_group.IT_coordinate_system_code '2'
_symmetry_cell_setting 'orthorhombic'
loop_
_space_group_symop_operation_xyz
x,y,z
1/2-x,1/2-y,z
x,1/2-y,-z
1/2-x,y,-z
-x,-y,-z
1/2+x,1/2+y,-z
-x,1/2+y,z
1/2+x,-y,z
loop_
_atom_site_type_symbol
_atom_site_label
_atom_site_fract_x
_atom_site_fract_y
_atom_site_fract_z
Si Si1 0.922952 0.068519 0.839916
Si Si2 0.950684 0.050896 0.168545
Si Si3 0.250000 0.250000 0.000000
Si Si4 0.316541 0.614694 0.260052
Si Si5 0.875680 0.558696 0.983006
Si Si6 0.759554 0.558942 0.595986
Si Si7 0.652217 0.491472 0.279603
Si Si8 0.270003 0.009922 0.130740
O O1 0.936488 0.259766 0.841464
O O2 0.875972 0.032726 0.767370
O O3 0.982242 0.977497 0.823838
O O4 0.896318 0.020692 0.930406
O O5 0.912439 0.990158 0.248308
O O6 0.926694 0.957929 0.085766
O O7 0.230784 0.123038 0.072668
O O8 0.282929 0.534754 0.338816
O O9 0.331228 0.801995 0.272845
O O10 0.275418 0.600595 0.178088
O O11 0.822144 0.470474 0.934418
O O12 0.863274 0.750000 0.000000
O O13 0.750000 0.750000 0.599822
O O14 0.750000 0.502033 0.500000
O O15 0.824609 0.537768 0.628927
O O16 0.692933 0.580899 0.209723
#
# Coordination Sequence:
#
# PCOD9396078 Si02
#       8
#     8   8   2   8   8   8   8   8
#     4  11  22  37  54  77 104 146 192 236 278 324
#     4  10  22  38  55  76 105 143 194 237 277 319
#     4  12  20  28  42  76 106 140 178 224 268 310
#     4  10  22  37  58  81 111 147 186 227 282 340
#     4  11  21  34  52  74 104 147 189 236 284 321
#     4  10  21  36  60  93 119 141 172 216 275 341
#     4   9  21  39  56  80 110 148 183 227 277 333
#     4  10  20  32  49  75 108 137 186 224 272 327
#
# _framework density 19.047802999999998
#
# number of rings (size 3 to 8) (size 9 to 14) (size 15 to 20)
#    0.000    1.793    0.690    4.138    3.862    3.310 
#    0.000    6.897    0.000    0.828    0.000    0.000 
#    0.000    0.000    0.000    0.000    0.000    0.000 
#
# Total GULP energy -322968.687742 kJ/mol
# GULP energy per Si atom -5568.425651 kJ/mol
# Density = 1.900445 g / cm^3
# Si number density = 19.047803 Si / 1000 Ang^3
#
#
#
# Elastic Constant Matrix: (Units=GPa)
#
#
# Indices 1 2 3 4 5 6 
#
# 1 140.7020 25.8301 56.3794 0.0000 0.0000 0.0000
# 2 25.8301 50.1729 34.1866 0.0000 0.0000 0.0000
# 3 56.3794 34.1866 130.0552 0.0000 0.0000 0.0000
# 4 0.0000 0.0000 0.0000 20.1249 0.0000 0.0000
# 5 0.0000 0.0000 0.0000 0.0000 17.4231 0.0000
# 6 0.0000 0.0000 0.0000 0.0000 0.0000 25.0531
#
#
#
# Elastic Compliance Matrix: (Units=1/GPa)
#
#
# Indices 1 2 3 4 5 6 
#
# 1 0.008825 -0.002359 -0.003205 0.000000 0.000000 0.000000
# 2 -0.002359 0.024910 -0.005525 0.000000 0.000000 0.000000
# 3 -0.003205 -0.005525 0.010531 0.000000 0.000000 0.000000
# 4 0.000000 0.000000 0.000000 0.049690 0.000000 0.000000
# 5 0.000000 0.000000 0.000000 0.000000 0.057395 0.000000
# 6 0.000000 0.000000 0.000000 0.000000 0.000000 0.039915
#
#
# Mechanical properties :
#
#
# Convention : Reuss Voigt Hill
#
# Bulk Modulus (GPa) = 45.27659 61.52471 53.40065
# Shear Modulus (GPa) = 22.64411 26.15582 24.39997
#
# Velocity S-wave (km/s) = 3.45164 3.70965 3.58297
# Velocity P-wave (km/s) = 6.30133 7.12172 6.72405
#
# Compressibility (1/GPa) = 0.02208647
#
# Stress axis : x y z
#
# Youngs Moduli (GPa) = 113.31804 40.14382 94.95753
#
# Poissons Ratio (x) = 0.09470 0.30438
# Poissons Ratio (y) = 0.26732 0.52467
# Poissons Ratio (z) = 0.36323 0.22181
#
# Static dielectric constant tensor:
#      x y z
#    x 1.482690 0.000000 0.000000 
#    y 0.000000 1.731080 0.000000 
#    z 0.000000 0.000000 1.650860 
# 
# From -- ./inp_files/27477.got.cif
#   From: 2010.05.17/outbox.cif.g08.bks.cpg/sg50_14_cif.got.tgz:27477.got - 2010.06.03 11:33:33.
