data_PCOD9396637
_publ_section_title
;
Structure prediction by ZEFSAII (Michael W. Deem and Ramdas Pophale) SiO2 
 PCOD9396637
Probable space group: P B A N
;
_chemical_formula_sum "Si O2"
_cell_formula_units_Z 64
_cell_length_a 8.789733
_cell_length_b 25.828662
_cell_length_c 15.303496
_cell_angle_alpha 90.000000
_cell_angle_beta 90.000000
_cell_angle_gamma 90.000000
_cell_volume 3474.307440
_symmetry_space_group_name_H-M "P B A N"
_symmetry_group_IT_number 50
_space_group.IT_coordinate_system_code '2'
_symmetry_cell_setting 'orthorhombic'
loop_
_space_group_symop_operation_xyz
x,y,z
1/2-x,1/2-y,z
x,1/2-y,-z
1/2-x,y,-z
-x,-y,-z
1/2+x,1/2+y,-z
-x,1/2+y,z
1/2+x,-y,z
loop_
_atom_site_type_symbol
_atom_site_label
_atom_site_fract_x
_atom_site_fract_y
_atom_site_fract_z
Si Si1 0.951308 0.112970 0.176940
Si Si2 0.153894 0.034512 0.584572
Si Si3 0.399249 0.587852 0.193813
Si Si4 0.854425 0.799006 0.732000
Si Si5 0.567172 0.442346 0.996441
Si Si6 0.081431 0.137949 0.650565
Si Si7 0.424291 0.479793 0.294142
Si Si8 0.428167 0.739911 0.401037
O O1 0.767009 0.115095 0.188812
O O2 0.049894 0.163771 0.202284
O O3 0.000223 0.066033 0.240441
O O4 0.981152 0.092571 0.078613
O O5 0.250000 0.018428 0.500000
O O6 0.091153 0.092612 0.578608
O O7 0.266835 0.038835 0.666526
O O8 0.025455 0.996531 0.621786
O O9 0.466898 0.583276 0.096879
O O10 0.510706 0.616051 0.260200
O O11 0.390211 0.529496 0.233269
O O12 0.750000 0.750000 0.766053
O O13 0.739923 0.834769 0.675411
O O14 0.976660 0.773989 0.666657
O O15 0.750000 0.447382 0.000000
O O16 0.500000 0.500000 0.000000
O O17 0.965871 0.180892 0.618032
O O18 0.250000 0.750000 0.392795
O O19 0.477827 0.750000 0.500000
#
# Coordination Sequence:
#
# PCOD9396637 Si02
#       8
#     8   8   8   8   8   8   8   8
#     4  11  20  36  60  84 122 160 198 251 306 358
#     4  11  23  36  52  80 118 160 205 238 291 361
#     4  10  21  37  56  88 122 159 203 237 307 366
#     4  10  22  38  61  87 112 151 201 251 311 359
#     4  10  21  33  57  90 123 160 200 247 292 362
#     4  10  22  36  60  82 112 159 193 252 305 352
#     4  11  20  35  56  78 117 163 200 242 290 356
#     4  10  22  40  62  88 116 146 201 260 309 360
#
# _framework density 18.420936999999999
#
# number of rings (size 3 to 8) (size 9 to 14) (size 15 to 20)
#    0.000    1.625    3.750    1.125    1.750    2.750 
#    0.000    0.000    0.000    5.250    0.000   11.375 
#    0.000    0.000    0.000    0.000    0.000    0.000 
#
# Total GULP energy -356999.297509 kJ/mol
# GULP energy per Si atom -5578.114024 kJ/mol
# Density = 1.837901 g / cm^3
# Si number density = 18.420937 Si / 1000 Ang^3
#
#
#
# Elastic Constant Matrix: (Units=GPa)
#
#
# Indices 1 2 3 4 5 6 
#
# 1 58.7224 33.4879 27.8640 0.0000 0.0000 0.0000
# 2 33.4879 102.6976 44.2344 0.0000 0.0000 0.0000
# 3 27.8640 44.2344 96.9180 0.0000 0.0000 0.0000
# 4 0.0000 0.0000 0.0000 15.1376 0.0000 0.0000
# 5 0.0000 0.0000 0.0000 0.0000 16.1552 0.0000
# 6 0.0000 0.0000 0.0000 0.0000 0.0000 22.7886
#
#
#
# Elastic Compliance Matrix: (Units=1/GPa)
#
#
# Indices 1 2 3 4 5 6 
#
# 1 0.021986 -0.005535 -0.003795 0.000000 0.000000 0.000000
# 2 -0.005535 0.013513 -0.004576 0.000000 0.000000 0.000000
# 3 -0.003795 -0.004576 0.013498 0.000000 0.000000 0.000000
# 4 0.000000 0.000000 0.000000 0.066061 0.000000 0.000000
# 5 0.000000 0.000000 0.000000 0.000000 0.061900 0.000000
# 6 0.000000 0.000000 0.000000 0.000000 0.000000 0.043882
#
#
# Mechanical properties :
#
#
# Convention : Reuss Voigt Hill
#
# Bulk Modulus (GPa) = 47.20280 52.16785 49.68532
# Shear Modulus (GPa) = 19.55316 20.99972 20.27644
#
# Velocity S-wave (km/s) = 3.26155 3.38004 3.32132
# Velocity P-wave (km/s) = 6.31377 6.60411 6.46057
#
# Compressibility (1/GPa) = 0.02118518
#
# Stress axis : x y z
#
# Youngs Moduli (GPa) = 45.48283 74.00136 74.08640
#
# Poissons Ratio (x) = 0.40958 0.28116
# Poissons Ratio (y) = 0.25174 0.33905
# Poissons Ratio (z) = 0.17261 0.33866
#
# Static dielectric constant tensor:
#      x y z
#    x 1.642630 0.000000 0.000000 
#    y 0.000000 1.703970 0.000000 
#    z 0.000000 0.000000 1.606020 
# 
# From -- ./inp_files/25408.got.cif
#   From: 2010.05.17/outbox.cif.g08.bks.cpg/sg50_13_cif.got.tgz:25408.got - 2010.06.03 11:33:33.
