data_PCOD9396635
_publ_section_title
;
Structure prediction by ZEFSAII (Michael W. Deem and Ramdas Pophale) SiO2 
 PCOD9396635
Probable space group: P B A N
;
_chemical_formula_sum "Si O2"
_cell_formula_units_Z 64
_cell_length_a 25.141604
_cell_length_b 24.545941
_cell_length_c 5.293885
_cell_angle_alpha 90.000000
_cell_angle_beta 90.000000
_cell_angle_gamma 90.000000
_cell_volume 3266.985225
_symmetry_space_group_name_H-M "P B A N"
_symmetry_group_IT_number 50
_space_group.IT_coordinate_system_code '2'
_symmetry_cell_setting 'orthorhombic'
loop_
_space_group_symop_operation_xyz
x,y,z
1/2-x,1/2-y,z
x,1/2-y,-z
1/2-x,y,-z
-x,-y,-z
1/2+x,1/2+y,-z
-x,1/2+y,z
1/2+x,-y,z
loop_
_atom_site_type_symbol
_atom_site_label
_atom_site_fract_x
_atom_site_fract_y
_atom_site_fract_z
Si Si1 0.117885 0.030371 0.279159
Si Si2 0.185988 0.119836 0.512676
Si Si3 0.002898 0.463587 0.753596
Si Si4 0.103990 0.922627 0.578665
Si Si5 0.314336 0.312371 0.011019
Si Si6 0.690294 0.334809 0.906163
Si Si7 0.365688 0.694526 0.572462
Si Si8 0.687690 0.042976 0.975093
O O1 0.153960 0.064248 0.471094
O O2 0.062327 0.061571 0.236568
O O3 0.101097 0.970493 0.376007
O O4 0.155555 0.011330 0.050971
O O5 0.250000 0.110427 0.500000
O O6 0.172120 0.157915 0.272282
O O7 0.171060 0.150970 0.769511
O O8 0.000000 0.500000 0.500000
O O9 0.948650 0.429210 0.750797
O O10 0.000000 0.500000 0.000000
O O11 0.103265 0.860226 0.499908
O O12 0.159837 0.936283 0.718621
O O13 0.333993 0.250000 0.000000
O O14 0.250000 0.309489 0.000000
O O15 0.681077 0.306188 0.638574
O O16 0.682397 0.400173 0.867975
O O17 0.750000 0.327247 0.000000
O O18 0.653278 0.313119 0.137510
O O19 0.395312 0.750000 0.500000
O O20 0.750000 0.029948 0.000000
#
# Coordination Sequence:
#
# PCOD9396635 Si02
#       8
#     8   8   8   8   8   8   8   8
#     4  11  22  36  56  84 123 150 194 238 293 347
#     4  10  22  32  53  86 117 148 187 232 288 350
#     4  10  21  38  61  82 105 150 198 238 276 344
#     4  10  22  39  57  81 118 154 201 238 299 348
#     4   9  18  36  56  77 110 155 197 231 272 339
#     4  10  21  37  52  77 111 152 196 236 288 350
#     4  11  22  36  57  80 107 148 201 252 291 341
#     4  10  21  33  55  81 119 163 187 229 297 364
#
# _framework density 19.589926999999999
#
# number of rings (size 3 to 8) (size 9 to 14) (size 15 to 20)
#    0.000    1.875    2.500    1.125    3.500    3.500 
#    0.000    0.000    0.000    1.500    0.000    0.000 
#    0.000    0.000    0.000    0.000    0.000    0.000 
#
# Total GULP energy -356355.839832 kJ/mol
# GULP energy per Si atom -5568.059997 kJ/mol
# Density = 1.954534 g / cm^3
# Si number density = 19.589927 Si / 1000 Ang^3
#
#
#
# Elastic Constant Matrix: (Units=GPa)
#
#
# Indices 1 2 3 4 5 6 
#
# 1 78.3306 21.1560 14.1501 0.0000 0.0000 0.0000
# 2 21.1560 103.8761 27.3535 0.0000 0.0000 0.0000
# 3 14.1501 27.3535 95.1083 0.0000 0.0000 0.0000
# 4 0.0000 0.0000 0.0000 25.2349 0.0000 0.0000
# 5 0.0000 0.0000 0.0000 0.0000 14.0619 0.0000
# 6 0.0000 0.0000 0.0000 0.0000 0.0000 -11.6227
#
#
#
# Elastic Compliance Matrix: (Units=1/GPa)
#
#
# Indices 1 2 3 4 5 6 
#
# 1 0.013664 -0.002432 -0.001334 0.000000 0.000000 0.000000
# 2 -0.002432 0.010848 -0.002758 0.000000 0.000000 0.000000
# 3 -0.001334 -0.002758 0.011506 0.000000 0.000000 0.000000
# 4 0.000000 0.000000 0.000000 0.039628 0.000000 0.000000
# 5 0.000000 0.000000 0.000000 0.000000 0.071114 0.000000
# 6 0.000000 0.000000 0.000000 0.000000 0.000000 -0.086039
#
#
# Mechanical properties :
#
#
# Convention : Reuss Voigt Hill
#
# Bulk Modulus (GPa) = 43.53231 44.73713 44.13472
# Shear Modulus (GPa) = 61.40558 19.84518 40.62538
#
# Velocity S-wave (km/s) = 5.60478 3.18627 4.55883
# Velocity P-wave (km/s) = 8.00967 6.03513 7.09146
#
# Compressibility (1/GPa) = 0.02297144
#
# Stress axis : x y z
#
# Youngs Moduli (GPa) = 73.18454 92.17918 86.91101
#
# Poissons Ratio (x) = 0.22416 0.11590
# Poissons Ratio (y) = 0.17797 0.23972
# Poissons Ratio (z) = 0.09760 0.25425
#
# Static dielectric constant tensor:
#      x y z
#    x -3.549560 0.000000 0.000000 
#    y 0.000000 1.755130 0.000000 
#    z 0.000000 0.000000 1.741320 
# 
# From -- ./inp_files/6176.got.cif
#   From: 2010.05.17/outbox.cif.g08.bks.cpg/sg50_4_cif.got.tgz:6176.got - 2010.06.03 11:33:33.
