data_PCOD9396383
_publ_section_title
;
Structure prediction by ZEFSAII (Michael W. Deem and Ramdas Pophale) SiO2 
 PCOD9396383
Probable space group: P B A N
;
_chemical_formula_sum "Si O2"
_cell_formula_units_Z 42
_cell_length_a 10.933135
_cell_length_b 24.468244
_cell_length_c 7.482538
_cell_angle_alpha 90.000000
_cell_angle_beta 90.000000
_cell_angle_gamma 90.000000
_cell_volume 2001.688271
_symmetry_space_group_name_H-M "P B A N"
_symmetry_group_IT_number 50
_space_group.IT_coordinate_system_code '2'
_symmetry_cell_setting 'orthorhombic'
loop_
_space_group_symop_operation_xyz
x,y,z
1/2-x,1/2-y,z
x,1/2-y,-z
1/2-x,y,-z
-x,-y,-z
1/2+x,1/2+y,-z
-x,1/2+y,z
1/2+x,-y,z
loop_
_atom_site_type_symbol
_atom_site_label
_atom_site_fract_x
_atom_site_fract_y
_atom_site_fract_z
Si Si1 0.591059 0.659414 0.682968
Si Si2 0.750000 0.250000 0.500000
Si Si3 0.860826 0.833607 0.264616
Si Si4 0.115815 0.461367 0.202353
Si Si5 0.610626 0.967414 0.227437
Si Si6 0.072278 0.754730 0.195663
O O1 0.616391 0.672790 0.476347
O O2 0.718567 0.675721 0.778579
O O3 0.579174 0.594436 0.712401
O O4 0.477391 0.695412 0.744504
O O5 0.841091 0.222392 0.645526
O O6 0.890369 0.896460 0.225368
O O7 0.954932 0.793363 0.173997
O O8 0.248240 0.479194 0.280357
O O9 0.998343 0.492062 0.282163
O O10 0.114936 0.470093 0.988726
O O11 0.127256 0.750000 0.000000
#
# Coordination Sequence:
#
# PCOD9396383 Si02
#       6
#     8   2   8   8   8   8
#     4  10  20  37  62  90 121 153 200 261 312 363
#     4  12  26  48  58  86 132 164 202 254 284 380
#     4  10  20  37  62  90 121 153 200 261 312 363
#     4   9  18  34  54  81 116 155 204 257 307 365
#     4   9  18  34  54  81 116 155 204 257 307 365
#     4  12  24  42  66  89 121 164 202 248 311 363
#
# _framework density 20.982289000000002
#
# number of rings (size 3 to 8) (size 9 to 14) (size 15 to 20)
#    0.000    1.905    1.905    2.000    0.000    5.333 
#    3.429    0.000    0.000    0.000    0.000    0.000 
#    0.000    0.000    0.000    0.000    0.000    0.000 
#
# Total GULP energy -234336.870091 kJ/mol
# GULP energy per Si atom -5579.449288 kJ/mol
# Density = 2.093453 g / cm^3
# Si number density = 20.982289 Si / 1000 Ang^3
#
#
#
# Elastic Constant Matrix: (Units=GPa)
#
#
# Indices 1 2 3 4 5 6 
#
# 1 119.6264 64.8862 19.8525 0.0000 0.0000 0.0000
# 2 64.8862 59.9204 0.2474 0.0000 0.0000 0.0000
# 3 19.8525 0.2474 89.1450 0.0000 0.0000 0.0000
# 4 0.0000 0.0000 0.0000 71.3435 0.0000 0.0000
# 5 0.0000 0.0000 0.0000 0.0000 10.1710 0.0000
# 6 0.0000 0.0000 0.0000 0.0000 0.0000 13.9208
#
#
#
# Elastic Compliance Matrix: (Units=1/GPa)
#
#
# Indices 1 2 3 4 5 6 
#
# 1 0.022193 -0.024012 -0.004876 0.000000 0.000000 0.000000
# 2 -0.024012 0.042669 0.005229 0.000000 0.000000 0.000000
# 3 -0.004876 0.005229 0.012289 0.000000 0.000000 0.000000
# 4 0.000000 0.000000 0.000000 0.014017 0.000000 0.000000
# 5 0.000000 0.000000 0.000000 0.000000 0.098319 0.000000
# 6 0.000000 0.000000 0.000000 0.000000 0.000000 0.071835
#
#
# Mechanical properties :
#
#
# Convention : Reuss Voigt Hill
#
# Bulk Modulus (GPa) = 33.51916 48.74046 41.12981
# Shear Modulus (GPa) = 15.69458 31.33411 23.51434
#
# Velocity S-wave (km/s) = 2.73791 3.86859 3.35128
# Velocity P-wave (km/s) = 5.09946 6.57529 5.88383
#
# Compressibility (1/GPa) = 0.02983368
#
# Stress axis : x y z
#
# Youngs Moduli (GPa) = 45.06027 23.43642 81.37383
#
# Poissons Ratio (x) = 0.56274 0.39675
# Poissons Ratio (y) = 1.08197 -0.42550
# Poissons Ratio (z) = 0.21970 -0.12255
#
# Static dielectric constant tensor:
#      x y z
#    x 1.802390 0.000000 0.000000 
#    y 0.000000 1.703070 0.000000 
#    z 0.000000 0.000000 1.802690 
# 
# From -- ./inp_files/11486.got.cif
#   From: 2010.05.17/outbox.cif.g08.bks.cpg/sg50_6_cif.got.tgz:11486.got - 2010.06.03 11:33:33.
