data_PCOD9396685
_publ_section_title
;
Structure prediction by ZEFSAII (Michael W. Deem and Ramdas Pophale) SiO2 
 PCOD9396685
Probable space group: P B A N
;
_chemical_formula_sum "Si O2"
_cell_formula_units_Z 48
_cell_length_a 19.613346
_cell_length_b 15.689211
_cell_length_c 8.515967
_cell_angle_alpha 90.000000
_cell_angle_beta 90.000000
_cell_angle_gamma 90.000000
_cell_volume 2620.515684
_symmetry_space_group_name_H-M "P B A N"
_symmetry_group_IT_number 50
_space_group.IT_coordinate_system_code '2'
_symmetry_cell_setting 'orthorhombic'
loop_
_space_group_symop_operation_xyz
x,y,z
1/2-x,1/2-y,z
x,1/2-y,-z
1/2-x,y,-z
-x,-y,-z
1/2+x,1/2+y,-z
-x,1/2+y,z
1/2+x,-y,z
loop_
_atom_site_type_symbol
_atom_site_label
_atom_site_fract_x
_atom_site_fract_y
_atom_site_fract_z
Si Si1 0.437622 0.510528 0.881411
Si Si2 0.963167 0.917049 0.436610
Si Si3 0.447263 0.750000 0.500000
Si Si4 0.824948 0.610229 0.926680
Si Si5 0.569018 0.750000 0.000000
Si Si6 0.936131 0.287785 0.836721
Si Si7 0.177910 0.152890 0.560266
O O1 0.454466 0.442261 0.745188
O O2 0.362082 0.481378 0.933845
O O3 0.435875 0.609886 0.837420
O O4 0.500000 0.500000 0.000000
O O5 0.886885 0.900321 0.497968
O O6 0.006571 0.834152 0.478906
O O7 0.000000 0.000000 0.500000
O O8 0.409129 0.758195 0.332509
O O9 0.880499 0.670720 0.009444
O O10 0.820341 0.646070 0.748839
O O11 0.750000 0.612370 0.000000
O O12 0.515320 0.744398 0.855566
O O13 0.905156 0.250000 0.000000
O O14 0.170783 0.250000 0.500000
O O15 0.250000 0.119415 0.500000
#
# Coordination Sequence:
#
# PCOD9396685 Si02
#       7
#     8   8   4   8   4   8   8
#     4  11  20  40  57  83 121 155 205 251 302 365
#     4  11  22  35  59  88 120 161 199 249 305 369
#     4  12  20  36  55  90 125 152 210 248 310 360
#     4  11  24  36  57  85 119 161 198 240 306 367
#     4  10  21  36  54  88 121 156 196 242 299 370
#     4  10  21  36  61  86 121 159 197 257 306 356
#     4  10  23  37  54  81 122 160 197 244 298 369
#
# _framework density 18.317004000000001
#
# number of rings (size 3 to 8) (size 9 to 14) (size 15 to 20)
#    0.500    0.833    4.167    3.250    4.667    1.333 
#    0.000    0.000    0.000    0.500    0.000    0.583 
#    0.000    0.000    0.000    0.000    0.000    0.000 
#
# Total GULP energy -267351.388992 kJ/mol
# GULP energy per Si atom -5569.820604 kJ/mol
# Density = 1.827531 g / cm^3
# Si number density = 18.317004 Si / 1000 Ang^3
#
#
#
# Elastic Constant Matrix: (Units=GPa)
#
#
# Indices 1 2 3 4 5 6 
#
# 1 73.5952 30.9437 20.0177 0.0000 0.0000 0.0000
# 2 30.9437 116.7962 22.5699 0.0000 0.0000 0.0000
# 3 20.0177 22.5699 93.3637 0.0000 0.0000 0.0000
# 4 0.0000 0.0000 0.0000 28.6533 0.0000 0.0000
# 5 0.0000 0.0000 0.0000 0.0000 20.6413 0.0000
# 6 0.0000 0.0000 0.0000 0.0000 0.0000 27.8568
#
#
#
# Elastic Compliance Matrix: (Units=1/GPa)
#
#
# Indices 1 2 3 4 5 6 
#
# 1 0.015827 -0.003711 -0.002496 0.000000 0.000000 0.000000
# 2 -0.003711 0.009852 -0.001586 0.000000 0.000000 0.000000
# 3 -0.002496 -0.001586 0.011629 0.000000 0.000000 0.000000
# 4 0.000000 0.000000 0.000000 0.034900 0.000000 0.000000
# 5 0.000000 0.000000 0.000000 0.000000 0.048447 0.000000
# 6 0.000000 0.000000 0.000000 0.000000 0.000000 0.035898
#
#
# Mechanical properties :
#
#
# Convention : Reuss Voigt Hill
#
# Bulk Modulus (GPa) = 46.03652 47.86864 46.95258
# Shear Modulus (GPa) = 27.87391 29.44520 28.65955
#
# Velocity S-wave (km/s) = 3.90519 4.01376 3.95985
# Velocity P-wave (km/s) = 6.74699 6.90438 6.82614
#
# Compressibility (1/GPa) = 0.02172189
#
# Stress axis : x y z
#
# Youngs Moduli (GPa) = 63.18285 101.50721 85.98890
#
# Poissons Ratio (x) = 0.37667 0.21466
# Poissons Ratio (y) = 0.23446 0.13637
# Poissons Ratio (z) = 0.15773 0.16098
#
# Static dielectric constant tensor:
#      x y z
#    x 1.646550 0.000000 0.000000 
#    y 0.000000 1.650330 0.000000 
#    z 0.000000 0.000000 2.482380 
# 
# From -- ./inp_files/14274.got.cif
#   From: 2010.05.17/outbox.cif.g08.bks.cpg/sg50_8_cif.got.tgz:14274.got - 2010.06.03 11:33:33.
