data_PCOD9396310
_publ_section_title
;
Structure prediction by ZEFSAII (Michael W. Deem and Ramdas Pophale) SiO2 
 PCOD9396310
Probable space group: P B A N
;
_chemical_formula_sum "Si O2"
_cell_formula_units_Z 58
_cell_length_a 16.234156
_cell_length_b 8.489816
_cell_length_c 19.210343
_cell_angle_alpha 90.000000
_cell_angle_beta 90.000000
_cell_angle_gamma 90.000000
_cell_volume 2647.665473
_symmetry_space_group_name_H-M "P B A N"
_symmetry_group_IT_number 50
_space_group.IT_coordinate_system_code '2'
_symmetry_cell_setting 'orthorhombic'
loop_
_space_group_symop_operation_xyz
x,y,z
1/2-x,1/2-y,z
x,1/2-y,-z
1/2-x,y,-z
-x,-y,-z
1/2+x,1/2+y,-z
-x,1/2+y,z
1/2+x,-y,z
loop_
_atom_site_type_symbol
_atom_site_label
_atom_site_fract_x
_atom_site_fract_y
_atom_site_fract_z
Si Si1 0.228253 0.563925 0.633633
Si Si2 0.411635 0.989504 0.368756
Si Si3 0.878996 0.442845 0.087483
Si Si4 0.750000 0.250000 0.000000
Si Si5 0.227258 0.437177 0.785506
Si Si6 0.092179 0.475221 0.207614
Si Si7 0.020691 0.204863 0.120267
Si Si8 0.065407 0.837993 0.426663
O O1 0.250000 0.750000 0.644060
O O2 0.315845 0.491340 0.609105
O O3 0.205450 0.481760 0.706401
O O4 0.148080 0.559514 0.584700
O O5 0.480493 0.070564 0.416033
O O6 0.419911 0.048661 0.289692
O O7 0.430269 0.802852 0.370201
O O8 0.840488 0.496833 0.161625
O O9 0.927743 0.600927 0.065884
O O10 0.948624 0.310455 0.089775
O O11 0.806595 0.368097 0.043784
O O12 0.250000 0.250000 0.790006
O O13 0.313420 0.527414 0.801322
O O14 0.079610 0.317951 0.163707
O O15 0.026132 0.592911 0.175309
O O16 0.069909 0.750000 0.500000
#
# Coordination Sequence:
#
# PCOD9396310 Si02
#       8
#     8   8   8   2   8   8   8   8
#     4   9  23  39  62  96 127 178 228 295 354 424
#     4  10  22  37  61  92 129 174 229 288 352 425
#     4  11  25  44  70 102 142 184 235 278 350 413
#     4  12  28  48  74 104 140 202 236 280 332 424
#     4  11  22  39  64  99 137 171 225 288 354 415
#     4  10  20  36  61  98 133 166 225 286 360 409
#     4  10  22  39  68 100 135 179 221 292 347 409
#     4  11  23  41  62  90 132 185 238 282 357 438
#
# _framework density 21.906089000000001
#
# number of rings (size 3 to 8) (size 9 to 14) (size 15 to 20)
#    0.000    1.655    1.379    2.069   10.621    5.241 
#    0.000    0.345    0.000    0.828    0.000    0.000 
#    0.000    0.000    0.000    0.000    0.000    0.000 
#
# Total GULP energy -323922.098507 kJ/mol
# GULP energy per Si atom -5584.863767 kJ/mol
# Density = 2.185623 g / cm^3
# Si number density = 21.906089 Si / 1000 Ang^3
#
#
#
# Elastic Constant Matrix: (Units=GPa)
#
#
# Indices 1 2 3 4 5 6 
#
# 1 151.0085 60.6508 49.2842 0.0000 0.0000 0.0000
# 2 60.6508 59.9565 41.2911 0.0000 0.0000 0.0000
# 3 49.2842 41.2911 42.7771 0.0000 0.0000 0.0000
# 4 0.0000 0.0000 0.0000 13.5190 0.0000 0.0000
# 5 0.0000 0.0000 0.0000 0.0000 46.7724 0.0000
# 6 0.0000 0.0000 0.0000 0.0000 0.0000 40.2961
#
#
#
# Elastic Compliance Matrix: (Units=1/GPa)
#
#
# Indices 1 2 3 4 5 6 
#
# 1 0.011666 -0.007591 -0.006114 0.000000 0.000000 0.000000
# 2 -0.007591 0.054691 -0.044046 0.000000 0.000000 0.000000
# 3 -0.006114 -0.044046 0.072936 0.000000 0.000000 0.000000
# 4 0.000000 0.000000 0.000000 0.073970 0.000000 0.000000
# 5 0.000000 0.000000 0.000000 0.000000 0.021380 0.000000
# 6 0.000000 0.000000 0.000000 0.000000 0.000000 0.024816
#
#
# Mechanical properties :
#
#
# Convention : Reuss Voigt Hill
#
# Bulk Modulus (GPa) = 42.02887 61.79937 51.91412
# Shear Modulus (GPa) = 13.05852 26.95188 20.00520
#
# Velocity S-wave (km/s) = 2.44419 3.51142 3.02524
# Velocity P-wave (km/s) = 5.21469 6.68673 5.99606
#
# Compressibility (1/GPa) = 0.02379317
#
# Stress axis : x y z
#
# Youngs Moduli (GPa) = 85.71725 18.28443 13.71061
#
# Poissons Ratio (x) = 0.13880 0.08382
# Poissons Ratio (y) = 0.65068 0.60389
# Poissons Ratio (z) = 0.52404 0.80535
#
# Static dielectric constant tensor:
#      x y z
#    x 1.845040 0.000000 0.000000 
#    y 0.000000 1.865660 0.000000 
#    z 0.000000 0.000000 1.803160 
# 
# From -- ./inp_files/29710.got.cif
#   From: 2010.05.17/outbox.cif.g08.bks.cpg/sg50_15_cif.got.tgz:29710.got - 2010.06.03 11:33:33.
