data_PCOD9396812
_publ_section_title
;
Structure prediction by ZEFSAII (Michael W. Deem and Ramdas Pophale) SiO2 
 PCOD9396812
Probable space group: P B A N
;
_chemical_formula_sum "Si O2"
_cell_formula_units_Z 64
_cell_length_a 8.830566
_cell_length_b 21.469840
_cell_length_c 16.941606
_cell_angle_alpha 90.000000
_cell_angle_beta 90.000000
_cell_angle_gamma 90.000000
_cell_volume 3211.973298
_symmetry_space_group_name_H-M "P B A N"
_symmetry_group_IT_number 50
_space_group.IT_coordinate_system_code '2'
_symmetry_cell_setting 'orthorhombic'
loop_
_space_group_symop_operation_xyz
x,y,z
1/2-x,1/2-y,z
x,1/2-y,-z
1/2-x,y,-z
-x,-y,-z
1/2+x,1/2+y,-z
-x,1/2+y,z
1/2+x,-y,z
loop_
_atom_site_type_symbol
_atom_site_label
_atom_site_fract_x
_atom_site_fract_y
_atom_site_fract_z
Si Si1 0.346426 0.808012 0.883204
Si Si2 0.918778 0.515912 0.184520
Si Si3 0.162344 0.554825 0.654484
Si Si4 0.630221 0.126769 0.756658
Si Si5 0.879418 0.536960 0.554404
Si Si6 0.910097 0.777440 0.806019
Si Si7 0.092792 0.930667 0.035645
Si Si8 0.846623 0.888740 0.923495
O O1 0.250000 0.750000 0.913181
O O2 0.236582 0.845415 0.824549
O O3 0.486229 0.779171 0.835532
O O4 0.396208 0.856924 0.947806
O O5 0.871712 0.483042 0.265241
O O6 0.944088 0.462546 0.118866
O O7 0.795022 0.563737 0.145690
O O8 0.053340 0.563645 0.209339
O O9 0.265485 0.612390 0.682078
O O10 0.273998 0.511693 0.602268
O O11 0.000465 0.569917 0.613313
O O12 0.500273 0.178674 0.744771
O O13 0.750000 0.570549 0.500000
O O14 0.000000 0.500000 0.500000
O O15 0.750000 0.750000 0.780350
O O16 0.888398 0.825071 0.879923
O O17 0.250000 0.954721 0.000000
O O18 0.976207 0.931393 0.963974
O O19 0.750000 0.873775 0.000000
#
# Coordination Sequence:
#
# PCOD9396812 Si02
#       8
#     8   8   8   8   8   8   8   8
#     4  10  21  38  59  76 109 151 210 271 312 365
#     4  11  23  36  56  81 123 155 208 249 310 371
#     4  11  19  36  62  84 125 170 190 237 285 366
#     4  10  21  39  57  88 110 156 207 245 315 370
#     4   9  20  36  57  92 131 169 188 216 276 359
#     4  10  22  42  58  76 109 153 212 284 323 370
#     4  12  23  35  53  77 111 161 208 265 318 362
#     4  11  25  36  52  77 112 158 207 269 329 373
#
# _framework density 19.925445
#
# number of rings (size 3 to 8) (size 9 to 14) (size 15 to 20)
#    0.000    1.500    2.500    3.750    1.750    3.000 
#    4.500    0.000    0.000    0.000    0.000    0.000 
#    0.000   40.500   70.500    0.000    0.000    0.000 
#
# Total GULP energy -356816.572163 kJ/mol
# GULP energy per Si atom -5575.258940 kJ/mol
# Density = 1.988009 g / cm^3
# Si number density = 19.925445 Si / 1000 Ang^3
#
#
#
# Elastic Constant Matrix: (Units=GPa)
#
#
# Indices 1 2 3 4 5 6 
#
# 1 139.6032 35.9507 42.6149 0.0000 0.0000 0.0000
# 2 35.9507 70.5143 28.4454 0.0000 0.0000 0.0000
# 3 42.6149 28.4454 74.2635 0.0000 0.0000 0.0000
# 4 0.0000 0.0000 0.0000 8.7493 0.0000 0.0000
# 5 0.0000 0.0000 0.0000 0.0000 39.0880 0.0000
# 6 0.0000 0.0000 0.0000 0.0000 0.0000 30.5680
#
#
#
# Elastic Compliance Matrix: (Units=1/GPa)
#
#
# Indices 1 2 3 4 5 6 
#
# 1 0.009201 -0.003029 -0.004119 0.000000 0.000000 0.000000
# 2 -0.003029 0.017770 -0.005069 0.000000 0.000000 0.000000
# 3 -0.004119 -0.005069 0.017771 0.000000 0.000000 0.000000
# 4 0.000000 0.000000 0.000000 0.114294 0.000000 0.000000
# 5 0.000000 0.000000 0.000000 0.000000 0.025583 0.000000
# 6 0.000000 0.000000 0.000000 0.000000 0.000000 0.032714
#
#
# Mechanical properties :
#
#
# Convention : Reuss Voigt Hill
#
# Bulk Modulus (GPa) = 49.24169 55.37812 52.30991
# Shear Modulus (GPa) = 20.11773 27.50574 23.81173
#
# Velocity S-wave (km/s) = 3.18095 3.71945 3.46069
# Velocity P-wave (km/s) = 6.18529 6.80432 6.50218
#
# Compressibility (1/GPa) = 0.02030799
#
# Stress axis : x y z
#
# Youngs Moduli (GPa) = 108.68743 56.27313 56.27196
#
# Poissons Ratio (x) = 0.17046 0.23181
# Poissons Ratio (y) = 0.32922 0.28521
# Poissons Ratio (z) = 0.44773 0.28522
#
# Static dielectric constant tensor:
#      x y z
#    x 1.898000 0.000000 0.000000 
#    y 0.000000 1.734490 0.000000 
#    z 0.000000 0.000000 1.764380 
# 
# From -- ./inp_files/28964.got.cif
#   From: 2010.05.17/outbox.cif.g08.bks.cpg/sg50_15_cif.got.tgz:28964.got - 2010.06.03 11:33:33.
