data_PCOD9396893
_publ_section_title
;
Structure prediction by ZEFSAII (Michael W. Deem and Ramdas Pophale) SiO2 
 PCOD9396893
Probable space group: P B A N
;
_chemical_formula_sum "Si O2"
_cell_formula_units_Z 28
_cell_length_a 21.954827
_cell_length_b 5.549665
_cell_length_c 10.545989
_cell_angle_alpha 90.000000
_cell_angle_beta 90.000000
_cell_angle_gamma 90.000000
_cell_volume 1284.943706
_symmetry_space_group_name_H-M "P B A N"
_symmetry_group_IT_number 50
_space_group.IT_coordinate_system_code '2'
_symmetry_cell_setting 'orthorhombic'
loop_
_space_group_symop_operation_xyz
x,y,z
1/2-x,1/2-y,z
x,1/2-y,-z
1/2-x,y,-z
-x,-y,-z
1/2+x,1/2+y,-z
-x,1/2+y,z
1/2+x,-y,z
loop_
_atom_site_type_symbol
_atom_site_label
_atom_site_fract_x
_atom_site_fract_y
_atom_site_fract_z
Si Si1 0.250000 0.250000 0.746537
Si Si2 0.476009 0.460104 0.856459
Si Si3 0.657468 0.402906 0.128069
Si Si4 0.818199 0.363973 0.372787
O O1 0.283245 0.440467 0.837912
O O2 0.198146 0.358251 0.653227
O O3 0.504363 0.218211 0.797186
O O4 0.403402 0.438460 0.870258
O O5 0.500000 0.500000 0.000000
O O6 0.649349 0.223710 0.246527
O O7 0.662597 0.250000 0.000000
O O8 0.750000 0.250000 0.370375
O O9 0.845979 0.250000 0.500000
#
# Coordination Sequence:
#
# PCOD9396893 Si02
#       4
#     4   8   8   8
#     4  10  24  40  66  92 140 176 204 284 340 400
#     4  10  21  39  63  90 123 173 223 268 317 391
#     4  11  23  38  62  96 131 164 218 269 332 395
#     4   9  21  39  59  89 122 168 218 253 327 406
#
# _framework density 21.790835999999999
#
# number of rings (size 3 to 8) (size 9 to 14) (size 15 to 20)
#    0.000    2.000    2.857    0.000    4.000   16.571 
#    0.000    0.000    0.000    1.714    0.000    0.000 
#    0.000    0.000    0.000    0.000    0.000    0.000 
#
# Total GULP energy -156055.093202 kJ/mol
# GULP energy per Si atom -5573.396186 kJ/mol
# Density = 2.174124 g / cm^3
# Si number density = 21.790836 Si / 1000 Ang^3
#
#
#
# Elastic Constant Matrix: (Units=GPa)
#
#
# Indices 1 2 3 4 5 6 
#
# 1 66.3318 18.1420 22.6846 0.0000 0.0000 0.0000
# 2 18.1420 121.2438 35.9984 0.0000 0.0000 0.0000
# 3 22.6846 35.9984 147.2166 0.0000 0.0000 0.0000
# 4 0.0000 0.0000 0.0000 15.8515 0.0000 0.0000
# 5 0.0000 0.0000 0.0000 0.0000 -8.6102 0.0000
# 6 0.0000 0.0000 0.0000 0.0000 0.0000 26.3002
#
#
#
# Elastic Compliance Matrix: (Units=1/GPa)
#
#
# Indices 1 2 3 4 5 6 
#
# 1 0.016280 -0.001824 -0.002063 0.000000 0.000000 0.000000
# 2 -0.001824 0.009098 -0.001944 0.000000 0.000000 0.000000
# 3 -0.002063 -0.001944 0.007586 0.000000 0.000000 0.000000
# 4 0.000000 0.000000 0.000000 0.063086 0.000000 0.000000
# 5 0.000000 0.000000 0.000000 0.000000 -0.116142 0.000000
# 6 0.000000 0.000000 0.000000 0.000000 0.000000 0.038023
#
#
# Mechanical properties :
#
#
# Convention : Reuss Voigt Hill
#
# Bulk Modulus (GPa) = 46.94017 54.27138 50.60578
# Shear Modulus (GPa) = 136.27338 23.90610 80.08974
#
# Velocity S-wave (km/s) = 7.91661 3.31580 6.06907
# Velocity P-wave (km/s) = 10.25435 6.29437 8.50796
#
# Compressibility (1/GPa) = 0.02130371
#
# Stress axis : x y z
#
# Youngs Moduli (GPa) = 61.42550 109.91662 131.82482
#
# Poissons Ratio (x) = 0.20044 0.27191
# Poissons Ratio (y) = 0.11201 0.25622
# Poissons Ratio (z) = 0.12670 0.21364
#
# Static dielectric constant tensor:
#      x y z
#    x 1.835050 0.000000 0.000000 
#    y 0.000000 2.021730 0.000000 
#    z 0.000000 0.000000 1.809020 
# 
# From -- ./inp_files/22558.got.cif
#   From: 2010.05.17/outbox.cif.g08.bks.cpg/sg50_12_cif.got.tgz:22558.got - 2010.06.03 11:33:33.
