data_PCOD9396534
_publ_section_title
;
Structure prediction by ZEFSAII (Michael W. Deem and Ramdas Pophale) SiO2 
 PCOD9396534
Probable space group: P B A N
;
_chemical_formula_sum "Si O2"
_cell_formula_units_Z 30
_cell_length_a 12.696329
_cell_length_b 13.688089
_cell_length_c 9.735427
_cell_angle_alpha 90.000000
_cell_angle_beta 90.000000
_cell_angle_gamma 90.000000
_cell_volume 1691.905073
_symmetry_space_group_name_H-M "P B A N"
_symmetry_group_IT_number 50
_space_group.IT_coordinate_system_code '2'
_symmetry_cell_setting 'orthorhombic'
loop_
_space_group_symop_operation_xyz
x,y,z
1/2-x,1/2-y,z
x,1/2-y,-z
1/2-x,y,-z
-x,-y,-z
1/2+x,1/2+y,-z
-x,1/2+y,z
1/2+x,-y,z
loop_
_atom_site_type_symbol
_atom_site_label
_atom_site_fract_x
_atom_site_fract_y
_atom_site_fract_z
Si Si1 0.750000 0.250000 0.500000
Si Si2 0.919400 0.112476 0.635441
Si Si3 0.922848 0.886151 0.624135
Si Si4 0.250000 0.750000 0.000000
Si Si5 0.250000 0.250000 0.500000
Si Si6 0.043533 0.731398 0.146232
O O1 0.822429 0.178799 0.588292
O O2 0.006031 0.119896 0.514122
O O3 0.955645 0.165471 0.773942
O O4 0.893875 0.998694 0.649696
O O5 0.822969 0.818651 0.593740
O O6 0.990060 0.844160 0.750881
O O7 0.336630 0.700056 0.899028
O O8 0.988555 0.750000 0.000000
#
# Coordination Sequence:
#
# PCOD9396534 Si02
#       6
#     2   8   8   2   2   8
#     4  12  18  36  66  92 118 152 214 264 318 352
#     4  11  22  37  64  93 115 161 204 268 300 373
#     4  11  23  39  63  90 124 160 212 249 319 353
#     4   8  22  36  66  86 122 166 202 240 322 346
#     4  12  20  44  58  88 124 172 190 272 296 372
#     4  10  20  40  61  87 127 160 195 264 298 371
#
# _framework density 17.731491999999999
#
# number of rings (size 3 to 8) (size 9 to 14) (size 15 to 20)
#    0.800    0.533    5.333    1.600    0.000    1.067 
#    0.000    0.667    0.000    0.000    0.000    0.000 
#    0.000    0.000    0.000    0.000    0.000    0.000 
#
# Total GULP energy -167088.305003 kJ/mol
# GULP energy per Si atom -5569.610167 kJ/mol
# Density = 1.769113 g / cm^3
# Si number density = 17.731492 Si / 1000 Ang^3
#
#
#
# Elastic Constant Matrix: (Units=GPa)
#
#
# Indices 1 2 3 4 5 6 
#
# 1 88.1968 64.5576 40.4071 0.0000 0.0000 0.0000
# 2 64.5576 174.8092 68.6345 0.0000 0.0000 0.0000
# 3 40.4071 68.6345 137.4114 0.0000 0.0000 0.0000
# 4 0.0000 0.0000 0.0000 -2.1653 0.0000 0.0000
# 5 0.0000 0.0000 0.0000 0.0000 207.3757 0.0000
# 6 0.0000 0.0000 0.0000 0.0000 0.0000 100.0921
#
#
#
# Elastic Compliance Matrix: (Units=1/GPa)
#
#
# Indices 1 2 3 4 5 6 
#
# 1 0.016051 -0.005068 -0.002188 0.000000 0.000000 0.000000
# 2 -0.005068 0.008717 -0.002863 0.000000 0.000000 0.000000
# 3 -0.002188 -0.002863 0.009351 0.000000 0.000000 0.000000
# 4 0.000000 0.000000 0.000000 -0.461833 0.000000 0.000000
# 5 0.000000 0.000000 0.000000 0.000000 0.004822 0.000000
# 6 0.000000 0.000000 0.000000 0.000000 0.000000 0.009991
#
#
# Mechanical properties :
#
#
# Convention : Reuss Voigt Hill
#
# Bulk Modulus (GPa) = 72.05493 83.06843 77.56168
# Shear Modulus (GPa) = -12.88544 76.18172 31.64814
#
# Velocity S-wave (km/s) = -2.69866 6.56181 4.22934
# Velocity P-wave (km/s) = 5.56907 10.21565 8.22721
#
# Compressibility (1/GPa) = 0.01387830
#
# Stress axis : x y z
#
# Youngs Moduli (GPa) = 62.30220 114.72454 106.93949
#
# Poissons Ratio (x) = 0.58147 0.23401
# Poissons Ratio (y) = 0.31577 0.30620
# Poissons Ratio (z) = 0.13634 0.32849
#
# Static dielectric constant tensor:
#      x y z
#    x 1.643120 0.000000 0.000000 
#    y 0.000000 1.586130 0.000000 
#    z 0.000000 0.000000 1.653970 
# 
# From -- ./inp_files/10640.got.cif
#   From: 2010.05.17/outbox.cif.g08.bks.cpg/sg50_6_cif.got.tgz:10640.got - 2010.06.03 11:33:33.
