data_PCOD9396300
_publ_section_title
;
Structure prediction by ZEFSAII (Michael W. Deem and Ramdas Pophale) SiO2 
 PCOD9396300
Probable space group: P B A N
;
_chemical_formula_sum "Si O2"
_cell_formula_units_Z 40
_cell_length_a 13.584339
_cell_length_b 12.044993
_cell_length_c 9.281957
_cell_angle_alpha 90.000000
_cell_angle_beta 90.000000
_cell_angle_gamma 90.000000
_cell_volume 1518.744139
_symmetry_space_group_name_H-M "P B A N"
_symmetry_group_IT_number 50
_space_group.IT_coordinate_system_code '2'
_symmetry_cell_setting 'orthorhombic'
loop_
_space_group_symop_operation_xyz
x,y,z
1/2-x,1/2-y,z
x,1/2-y,-z
1/2-x,y,-z
-x,-y,-z
1/2+x,1/2+y,-z
-x,1/2+y,z
1/2+x,-y,z
loop_
_atom_site_type_symbol
_atom_site_label
_atom_site_fract_x
_atom_site_fract_y
_atom_site_fract_z
Si Si1 0.381434 0.981130 0.497960
Si Si2 0.250000 0.750000 0.000000
Si Si3 0.250000 0.250000 0.500000
Si Si4 0.399742 0.310107 0.689976
Si Si5 0.604441 0.951269 0.952570
Si Si6 0.919849 0.250000 0.500000
Si Si7 0.282529 0.548590 0.191592
O O1 0.364043 0.856386 0.439658
O O2 0.329249 0.966223 0.652144
O O3 0.500000 0.000000 0.500000
O O4 0.351472 0.084583 0.398222
O O5 0.306802 0.834299 0.889785
O O6 0.331483 0.214880 0.624342
O O7 0.402993 0.341273 0.855902
O O8 0.507821 0.289068 0.628161
O O9 0.667075 0.033401 0.847752
O O10 0.667054 0.950316 0.097708
O O11 0.500000 0.000000 0.000000
#
# Coordination Sequence:
#
# PCOD9396300 Si02
#       7
#     8   2   2   8   8   4   8
#     4  10  20  38  63  96 136 177 227 287 351 416
#     4   8  20  40  60  94 136 172 236 294 344 428
#     4  10  20  36  60  92 128 174 236 286 344 410
#     4  10  20  36  61  88 126 178 226 284 342 410
#     4  10  20  38  63  89 124 173 222 272 341 409
#     4   9  20  33  56  91 130 171 218 271 338 406
#     4  10  22  39  65  95 132 181 226 287 354 413
#
# _framework density 26.33755
#
# number of rings (size 3 to 8) (size 9 to 14) (size 15 to 20)
#    0.000    2.400    0.000    3.600    0.000    3.200 
#    0.000    0.000    0.000   40.800    0.000    0.000 
#    0.000    0.000    0.000    0.000    0.000    0.000 
#
# Total GULP energy -222715.406305 kJ/mol
# GULP energy per Si atom -5567.885158 kJ/mol
# Density = 2.627760 g / cm^3
# Si number density = 26.337550 Si / 1000 Ang^3
#
#
#
# Elastic Constant Matrix: (Units=GPa)
#
#
# Indices 1 2 3 4 5 6 
#
# 1 152.2600 14.0752 47.7745 0.0000 0.0000 0.0000
# 2 14.0752 123.2590 64.4944 0.0000 0.0000 0.0000
# 3 47.7745 64.4944 183.6457 0.0000 0.0000 0.0000
# 4 0.0000 0.0000 0.0000 55.8213 0.0000 0.0000
# 5 0.0000 0.0000 0.0000 0.0000 25.4932 0.0000
# 6 0.0000 0.0000 0.0000 0.0000 0.0000 26.5338
#
#
#
# Elastic Compliance Matrix: (Units=1/GPa)
#
#
# Indices 1 2 3 4 5 6 
#
# 1 0.007155 0.000192 -0.001929 0.000000 0.000000 0.000000
# 2 0.000192 0.009945 -0.003542 0.000000 0.000000 0.000000
# 3 -0.001929 -0.003542 0.007191 0.000000 0.000000 0.000000
# 4 0.000000 0.000000 0.000000 0.017914 0.000000 0.000000
# 5 0.000000 0.000000 0.000000 0.000000 0.039226 0.000000
# 6 0.000000 0.000000 0.000000 0.000000 0.000000 0.037688
#
#
# Mechanical properties :
#
#
# Convention : Reuss Voigt Hill
#
# Bulk Modulus (GPa) = 72.81906 79.09478 75.95692
# Shear Modulus (GPa) = 37.24260 43.75771 40.50015
#
# Velocity S-wave (km/s) = 3.76446 4.08047 3.92565
# Velocity P-wave (km/s) = 6.82666 7.23165 7.03207
#
# Compressibility (1/GPa) = 0.01373267
#
# Stress axis : x y z
#
# Youngs Moduli (GPa) = 139.75912 100.55707 139.06035
#
# Poissons Ratio (x) = -0.01933 0.26823
# Poissons Ratio (y) = -0.02686 0.49261
# Poissons Ratio (z) = 0.26958 0.35622
#
# Static dielectric constant tensor:
#      x y z
#    x 2.123400 0.000000 0.000000 
#    y 0.000000 -1.388820 0.000000 
#    z 0.000000 0.000000 2.206140 
# 
# From -- ./inp_files/12647.got.cif
#   From: 2010.05.17/outbox.cif.g08.bks.cpg/sg50_7_cif.got.tgz:12647.got - 2010.06.03 11:33:33.
