data_PCOD9396519
_publ_section_title
;
Structure prediction by ZEFSAII (Michael W. Deem and Ramdas Pophale) SiO2 
 PCOD9396519
Probable space group: P B A N
;
_chemical_formula_sum "Si O2"
_cell_formula_units_Z 56
_cell_length_a 8.613672
_cell_length_b 19.541996
_cell_length_c 16.176123
_cell_angle_alpha 90.000000
_cell_angle_beta 90.000000
_cell_angle_gamma 90.000000
_cell_volume 2722.899993
_symmetry_space_group_name_H-M "P B A N"
_symmetry_group_IT_number 50
_space_group.IT_coordinate_system_code '2'
_symmetry_cell_setting 'orthorhombic'
loop_
_space_group_symop_operation_xyz
x,y,z
1/2-x,1/2-y,z
x,1/2-y,-z
1/2-x,y,-z
-x,-y,-z
1/2+x,1/2+y,-z
-x,1/2+y,z
1/2+x,-y,z
loop_
_atom_site_type_symbol
_atom_site_label
_atom_site_fract_x
_atom_site_fract_y
_atom_site_fract_z
Si Si1 0.161965 0.025644 0.736035
Si Si2 0.250000 0.250000 0.349965
Si Si3 0.933873 0.264718 0.906643
Si Si4 0.475552 0.357427 0.406037
Si Si5 0.352293 0.628084 0.770630
Si Si6 0.750000 0.115403 0.500000
Si Si7 0.516819 0.665387 0.231146
Si Si8 0.091822 0.505061 0.615661
O O1 0.335792 0.020210 0.702767
O O2 0.104374 0.093321 0.780128
O O3 0.142088 0.953730 0.781974
O O4 0.073601 0.030749 0.647057
O O5 0.333036 0.307750 0.402829
O O6 0.384322 0.209977 0.297335
O O7 0.750000 0.250000 0.909492
O O8 0.929715 0.333518 0.849243
O O9 0.020002 0.209590 0.851012
O O10 0.989295 0.250000 0.000000
O O11 0.552551 0.357787 0.313922
O O12 0.611267 0.338824 0.467955
O O13 0.430668 0.434873 0.433065
O O14 0.170201 0.651252 0.754902
O O15 0.688400 0.064233 0.428065
#
# Coordination Sequence:
#
# PCOD9396519 Si02
#       8
#     8   4   8   8   8   4   8   8
#     4  11  20  36  61  97 118 162 220 265 318 387
#     4  12  24  38  63  95 122 162 228 270 317 390
#     4   9  19  37  64  96 127 170 219 261 318 397
#     4  11  23  38  62  92 121 167 216 266 320 386
#     4  10  20  39  65  90 125 173 216 260 317 398
#     4  12  22  40  64  90 124 170 204 270 334 384
#     4  11  21  37  64  95 127 167 212 269 320 390
#     4  11  21  36  62  89 121 155 213 268 318 383
#
# _framework density 20.566307999999999
#
# number of rings (size 3 to 8) (size 9 to 14) (size 15 to 20)
#    0.000    1.286    7.143    0.429    0.000    0.000 
#    0.000    1.071    0.000   17.571    0.000    0.000 
#    0.000    0.000    0.000    0.000    0.000    0.000 
#
# Total GULP energy -312084.460764 kJ/mol
# GULP energy per Si atom -5572.936799 kJ/mol
# Density = 2.051950 g / cm^3
# Si number density = 20.566308 Si / 1000 Ang^3
#
#
#
# Elastic Constant Matrix: (Units=GPa)
#
#
# Indices 1 2 3 4 5 6 
#
# 1 57.5139 29.6013 34.7546 0.0000 0.0000 0.0000
# 2 29.6013 92.8272 30.4617 0.0000 0.0000 0.0000
# 3 34.7546 30.4617 68.0262 0.0000 0.0000 0.0000
# 4 0.0000 0.0000 0.0000 19.8496 0.0000 0.0000
# 5 0.0000 0.0000 0.0000 0.0000 15.5141 0.0000
# 6 0.0000 0.0000 0.0000 0.0000 0.0000 31.4093
#
#
#
# Elastic Compliance Matrix: (Units=1/GPa)
#
#
# Indices 1 2 3 4 5 6 
#
# 1 0.026832 -0.004757 -0.011578 0.000000 0.000000 0.000000
# 2 -0.004757 0.013472 -0.003602 0.000000 0.000000 0.000000
# 3 -0.011578 -0.003602 0.022229 0.000000 0.000000 0.000000
# 4 0.000000 0.000000 0.000000 0.050379 0.000000 0.000000
# 5 0.000000 0.000000 0.000000 0.000000 0.064458 0.000000
# 6 0.000000 0.000000 0.000000 0.000000 0.000000 0.031838
#
#
# Mechanical properties :
#
#
# Convention : Reuss Voigt Hill
#
# Bulk Modulus (GPa) = 44.13572 45.33360 44.73466
# Shear Modulus (GPa) = 19.48302 21.59126 20.53714
#
# Velocity S-wave (km/s) = 3.08121 3.24363 3.16346
# Velocity P-wave (km/s) = 5.84510 6.00988 5.92807
#
# Compressibility (1/GPa) = 0.02265739
#
# Stress axis : x y z
#
# Youngs Moduli (GPa) = 37.26902 74.22975 44.98696
#
# Poissons Ratio (x) = 0.35310 0.52087
# Poissons Ratio (y) = 0.17728 0.16206
# Poissons Ratio (z) = 0.43151 0.26740
#
# Static dielectric constant tensor:
#      x y z
#    x 1.805150 0.000000 0.000000 
#    y 0.000000 1.777370 0.000000 
#    z 0.000000 0.000000 1.758180 
# 
# From -- ./inp_files/25301.got.cif
#   From: 2010.05.17/outbox.cif.g08.bks.cpg/sg50_13_cif.got.tgz:25301.got - 2010.06.03 11:33:33.
