data_PCOD9396281
_publ_section_title
;
Structure prediction by ZEFSAII (Michael W. Deem and Ramdas Pophale) SiO2 
 PCOD9396281
Probable space group: P B A N
;
_chemical_formula_sum "Si O2"
_cell_formula_units_Z 52
_cell_length_a 8.861297
_cell_length_b 17.937756
_cell_length_c 14.995638
_cell_angle_alpha 90.000000
_cell_angle_beta 90.000000
_cell_angle_gamma 90.000000
_cell_volume 2383.583404
_symmetry_space_group_name_H-M "P B A N"
_symmetry_group_IT_number 50
_space_group.IT_coordinate_system_code '2'
_symmetry_cell_setting 'orthorhombic'
loop_
_space_group_symop_operation_xyz
x,y,z
1/2-x,1/2-y,z
x,1/2-y,-z
1/2-x,y,-z
-x,-y,-z
1/2+x,1/2+y,-z
-x,1/2+y,z
1/2+x,-y,z
loop_
_atom_site_type_symbol
_atom_site_label
_atom_site_fract_x
_atom_site_fract_y
_atom_site_fract_z
Si Si1 0.026812 0.490138 0.692578
Si Si2 0.913136 0.572999 0.954959
Si Si3 0.775290 0.475361 0.809122
Si Si4 0.198310 0.363647 0.592390
Si Si5 0.475820 0.658834 0.338727
Si Si6 0.844686 0.174411 0.862110
Si Si7 0.029857 0.750000 0.500000
O O1 0.107050 0.499824 0.788240
O O2 0.108255 0.422930 0.647450
O O3 0.855850 0.469730 0.713866
O O4 0.041667 0.570239 0.648359
O O5 0.850285 0.540582 0.863017
O O6 0.027714 0.641578 0.931062
O O7 0.750000 0.593021 0.000000
O O8 0.000000 0.500000 0.000000
O O9 0.771338 0.395521 0.855938
O O10 0.250000 0.401008 0.500000
O O11 0.342588 0.332897 0.646655
O O12 0.081064 0.303068 0.556561
O O13 0.417549 0.679955 0.239087
O O14 0.395796 0.701464 0.421071
O O15 0.750000 0.250000 0.882317
#
# Coordination Sequence:
#
# PCOD9396281 Si02
#       7
#     8   8   8   8   8   8   4
#     4  11  20  37  65  89 129 177 244 295 347 445
#     4  12  22  43  80 112 142 193 247 302 375 462
#     4  11  21  42  66 103 134 181 240 291 362 452
#     4  10  20  36  58  86 124 179 237 303 360 422
#     4  10  20  40  61  90 133 178 238 290 360 440
#     4  11  25  43  69 109 152 193 235 310 389 440
#     4  10  23  38  57  90 131 186 236 305 382 423
#
# _framework density 21.815892000000002
#
# number of rings (size 3 to 8) (size 9 to 14) (size 15 to 20)
#    0.000    1.231    6.154    2.077    2.154    2.462 
#    0.000    1.923    0.000    2.769    0.000    0.000 
#    0.000    0.000    0.000    0.000    0.000    0.000 
#
# Total GULP energy -289537.594368 kJ/mol
# GULP energy per Si atom -5568.030661 kJ/mol
# Density = 2.176624 g / cm^3
# Si number density = 21.815892 Si / 1000 Ang^3
#
#
#
# Elastic Constant Matrix: (Units=GPa)
#
#
# Indices 1 2 3 4 5 6 
#
# 1 88.6760 59.4477 39.3276 0.0000 0.0000 0.0000
# 2 59.4477 127.1485 34.7877 0.0000 0.0000 0.0000
# 3 39.3276 34.7877 68.7982 0.0000 0.0000 0.0000
# 4 0.0000 0.0000 0.0000 32.7958 0.0000 0.0000
# 5 0.0000 0.0000 0.0000 0.0000 21.8892 0.0000
# 6 0.0000 0.0000 0.0000 0.0000 0.0000 60.1178
#
#
#
# Elastic Compliance Matrix: (Units=1/GPa)
#
#
# Indices 1 2 3 4 5 6 
#
# 1 0.019264 -0.006956 -0.007495 0.000000 0.000000 0.000000
# 2 -0.006956 0.011640 -0.001909 0.000000 0.000000 0.000000
# 3 -0.007495 -0.001909 0.019785 0.000000 0.000000 0.000000
# 4 0.000000 0.000000 0.000000 0.030492 0.000000 0.000000
# 5 0.000000 0.000000 0.000000 0.000000 0.045685 0.000000
# 6 0.000000 0.000000 0.000000 0.000000 0.000000 0.016634
#
#
# Mechanical properties :
#
#
# Convention : Reuss Voigt Hill
#
# Bulk Modulus (GPa) = 55.65298 61.30540 58.47919
# Shear Modulus (GPa) = 27.44102 33.03122 30.23612
#
# Velocity S-wave (km/s) = 3.55046 3.89535 3.72690
# Velocity P-wave (km/s) = 6.50948 6.95658 6.73674
#
# Compressibility (1/GPa) = 0.01796849
#
# Stress axis : x y z
#
# Youngs Moduli (GPa) = 51.90901 85.91392 50.54385
#
# Poissons Ratio (x) = 0.59766 0.37881
# Poissons Ratio (y) = 0.36110 0.09649
# Poissons Ratio (z) = 0.38905 0.16401
#
# Static dielectric constant tensor:
#      x y z
#    x 1.920170 0.000000 0.000000 
#    y 0.000000 1.802260 0.000000 
#    z 0.000000 0.000000 2.090400 
# 
# From -- ./inp_files/28853.got.cif
#   From: 2010.05.17/outbox.cif.g08.bks.cpg/sg50_15_cif.got.tgz:28853.got - 2010.06.03 11:33:33.
