data_PCOD9396582
_publ_section_title
;
Structure prediction by ZEFSAII (Michael W. Deem and Ramdas Pophale) SiO2 
 PCOD9396582
Probable space group: P B A N
;
_chemical_formula_sum "Si O2"
_cell_formula_units_Z 26
_cell_length_a 9.483101
_cell_length_b 20.926574
_cell_length_c 5.060353
_cell_angle_alpha 90.000000
_cell_angle_beta 90.000000
_cell_angle_gamma 90.000000
_cell_volume 1004.221055
_symmetry_space_group_name_H-M "P B A N"
_symmetry_group_IT_number 50
_space_group.IT_coordinate_system_code '2'
_symmetry_cell_setting 'orthorhombic'
loop_
_space_group_symop_operation_xyz
x,y,z
1/2-x,1/2-y,z
x,1/2-y,-z
1/2-x,y,-z
-x,-y,-z
1/2+x,1/2+y,-z
-x,1/2+y,z
1/2+x,-y,z
loop_
_atom_site_type_symbol
_atom_site_label
_atom_site_fract_x
_atom_site_fract_y
_atom_site_fract_z
Si Si1 0.862716 0.132984 0.289069
Si Si2 0.599745 0.506026 0.248099
Si Si3 0.443336 0.144614 0.228419
Si Si4 0.750000 0.750000 0.000000
O O1 0.750000 0.163786 0.500000
O O2 0.997787 0.141897 0.475694
O O3 0.812015 0.058967 0.257829
O O4 0.926401 0.148063 0.993106
O O5 0.500000 0.500000 0.500000
O O6 0.648379 0.578738 0.220599
O O7 0.500000 0.500000 0.000000
O O8 0.347960 0.204667 0.173609
#
# Coordination Sequence:
#
# PCOD9396582 Si02
#       4
#     8   8   8   2
#     4  10  20  41  70 100 131 162 222 294 348 389
#     4   8  16  35  59  91 125 160 207 269 330 387
#     4  10  23  42  64  95 134 181 226 264 333 407
#     4  12  28  50  66  90 144 194 232 266 320 446
#
# _framework density 25.890712000000001
#
# number of rings (size 3 to 8) (size 9 to 14) (size 15 to 20)
#    0.000    2.462    0.000    0.923    0.000    3.692 
#   33.231    4.615    0.000    0.000    0.000    0.000 
#    0.000    0.000    0.000    0.000    0.000    0.000 
#
# Total GULP energy -144757.635560 kJ/mol
# GULP energy per Si atom -5567.601368 kJ/mol
# Density = 2.583178 g / cm^3
# Si number density = 25.890712 Si / 1000 Ang^3
#
#
#
# Elastic Constant Matrix: (Units=GPa)
#
#
# Indices 1 2 3 4 5 6 
#
# 1 44.1576 26.2876 25.1539 0.0000 0.0000 0.0000
# 2 26.2876 150.5304 8.1514 0.0000 0.0000 0.0000
# 3 25.1539 8.1514 224.3991 0.0000 0.0000 0.0000
# 4 0.0000 0.0000 0.0000 -8.2564 0.0000 0.0000
# 5 0.0000 0.0000 0.0000 0.0000 42.2499 0.0000
# 6 0.0000 0.0000 0.0000 0.0000 0.0000 1.3413
#
#
#
# Elastic Compliance Matrix: (Units=1/GPa)
#
#
# Indices 1 2 3 4 5 6 
#
# 1 0.026989 -0.004558 -0.002860 0.000000 0.000000 0.000000
# 2 -0.004558 0.007426 0.000241 0.000000 0.000000 0.000000
# 3 -0.002860 0.000241 0.004768 0.000000 0.000000 0.000000
# 4 0.000000 0.000000 0.000000 -0.121118 0.000000 0.000000
# 5 0.000000 0.000000 0.000000 0.000000 0.023669 0.000000
# 6 0.000000 0.000000 0.000000 0.000000 0.000000 0.745554
#
#
# Mechanical properties :
#
#
# Convention : Reuss Voigt Hill
#
# Bulk Modulus (GPa) = 40.27473 59.80809 50.04141
# Shear Modulus (GPa) = 7.04307 31.03325 19.03816
#
# Velocity S-wave (km/s) = 1.65112 3.46587 2.71463
# Velocity P-wave (km/s) = 4.38456 6.25833 5.40329
#
# Compressibility (1/GPa) = 0.02482946
#
# Stress axis : x y z
#
# Youngs Moduli (GPa) = 37.05248 134.65941 209.72535
#
# Poissons Ratio (x) = 0.61381 0.59975
# Poissons Ratio (y) = 0.16890 -0.05059
# Poissons Ratio (z) = 0.10596 -0.03248
#
# Static dielectric constant tensor:
#      x y z
#    x 2.091900 0.000000 0.000000 
#    y 0.000000 2.082140 0.000000 
#    z 0.000000 0.000000 1.998120 
# 
# From -- ./inp_files/838.got.cif
#   From: 2010.05.17/outbox.cif.g08.bks.cpg/sg50_1_cif.got.tgz:838.got - 2010.06.03 11:33:33.
