data_PCOD9396941
_publ_section_title
;
Structure prediction by ZEFSAII (Michael W. Deem and Ramdas Pophale) SiO2 
 PCOD9396941
Probable space group: P B A N
;
_chemical_formula_sum "Si O2"
_cell_formula_units_Z 32
_cell_length_a 5.302101
_cell_length_b 15.714792
_cell_length_c 16.572943
_cell_angle_alpha 90.000000
_cell_angle_beta 90.000000
_cell_angle_gamma 90.000000
_cell_volume 1380.881051
_symmetry_space_group_name_H-M "P B A N"
_symmetry_group_IT_number 50
_space_group.IT_coordinate_system_code '2'
_symmetry_cell_setting 'orthorhombic'
loop_
_space_group_symop_operation_xyz
x,y,z
1/2-x,1/2-y,z
x,1/2-y,-z
1/2-x,y,-z
-x,-y,-z
1/2+x,1/2+y,-z
-x,1/2+y,z
1/2+x,-y,z
loop_
_atom_site_type_symbol
_atom_site_label
_atom_site_fract_x
_atom_site_fract_y
_atom_site_fract_z
Si Si1 0.310406 0.463409 0.906913
Si Si2 0.998345 0.287316 0.409482
Si Si3 0.998753 0.693403 0.823648
Si Si4 0.463894 0.555885 0.320408
O O1 0.528733 0.525011 0.870471
O O2 0.430061 0.370432 0.897358
O O3 0.250000 0.483554 0.000000
O O4 0.750000 0.250000 0.368776
O O5 0.997848 0.250000 0.500000
O O6 0.250000 0.250000 0.371342
O O7 0.986481 0.388062 0.402207
O O8 0.250000 0.750000 0.834460
O O9 0.750000 0.750000 0.812642
O O10 0.025972 0.627120 0.749567
O O11 0.204370 0.505084 0.315974
#
# Coordination Sequence:
#
# PCOD9396941 Si02
#       4
#     8   8   8   8
#     4  10  21  40  63  89 125 166 206 254 311 371
#     4  10  21  41  63  87 124 165 203 256 319 379
#     4  12  24  40  64  94 128 168 212 265 321 376
#     4  12  24  41  65  94 125 164 216 265 316 381
#
# _framework density 23.173614000000001
#
# number of rings (size 3 to 8) (size 9 to 14) (size 15 to 20)
#    0.000    1.000    0.000    7.500    0.000    0.500 
#    0.000   16.250    0.000    0.000    0.000    0.000 
#    0.000    0.000    0.000    0.000    0.000    0.000 
#
# Total GULP energy -178781.650920 kJ/mol
# GULP energy per Si atom -5586.926591 kJ/mol
# Density = 2.312087 g / cm^3
# Si number density = 23.173614 Si / 1000 Ang^3
#
#
#
# Elastic Constant Matrix: (Units=GPa)
#
#
# Indices 1 2 3 4 5 6 
#
# 1 261.0447 99.0423 28.0495 0.0000 0.0000 0.0000
# 2 99.0423 137.8047 13.9936 0.0000 0.0000 0.0000
# 3 28.0495 13.9936 28.8134 0.0000 0.0000 0.0000
# 4 0.0000 0.0000 0.0000 43.6366 0.0000 0.0000
# 5 0.0000 0.0000 0.0000 0.000034241.4228 0.0000
# 6 0.0000 0.0000 0.0000 0.0000 0.0000 73.9430
#
#
#
# Elastic Compliance Matrix: (Units=1/GPa)
#
#
# Indices 1 2 3 4 5 6 
#
# 1 0.005617 -0.003662 -0.003689 0.000000 0.000000 0.000000
# 2 -0.003662 0.010021 -0.001302 0.000000 0.000000 0.000000
# 3 -0.003689 -0.001302 0.038930 0.000000 0.000000 0.000000
# 4 0.000000 0.000000 0.000000 0.022917 0.000000 0.000000
# 5 0.000000 0.000000 0.000000 0.000000 0.000029 0.000000
# 6 0.000000 0.000000 0.000000 0.000000 0.000000 0.013524
#
#
# Mechanical properties :
#
#
# Convention : Reuss Voigt Hill
#
# Bulk Modulus (GPa) = 26.83761 78.87041 52.85401
# Shear Modulus (GPa) = 41.40337 6890.90564 3466.15450
#
# Velocity S-wave (km/s) = 4.23148 54.58988 38.71667
# Velocity P-wave (km/s) = 5.95652 63.30494 44.96107
#
# Compressibility (1/GPa) = 0.03726114
#
# Stress axis : x y z
#
# Youngs Moduli (GPa) = 178.04365 99.79191 25.68736
#
# Poissons Ratio (x) = 0.36545 0.09476
# Poissons Ratio (y) = 0.65202 0.03344
# Poissons Ratio (z) = 0.65683 0.12990
#
# Static dielectric constant tensor:
#      x y z
#    x 1.909930 0.000000 0.000000 
#    y 0.000000 1.878680 0.000000 
#    z 0.000000 0.000000 1.712280 
# 
# From -- ./inp_files/30151.got.cif
#   From: 2010.05.17/outbox.cif.g08.bks.cpg/sg50_16_cif.got.tgz:30151.got - 2010.06.03 11:33:33.
