data_PCOD9396966
_publ_section_title
;
Structure prediction by ZEFSAII (Michael W. Deem and Ramdas Pophale) SiO2 
 PCOD9396966
Probable space group: P B A N
;
_chemical_formula_sum "Si O2"
_cell_formula_units_Z 64
_cell_length_a 34.180396
_cell_length_b 11.701428
_cell_length_c 7.648093
_cell_angle_alpha 90.000000
_cell_angle_beta 90.000000
_cell_angle_gamma 90.000000
_cell_volume 3058.927015
_symmetry_space_group_name_H-M "P B A N"
_symmetry_group_IT_number 50
_space_group.IT_coordinate_system_code '2'
_symmetry_cell_setting 'orthorhombic'
loop_
_space_group_symop_operation_xyz
x,y,z
1/2-x,1/2-y,z
x,1/2-y,-z
1/2-x,y,-z
-x,-y,-z
1/2+x,1/2+y,-z
-x,1/2+y,z
1/2+x,-y,z
loop_
_atom_site_type_symbol
_atom_site_label
_atom_site_fract_x
_atom_site_fract_y
_atom_site_fract_z
Si Si1 0.324343 0.026310 0.771639
Si Si2 0.949302 0.477934 0.824015
Si Si3 0.815730 0.375804 0.572717
Si Si4 0.083513 0.190217 0.681403
Si Si5 0.478142 0.347723 0.119084
Si Si6 0.833614 0.779249 0.200437
Si Si7 0.738654 0.563333 0.308005
Si Si8 0.866362 0.122131 0.076883
O O1 0.327839 0.949272 0.597963
O O2 0.338226 0.153141 0.717110
O O3 0.277855 0.049264 0.805515
O O4 0.346015 0.966041 0.936121
O O5 0.938860 0.570119 0.675707
O O6 0.911466 0.408312 0.885488
O O7 0.986861 0.403321 0.772175
O O8 0.960887 0.555617 0.991997
O O9 0.808589 0.250000 0.500000
O O10 0.778229 0.437485 0.656583
O O11 0.845971 0.378733 0.732884
O O12 0.090889 0.250000 0.500000
O O13 0.057031 0.281096 0.787331
O O14 0.124872 0.161492 0.770447
O O15 0.497792 0.250000 0.000000
O O16 0.796479 0.855019 0.249722
O O17 0.828808 0.750000 0.000000
O O18 0.750000 0.608388 0.500000
O O19 0.862371 0.250000 0.000000
#
# Coordination Sequence:
#
# PCOD9396966 Si02
#       8
#     8   8   8   8   8   8   8   8
#     4  11  25  43  68  96 132 176 227 289 346 407
#     4  10  21  40  67  93 129 169 219 276 335 415
#     4  11  24  45  64  92 133 178 226 281 340 412
#     4  11  24  38  64  97 133 175 217 273 346 417
#     4   9  19  41  66  95 127 168 216 265 338 417
#     4  12  25  44  69  99 136 176 233 283 347 423
#     4  10  25  43  69  96 135 176 227 286 354 408
#     4  12  24  43  68  98 131 178 234 282 345 412
#
# _framework density 20.922367999999999
#
# number of rings (size 3 to 8) (size 9 to 14) (size 15 to 20)
#    0.000    1.250    1.250    4.875    5.250    6.750 
#    0.000    1.250    0.000    0.000    0.000    0.000 
#    0.000    0.000    0.000    0.000    0.000    0.000 
#
# Total GULP energy -357419.115960 kJ/mol
# GULP energy per Si atom -5584.673687 kJ/mol
# Density = 2.087475 g / cm^3
# Si number density = 20.922368 Si / 1000 Ang^3
#
#
#
# Elastic Constant Matrix: (Units=GPa)
#
#
# Indices 1 2 3 4 5 6 
#
# 1 111.6758 28.4443 36.1349 0.0000 0.0000 0.0000
# 2 28.4443 98.3328 20.7300 0.0000 0.0000 0.0000
# 3 36.1349 20.7300 67.9149 0.0000 0.0000 0.0000
# 4 0.0000 0.0000 0.0000 19.6327 0.0000 0.0000
# 5 0.0000 0.0000 0.0000 0.0000 16.6488 0.0000
# 6 0.0000 0.0000 0.0000 0.0000 0.0000 18.4855
#
#
#
# Elastic Compliance Matrix: (Units=1/GPa)
#
#
# Indices 1 2 3 4 5 6 
#
# 1 0.011217 -0.002123 -0.005320 0.000000 0.000000 0.000000
# 2 -0.002123 0.011271 -0.002311 0.000000 0.000000 0.000000
# 3 -0.005320 -0.002311 0.018260 0.000000 0.000000 0.000000
# 4 0.000000 0.000000 0.000000 0.050935 0.000000 0.000000
# 5 0.000000 0.000000 0.000000 0.000000 0.060064 0.000000
# 6 0.000000 0.000000 0.000000 0.000000 0.000000 0.054097
#
#
# Mechanical properties :
#
#
# Convention : Reuss Voigt Hill
#
# Bulk Modulus (GPa) = 47.08029 49.83800 48.45915
# Shear Modulus (GPa) = 21.51175 23.79434 22.65304
#
# Velocity S-wave (km/s) = 3.20999 3.37600 3.29404
# Velocity P-wave (km/s) = 6.02411 6.25049 6.13834
#
# Compressibility (1/GPa) = 0.02124031
#
# Stress axis : x y z
#
# Youngs Moduli (GPa) = 89.15353 88.72484 54.76415
#
# Poissons Ratio (x) = 0.18837 0.29134
# Poissons Ratio (y) = 0.18928 0.12654
# Poissons Ratio (z) = 0.47429 0.20501
#
# Static dielectric constant tensor:
#      x y z
#    x 1.783130 0.000000 0.000000 
#    y 0.000000 1.838970 0.000000 
#    z 0.000000 0.000000 1.806570 
# 
# From -- ./inp_files/17122.got.cif
#   From: 2010.05.17/outbox.cif.g08.bks.cpg/sg50_9_cif.got.tgz:17122.got - 2010.06.03 11:33:33.
