data_PCOD9396259
_publ_section_title
;
Structure prediction by ZEFSAII (Michael W. Deem and Ramdas Pophale) SiO2 
 PCOD9396259
Probable space group: P B A N
;
_chemical_formula_sum "Si O2"
_cell_formula_units_Z 56
_cell_length_a 12.009289
_cell_length_b 22.578622
_cell_length_c 12.064489
_cell_angle_alpha 90.000000
_cell_angle_beta 90.000000
_cell_angle_gamma 90.000000
_cell_volume 3271.324760
_symmetry_space_group_name_H-M "P B A N"
_symmetry_group_IT_number 50
_space_group.IT_coordinate_system_code '2'
_symmetry_cell_setting 'orthorhombic'
loop_
_space_group_symop_operation_xyz
x,y,z
1/2-x,1/2-y,z
x,1/2-y,-z
1/2-x,y,-z
-x,-y,-z
1/2+x,1/2+y,-z
-x,1/2+y,z
1/2+x,-y,z
loop_
_atom_site_type_symbol
_atom_site_label
_atom_site_fract_x
_atom_site_fract_y
_atom_site_fract_z
Si Si1 0.442135 0.835205 0.763489
Si Si2 0.891293 0.879715 0.626517
Si Si3 0.761444 0.120049 0.374610
Si Si4 0.879265 0.321614 0.994841
Si Si5 0.870787 0.890880 0.362876
Si Si6 0.056606 0.980680 0.616757
Si Si7 0.942909 0.195086 0.247120
O O1 0.354875 0.874705 0.691560
O O2 0.563120 0.846564 0.714507
O O3 0.419279 0.765036 0.752220
O O4 0.434212 0.847310 0.894497
O O5 0.901872 0.877785 0.492111
O O6 0.761385 0.887024 0.648558
O O7 0.964452 0.936272 0.666214
O O8 0.946092 0.823619 0.687093
O O9 0.750000 0.141659 0.500000
O O10 0.828855 0.057747 0.387078
O O11 0.842856 0.163408 0.310101
O O12 0.938617 0.331684 0.877358
O O13 0.878316 0.250000 0.000000
O O14 0.750000 0.340732 0.000000
O O15 0.912346 0.956683 0.331201
O O16 0.000000 0.000000 0.500000
#
# Coordination Sequence:
#
# PCOD9396259 Si02
#       7
#     8   8   8   8   8   8   8
#     4  11  21  33  55  86 109 140 191 225 273 334
#     4   9  20  36  53  77 113 152 180 215 288 326
#     4  11  21  30  53  85 110 142 175 228 280 320
#     4   9  17  34  56  77 107 146 181 224 273 323
#     4  10  21  34  54  81 109 150 185 225 267 331
#     4   9  19  34  53  74 110 144 184 227 262 327
#     4  10  20  36  53  80 116 145 179 226 278 333
#
# _framework density 17.118447
#
# number of rings (size 3 to 8) (size 9 to 14) (size 15 to 20)
#    0.000    2.143    1.429    3.000    6.000    3.429 
#    0.000    2.143    0.000    6.000    7.429    0.000 
#    0.000    0.000    0.000    0.000    0.000    0.000 
#
# Total GULP energy -311797.531268 kJ/mol
# GULP energy per Si atom -5567.813058 kJ/mol
# Density = 1.707948 g / cm^3
# Si number density = 17.118447 Si / 1000 Ang^3
#
#
#
# Elastic Constant Matrix: (Units=GPa)
#
#
# Indices 1 2 3 4 5 6 
#
# 1 78.8470 11.6478 47.0525 0.0000 0.0000 0.0000
# 2 11.6478 44.5052 21.5279 0.0000 0.0000 0.0000
# 3 47.0525 21.5279 103.1940 0.0000 0.0000 0.0000
# 4 0.0000 0.0000 0.0000 -3.9610 0.0000 0.0000
# 5 0.0000 0.0000 0.0000 0.0000 10.6295 0.0000
# 6 0.0000 0.0000 0.0000 0.0000 0.0000 18.3492
#
#
#
# Elastic Compliance Matrix: (Units=1/GPa)
#
#
# Indices 1 2 3 4 5 6 
#
# 1 0.017449 -0.000799 -0.007790 0.000000 0.000000 0.000000
# 2 -0.000799 0.025028 -0.004857 0.000000 0.000000 0.000000
# 3 -0.007790 -0.004857 0.014255 0.000000 0.000000 0.000000
# 4 0.000000 0.000000 0.000000 -0.252461 0.000000 0.000000
# 5 0.000000 0.000000 0.000000 0.000000 0.094078 0.000000
# 6 0.000000 0.000000 0.000000 0.000000 0.000000 0.054498
#
#
# Mechanical properties :
#
#
# Convention : Reuss Voigt Hill
#
# Bulk Modulus (GPa) = 33.51003 43.00026 38.25515
# Shear Modulus (GPa) = -484.77644 14.75807 -235.00918
#
# Velocity S-wave (km/s) = -16.84649 2.93936 -11.72954
# Velocity P-wave (km/s) = 18.94169 6.05752 12.69043
#
# Compressibility (1/GPa) = 0.02984181
#
# Stress axis : x y z
#
# Youngs Moduli (GPa) = 57.30901 39.95566 70.14859
#
# Poissons Ratio (x) = 0.03192 0.54643
# Poissons Ratio (y) = 0.04578 0.34071
# Poissons Ratio (z) = 0.44641 0.19406
#
# Static dielectric constant tensor:
#      x y z
#    x 1.600430 0.000000 0.000000 
#    y 0.000000 1.615760 0.000000 
#    z 0.000000 0.000000 1.584340 
# 
# From -- ./inp_files/20373.got.cif
#   From: 2010.05.17/outbox.cif.g08.bks.cpg/sg50_11_cif.got.tgz:20373.got - 2010.06.03 11:33:33.
