data_PCOD9396947
_publ_section_title
;
Structure prediction by ZEFSAII (Michael W. Deem and Ramdas Pophale) SiO2 
 PCOD9396947
Probable space group: P B A N
;
_chemical_formula_sum "Si O2"
_cell_formula_units_Z 32
_cell_length_a 18.833052
_cell_length_b 5.454145
_cell_length_c 14.002321
_cell_angle_alpha 90.000000
_cell_angle_beta 90.000000
_cell_angle_gamma 90.000000
_cell_volume 1438.293159
_symmetry_space_group_name_H-M "P B A N"
_symmetry_group_IT_number 50
_space_group.IT_coordinate_system_code '2'
_symmetry_cell_setting 'orthorhombic'
loop_
_space_group_symop_operation_xyz
x,y,z
1/2-x,1/2-y,z
x,1/2-y,-z
1/2-x,y,-z
-x,-y,-z
1/2+x,1/2+y,-z
-x,1/2+y,z
1/2+x,-y,z
loop_
_atom_site_type_symbol
_atom_site_label
_atom_site_fract_x
_atom_site_fract_y
_atom_site_fract_z
Si Si1 0.173460 0.624309 0.632947
Si Si2 0.047471 0.750000 0.500000
Si Si3 0.180498 0.376714 0.819027
Si Si4 0.460567 0.275048 0.884960
Si Si5 0.250000 0.250000 0.000000
Si Si6 0.250000 0.250000 0.500000
O O1 0.250000 0.750000 0.623264
O O2 0.103581 0.745316 0.588159
O O3 0.160939 0.583933 0.745156
O O4 0.193658 0.387176 0.569567
O O5 0.000000 0.500000 0.500000
O O6 0.250000 0.250000 0.775647
O O7 0.114409 0.199728 0.833029
O O8 0.205335 0.421886 0.928129
O O9 0.506641 0.511170 0.859883
O O10 0.451347 0.250000 0.000000
#
# Coordination Sequence:
#
# PCOD9396947 Si02
#       6
#     8   4   8   8   2   2
#     4  12  25  43  76 106 138 199 254 302 383 468
#     4  12  28  48  75 111 158 196 246 328 392 450
#     4  10  21  40  71 101 140 185 247 307 367 436
#     4  10  21  40  64  92 134 187 230 282 356 429
#     4   8  18  44  66 106 148 182 252 322 368 420
#     4  12  18  48  72  94 140 186 240 314 354 460
#
# _framework density 22.248594000000001
#
# number of rings (size 3 to 8) (size 9 to 14) (size 15 to 20)
#    0.750    0.500    5.000    0.750    0.000    4.000 
#    0.000    0.625    0.000    0.000    0.000    0.000 
#    0.000    0.000    0.000    0.000    0.000    0.000 
#
# Total GULP energy -178172.258548 kJ/mol
# GULP energy per Si atom -5567.883080 kJ/mol
# Density = 2.219796 g / cm^3
# Si number density = 22.248594 Si / 1000 Ang^3
#
#
#
# Elastic Constant Matrix: (Units=GPa)
#
#
# Indices 1 2 3 4 5 6 
#
# 1 148.0126 59.5252 51.9202 0.0000 0.0000 0.0000
# 2 59.5252 99.6291 39.7576 0.0000 0.0000 0.0000
# 3 51.9202 39.7576 132.7535 0.0000 0.0000 0.0000
# 4 0.0000 0.0000 0.0000 -5.0945 0.0000 0.0000
# 5 0.0000 0.0000 0.0000 0.0000 -12.4843 0.0000
# 6 0.0000 0.0000 0.0000 0.0000 0.0000 11.8246
#
#
#
# Elastic Compliance Matrix: (Units=1/GPa)
#
#
# Indices 1 2 3 4 5 6 
#
# 1 0.009464 -0.004745 -0.002281 0.000000 0.000000 0.000000
# 2 -0.004745 0.013778 -0.002271 0.000000 0.000000 0.000000
# 3 -0.002281 -0.002271 0.009105 0.000000 0.000000 0.000000
# 4 0.000000 0.000000 0.000000 -0.196291 0.000000 0.000000
# 5 0.000000 0.000000 0.000000 0.000000 -0.080101 0.000000
# 6 0.000000 0.000000 0.000000 0.000000 0.000000 0.084570
#
#
# Mechanical properties :
#
#
# Convention : Reuss Voigt Hill
#
# Bulk Modulus (GPa) = 72.69857 75.86678 74.28268
# Shear Modulus (GPa) = -36.68425 14.12864 -11.27781
#
# Velocity S-wave (km/s) = -4.06499 2.52272 -2.25389
# Velocity P-wave (km/s) = 3.27327 6.53140 5.16592
#
# Compressibility (1/GPa) = 0.01375543
#
# Stress axis : x y z
#
# Youngs Moduli (GPa) = 105.66096 72.57912 109.83284
#
# Poissons Ratio (x) = 0.34435 0.25048
# Poissons Ratio (y) = 0.50131 0.24940
# Poissons Ratio (z) = 0.24097 0.16481
#
# Static dielectric constant tensor:
#      x y z
#    x 1.860660 0.000000 0.000000 
#    y 0.000000 1.760150 0.000000 
#    z 0.000000 0.000000 1.872260 
# 
# From -- ./inp_files/26695.got.cif
#   From: 2010.05.17/outbox.cif.g08.bks.cpg/sg50_14_cif.got.tgz:26695.got - 2010.06.03 11:33:33.
