data_PCOD9396639
_publ_section_title
;
Structure prediction by ZEFSAII (Michael W. Deem and Ramdas Pophale) SiO2 
 PCOD9396639
Probable space group: P B A N
;
_chemical_formula_sum "Si O2"
_cell_formula_units_Z 64
_cell_length_a 8.623364
_cell_length_b 21.166210
_cell_length_c 16.895057
_cell_angle_alpha 90.000000
_cell_angle_beta 90.000000
_cell_angle_gamma 90.000000
_cell_volume 3083.752257
_symmetry_space_group_name_H-M "P B A N"
_symmetry_group_IT_number 50
_space_group.IT_coordinate_system_code '2'
_symmetry_cell_setting 'orthorhombic'
loop_
_space_group_symop_operation_xyz
x,y,z
1/2-x,1/2-y,z
x,1/2-y,-z
1/2-x,y,-z
-x,-y,-z
1/2+x,1/2+y,-z
-x,1/2+y,z
1/2+x,-y,z
loop_
_atom_site_type_symbol
_atom_site_label
_atom_site_fract_x
_atom_site_fract_y
_atom_site_fract_z
Si Si1 0.685562 0.094516 0.125693
Si Si2 0.304621 0.416977 0.249533
Si Si3 0.440271 0.990135 0.170797
Si Si4 0.207542 0.675839 0.279488
Si Si5 0.576102 0.222453 0.081648
Si Si6 0.385445 0.290323 0.219630
Si Si7 0.180362 0.441584 0.413129
Si Si8 0.311141 0.581455 0.414039
O O1 0.849319 0.058480 0.113275
O O2 0.720379 0.136621 0.205208
O O3 0.607909 0.148052 0.072214
O O4 0.562726 0.038143 0.133484
O O5 0.182925 0.466761 0.215419
O O6 0.469062 0.450267 0.236948
O O7 0.302144 0.355111 0.194123
O O8 0.256618 0.404063 0.339856
O O9 0.250000 0.750000 0.280317
O O10 0.266917 0.636067 0.353293
O O11 0.022119 0.681611 0.273056
O O12 0.750000 0.250000 0.093980
O O13 0.467662 0.248297 0.152124
O O14 0.513777 0.250000 0.000000
O O15 0.250000 0.250000 0.259180
O O16 0.250000 0.426547 0.500000
O O17 0.226037 0.514761 0.396627
O O18 0.995585 0.431676 0.413746
O O19 0.250000 0.600440 0.500000
#
# Coordination Sequence:
#
# PCOD9396639 Si02
#       8
#     8   8   8   8   8   8   8   8
#     4  11  19  40  62 103 126 169 220 263 326 394
#     4  11  21  36  59  91 126 165 213 270 332 385
#     4  10  21  33  64  93 130 164 209 273 325 388
#     4  12  24  41  65  90 128 173 227 265 329 403
#     4  11  22  43  73  97 130 178 219 267 320 402
#     4  12  25  40  66  97 129 170 221 277 327 392
#     4  11  23  38  63  94 127 170 223 282 347 400
#     4  11  25  41  65  91 132 170 222 284 343 407
#
# _framework density 20.753935999999999
#
# number of rings (size 3 to 8) (size 9 to 14) (size 15 to 20)
#    0.000    0.875    3.750    5.250    5.250    0.500 
#    0.000    0.000    0.000   13.875    0.000    0.000 
#    0.000    0.000    0.000    0.000    0.000    0.000 
#
# Total GULP energy -357098.672513 kJ/mol
# GULP energy per Si atom -5579.666758 kJ/mol
# Density = 2.070670 g / cm^3
# Si number density = 20.753936 Si / 1000 Ang^3
#
#
#
# Elastic Constant Matrix: (Units=GPa)
#
#
# Indices 1 2 3 4 5 6 
#
# 1 126.4016 69.6044 33.6029 0.0000 0.0000 0.0000
# 2 69.6044 134.3671 27.4595 0.0000 0.0000 0.0000
# 3 33.6029 27.4595 29.7090 0.0000 0.0000 0.0000
# 4 0.0000 0.0000 0.0000 18.6260 0.0000 0.0000
# 5 0.0000 0.0000 0.0000 0.0000 13.5252 0.0000
# 6 0.0000 0.0000 0.0000 0.0000 0.0000 29.4233
#
#
#
# Elastic Compliance Matrix: (Units=1/GPa)
#
#
# Indices 1 2 3 4 5 6 
#
# 1 0.013376 -0.004731 -0.010756 0.000000 0.000000 0.000000
# 2 -0.004731 0.010849 -0.004676 0.000000 0.000000 0.000000
# 3 -0.010756 -0.004676 0.050148 0.000000 0.000000 0.000000
# 4 0.000000 0.000000 0.000000 0.053688 0.000000 0.000000
# 5 0.000000 0.000000 0.000000 0.000000 0.073936 0.000000
# 6 0.000000 0.000000 0.000000 0.000000 0.000000 0.033987
#
#
# Mechanical properties :
#
#
# Convention : Reuss Voigt Hill
#
# Bulk Modulus (GPa) = 29.37226 61.31235 45.34231
# Shear Modulus (GPa) = 17.38164 22.96894 20.17529
#
# Velocity S-wave (km/s) = 2.89712 3.33036 3.12126
# Velocity P-wave (km/s) = 5.03730 6.66296 5.90633
#
# Compressibility (1/GPa) = 0.03404573
#
# Stress axis : x y z
#
# Youngs Moduli (GPa) = 74.76174 92.17811 19.94079
#
# Poissons Ratio (x) = 0.43607 0.21449
# Poissons Ratio (y) = 0.35368 0.09325
# Poissons Ratio (z) = 0.80417 0.43106
#
# Static dielectric constant tensor:
#      x y z
#    x 1.800970 0.000000 0.000000 
#    y 0.000000 1.824240 0.000000 
#    z 0.000000 0.000000 1.779550 
# 
# From -- ./inp_files/28956.got.cif
#   From: 2010.05.17/outbox.cif.g08.bks.cpg/sg50_15_cif.got.tgz:28956.got - 2010.06.03 11:33:33.
