data_PCOD9396255
_publ_section_title
;
Structure prediction by ZEFSAII (Michael W. Deem and Ramdas Pophale) SiO2 
 PCOD9396255
Probable space group: P B A N
;
_chemical_formula_sum "Si O2"
_cell_formula_units_Z 36
_cell_length_a 14.757914
_cell_length_b 25.042743
_cell_length_c 5.557021
_cell_angle_alpha 90.000000
_cell_angle_beta 90.000000
_cell_angle_gamma 90.000000
_cell_volume 2053.756305
_symmetry_space_group_name_H-M "P B A N"
_symmetry_group_IT_number 50
_space_group.IT_coordinate_system_code '2'
_symmetry_cell_setting 'orthorhombic'
loop_
_space_group_symop_operation_xyz
x,y,z
1/2-x,1/2-y,z
x,1/2-y,-z
1/2-x,y,-z
-x,-y,-z
1/2+x,1/2+y,-z
-x,1/2+y,z
1/2+x,-y,z
loop_
_atom_site_type_symbol
_atom_site_label
_atom_site_fract_x
_atom_site_fract_y
_atom_site_fract_z
Si Si1 0.250000 0.475267 0.500000
Si Si2 0.484904 0.563821 0.029885
Si Si3 0.144839 0.271314 0.744429
Si Si4 0.337670 0.389219 0.143866
Si Si5 0.421653 0.955095 0.465682
O O1 0.302738 0.437237 0.312343
O O2 0.170999 0.514005 0.406910
O O3 0.583676 0.590630 0.033197
O O4 0.444526 0.579666 0.769142
O O5 0.500000 0.500000 0.000000
O O6 0.426617 0.572684 0.271306
O O7 0.250000 0.250000 0.743295
O O8 0.101659 0.250000 0.500000
O O9 0.135911 0.335105 0.724366
O O10 0.107833 0.250000 0.000000
O O11 0.250000 0.371634 0.000000
O O12 0.500000 0.000000 0.500000
#
# Coordination Sequence:
#
# PCOD9396255 Si02
#       5
#     4   8   8   8   8
#     4  12  22  30  57  72  96 150 189 198 278 314
#     4  10  20  36  46  68 108 122 176 236 241 294
#     4  10  20  36  45  68 106 123 174 232 241 297
#     4  12  22  31  56  73  94 154 186 203 272 318
#     4  10  20  36  45  70 106 125 172 238 239 299
#
# _framework density 17.528856000000001
#
# number of rings (size 3 to 8) (size 9 to 14) (size 15 to 20)
#    0.000    1.333    6.667    4.000    0.000    0.000 
#    0.000    0.000    0.000    0.000    0.000    0.000 
#    0.000    0.000    0.000   15.000    2.667    0.444 
#
# Total GULP energy -200412.440465 kJ/mol
# GULP energy per Si atom -5567.012235 kJ/mol
# Density = 1.748896 g / cm^3
# Si number density = 17.528856 Si / 1000 Ang^3
#
#
#
# Elastic Constant Matrix: (Units=GPa)
#
#
# Indices 1 2 3 4 5 6 
#
# 1 49.8375 29.4960 6.0989 0.0000 0.0000 0.0000
# 2 29.4960 49.1859 14.6559 0.0000 0.0000 0.0000
# 3 6.0989 14.6559 147.5935 0.0000 0.0000 0.0000
# 4 0.0000 0.0000 0.0000 19.0670 0.0000 0.0000
# 5 0.0000 0.0000 0.0000 0.0000 8.9146 0.0000
# 6 0.0000 0.0000 0.0000 0.0000 0.0000 0.9186
#
#
#
# Elastic Compliance Matrix: (Units=1/GPa)
#
#
# Indices 1 2 3 4 5 6 
#
# 1 0.031154 -0.018857 0.000585 0.000000 0.000000 0.000000
# 2 -0.018857 0.032365 -0.002435 0.000000 0.000000 0.000000
# 3 0.000585 -0.002435 0.006993 0.000000 0.000000 0.000000
# 4 0.000000 0.000000 0.000000 0.052447 0.000000 0.000000
# 5 0.000000 0.000000 0.000000 0.000000 0.112175 0.000000
# 6 0.000000 0.000000 0.000000 0.000000 0.000000 1.088605
#
#
# Mechanical properties :
#
#
# Convention : Reuss Voigt Hill
#
# Bulk Modulus (GPa) = 34.36560 38.56871 36.46715
# Shear Modulus (GPa) = 3.63676 18.87112 11.25394
#
# Velocity S-wave (km/s) = 1.44195 3.28468 2.53657
# Velocity P-wave (km/s) = 4.73498 6.03624 5.42477
#
# Compressibility (1/GPa) = 0.02909887
#
# Stress axis : x y z
#
# Youngs Moduli (GPa) = 32.09862 30.89787 143.00135
#
# Poissons Ratio (x) = 0.58264 -0.08368
# Poissons Ratio (y) = 0.60528 0.34815
# Poissons Ratio (z) = -0.01878 0.07522
#
# Static dielectric constant tensor:
#      x y z
#    x 1.615330 0.000000 0.000000 
#    y 0.000000 3.688940 0.000000 
#    z 0.000000 0.000000 1.602140 
# 
# From -- ./inp_files/2255.got.cif
#   From: 2010.05.17/outbox.cif.g08.bks.cpg/sg50_2_cif.got.tgz:2255.got - 2010.06.03 11:33:33.
