data_PCOD9396518
_publ_section_title
;
Structure prediction by ZEFSAII (Michael W. Deem and Ramdas Pophale) SiO2 
 PCOD9396518
Probable space group: P B A N
;
_chemical_formula_sum "Si O2"
_cell_formula_units_Z 44
_cell_length_a 14.325775
_cell_length_b 7.648016
_cell_length_c 16.883380
_cell_angle_alpha 90.000000
_cell_angle_beta 90.000000
_cell_angle_gamma 90.000000
_cell_volume 1849.806534
_symmetry_space_group_name_H-M "P B A N"
_symmetry_group_IT_number 50
_space_group.IT_coordinate_system_code '2'
_symmetry_cell_setting 'orthorhombic'
loop_
_space_group_symop_operation_xyz
x,y,z
1/2-x,1/2-y,z
x,1/2-y,-z
1/2-x,y,-z
-x,-y,-z
1/2+x,1/2+y,-z
-x,1/2+y,z
1/2+x,-y,z
loop_
_atom_site_type_symbol
_atom_site_label
_atom_site_fract_x
_atom_site_fract_y
_atom_site_fract_z
Si Si1 0.873941 0.438937 0.752803
Si Si2 0.250000 0.750000 0.500000
Si Si3 0.085967 0.531047 0.720478
Si Si4 0.607236 0.910574 0.120829
Si Si5 0.250000 0.250000 0.000000
Si Si6 0.600653 0.303920 0.086662
Si Si7 0.242156 0.449003 0.617482
O O1 0.857094 0.439682 0.849272
O O2 0.793790 0.525350 0.701698
O O3 0.974172 0.520835 0.730691
O O4 0.881294 0.233182 0.730346
O O5 0.286301 0.601225 0.562307
O O6 0.116277 0.379646 0.785582
O O7 0.133015 0.481432 0.637125
O O8 0.684276 0.855978 0.058950
O O9 0.508152 0.854010 0.084258
O O10 0.604387 0.117522 0.126379
O O11 0.637347 0.250000 0.000000
O O12 0.250000 0.250000 0.589753
#
# Coordination Sequence:
#
# PCOD9396518 Si02
#       7
#     8   2   8   8   2   8   8
#     4  10  21  41  70 103 141 187 243 291 345 426
#     4  12  26  52  76 106 150 174 226 292 368 450
#     4  10  21  42  66 101 138 186 235 291 350 423
#     4  10  23  37  60  88 130 180 232 293 349 396
#     4  12  24  36  54  96 140 172 250 308 344 410
#     4  10  20  39  65  87 130 185 234 286 346 400
#     4  12  25  46  78 107 143 186 229 292 367 436
#
# _framework density 23.786269000000001
#
# number of rings (size 3 to 8) (size 9 to 14) (size 15 to 20)
#    0.000    1.455    2.727    1.909    1.273    2.909 
#    0.000    3.182    0.000    0.000    0.000    0.000 
#    0.000    0.000    0.000    0.000    0.000    0.000 
#
# Total GULP energy -245172.502409 kJ/mol
# GULP energy per Si atom -5572.102327 kJ/mol
# Density = 2.373213 g / cm^3
# Si number density = 23.786269 Si / 1000 Ang^3
#
#
#
# Elastic Constant Matrix: (Units=GPa)
#
#
# Indices 1 2 3 4 5 6 
#
# 1 70.2337 24.1480 37.6318 0.0000 0.0000 0.0000
# 2 24.1480 115.9931 27.9509 0.0000 0.0000 0.0000
# 3 37.6318 27.9509 102.5055 0.0000 0.0000 0.0000
# 4 0.0000 0.0000 0.0000 27.5004 0.0000 0.0000
# 5 0.0000 0.0000 0.0000 0.0000 -4.8388 0.0000
# 6 0.0000 0.0000 0.0000 0.0000 0.0000 32.3732
#
#
#
# Elastic Compliance Matrix: (Units=1/GPa)
#
#
# Indices 1 2 3 4 5 6 
#
# 1 0.018302 -0.002345 -0.006080 0.000000 0.000000 0.000000
# 2 -0.002345 0.009528 -0.001737 0.000000 0.000000 0.000000
# 3 -0.006080 -0.001737 0.012461 0.000000 0.000000 0.000000
# 4 0.000000 0.000000 0.000000 0.036363 0.000000 0.000000
# 5 0.000000 0.000000 0.000000 0.000000 -0.206664 0.000000
# 6 0.000000 0.000000 0.000000 0.000000 0.000000 0.030890
#
#
# Mechanical properties :
#
#
# Convention : Reuss Voigt Hill
#
# Bulk Modulus (GPa) = 50.08143 52.02151 51.05147
# Shear Modulus (GPa) = -69.30949 24.27374 -22.51787
#
# Velocity S-wave (km/s) = -5.40386 3.19798 -3.08015
# Velocity P-wave (km/s) = 4.22317 5.96272 2.97648
#
# Compressibility (1/GPa) = 0.01996748
#
# Stress axis : x y z
#
# Youngs Moduli (GPa) = 54.63887 104.95351 80.24938
#
# Poissons Ratio (x) = 0.24614 0.48788
# Poissons Ratio (y) = 0.12814 0.13940
# Poissons Ratio (z) = 0.33218 0.18231
#
# Static dielectric constant tensor:
#      x y z
#    x 1.918630 0.000000 0.000000 
#    y 0.000000 1.943720 0.000000 
#    z 0.000000 0.000000 2.410500 
# 
# From -- ./inp_files/29426.got.cif
#   From: 2010.05.17/outbox.cif.g08.bks.cpg/sg50_15_cif.got.tgz:29426.got - 2010.06.03 11:33:33.
