data_PCOD9396786
_publ_section_title
;
Structure prediction by ZEFSAII (Michael W. Deem and Ramdas Pophale) SiO2 
 PCOD9396786
Probable space group: P B A N
;
_chemical_formula_sum "Si O2"
_cell_formula_units_Z 32
_cell_length_a 5.279691
_cell_length_b 14.182530
_cell_length_c 18.473147
_cell_angle_alpha 90.000000
_cell_angle_beta 90.000000
_cell_angle_gamma 90.000000
_cell_volume 1383.257720
_symmetry_space_group_name_H-M "P B A N"
_symmetry_group_IT_number 50
_space_group.IT_coordinate_system_code '2'
_symmetry_cell_setting 'orthorhombic'
loop_
_space_group_symop_operation_xyz
x,y,z
1/2-x,1/2-y,z
x,1/2-y,-z
1/2-x,y,-z
-x,-y,-z
1/2+x,1/2+y,-z
-x,1/2+y,z
1/2+x,-y,z
loop_
_atom_site_type_symbol
_atom_site_label
_atom_site_fract_x
_atom_site_fract_y
_atom_site_fract_z
Si Si1 0.744678 0.864726 0.582380
Si Si2 0.750606 0.363909 0.670496
Si Si3 0.171066 0.558183 0.830357
Si Si4 0.994899 0.355208 0.032403
O O1 0.750000 0.750000 0.579014
O O2 0.750000 0.900038 0.500000
O O3 0.477959 0.889963 0.617511
O O4 0.982083 0.890700 0.633522
O O5 0.750000 0.250000 0.679421
O O6 0.686539 0.409447 0.747533
O O7 0.457971 0.522448 0.844359
O O8 0.060612 0.640158 0.882391
O O9 0.995609 0.250000 0.000000
O O10 0.250000 0.396375 0.000000
O O11 0.750000 0.404422 0.000000
#
# Coordination Sequence:
#
# PCOD9396786 Si02
#       4
#     8   8   8   8
#     4   9  17  33  59  94 127 160 214 272 312 355
#     4  10  21  37  62  93 123 171 213 259 316 378
#     4  12  26  43  65  94 131 169 205 261 322 382
#     4  10  23  43  67  94 121 165 208 266 308 380
#
# _framework density 23.133794000000002
#
# number of rings (size 3 to 8) (size 9 to 14) (size 15 to 20)
#    0.000    1.750    0.000    3.750    3.500    6.000 
#    9.000    0.000    0.000   15.000    0.000    0.000 
#    0.000    0.000    0.000    0.000    0.000    0.000 
#
# Total GULP energy -178736.954182 kJ/mol
# GULP energy per Si atom -5585.529818 kJ/mol
# Density = 2.308114 g / cm^3
# Si number density = 23.133794 Si / 1000 Ang^3
#
#
#
# Elastic Constant Matrix: (Units=GPa)
#
#
# Indices 1 2 3 4 5 6 
#
# 1 206.4088 8.5790 59.4252 0.0000 0.0000 0.0000
# 2 8.5790 96.2357 19.7750 0.0000 0.0000 0.0000
# 3 59.4252 19.7750 182.5002 0.0000 0.0000 0.0000
# 4 0.0000 0.0000 0.0000 80.8257 0.0000 0.0000
# 5 0.0000 0.0000 0.0000 0.0000 39.2290 0.0000
# 6 0.0000 0.0000 0.0000 0.0000 0.0000 -6.9683
#
#
#
# Elastic Compliance Matrix: (Units=1/GPa)
#
#
# Indices 1 2 3 4 5 6 
#
# 1 0.005347 -0.000122 -0.001728 0.000000 0.000000 0.000000
# 2 -0.000122 0.010631 -0.001112 0.000000 0.000000 0.000000
# 3 -0.001728 -0.001112 0.006163 0.000000 0.000000 0.000000
# 4 0.000000 0.000000 0.000000 0.012372 0.000000 0.000000
# 5 0.000000 0.000000 0.000000 0.000000 0.025491 0.000000
# 6 0.000000 0.000000 0.000000 0.000000 0.000000 -0.143506
#
#
# Mechanical properties :
#
#
# Convention : Reuss Voigt Hill
#
# Bulk Modulus (GPa) = 61.66484 73.41147 67.53815
# Shear Modulus (GPa) = -69.27806 49.10831 -10.08487
#
# Velocity S-wave (km/s) = -5.47829 4.61238 -2.09017
# Velocity P-wave (km/s) = 3.64719 7.75678 4.84075
#
# Compressibility (1/GPa) = 0.01621670
#
# Stress axis : x y z
#
# Youngs Moduli (GPa) = 187.01022 94.06852 162.26824
#
# Poissons Ratio (x) = 0.01144 0.28040
# Poissons Ratio (y) = 0.02274 0.18049
# Poissons Ratio (z) = 0.32315 0.10463
#
# Static dielectric constant tensor:
#      x y z
#    x 1.932220 0.000000 0.000000 
#    y 0.000000 1.448750 0.000000 
#    z 0.000000 0.000000 1.910170 
# 
# From -- ./inp_files/23712.got.cif
#   From: 2010.05.17/outbox.cif.g08.bks.cpg/sg50_12_cif.got.tgz:23712.got - 2010.06.03 11:33:33.
