data_PCOD9396629
_publ_section_title
;
Structure prediction by ZEFSAII (Michael W. Deem and Ramdas Pophale) SiO2 
 PCOD9396629
Probable space group: P B A N
;
_chemical_formula_sum "Si O2"
_cell_formula_units_Z 48
_cell_length_a 21.809518
_cell_length_b 21.536266
_cell_length_c 5.218002
_cell_angle_alpha 90.000000
_cell_angle_beta 90.000000
_cell_angle_gamma 90.000000
_cell_volume 2450.872481
_symmetry_space_group_name_H-M "P B A N"
_symmetry_group_IT_number 50
_space_group.IT_coordinate_system_code '2'
_symmetry_cell_setting 'orthorhombic'
loop_
_space_group_symop_operation_xyz
x,y,z
1/2-x,1/2-y,z
x,1/2-y,-z
1/2-x,y,-z
-x,-y,-z
1/2+x,1/2+y,-z
-x,1/2+y,z
1/2+x,-y,z
loop_
_atom_site_type_symbol
_atom_site_label
_atom_site_fract_x
_atom_site_fract_y
_atom_site_fract_z
Si Si1 0.989060 0.773240 0.751584
Si Si2 0.852468 0.782262 0.244476
Si Si3 0.323391 0.086208 0.018769
Si Si4 0.069254 0.542758 0.767253
Si Si5 0.823319 0.982431 0.515458
Si Si6 0.495656 0.584364 0.743267
O O1 0.022627 0.750000 0.500000
O O2 0.924572 0.735681 0.751075
O O3 0.977350 0.846536 0.760065
O O4 0.023757 0.750000 0.000000
O O5 0.827022 0.750000 0.500000
O O6 0.846769 0.853796 0.171053
O O7 0.822996 0.750000 0.000000
O O8 0.342305 0.032203 0.221873
O O9 0.250000 0.089853 0.000000
O O10 0.337286 0.073968 0.718623
O O11 0.137363 0.536224 0.650811
O O12 0.029691 0.574617 0.542352
O O13 0.042475 0.472312 0.792456
O O14 0.055769 0.576060 0.035676
O O15 0.750000 0.992077 0.500000
#
# Coordination Sequence:
#
# PCOD9396629 Si02
#       6
#     8   8   8   8   8   8
#     4  10  21  33  52  78 107 144 182 227 269 341
#     4  10  21  33  48  73  92 145 182 227 275 305
#     4  10  21  35  51  74 107 140 190 240 268 314
#     4  10  21  35  57  77 109 147 175 248 273 347
#     4  10  21  36  57  80 105 145 186 235 285 326
#     4  10  21  36  51  84 109 141 192 221 295 329
#
# _framework density 19.584862000000001
#
# number of rings (size 3 to 8) (size 9 to 14) (size 15 to 20)
#    0.000    2.000    0.000    3.000    9.333    0.333 
#    0.000    0.833    0.000    0.000    0.000    0.000 
#    0.000   10.000    0.000    0.000    0.000    0.000 
#
# Total GULP energy -267326.121167 kJ/mol
# GULP energy per Si atom -5569.294191 kJ/mol
# Density = 1.954029 g / cm^3
# Si number density = 19.584862 Si / 1000 Ang^3
#
#
#
# Elastic Constant Matrix: (Units=GPa)
#
#
# Indices 1 2 3 4 5 6 
#
# 1 54.5544 14.5622 19.6216 0.0000 0.0000 0.0000
# 2 14.5622 47.2996 10.0019 0.0000 0.0000 0.0000
# 3 19.6216 10.0019 117.9646 0.0000 0.0000 0.0000
# 4 0.0000 0.0000 0.0000 17.4255 0.0000 0.0000
# 5 0.0000 0.0000 0.0000 0.0000 7.6025 0.0000
# 6 0.0000 0.0000 0.0000 0.0000 0.0000 15.2583
#
#
#
# Elastic Compliance Matrix: (Units=1/GPa)
#
#
# Indices 1 2 3 4 5 6 
#
# 1 0.020960 -0.005820 -0.002993 0.000000 0.000000 0.000000
# 2 -0.005820 0.023144 -0.000994 0.000000 0.000000 0.000000
# 3 -0.002993 -0.000994 0.009059 0.000000 0.000000 0.000000
# 4 0.000000 0.000000 0.000000 0.057387 0.000000 0.000000
# 5 0.000000 0.000000 0.000000 0.000000 0.131535 0.000000
# 6 0.000000 0.000000 0.000000 0.000000 0.000000 0.065538
#
#
# Mechanical properties :
#
#
# Convention : Reuss Voigt Hill
#
# Bulk Modulus (GPa) = 29.80732 34.24333 32.02533
# Shear Modulus (GPa) = 14.77447 19.76613 17.27030
#
# Velocity S-wave (km/s) = 2.74958 3.18033 2.97277
# Velocity P-wave (km/s) = 5.03318 5.56853 5.30761
#
# Compressibility (1/GPa) = 0.03354880
#
# Stress axis : x y z
#
# Youngs Moduli (GPa) = 47.70897 43.20783 110.38445
#
# Poissons Ratio (x) = 0.25148 0.33038
# Poissons Ratio (y) = 0.27768 0.10974
# Poissons Ratio (z) = 0.14279 0.04296
#
# Static dielectric constant tensor:
#      x y z
#    x 1.752580 0.000000 0.000000 
#    y 0.000000 1.687360 0.000000 
#    z 0.000000 0.000000 2.088380 
# 
# From -- ./inp_files/5289.got.cif
#   From: 2010.05.17/outbox.cif.g08.bks.cpg/sg50_3_cif.got.tgz:5289.got - 2010.06.03 11:33:33.
