data_PCOD9396382
_publ_section_title
;
Structure prediction by ZEFSAII (Michael W. Deem and Ramdas Pophale) SiO2 
 PCOD9396382
Probable space group: P B A N
;
_chemical_formula_sum "Si O2"
_cell_formula_units_Z 64
_cell_length_a 22.004012
_cell_length_b 11.524447
_cell_length_c 12.024547
_cell_angle_alpha 90.000000
_cell_angle_beta 90.000000
_cell_angle_gamma 90.000000
_cell_volume 3049.233569
_symmetry_space_group_name_H-M "P B A N"
_symmetry_group_IT_number 50
_space_group.IT_coordinate_system_code '2'
_symmetry_cell_setting 'orthorhombic'
loop_
_space_group_symop_operation_xyz
x,y,z
1/2-x,1/2-y,z
x,1/2-y,-z
1/2-x,y,-z
-x,-y,-z
1/2+x,1/2+y,-z
-x,1/2+y,z
1/2+x,-y,z
loop_
_atom_site_type_symbol
_atom_site_label
_atom_site_fract_x
_atom_site_fract_y
_atom_site_fract_z
Si Si1 0.338489 0.108280 0.591684
Si Si2 0.201315 0.401622 0.346662
Si Si3 0.085819 0.034796 0.095415
Si Si4 0.052867 0.484072 0.155424
Si Si5 0.389816 0.256932 0.774861
Si Si6 0.622337 0.383177 0.707417
Si Si7 0.132091 0.874479 0.670702
Si Si8 0.967849 0.124258 0.522463
O O1 0.336436 0.127090 0.460054
O O2 0.270352 0.133122 0.634248
O O3 0.388576 0.177537 0.663131
O O4 0.345694 0.975336 0.627182
O O5 0.169916 0.335708 0.244748
O O6 0.188912 0.538596 0.336206
O O7 0.110087 0.161749 0.128704
O O8 0.119474 0.939176 0.170748
O O9 0.085965 0.015867 0.964291
O O10 0.015551 0.025459 0.134383
O O11 0.058947 0.353103 0.203551
O O12 0.086974 0.569836 0.238472
O O13 0.649248 0.255536 0.702259
O O14 0.556006 0.374932 0.648953
O O15 0.090891 0.872156 0.559419
O O16 0.999305 0.250000 0.500000
O O17 0.000000 0.000000 0.500000
#
# Coordination Sequence:
#
# PCOD9396382 Si02
#       8
#     8   8   8   8   8   8   8   8
#     4  10  20  37  62  90 120 157 201 246 302 363
#     4  10  20  37  62  90 120 157 201 246 302 363
#     4  10  22  39  60  85 113 154 204 245 292 354
#     4  10  22  39  60  85 113 154 204 245 292 354
#     4  10  21  37  60  87 120 147 192 250 310 343
#     4  10  21  37  56  84 122 155 196 250 302 355
#     4  10  21  37  56  84 122 155 196 250 302 355
#     4  10  20  38  55  81 124 168 205 251 316 385
#
# _framework density 20.988880000000002
#
# number of rings (size 3 to 8) (size 9 to 14) (size 15 to 20)
#    0.000    2.000    1.250    1.875    1.750    2.000 
#   13.500    1.250    0.000   30.750    0.000    7.000 
#    0.000    0.000    0.000    0.000    0.000    0.000 
#
# Total GULP energy -357081.918092 kJ/mol
# GULP energy per Si atom -5579.404970 kJ/mol
# Density = 2.094111 g / cm^3
# Si number density = 20.988880 Si / 1000 Ang^3
#
#
#
# Elastic Constant Matrix: (Units=GPa)
#
#
# Indices 1 2 3 4 5 6 
#
# 1 24.1486 15.3708 23.7198 0.0000 0.0000 0.0000
# 2 15.3708 168.9911 29.4455 0.0000 0.0000 0.0000
# 3 23.7198 29.4455 105.3858 0.0000 0.0000 0.0000
# 4 0.0000 0.0000 0.0000 17.4512 0.0000 0.0000
# 5 0.0000 0.0000 0.0000 0.0000 19.5986 0.0000
# 6 0.0000 0.0000 0.0000 0.0000 0.0000 19.9683
#
#
#
# Elastic Compliance Matrix: (Units=1/GPa)
#
#
# Indices 1 2 3 4 5 6 
#
# 1 0.054543 -0.002966 -0.011447 0.000000 0.000000 0.000000
# 2 -0.002966 0.006382 -0.001115 0.000000 0.000000 0.000000
# 3 -0.011447 -0.001115 0.012377 0.000000 0.000000 0.000000
# 4 0.000000 0.000000 0.000000 0.057302 0.000000 0.000000
# 5 0.000000 0.000000 0.000000 0.000000 0.051024 0.000000
# 6 0.000000 0.000000 0.000000 0.000000 0.000000 0.050079
#
#
# Mechanical properties :
#
#
# Convention : Reuss Voigt Hill
#
# Bulk Modulus (GPa) = 23.67257 48.39976 36.03617
# Shear Modulus (GPa) = 18.06053 26.73625 22.39839
#
# Velocity S-wave (km/s) = 2.93658 3.57295 3.27028
# Velocity P-wave (km/s) = 4.77505 6.33491 5.60946
#
# Compressibility (1/GPa) = 0.04224299
#
# Stress axis : x y z
#
# Youngs Moduli (GPa) = 18.33428 156.69969 80.79409
#
# Poissons Ratio (x) = 0.46483 0.92488
# Poissons Ratio (y) = 0.05439 0.09012
# Poissons Ratio (z) = 0.20988 0.17478
#
# Static dielectric constant tensor:
#      x y z
#    x 1.772360 0.000000 0.000000 
#    y 0.000000 1.831500 0.000000 
#    z 0.000000 0.000000 1.776120 
# 
# From -- ./inp_files/22890.got.cif
#   From: 2010.05.17/outbox.cif.g08.bks.cpg/sg50_12_cif.got.tgz:22890.got - 2010.06.03 11:33:33.
