data_PCOD9396492
_publ_section_title
;
Structure prediction by ZEFSAII (Michael W. Deem and Ramdas Pophale) SiO2 
 PCOD9396492
Probable space group: P B A N
;
_chemical_formula_sum "Si O2"
_cell_formula_units_Z 64
_cell_length_a 19.314466
_cell_length_b 19.229816
_cell_length_c 9.321938
_cell_angle_alpha 90.000000
_cell_angle_beta 90.000000
_cell_angle_gamma 90.000000
_cell_volume 3462.294806
_symmetry_space_group_name_H-M "P B A N"
_symmetry_group_IT_number 50
_space_group.IT_coordinate_system_code '2'
_symmetry_cell_setting 'orthorhombic'
loop_
_space_group_symop_operation_xyz
x,y,z
1/2-x,1/2-y,z
x,1/2-y,-z
1/2-x,y,-z
-x,-y,-z
1/2+x,1/2+y,-z
-x,1/2+y,z
1/2+x,-y,z
loop_
_atom_site_type_symbol
_atom_site_label
_atom_site_fract_x
_atom_site_fract_y
_atom_site_fract_z
Si Si1 0.410296 0.636853 0.794311
Si Si2 0.978781 0.825919 0.569779
Si Si3 0.631625 0.991900 0.686454
Si Si4 0.609396 0.953054 0.367727
Si Si5 0.506407 0.074844 0.312754
Si Si6 0.831033 0.257064 0.658244
Si Si7 0.277297 0.994111 0.843434
Si Si8 0.623088 0.137672 0.124089
O O1 0.474523 0.674184 0.714322
O O2 0.408886 0.556053 0.759482
O O3 0.344773 0.665781 0.709462
O O4 0.395110 0.652893 0.959390
O O5 0.966942 0.750000 0.500000
O O6 0.911727 0.873040 0.607726
O O7 0.015724 0.874377 0.449336
O O8 0.708370 0.997304 0.748765
O O9 0.638502 0.987309 0.514203
O O10 0.575625 0.930469 0.717460
O O11 0.540183 0.999486 0.344673
O O12 0.661913 0.963321 0.236516
O O13 0.553462 0.103897 0.186824
O O14 0.750000 0.250000 0.648269
O O15 0.863037 0.250000 0.500000
O O16 0.859352 0.203329 0.775796
O O17 0.313448 0.917772 0.862474
O O18 0.250000 0.016110 0.000000
#
# Coordination Sequence:
#
# PCOD9396492 Si02
#       8
#     8   8   8   8   8   8   8   8
#     4  12  21  35  58  83 121 157 203 245 310 363
#     4  11  21  38  64  93 119 160 212 258 311 379
#     4  11  20  36  59  86 113 159 201 255 311 364
#     4  10  21  39  61  88 126 158 201 266 319 368
#     4  10  20  39  60  86 123 155 202 259 309 368
#     4  11  25  39  54  77 116 168 208 240 290 368
#     4  11  23  37  58  90 122 158 207 262 316 380
#     4  11  24  38  55  86 126 162 204 252 314 373
#
# _framework density 18.484850999999999
#
# number of rings (size 3 to 8) (size 9 to 14) (size 15 to 20)
#    0.000    1.125    3.750    4.125    1.750    2.000 
#    0.000    0.000    0.000    6.000    0.000    3.500 
#    0.000    0.000    0.000    0.000    0.000    0.000 
#
# Total GULP energy -356542.206136 kJ/mol
# GULP energy per Si atom -5570.971971 kJ/mol
# Density = 1.844278 g / cm^3
# Si number density = 18.484851 Si / 1000 Ang^3
#
#
#
# Elastic Constant Matrix: (Units=GPa)
#
#
# Indices 1 2 3 4 5 6 
#
# 1 91.9158 29.7966 47.3056 0.0000 0.0000 0.0000
# 2 29.7966 76.1321 29.7713 0.0000 0.0000 0.0000
# 3 47.3056 29.7713 122.8027 0.0000 0.0000 0.0000
# 4 0.0000 0.0000 0.0000 20.4249 0.0000 0.0000
# 5 0.0000 0.0000 0.0000 0.0000 20.1410 0.0000
# 6 0.0000 0.0000 0.0000 0.0000 0.0000 22.1247
#
#
#
# Elastic Compliance Matrix: (Units=1/GPa)
#
#
# Indices 1 2 3 4 5 6 
#
# 1 0.014531 -0.003865 -0.004661 0.000000 0.000000 0.000000
# 2 -0.003865 0.015539 -0.002278 0.000000 0.000000 0.000000
# 3 -0.004661 -0.002278 0.010491 0.000000 0.000000 0.000000
# 4 0.000000 0.000000 0.000000 0.048960 0.000000 0.000000
# 5 0.000000 0.000000 0.000000 0.000000 0.049650 0.000000
# 6 0.000000 0.000000 0.000000 0.000000 0.000000 0.045198
#
#
# Mechanical properties :
#
#
# Convention : Reuss Voigt Hill
#
# Bulk Modulus (GPa) = 52.76162 56.06639 54.41401
# Shear Modulus (GPa) = 23.55228 24.80324 24.17776
#
# Velocity S-wave (km/s) = 3.57338 3.66705 3.62052
# Velocity P-wave (km/s) = 6.75504 6.95173 6.85409
#
# Compressibility (1/GPa) = 0.01895317
#
# Stress axis : x y z
#
# Youngs Moduli (GPa) = 68.81840 64.35621 95.32114
#
# Poissons Ratio (x) = 0.24871 0.44426
# Poissons Ratio (y) = 0.26596 0.21717
# Poissons Ratio (z) = 0.32074 0.14662
#
# Static dielectric constant tensor:
#      x y z
#    x 1.549030 0.000000 0.000000 
#    y 0.000000 1.656970 0.000000 
#    z 0.000000 0.000000 1.670400 
# 
# From -- ./inp_files/14601.got.cif
#   From: 2010.05.17/outbox.cif.g08.bks.cpg/sg50_8_cif.got.tgz:14601.got - 2010.06.03 11:33:33.
