data_PCOD9396884
_publ_section_title
;
Structure prediction by ZEFSAII (Michael W. Deem and Ramdas Pophale) SiO2 
 PCOD9396884
Probable space group: P B A N
;
_chemical_formula_sum "Si O2"
_cell_formula_units_Z 32
_cell_length_a 13.076947
_cell_length_b 19.033831
_cell_length_c 5.717788
_cell_angle_alpha 90.000000
_cell_angle_beta 90.000000
_cell_angle_gamma 90.000000
_cell_volume 1423.182587
_symmetry_space_group_name_H-M "P B A N"
_symmetry_group_IT_number 50
_space_group.IT_coordinate_system_code '2'
_symmetry_cell_setting 'orthorhombic'
loop_
_space_group_symop_operation_xyz
x,y,z
1/2-x,1/2-y,z
x,1/2-y,-z
1/2-x,y,-z
-x,-y,-z
1/2+x,1/2+y,-z
-x,1/2+y,z
1/2+x,-y,z
loop_
_atom_site_type_symbol
_atom_site_label
_atom_site_fract_x
_atom_site_fract_y
_atom_site_fract_z
Si Si1 0.465036 0.448376 0.709481
Si Si2 0.788268 0.669796 0.246377
Si Si3 0.360197 0.567889 0.899280
Si Si4 0.989683 0.174164 0.399843
O O1 0.500000 0.500000 0.500000
O O2 0.364074 0.489825 0.788201
O O3 0.463372 0.370481 0.612856
O O4 0.553767 0.442340 0.902323
O O5 0.750000 0.750000 0.251277
O O6 0.750000 0.639813 0.500000
O O7 0.911506 0.675157 0.232867
O O8 0.750000 0.638355 0.000000
O O9 0.400893 0.628412 0.723038
O O10 0.250000 0.585188 0.000000
O O11 0.959666 0.250000 0.500000
#
# Coordination Sequence:
#
# PCOD9396884 Si02
#       4
#     8   8   8   8
#     4   9  22  45  66  94 134 180 241 297 363 436
#     4  10  21  39  61  97 148 184 227 285 369 454
#     4  10  23  47  70  97 136 193 250 303 362 450
#     4  11  23  42  66 104 144 186 236 311 377 453
#
# _framework density 22.484815999999999
#
# number of rings (size 3 to 8) (size 9 to 14) (size 15 to 20)
#    0.000    2.000    2.500    0.000    3.500    5.000 
#   13.500    5.000    0.000    0.000    0.000    0.000 
#    0.000    0.000    0.000    0.000    0.000    0.000 
#
# Total GULP energy -178366.871745 kJ/mol
# GULP energy per Si atom -5573.964742 kJ/mol
# Density = 2.243364 g / cm^3
# Si number density = 22.484816 Si / 1000 Ang^3
#
#
#
# Elastic Constant Matrix: (Units=GPa)
#
#
# Indices 1 2 3 4 5 6 
#
# 1 134.0740 56.5802 34.1979 0.0000 0.0000 0.0000
# 2 56.5802 159.3174 55.4235 0.0000 0.0000 0.0000
# 3 34.1979 55.4235 122.7102 0.0000 0.0000 0.0000
# 4 0.0000 0.0000 0.0000 15.1070 0.0000 0.0000
# 5 0.0000 0.0000 0.0000 0.0000 33.0979 0.0000
# 6 0.0000 0.0000 0.0000 0.0000 0.0000 29.1899
#
#
#
# Elastic Compliance Matrix: (Units=1/GPa)
#
#
# Indices 1 2 3 4 5 6 
#
# 1 0.008933 -0.002736 -0.001254 0.000000 0.000000 0.000000
# 2 -0.002736 0.008285 -0.002979 0.000000 0.000000 0.000000
# 3 -0.001254 -0.002979 0.009844 0.000000 0.000000 0.000000
# 4 0.000000 0.000000 0.000000 0.066195 0.000000 0.000000
# 5 0.000000 0.000000 0.000000 0.000000 0.030213 0.000000
# 6 0.000000 0.000000 0.000000 0.000000 0.000000 0.034258
#
#
# Mechanical properties :
#
#
# Convention : Reuss Voigt Hill
#
# Bulk Modulus (GPa) = 76.19865 78.72275 77.46070
# Shear Modulus (GPa) = 28.40226 33.47230 30.93728
#
# Velocity S-wave (km/s) = 3.55797 3.86250 3.71336
# Velocity P-wave (km/s) = 7.13032 7.41481 7.27396
#
# Compressibility (1/GPa) = 0.01312359
#
# Stress axis : x y z
#
# Youngs Moduli (GPa) = 111.94312 120.69888 101.58107
#
# Poissons Ratio (x) = 0.33028 0.12734
# Poissons Ratio (y) = 0.30632 0.30266
# Poissons Ratio (z) = 0.14033 0.35962
#
# Static dielectric constant tensor:
#      x y z
#    x 1.886510 0.000000 0.000000 
#    y 0.000000 1.843460 0.000000 
#    z 0.000000 0.000000 2.110310 
# 
# From -- ./inp_files/1981.got.cif
#   From: 2010.05.17/outbox.cif.g08.bks.cpg/sg50_1_cif.got.tgz:1981.got - 2010.06.03 11:33:33.
