data_PCOD9396665
_publ_section_title
;
Structure prediction by ZEFSAII (Michael W. Deem and Ramdas Pophale) SiO2 
 PCOD9396665
Probable space group: P B A N
;
_chemical_formula_sum "Si O2"
_cell_formula_units_Z 40
_cell_length_a 13.073205
_cell_length_b 17.590664
_cell_length_c 9.217148
_cell_angle_alpha 90.000000
_cell_angle_beta 90.000000
_cell_angle_gamma 90.000000
_cell_volume 2119.633943
_symmetry_space_group_name_H-M "P B A N"
_symmetry_group_IT_number 50
_space_group.IT_coordinate_system_code '2'
_symmetry_cell_setting 'orthorhombic'
loop_
_space_group_symop_operation_xyz
x,y,z
1/2-x,1/2-y,z
x,1/2-y,-z
1/2-x,y,-z
-x,-y,-z
1/2+x,1/2+y,-z
-x,1/2+y,z
1/2+x,-y,z
loop_
_atom_site_type_symbol
_atom_site_label
_atom_site_fract_x
_atom_site_fract_y
_atom_site_fract_z
Si Si1 0.706750 0.534358 0.657050
Si Si2 0.108855 0.769419 0.831608
Si Si3 0.846537 0.517565 0.910990
Si Si4 0.031339 0.404093 0.839437
Si Si5 0.788161 0.353142 0.335931
O O1 0.750000 0.552123 0.500000
O O2 0.793592 0.555507 0.773389
O O3 0.600061 0.571387 0.703232
O O4 0.693631 0.442812 0.670498
O O5 0.117340 0.695896 0.726960
O O6 0.197255 0.824725 0.768864
O O7 0.005859 0.818168 0.826208
O O8 0.127457 0.750000 0.000000
O O9 0.931437 0.457434 0.860432
O O10 0.750000 0.482138 0.000000
O O11 0.900788 0.576482 0.019245
O O12 0.750000 0.336163 0.500000
#
# Coordination Sequence:
#
# PCOD9396665 Si02
#       5
#     8   8   8   8   8
#     4  10  21  38  61  89 121 155 198 247 303 359
#     4  11  22  33  56  86 116 153 197 238 300 367
#     4   9  19  34  56  80 120 151 193 249 289 340
#     4  10  21  35  57  88 117 154 202 242 306 351
#     4  10  21  38  56  86 128 154 179 245 313 361
#
# _framework density 18.871184
#
# number of rings (size 3 to 8) (size 9 to 14) (size 15 to 20)
#    0.000    2.000    2.000    2.400    8.400    0.800 
#    0.000    2.000    0.000    5.400    0.000    1.400 
#    0.000    0.000    0.000    0.000    0.000    0.000 
#
# Total GULP energy -223029.567445 kJ/mol
# GULP energy per Si atom -5575.739186 kJ/mol
# Density = 1.882823 g / cm^3
# Si number density = 18.871184 Si / 1000 Ang^3
#
#
#
# Elastic Constant Matrix: (Units=GPa)
#
#
# Indices 1 2 3 4 5 6 
#
# 1 111.1134 36.7321 63.9461 0.0000 0.0000 0.0000
# 2 36.7321 63.6145 41.3095 0.0000 0.0000 0.0000
# 3 63.9461 41.3095 147.6611 0.0000 0.0000 0.0000
# 4 0.0000 0.0000 0.0000 12.5913 0.0000 0.0000
# 5 0.0000 0.0000 0.0000 0.0000 15.5103 0.0000
# 6 0.0000 0.0000 0.0000 0.0000 0.0000 35.2909
#
#
#
# Elastic Compliance Matrix: (Units=1/GPa)
#
#
# Indices 1 2 3 4 5 6 
#
# 1 0.013055 -0.004725 -0.004332 0.000000 0.000000 0.000000
# 2 -0.004725 0.020920 -0.003806 0.000000 0.000000 0.000000
# 3 -0.004332 -0.003806 0.009713 0.000000 0.000000 0.000000
# 4 0.000000 0.000000 0.000000 0.079420 0.000000 0.000000
# 5 0.000000 0.000000 0.000000 0.000000 0.064473 0.000000
# 6 0.000000 0.000000 0.000000 0.000000 0.000000 0.028336
#
#
# Mechanical properties :
#
#
# Convention : Reuss Voigt Hill
#
# Bulk Modulus (GPa) = 55.67479 67.37380 61.52429
# Shear Modulus (GPa) = 20.19144 24.70525 22.44834
#
# Velocity S-wave (km/s) = 3.27458 3.62215 3.45274
# Velocity P-wave (km/s) = 6.62297 7.29882 6.96909
#
# Compressibility (1/GPa) = 0.01796145
#
# Stress axis : x y z
#
# Youngs Moduli (GPa) = 76.60075 47.80174 102.95590
#
# Poissons Ratio (x) = 0.22587 0.44596
# Poissons Ratio (y) = 0.36196 0.39187
# Poissons Ratio (z) = 0.33180 0.18194
#
# Static dielectric constant tensor:
#      x y z
#    x 1.678300 0.000000 0.000000 
#    y 0.000000 1.674870 0.000000 
#    z 0.000000 0.000000 1.679500 
# 
# From -- ./inp_files/11328.got.cif
#   From: 2010.05.17/outbox.cif.g08.bks.cpg/sg50_6_cif.got.tgz:11328.got - 2010.06.03 11:33:33.
