data_PCOD9396476
_publ_section_title
;
Structure prediction by ZEFSAII (Michael W. Deem and Ramdas Pophale) SiO2 
 PCOD9396476
Probable space group: P B A N
;
_chemical_formula_sum "Si O2"
_cell_formula_units_Z 24
_cell_length_a 25.341760
_cell_length_b 7.705841
_cell_length_c 5.331100
_cell_angle_alpha 90.000000
_cell_angle_beta 90.000000
_cell_angle_gamma 90.000000
_cell_volume 1041.054933
_symmetry_space_group_name_H-M "P B A N"
_symmetry_group_IT_number 50
_space_group.IT_coordinate_system_code '2'
_symmetry_cell_setting 'orthorhombic'
loop_
_space_group_symop_operation_xyz
x,y,z
1/2-x,1/2-y,z
x,1/2-y,-z
1/2-x,y,-z
-x,-y,-z
1/2+x,1/2+y,-z
-x,1/2+y,z
1/2+x,-y,z
loop_
_atom_site_type_symbol
_atom_site_label
_atom_site_fract_x
_atom_site_fract_y
_atom_site_fract_z
Si Si1 0.973187 0.750000 0.000000
Si Si2 0.772754 0.949000 0.249179
Si Si3 0.544320 0.250000 0.500000
Si Si4 0.396043 0.423514 0.668341
O O1 0.932696 0.599047 0.914817
O O2 0.008517 0.765458 0.750128
O O3 0.750000 0.750000 0.249486
O O4 0.750000 0.031246 0.500000
O O5 0.835632 0.946963 0.254420
O O6 0.750000 0.032150 0.000000
O O7 0.580699 0.419404 0.493020
O O8 0.398896 0.250000 0.500000
#
# Coordination Sequence:
#
# PCOD9396476 Si02
#       4
#     4   8   4   8
#     4  12  26  48  69 102 147 192 232 292 352 426
#     4  10  20  38  66  99 126 170 233 279 341 424
#     4  12  30  44  67 110 143 180 250 286 344 436
#     4  12  26  45  76 100 143 191 232 297 361 416
#
# _framework density 23.053540000000002
#
# number of rings (size 3 to 8) (size 9 to 14) (size 15 to 20)
#    0.000    0.667    5.000    4.000    4.667    0.000 
#    0.000    0.833    0.000    4.000    0.000    0.000 
#    0.000    0.000    0.000    0.000    0.000    0.000 
#
# Total GULP energy -134241.089881 kJ/mol
# GULP energy per Si atom -5593.378745 kJ/mol
# Density = 2.300107 g / cm^3
# Si number density = 23.053540 Si / 1000 Ang^3
#
#
#
# Elastic Constant Matrix: (Units=GPa)
#
#
# Indices 1 2 3 4 5 6 
#
# 1 236.4582 74.7424 101.0587 0.0000 0.0000 0.0000
# 2 74.7424 106.0061 53.8060 0.0000 0.0000 0.0000
# 3 101.0587 53.8060 227.5720 0.0000 0.0000 0.0000
# 4 0.0000 0.0000 0.0000 16.8226 0.0000 0.0000
# 5 0.0000 0.0000 0.0000 0.0000 15.9916 0.0000
# 6 0.0000 0.0000 0.0000 0.0000 0.0000 -33.7087
#
#
#
# Elastic Compliance Matrix: (Units=1/GPa)
#
#
# Indices 1 2 3 4 5 6 
#
# 1 0.006103 -0.003326 -0.001924 0.000000 0.000000 0.000000
# 2 -0.003326 0.012533 -0.001486 0.000000 0.000000 0.000000
# 3 -0.001924 -0.001486 0.005600 0.000000 0.000000 0.000000
# 4 0.000000 0.000000 0.000000 0.059444 0.000000 0.000000
# 5 0.000000 0.000000 0.000000 0.000000 0.062533 0.000000
# 6 0.000000 0.000000 0.000000 0.000000 0.000000 -0.029666
#
#
# Mechanical properties :
#
#
# Convention : Reuss Voigt Hill
#
# Bulk Modulus (GPa) = 92.90767 114.36117 103.63442
# Shear Modulus (GPa) = 37.42345 22.51640 29.96993
#
# Velocity S-wave (km/s) = 4.03343 3.12861 3.60948
# Velocity P-wave (km/s) = 7.87907 7.92246 7.90079
#
# Compressibility (1/GPa) = 0.01076337
#
# Stress axis : x y z
#
# Youngs Moduli (GPa) = 163.86356 79.78846 178.57926
#
# Poissons Ratio (x) = 0.26542 0.34350
# Poissons Ratio (y) = 0.54509 0.26538
# Poissons Ratio (z) = 0.31519 0.11857
#
# Static dielectric constant tensor:
#      x y z
#    x 1.828150 0.000000 0.000000 
#    y 0.000000 1.874790 0.000000 
#    z 0.000000 0.000000 1.886200 
# 
# From -- ./inp_files/852.got.cif
#   From: 2010.05.17/outbox.cif.g08.bks.cpg/sg50_1_cif.got.tgz:852.got - 2010.06.03 11:33:33.
