data_PCOD9396071
_publ_section_title
;
Structure prediction by ZEFSAII (Michael W. Deem and Ramdas Pophale) SiO2 
 PCOD9396071
Probable space group: P B A N
;
_chemical_formula_sum "Si O2"
_cell_formula_units_Z 28
_cell_length_a 8.622850
_cell_length_b 28.620448
_cell_length_c 5.445307
_cell_angle_alpha 90.000000
_cell_angle_beta 90.000000
_cell_angle_gamma 90.000000
_cell_volume 1343.846389
_symmetry_space_group_name_H-M "P B A N"
_symmetry_group_IT_number 50
_space_group.IT_coordinate_system_code '2'
_symmetry_cell_setting 'orthorhombic'
loop_
_space_group_symop_operation_xyz
x,y,z
1/2-x,1/2-y,z
x,1/2-y,-z
1/2-x,y,-z
-x,-y,-z
1/2+x,1/2+y,-z
-x,1/2+y,z
1/2+x,-y,z
loop_
_atom_site_type_symbol
_atom_site_label
_atom_site_fract_x
_atom_site_fract_y
_atom_site_fract_z
Si Si1 0.017086 0.043496 0.323175
Si Si2 0.938889 0.303882 0.995840
Si Si3 0.250000 0.995788 0.000000
Si Si4 0.561459 0.356415 0.503687
O O1 0.001856 0.091605 0.465411
O O2 0.879989 0.037326 0.121381
O O3 0.000000 0.000000 0.500000
O O4 0.176667 0.031416 0.192977
O O5 0.986498 0.332104 0.240796
O O6 0.989833 0.250000 0.000000
O O7 0.750000 0.303753 0.000000
O O8 0.985937 0.327515 0.739273
O O9 0.750000 0.358961 0.500000
#
# Coordination Sequence:
#
# PCOD9396071 Si02
#       4
#     8   8   4   8
#     4  11  23  39  58  87 123 163 205 253 302 368
#     4   9  18  32  50  80 117 153 194 242 302 364
#     4  10  24  38  60  80 128 162 210 252 304 356
#     4  10  20  31  56  81 117 160 194 241 305 362
#
# _framework density 20.835712999999998
#
# number of rings (size 3 to 8) (size 9 to 14) (size 15 to 20)
#    0.000    2.000    0.000    3.429   14.000    3.429 
#    0.000    0.000    0.000    0.000    0.000    1.000 
#    0.000    0.000    0.000    0.000    0.000    0.000 
#
# Total GULP energy -156418.760434 kJ/mol
# GULP energy per Si atom -5586.384301 kJ/mol
# Density = 2.078829 g / cm^3
# Si number density = 20.835713 Si / 1000 Ang^3
#
#
#
# Elastic Constant Matrix: (Units=GPa)
#
#
# Indices 1 2 3 4 5 6 
#
# 1 8.2874 7.0796 5.6488 0.0000 0.0000 0.0000
# 2 7.0796 205.6283 101.1091 0.0000 0.0000 0.0000
# 3 5.6488 101.1091 162.4123 0.0000 0.0000 0.0000
# 4 0.0000 0.0000 0.0000 43.7364 0.0000 0.0000
# 5 0.0000 0.0000 0.0000 0.0000 21.2421 0.0000
# 6 0.0000 0.0000 0.0000 0.0000 0.0000 16.6217
#
#
#
# Elastic Compliance Matrix: (Units=1/GPa)
#
#
# Indices 1 2 3 4 5 6 
#
# 1 0.124969 -0.003121 -0.002404 0.000000 0.000000 0.000000
# 2 -0.003121 0.007086 -0.004303 0.000000 0.000000 0.000000
# 3 -0.002404 -0.004303 0.008920 0.000000 0.000000 0.000000
# 4 0.000000 0.000000 0.000000 0.022864 0.000000 0.000000
# 5 0.000000 0.000000 0.000000 0.000000 0.047076 0.000000
# 6 0.000000 0.000000 0.000000 0.000000 0.000000 0.060162
#
#
# Mechanical properties :
#
#
# Convention : Reuss Voigt Hill
#
# Bulk Modulus (GPa) = 8.24265 67.11145 37.67705
# Shear Modulus (GPa) = 15.09785 33.81941 24.45863
#
# Velocity S-wave (km/s) = 2.69479 4.03320 3.42991
# Velocity P-wave (km/s) = 3.69420 7.34634 5.81445
#
# Compressibility (1/GPa) = 0.12132021
#
# Stress axis : x y z
#
# Youngs Moduli (GPa) = 8.00198 141.11422 112.11197
#
# Poissons Ratio (x) = 0.44037 0.26949
# Poissons Ratio (y) = 0.02497 0.48243
# Poissons Ratio (z) = 0.01923 0.60723
#
# Static dielectric constant tensor:
#      x y z
#    x 1.779920 0.000000 0.000000 
#    y 0.000000 1.694700 0.000000 
#    z 0.000000 0.000000 1.741810 
# 
# From -- ./inp_files/825.got.cif
#   From: 2010.05.17/outbox.cif.g08.bks.cpg/sg50_1_cif.got.tgz:825.got - 2010.06.03 11:33:33.
