data_PCOD9396256
_publ_section_title
;
Structure prediction by ZEFSAII (Michael W. Deem and Ramdas Pophale) SiO2 
 PCOD9396256
Probable space group: P B A N
;
_chemical_formula_sum "Si O2"
_cell_formula_units_Z 26
_cell_length_a 14.238837
_cell_length_b 18.111041
_cell_length_c 5.140348
_cell_angle_alpha 90.000000
_cell_angle_beta 90.000000
_cell_angle_gamma 90.000000
_cell_volume 1325.593768
_symmetry_space_group_name_H-M "P B A N"
_symmetry_group_IT_number 50
_space_group.IT_coordinate_system_code '2'
_symmetry_cell_setting 'orthorhombic'
loop_
_space_group_symop_operation_xyz
x,y,z
1/2-x,1/2-y,z
x,1/2-y,-z
1/2-x,y,-z
-x,-y,-z
1/2+x,1/2+y,-z
-x,1/2+y,z
1/2+x,-y,z
loop_
_atom_site_type_symbol
_atom_site_label
_atom_site_fract_x
_atom_site_fract_y
_atom_site_fract_z
Si Si1 0.114420 0.357669 0.196720
Si Si2 0.023173 0.401417 0.688069
Si Si3 0.850223 0.488828 0.596074
Si Si4 0.750000 0.750000 0.500000
O O1 0.031883 0.360602 0.412212
O O2 0.162283 0.438601 0.225078
O O3 0.187699 0.299842 0.308296
O O4 0.070594 0.353343 0.912709
O O5 0.087742 0.474912 0.639737
O O6 0.918329 0.429979 0.731428
O O7 0.750000 0.461834 0.500000
#
# Coordination Sequence:
#
# PCOD9396256 Si02
#       4
#     8   8   8   2
#     4  10  20  36  47  78 112 150 191 233 297 354
#     4   9  20  35  50  74 118 144 187 246 287 353
#     4   9  18  33  55  78 108 152 191 237 296 355
#     4  12  24  34  60  78 118 166 200 244 304 402
#
# _framework density 19.613851
#
# number of rings (size 3 to 8) (size 9 to 14) (size 15 to 20)
#    1.846    0.615    1.538    0.923    0.000    7.385 
#    0.000    0.000    0.000    0.000    0.000    1.077 
#    0.000    4.923    0.000    0.000    0.000    0.000 
#
# Total GULP energy -144770.131393 kJ/mol
# GULP energy per Si atom -5568.081977 kJ/mol
# Density = 1.956921 g / cm^3
# Si number density = 19.613851 Si / 1000 Ang^3
#
#
#
# Elastic Constant Matrix: (Units=GPa)
#
#
# Indices 1 2 3 4 5 6 
#
# 1 111.2003 16.5557 8.8868 0.0000 0.0000 0.0000
# 2 16.5557 26.0047 3.3862 0.0000 0.0000 0.0000
# 3 8.8868 3.3862 91.3605 0.0000 0.0000 0.0000
# 4 0.0000 0.0000 0.0000 7.4913 0.0000 0.0000
# 5 0.0000 0.0000 0.0000 0.0000 13.8045 0.0000
# 6 0.0000 0.0000 0.0000 0.0000 0.0000 11.5948
#
#
#
# Elastic Compliance Matrix: (Units=1/GPa)
#
#
# Indices 1 2 3 4 5 6 
#
# 1 0.009984 -0.006260 -0.000739 0.000000 0.000000 0.000000
# 2 -0.006260 0.042566 -0.000969 0.000000 0.000000 0.000000
# 3 -0.000739 -0.000969 0.011053 0.000000 0.000000 0.000000
# 4 0.000000 0.000000 0.000000 0.133488 0.000000 0.000000
# 5 0.000000 0.000000 0.000000 0.000000 0.072440 0.000000
# 6 0.000000 0.000000 0.000000 0.000000 0.000000 0.086246
#
#
# Mechanical properties :
#
#
# Convention : Reuss Voigt Hill
#
# Bulk Modulus (GPa) = 20.97856 31.80256 26.39056
# Shear Modulus (GPa) = 12.89986 19.89392 16.39689
#
# Velocity S-wave (km/s) = 2.56733 3.18823 2.89448
# Velocity P-wave (km/s) = 4.41670 5.45918 4.96537
#
# Compressibility (1/GPa) = 0.04766772
#
# Stress axis : x y z
#
# Youngs Moduli (GPa) = 100.16189 23.49292 90.46951
#
# Poissons Ratio (x) = 0.14706 0.06687
# Poissons Ratio (y) = 0.62700 0.08764
# Poissons Ratio (z) = 0.07403 0.02276
#
# Static dielectric constant tensor:
#      x y z
#    x 1.686400 0.000000 0.000000 
#    y 0.000000 1.724540 0.000000 
#    z 0.000000 0.000000 1.751260 
# 
# From -- ./inp_files/3112.got.cif
#   From: 2010.05.17/outbox.cif.g08.bks.cpg/sg50_2_cif.got.tgz:3112.got - 2010.06.03 11:33:33.
