data_PCOD9396062
_publ_section_title
;
Structure prediction by ZEFSAII (Michael W. Deem and Ramdas Pophale) SiO2 
 PCOD9396062
Probable space group: P B A N
;
_chemical_formula_sum "Si O2"
_cell_formula_units_Z 52
_cell_length_a 9.917388
_cell_length_b 26.670272
_cell_length_c 11.526821
_cell_angle_alpha 90.000000
_cell_angle_beta 90.000000
_cell_angle_gamma 90.000000
_cell_volume 3048.837647
_symmetry_space_group_name_H-M "P B A N"
_symmetry_group_IT_number 50
_space_group.IT_coordinate_system_code '2'
_symmetry_cell_setting 'orthorhombic'
loop_
_space_group_symop_operation_xyz
x,y,z
1/2-x,1/2-y,z
x,1/2-y,-z
1/2-x,y,-z
-x,-y,-z
1/2+x,1/2+y,-z
-x,1/2+y,z
1/2+x,-y,z
loop_
_atom_site_type_symbol
_atom_site_label
_atom_site_fract_x
_atom_site_fract_y
_atom_site_fract_z
Si Si1 0.556359 0.325474 0.688499
Si Si2 0.087013 0.251531 0.136531
Si Si3 0.480658 0.250000 0.500000
Si Si4 0.424724 0.328214 0.318086
Si Si5 0.692482 0.113238 0.630941
Si Si6 0.188651 0.396285 0.370079
Si Si7 0.627192 0.004094 0.587994
O O1 0.489254 0.297359 0.798960
O O2 0.569641 0.282651 0.589435
O O3 0.691928 0.357983 0.704075
O O4 0.444141 0.363169 0.638859
O O5 0.250000 0.250000 0.155299
O O6 0.040240 0.201542 0.201970
O O7 0.061648 0.250000 0.000000
O O8 0.393155 0.286439 0.416982
O O9 0.556586 0.355572 0.363240
O O10 0.304790 0.367577 0.299766
O O11 0.750000 0.112954 0.500000
O O12 0.645652 0.056008 0.657365
O O13 0.250000 0.397010 0.500000
O O14 0.146147 0.453021 0.339732
O O15 0.750000 0.004615 0.500000
O O16 0.500000 0.000000 0.500000
#
# Coordination Sequence:
#
# PCOD9396062 Si02
#       7
#     8   8   4   8   8   8   8
#     4  11  21  32  54  79 108 142 182 220 277 318
#     4  10  22  40  57  78 104 138 189 235 275 323
#     4  10  20  30  46  74 110 134 170 214 262 324
#     4  11  21  32  53  78 105 142 181 214 272 320
#     4  11  20  35  48  80 116 150 174 211 268 330
#     4  11  18  31  50  80 106 142 184 222 258 323
#     4  10  20  32  49  73 113 159 180 212 265 327
#
# _framework density 17.055679999999999
#
# number of rings (size 3 to 8) (size 9 to 14) (size 15 to 20)
#    0.000    1.385    4.615    3.692    0.000    3.692 
#    0.000    1.538    0.000    0.000    0.000    6.462 
#    0.000    0.000    0.000    0.000    0.000    0.000 
#
# Total GULP energy -289731.502931 kJ/mol
# GULP energy per Si atom -5571.759672 kJ/mol
# Density = 1.701686 g / cm^3
# Si number density = 17.055680 Si / 1000 Ang^3
#
#
#
# Elastic Constant Matrix: (Units=GPa)
#
#
# Indices 1 2 3 4 5 6 
#
# 1 107.1750 53.3225 10.4682 0.0000 0.0000 0.0000
# 2 53.3225 149.6177 45.5304 0.0000 0.0000 0.0000
# 3 10.4682 45.5304 64.5101 0.0000 0.0000 0.0000
# 4 0.0000 0.0000 0.0000 7.9920 0.0000 0.0000
# 5 0.0000 0.0000 0.0000 0.0000 14.7195 0.0000
# 6 0.0000 0.0000 0.0000 0.0000 0.0000 20.8341
#
#
#
# Elastic Compliance Matrix: (Units=1/GPa)
#
#
# Indices 1 2 3 4 5 6 
#
# 1 0.011426 -0.004468 0.001299 0.000000 0.000000 0.000000
# 2 -0.004468 0.010259 -0.006515 0.000000 0.000000 0.000000
# 3 0.001299 -0.006515 0.019889 0.000000 0.000000 0.000000
# 4 0.000000 0.000000 0.000000 0.125125 0.000000 0.000000
# 5 0.000000 0.000000 0.000000 0.000000 0.067937 0.000000
# 6 0.000000 0.000000 0.000000 0.000000 0.000000 0.047998
#
#
# Mechanical properties :
#
#
# Convention : Reuss Voigt Hill
#
# Bulk Modulus (GPa) = 45.03267 59.99391 52.51329
# Shear Modulus (GPa) = 16.16004 22.84123 19.50063
#
# Velocity S-wave (km/s) = 3.08147 3.66350 3.38502
# Velocity P-wave (km/s) = 6.25470 7.29017 6.79220
#
# Compressibility (1/GPa) = 0.02220610
#
# Stress axis : x y z
#
# Youngs Moduli (GPa) = 87.51676 97.47896 50.27856
#
# Poissons Ratio (x) = 0.43549 -0.06531
# Poissons Ratio (y) = 0.39099 0.32759
# Poissons Ratio (z) = -0.11368 0.63512
#
# Static dielectric constant tensor:
#      x y z
#    x 1.604050 0.000000 0.000000 
#    y 0.000000 1.688830 0.000000 
#    z 0.000000 0.000000 1.569560 
# 
# From -- ./inp_files/19340.got.cif
#   From: 2010.05.17/outbox.cif.g08.bks.cpg/sg50_10_cif.got.tgz:19340.got - 2010.06.03 11:33:33.
