data_PCOD9396988
_publ_section_title
;
Structure prediction by ZEFSAII (Michael W. Deem and Ramdas Pophale) SiO2 
 PCOD9396988
Probable space group: P B A N
;
_chemical_formula_sum "Si O2"
_cell_formula_units_Z 64
_cell_length_a 13.010266
_cell_length_b 32.948323
_cell_length_c 7.204943
_cell_angle_alpha 90.000000
_cell_angle_beta 90.000000
_cell_angle_gamma 90.000000
_cell_volume 3088.517313
_symmetry_space_group_name_H-M "P B A N"
_symmetry_group_IT_number 50
_space_group.IT_coordinate_system_code '2'
_symmetry_cell_setting 'orthorhombic'
loop_
_space_group_symop_operation_xyz
x,y,z
1/2-x,1/2-y,z
x,1/2-y,-z
1/2-x,y,-z
-x,-y,-z
1/2+x,1/2+y,-z
-x,1/2+y,z
1/2+x,-y,z
loop_
_atom_site_type_symbol
_atom_site_label
_atom_site_fract_x
_atom_site_fract_y
_atom_site_fract_z
Si Si1 0.559541 0.591456 0.869073
Si Si2 0.655320 0.447123 0.645270
Si Si3 0.928857 0.932679 0.309040
Si Si4 0.719256 0.971397 0.206804
Si Si5 0.658594 0.352472 0.738567
Si Si6 0.463318 0.796966 0.458705
Si Si7 0.893665 0.152436 0.142210
Si Si8 0.134237 0.142704 0.440513
O O1 0.613494 0.553639 0.764798
O O2 0.446578 0.608606 0.814584
O O3 0.624726 0.628655 0.776070
O O4 0.559533 0.581084 0.089714
O O5 0.750000 0.450052 0.500000
O O6 0.532403 0.455479 0.622842
O O7 0.692478 0.481419 0.788043
O O8 0.650143 0.399947 0.696812
O O9 0.821302 0.958234 0.321882
O O10 0.916595 0.892780 0.434708
O O11 0.750000 0.959356 0.000000
O O12 0.617482 0.323711 0.577537
O O13 0.776839 0.347106 0.792749
O O14 0.595958 0.342632 0.923723
O O15 0.453986 0.750000 0.500000
O O16 0.443294 0.810034 0.247668
O O17 0.574607 0.816447 0.491126
O O18 0.250000 0.145001 0.500000
#
# Coordination Sequence:
#
# PCOD9396988 Si02
#       8
#     8   8   8   8   8   8   8   8
#     4  10  21  41  66  94 129 179 229 273 337 400
#     4  12  26  40  62  95 134 177 229 290 338 389
#     4  11  23  46  64  91 138 179 228 284 336 412
#     4  10  25  41  63  96 130 181 235 284 342 396
#     4  11  23  43  62  94 132 176 224 267 339 406
#     4  11  24  43  67 101 134 166 218 284 340 411
#     4  10  22  39  70  92 128 181 218 267 336 409
#     4  11  22  40  74  97 128 177 223 272 345 415
#
# _framework density 20.721916
#
# number of rings (size 3 to 8) (size 9 to 14) (size 15 to 20)
#    0.000    1.250    3.750    1.125    5.250    5.250 
#    0.000    1.250    0.000    0.000    0.000    3.500 
#    0.000    0.000    0.000    0.000    0.000    0.000 
#
# Total GULP energy -356528.009071 kJ/mol
# GULP energy per Si atom -5570.750142 kJ/mol
# Density = 2.067475 g / cm^3
# Si number density = 20.721916 Si / 1000 Ang^3
#
#
#
# Elastic Constant Matrix: (Units=GPa)
#
#
# Indices 1 2 3 4 5 6 
#
# 1 106.1377 20.5349 35.0474 0.0000 0.0000 0.0000
# 2 20.5349 106.0596 16.5282 0.0000 0.0000 0.0000
# 3 35.0474 16.5282 69.7725 0.0000 0.0000 0.0000
# 4 0.0000 0.0000 0.0000 7.5383 0.0000 0.0000
# 5 0.0000 0.0000 0.0000 0.0000 22.1378 0.0000
# 6 0.0000 0.0000 0.0000 0.0000 0.0000 17.2485
#
#
#
# Elastic Compliance Matrix: (Units=1/GPa)
#
#
# Indices 1 2 3 4 5 6 
#
# 1 0.011485 -0.001375 -0.005443 0.000000 0.000000 0.000000
# 2 -0.001375 0.009955 -0.001667 0.000000 0.000000 0.000000
# 3 -0.005443 -0.001667 0.017461 0.000000 0.000000 0.000000
# 4 0.000000 0.000000 0.000000 0.132657 0.000000 0.000000
# 5 0.000000 0.000000 0.000000 0.000000 0.045172 0.000000
# 6 0.000000 0.000000 0.000000 0.000000 0.000000 0.057976
#
#
# Mechanical properties :
#
#
# Convention : Reuss Voigt Hill
#
# Bulk Modulus (GPa) = 45.60075 47.35452 46.47763
# Shear Modulus (GPa) = 16.72309 23.37552 20.04931
#
# Velocity S-wave (km/s) = 2.84390 3.36230 3.11391
# Velocity P-wave (km/s) = 5.73040 6.16242 5.95033
#
# Compressibility (1/GPa) = 0.02192947
#
# Stress axis : x y z
#
# Youngs Moduli (GPa) = 87.06806 100.45410 57.26887
#
# Poissons Ratio (x) = 0.13817 0.31173
# Poissons Ratio (y) = 0.11976 0.09548
# Poissons Ratio (z) = 0.47394 0.16748
#
# Static dielectric constant tensor:
#      x y z
#    x 1.832820 0.000000 0.000000 
#    y 0.000000 1.713360 0.000000 
#    z 0.000000 0.000000 1.839900 
# 
# From -- ./inp_files/11840.got.cif
#   From: 2010.05.17/outbox.cif.g08.bks.cpg/sg50_6_cif.got.tgz:11840.got - 2010.06.03 11:33:33.
