data_PCOD9396649
_publ_section_title
;
Structure prediction by ZEFSAII (Michael W. Deem and Ramdas Pophale) SiO2 
 PCOD9396649
Probable space group: P B A N
;
_chemical_formula_sum "Si O2"
_cell_formula_units_Z 48
_cell_length_a 12.199281
_cell_length_b 23.416023
_cell_length_c 7.355510
_cell_angle_alpha 90.000000
_cell_angle_beta 90.000000
_cell_angle_gamma 90.000000
_cell_volume 2101.165016
_symmetry_space_group_name_H-M "P B A N"
_symmetry_group_IT_number 50
_space_group.IT_coordinate_system_code '2'
_symmetry_cell_setting 'orthorhombic'
loop_
_space_group_symop_operation_xyz
x,y,z
1/2-x,1/2-y,z
x,1/2-y,-z
1/2-x,y,-z
-x,-y,-z
1/2+x,1/2+y,-z
-x,1/2+y,z
1/2+x,-y,z
loop_
_atom_site_type_symbol
_atom_site_label
_atom_site_fract_x
_atom_site_fract_y
_atom_site_fract_z
Si Si1 0.855610 0.894590 0.214348
Si Si2 0.112330 0.110800 0.209328
Si Si3 0.934398 0.304555 0.784560
Si Si4 0.947991 0.323840 0.226126
Si Si5 0.744383 0.397571 0.219371
Si Si6 0.061161 0.983358 0.684804
O O1 0.732727 0.898167 0.290410
O O2 0.934771 0.846100 0.292989
O O3 0.911025 0.956409 0.226484
O O4 0.860640 0.880066 0.001396
O O5 0.044518 0.164571 0.282624
O O6 0.027962 0.057927 0.220708
O O7 0.922570 0.240449 0.715300
O O8 0.829817 0.342410 0.738909
O O9 0.941280 0.313477 0.005632
O O10 0.864502 0.375349 0.272609
O O11 0.676871 0.448774 0.312786
O O12 0.750000 0.409333 0.000000
O O13 0.000000 0.000000 0.500000
#
# Coordination Sequence:
#
# PCOD9396649 Si02
#       6
#     8   8   8   8   8   8
#     4  10  21  34  56  83 116 160 196 241 293 372
#     4   9  20  37  56  82 116 157 200 237 307 361
#     4   8  15  30  53  85 119 144 186 252 297 355
#     4   9  16  29  53  86 116 147 192 242 306 349
#     4   9  18  32  56  85 113 158 198 248 303 360
#     4  11  24  38  56  81 118 160 203 260 301 356
#
# _framework density 22.844469
#
# number of rings (size 3 to 8) (size 9 to 14) (size 15 to 20)
#    0.000    2.667    0.000    2.000    4.667    3.333 
#    0.000    3.333    0.000    4.000    0.000    9.333 
#    0.000    0.000    0.000    0.000    0.000    0.000 
#
# Total GULP energy -267634.766441 kJ/mol
# GULP energy per Si atom -5575.724301 kJ/mol
# Density = 2.279247 g / cm^3
# Si number density = 22.844469 Si / 1000 Ang^3
#
#
#
# Elastic Constant Matrix: (Units=GPa)
#
#
# Indices 1 2 3 4 5 6 
#
# 1 133.5581 30.4979 20.6247 0.0000 0.0000 0.0000
# 2 30.4979 98.1465 6.2235 0.0000 0.0000 0.0000
# 3 20.6247 6.2235 69.5059 0.0000 0.0000 0.0000
# 4 0.0000 0.0000 0.0000 -138.4943 0.0000 0.0000
# 5 0.0000 0.0000 0.0000 0.0000 3.6666 0.0000
# 6 0.0000 0.0000 0.0000 0.0000 0.0000 22.2357
#
#
#
# Elastic Compliance Matrix: (Units=1/GPa)
#
#
# Indices 1 2 3 4 5 6 
#
# 1 0.008402 -0.002467 -0.002272 0.000000 0.000000 0.000000
# 2 -0.002467 0.010971 -0.000250 0.000000 0.000000 0.000000
# 3 -0.002272 -0.000250 0.015084 0.000000 0.000000 0.000000
# 4 0.000000 0.000000 0.000000 -0.007221 0.000000 0.000000
# 5 0.000000 0.000000 0.000000 0.000000 0.272731 0.000000
# 6 0.000000 0.000000 0.000000 0.000000 0.000000 0.044973
#
#
# Mechanical properties :
#
#
# Convention : Reuss Voigt Hill
#
# Bulk Modulus (GPa) = 40.85255 46.21141 43.53198
# Shear Modulus (GPa) = 13.77115 -6.26077 3.75519
#
# Velocity S-wave (km/s) = 2.45791 -1.65727 1.28350
# Velocity P-wave (km/s) = 5.09674 4.07560 4.61451
#
# Compressibility (1/GPa) = 0.02447827
#
# Stress axis : x y z
#
# Youngs Moduli (GPa) = 119.02629 91.14775 66.29576
#
# Poissons Ratio (x) = 0.22482 0.15063
# Poissons Ratio (y) = 0.29359 0.01660
# Poissons Ratio (z) = 0.27045 0.02283
#
# Static dielectric constant tensor:
#      x y z
#    x 1.904660 0.000000 0.000000 
#    y 0.000000 1.834910 0.000000 
#    z 0.000000 0.000000 1.949330 
# 
# From -- ./inp_files/11572.got.cif
#   From: 2010.05.17/outbox.cif.g08.bks.cpg/sg50_6_cif.got.tgz:11572.got - 2010.06.03 11:33:33.
