data_PCOD9396758
_publ_section_title
;
Structure prediction by ZEFSAII (Michael W. Deem and Ramdas Pophale) SiO2 
 PCOD9396758
Probable space group: P B A N
;
_chemical_formula_sum "Si O2"
_cell_formula_units_Z 48
_cell_length_a 9.711099
_cell_length_b 28.963064
_cell_length_c 8.858332
_cell_angle_alpha 90.000000
_cell_angle_beta 90.000000
_cell_angle_gamma 90.000000
_cell_volume 2491.522644
_symmetry_space_group_name_H-M "P B A N"
_symmetry_group_IT_number 50
_space_group.IT_coordinate_system_code '2'
_symmetry_cell_setting 'orthorhombic'
loop_
_space_group_symop_operation_xyz
x,y,z
1/2-x,1/2-y,z
x,1/2-y,-z
1/2-x,y,-z
-x,-y,-z
1/2+x,1/2+y,-z
-x,1/2+y,z
1/2+x,-y,z
loop_
_atom_site_type_symbol
_atom_site_label
_atom_site_fract_x
_atom_site_fract_y
_atom_site_fract_z
Si Si1 0.369311 0.013357 0.897565
Si Si2 0.507038 0.365890 0.687193
Si Si3 0.555886 0.132400 0.672189
Si Si4 0.721439 0.195733 0.174777
Si Si5 0.230123 0.557971 0.679246
Si Si6 0.285429 0.119449 0.838474
O O1 0.338574 0.067363 0.874367
O O2 0.333831 0.989503 0.738911
O O3 0.250000 0.992057 0.000000
O O4 0.500000 0.000000 0.000000
O O5 0.524763 0.364813 0.506091
O O6 0.570921 0.320766 0.768486
O O7 0.612650 0.406403 0.733084
O O8 0.353205 0.378183 0.739255
O O9 0.671220 0.169038 0.718447
O O10 0.624139 0.082706 0.721178
O O11 0.414635 0.142042 0.757236
O O12 0.750000 0.250000 0.187086
O O13 0.750000 0.182227 0.000000
O O14 0.250000 0.555156 0.500000
O O15 0.250000 0.141015 0.000000
#
# Coordination Sequence:
#
# PCOD9396758 Si02
#       6
#     8   8   8   8   8   8
#     4  11  22  35  52  78 110 150 197 239 282 333
#     4  10  21  37  57  84 114 147 187 231 283 337
#     4  10  21  37  58  82 112 148 187 230 282 340
#     4  10  21  39  64  90 113 142 181 226 279 343
#     4   9  19  35  54  77 107 147 191 234 277 328
#     4  11  22  36  54  80 115 152 188 235 286 332
#
# _framework density 19.265326999999999
#
# number of rings (size 3 to 8) (size 9 to 14) (size 15 to 20)
#    0.000    1.833    0.000    6.000    0.000    6.667 
#    0.000    5.000    0.000    5.000    0.000    0.000 
#    0.000    0.000    0.000    0.000    0.000    0.000 
#
# Total GULP energy -267260.661829 kJ/mol
# GULP energy per Si atom -5567.930455 kJ/mol
# Density = 1.922148 g / cm^3
# Si number density = 19.265327 Si / 1000 Ang^3
#
#
#
# Elastic Constant Matrix: (Units=GPa)
#
#
# Indices 1 2 3 4 5 6 
#
# 1 160.4596 9.5107 41.7245 0.0000 0.0000 0.0000
# 2 9.5107 32.0591 8.6856 0.0000 0.0000 0.0000
# 3 41.7245 8.6856 59.8005 0.0000 0.0000 0.0000
# 4 0.0000 0.0000 0.0000 20.6975 0.0000 0.0000
# 5 0.0000 0.0000 0.0000 0.0000 41.3889 0.0000
# 6 0.0000 0.0000 0.0000 0.0000 0.0000 14.4198
#
#
#
# Elastic Compliance Matrix: (Units=1/GPa)
#
#
# Indices 1 2 3 4 5 6 
#
# 1 0.007636 -0.000856 -0.005204 0.000000 0.000000 0.000000
# 2 -0.000856 0.032566 -0.004133 0.000000 0.000000 0.000000
# 3 -0.005204 -0.004133 0.020953 0.000000 0.000000 0.000000
# 4 0.000000 0.000000 0.000000 0.048315 0.000000 0.000000
# 5 0.000000 0.000000 0.000000 0.000000 0.024161 0.000000
# 6 0.000000 0.000000 0.000000 0.000000 0.000000 0.069349
#
#
# Mechanical properties :
#
#
# Convention : Reuss Voigt Hill
#
# Bulk Modulus (GPa) = 24.52729 41.35118 32.93924
# Shear Modulus (GPa) = 21.10107 28.12780 24.61444
#
# Velocity S-wave (km/s) = 3.31310 3.82517 3.57831
# Velocity P-wave (km/s) = 5.23397 6.40467 5.84869
#
# Compressibility (1/GPa) = 0.04077091
#
# Stress axis : x y z
#
# Youngs Moduli (GPa) = 130.96063 30.70689 47.72541
#
# Poissons Ratio (x) = 0.02627 0.24834
# Poissons Ratio (y) = 0.11204 0.19725
# Poissons Ratio (z) = 0.68145 0.12691
#
# Static dielectric constant tensor:
#      x y z
#    x 1.705030 0.000000 0.000000 
#    y 0.000000 1.700710 0.000000 
#    z 0.000000 0.000000 1.653640 
# 
# From -- ./inp_files/10064.got.cif
#   From: 2010.05.17/outbox.cif.g08.bks.cpg/sg50_6_cif.got.tgz:10064.got - 2010.06.03 11:33:33.
