data_PCOD9396407
_publ_section_title
;
Structure prediction by ZEFSAII (Michael W. Deem and Ramdas Pophale) SiO2 
 PCOD9396407
Probable space group: P B A N
;
_chemical_formula_sum "Si O2"
_cell_formula_units_Z 64
_cell_length_a 12.877706
_cell_length_b 9.062223
_cell_length_c 25.849103
_cell_angle_alpha 90.000000
_cell_angle_beta 90.000000
_cell_angle_gamma 90.000000
_cell_volume 3016.606954
_symmetry_space_group_name_H-M "P B A N"
_symmetry_group_IT_number 50
_space_group.IT_coordinate_system_code '2'
_symmetry_cell_setting 'orthorhombic'
loop_
_space_group_symop_operation_xyz
x,y,z
1/2-x,1/2-y,z
x,1/2-y,-z
1/2-x,y,-z
-x,-y,-z
1/2+x,1/2+y,-z
-x,1/2+y,z
1/2+x,-y,z
loop_
_atom_site_type_symbol
_atom_site_label
_atom_site_fract_x
_atom_site_fract_y
_atom_site_fract_z
Si Si1 0.146482 0.153156 0.879485
Si Si2 0.364697 0.753968 0.774530
Si Si3 0.066884 0.089009 0.769437
Si Si4 0.508137 0.978291 0.382304
Si Si5 0.030555 0.624993 0.961044
Si Si6 0.870221 0.268600 0.438244
Si Si7 0.366032 0.228171 0.330486
Si Si8 0.296365 0.612224 0.114497
O O1 0.250000 0.250000 0.881660
O O2 0.086022 0.163686 0.825362
O O3 0.067934 0.176633 0.926659
O O4 0.198985 0.992526 0.878547
O O5 0.250000 0.750000 0.749009
O O6 0.409662 0.586364 0.773344
O O7 0.450723 0.864524 0.752125
O O8 0.341180 0.825056 0.831398
O O9 0.139661 0.171501 0.728457
O O10 0.440981 0.859724 0.413946
O O11 0.570993 0.879297 0.340650
O O12 0.585449 0.075091 0.417863
O O13 0.429277 0.096238 0.357760
O O14 0.110290 0.555934 0.919827
O O15 0.070368 0.750000 0.000000
O O16 0.000000 0.500000 0.000000
O O17 0.750000 0.250000 0.422466
O O18 0.876073 0.250000 0.500000
O O19 0.250000 0.250000 0.351154
O O20 0.250000 0.750000 0.084298
#
# Coordination Sequence:
#
# PCOD9396407 Si02
#       8
#     8   8   8   8   8   8   8   8
#     4  12  26  42  69  96 128 163 213 272 323 389
#     4  11  25  44  69  98 127 163 212 272 332 386
#     4  12  25  43  70  96 129 171 225 273 324 403
#     4  10  22  41  62  96 142 185 224 292 344 408
#     4  12  27  43  66  94 126 163 207 258 326 411
#     4  10  20  37  66  98 133 184 242 292 343 400
#     4  11  24  43  65  97 136 183 227 275 348 408
#     4  11  23  45  66  90 126 166 199 260 332 385
#
# _framework density 21.215889000000001
#
# number of rings (size 3 to 8) (size 9 to 14) (size 15 to 20)
#    0.000    0.875    3.750    3.750    1.750    5.000 
#    0.000    3.125    0.000    6.000    0.000    0.000 
#    0.000    0.000    0.000    0.000    0.000    0.000 
#
# Total GULP energy -357278.866514 kJ/mol
# GULP energy per Si atom -5582.482289 kJ/mol
# Density = 2.116760 g / cm^3
# Si number density = 21.215889 Si / 1000 Ang^3
#
#
#
# Elastic Constant Matrix: (Units=GPa)
#
#
# Indices 1 2 3 4 5 6 
#
# 1 111.4968 19.8107 10.5100 0.0000 0.0000 0.0000
# 2 19.8107 79.7511 25.9035 0.0000 0.0000 0.0000
# 3 10.5100 25.9035 64.2772 0.0000 0.0000 0.0000
# 4 0.0000 0.0000 0.0000 25.0278 0.0000 0.0000
# 5 0.0000 0.0000 0.0000 0.0000 21.5225 0.0000
# 6 0.0000 0.0000 0.0000 0.0000 0.0000 34.9011
#
#
#
# Elastic Compliance Matrix: (Units=1/GPa)
#
#
# Indices 1 2 3 4 5 6 
#
# 1 0.009409 -0.002114 -0.000686 0.000000 0.000000 0.000000
# 2 -0.002114 0.014903 -0.005660 0.000000 0.000000 0.000000
# 3 -0.000686 -0.005660 0.017951 0.000000 0.000000 0.000000
# 4 0.000000 0.000000 0.000000 0.039956 0.000000 0.000000
# 5 0.000000 0.000000 0.000000 0.000000 0.046463 0.000000
# 6 0.000000 0.000000 0.000000 0.000000 0.000000 0.028652
#
#
# Mechanical properties :
#
#
# Convention : Reuss Voigt Hill
#
# Bulk Modulus (GPa) = 39.46154 40.88593 40.17373
# Shear Modulus (GPa) = 27.36690 29.57699 28.47195
#
# Velocity S-wave (km/s) = 3.59545 3.73781 3.66732
# Velocity P-wave (km/s) = 5.98972 6.15967 6.07529
#
# Compressibility (1/GPa) = 0.02534113
#
# Stress axis : x y z
#
# Youngs Moduli (GPa) = 106.27837 67.10222 55.70772
#
# Poissons Ratio (x) = 0.14188 0.03824
# Poissons Ratio (y) = 0.22471 0.31531
# Poissons Ratio (z) = 0.07295 0.37980
#
# Static dielectric constant tensor:
#      x y z
#    x 1.956070 0.000000 0.000000 
#    y 0.000000 1.711570 0.000000 
#    z 0.000000 0.000000 1.768530 
# 
# From -- ./inp_files/32475.got.cif
#   From: 2010.05.17/outbox.cif.g08.bks.cpg/sg50_17_cif.got.tgz:32475.got - 2010.06.03 11:33:33.
