data_PCOD9396555
_publ_section_title
;
Structure prediction by ZEFSAII (Michael W. Deem and Ramdas Pophale) SiO2 
 PCOD9396555
Probable space group: P B A N
;
_chemical_formula_sum "Si O2"
_cell_formula_units_Z 40
_cell_length_a 9.275688
_cell_length_b 24.041001
_cell_length_c 8.168959
_cell_angle_alpha 90.000000
_cell_angle_beta 90.000000
_cell_angle_gamma 90.000000
_cell_volume 1821.651916
_symmetry_space_group_name_H-M "P B A N"
_symmetry_group_IT_number 50
_space_group.IT_coordinate_system_code '2'
_symmetry_cell_setting 'orthorhombic'
loop_
_space_group_symop_operation_xyz
x,y,z
1/2-x,1/2-y,z
x,1/2-y,-z
1/2-x,y,-z
-x,-y,-z
1/2+x,1/2+y,-z
-x,1/2+y,z
1/2+x,-y,z
loop_
_atom_site_type_symbol
_atom_site_label
_atom_site_fract_x
_atom_site_fract_y
_atom_site_fract_z
Si Si1 0.399387 0.140719 0.820780
Si Si2 0.631053 0.967287 0.357301
Si Si3 0.412911 0.768373 0.311774
Si Si4 0.895205 0.086101 0.582945
Si Si5 0.415616 0.330680 0.801835
O O1 0.358602 0.076743 0.787052
O O2 0.533639 0.169053 0.725247
O O3 0.253115 0.170632 0.759190
O O4 0.424640 0.148306 0.012500
O O5 0.750000 0.958946 0.500000
O O6 0.484239 0.945778 0.441911
O O7 0.639149 0.031618 0.305932
O O8 0.250000 0.750000 0.269818
O O9 0.433778 0.750000 0.500000
O O10 0.517415 0.730008 0.206070
O O11 0.750000 0.109259 0.500000
O O12 0.991593 0.130222 0.679678
#
# Coordination Sequence:
#
# PCOD9396555 Si02
#       5
#     8   8   8   8   8
#     4  11  24  42  65  92 129 171 213 263 328 392
#     4  10  20  40  65  93 124 170 216 261 317 380
#     4  11  26  43  65  94 124 164 215 268 325 389
#     4  10  22  38  65  95 128 165 215 267 314 380
#     4  11  24  42  64  93 130 169 213 266 324 394
#
# _framework density 21.958089999999999
#
# number of rings (size 3 to 8) (size 9 to 14) (size 15 to 20)
#    0.000    1.400    2.000    2.400    5.600    4.800 
#    0.000    0.000    0.000    0.000    0.000    0.000 
#    0.000    0.000    0.000    0.000    0.000    0.000 
#
# Total GULP energy -223333.536779 kJ/mol
# GULP energy per Si atom -5583.338419 kJ/mol
# Density = 2.190811 g / cm^3
# Si number density = 21.958090 Si / 1000 Ang^3
#
#
#
# Elastic Constant Matrix: (Units=GPa)
#
#
# Indices 1 2 3 4 5 6 
#
# 1 133.5462 20.9668 33.1752 0.0000 0.0000 0.0000
# 2 20.9668 103.5473 19.9480 0.0000 0.0000 0.0000
# 3 33.1752 19.9480 39.1474 0.0000 0.0000 0.0000
# 4 0.0000 0.0000 0.0000 18.6938 0.0000 0.0000
# 5 0.0000 0.0000 0.0000 0.0000 25.6933 0.0000
# 6 0.0000 0.0000 0.0000 0.0000 0.0000 34.5822
#
#
#
# Elastic Compliance Matrix: (Units=1/GPa)
#
#
# Indices 1 2 3 4 5 6 
#
# 1 0.009501 -0.000413 -0.007841 0.000000 0.000000 0.000000
# 2 -0.000413 0.010727 -0.005116 0.000000 0.000000 0.000000
# 3 -0.007841 -0.005116 0.034796 0.000000 0.000000 0.000000
# 4 0.000000 0.000000 0.000000 0.053494 0.000000 0.000000
# 5 0.000000 0.000000 0.000000 0.000000 0.038921 0.000000
# 6 0.000000 0.000000 0.000000 0.000000 0.000000 0.028917
#
#
# Mechanical properties :
#
#
# Convention : Reuss Voigt Hill
#
# Bulk Modulus (GPa) = 35.35588 47.15788 41.25688
# Shear Modulus (GPa) = 23.52703 29.27056 26.39880
#
# Velocity S-wave (km/s) = 3.27685 3.65502 3.47109
# Velocity P-wave (km/s) = 5.51847 6.27177 5.90714
#
# Compressibility (1/GPa) = 0.02828384
#
# Stress axis : x y z
#
# Youngs Moduli (GPa) = 105.25546 93.22600 28.73908
#
# Poissons Ratio (x) = 0.03853 0.22534
# Poissons Ratio (y) = 0.04350 0.14702
# Poissons Ratio (z) = 0.82528 0.47691
#
# Static dielectric constant tensor:
#      x y z
#    x 1.858670 0.000000 0.000000 
#    y 0.000000 1.944090 0.000000 
#    z 0.000000 0.000000 1.805590 
# 
# From -- ./inp_files/9518.got.cif
#   From: 2010.05.17/outbox.cif.g08.bks.cpg/sg50_5_cif.got.tgz:9518.got - 2010.06.03 11:33:33.
