data_PCOD9396714
_publ_section_title
;
Structure prediction by ZEFSAII (Michael W. Deem and Ramdas Pophale) SiO2 
 PCOD9396714
Probable space group: P B A N
;
_chemical_formula_sum "Si O2"
_cell_formula_units_Z 58
_cell_length_a 8.737669
_cell_length_b 12.751292
_cell_length_c 26.215191
_cell_angle_alpha 90.000000
_cell_angle_beta 90.000000
_cell_angle_gamma 90.000000
_cell_volume 2920.806632
_symmetry_space_group_name_H-M "P B A N"
_symmetry_group_IT_number 50
_space_group.IT_coordinate_system_code '2'
_symmetry_cell_setting 'orthorhombic'
loop_
_space_group_symop_operation_xyz
x,y,z
1/2-x,1/2-y,z
x,1/2-y,-z
1/2-x,y,-z
-x,-y,-z
1/2+x,1/2+y,-z
-x,1/2+y,z
1/2+x,-y,z
loop_
_atom_site_type_symbol
_atom_site_label
_atom_site_fract_x
_atom_site_fract_y
_atom_site_fract_z
Si Si1 0.704009 0.131331 0.204556
Si Si2 0.763300 0.631617 0.662984
Si Si3 0.843465 0.580838 0.549562
Si Si4 0.195620 0.359880 0.901765
Si Si5 0.396502 0.929666 0.685122
Si Si6 0.750000 0.750000 0.000000
Si Si7 0.193181 0.633377 0.572392
Si Si8 0.946004 0.993832 0.147373
O O1 0.750000 0.250000 0.191734
O O2 0.672666 0.119814 0.264430
O O3 0.553984 0.091720 0.174334
O O4 0.836457 0.050729 0.187880
O O5 0.750000 0.750000 0.680111
O O6 0.770026 0.626663 0.601370
O O7 0.634566 0.553759 0.682722
O O8 0.923835 0.588026 0.682283
O O9 0.750000 0.616597 0.500000
O O10 0.812770 0.455594 0.554666
O O11 0.023406 0.608291 0.550193
O O12 0.250000 0.250000 0.876456
O O13 0.162682 0.324733 0.959991
O O14 0.338560 0.438109 0.894518
O O15 0.053131 0.417041 0.876762
O O16 0.325263 0.881201 0.633469
O O17 0.250000 0.750000 0.560662
#
# Coordination Sequence:
#
# PCOD9396714 Si02
#       8
#     8   8   8   8   8   2   8   8
#     4  11  22  37  60  90 117 165 197 243 302 356
#     4  10  23  41  62  86 120 159 191 252 303 346
#     4  10  22  41  63  90 121 151 201 249 301 374
#     4   9  19  38  56  86 118 158 201 251 295 353
#     4  10  22  40  61  89 123 152 210 244 290 367
#     4   8  20  36  64  82 118 168 204 246 312 344
#     4  10  22  40  64  91 122 161 192 253 305 351
#     4  10  21  36  60  84 126 156 199 251 301 348
#
# _framework density 19.857529
#
# number of rings (size 3 to 8) (size 9 to 14) (size 15 to 20)
#    0.414    1.655    0.000    2.483    0.000   12.138 
#    0.000    7.586    0.000    1.655    0.000    0.000 
#    0.000    0.000    0.000    0.000    0.000    0.000 
#
# Total GULP energy -323878.240230 kJ/mol
# GULP energy per Si atom -5584.107590 kJ/mol
# Density = 1.981233 g / cm^3
# Si number density = 19.857529 Si / 1000 Ang^3
#
#
#
# Elastic Constant Matrix: (Units=GPa)
#
#
# Indices 1 2 3 4 5 6 
#
# 1 105.8046 59.1355 42.7460 0.0000 0.0000 0.0000
# 2 59.1355 139.9475 16.9604 0.0000 0.0000 0.0000
# 3 42.7460 16.9604 100.2532 0.0000 0.0000 0.0000
# 4 0.0000 0.0000 0.0000 10.6638 0.0000 0.0000
# 5 0.0000 0.0000 0.0000 0.0000 12.7159 0.0000
# 6 0.0000 0.0000 0.0000 0.0000 0.0000 -124.0941
#
#
#
# Elastic Compliance Matrix: (Units=1/GPa)
#
#
# Indices 1 2 3 4 5 6 
#
# 1 0.014722 -0.005574 -0.005334 0.000000 0.000000 0.000000
# 2 -0.005574 0.009406 0.000786 0.000000 0.000000 0.000000
# 3 -0.005334 0.000786 0.012116 0.000000 0.000000 0.000000
# 4 0.000000 0.000000 0.000000 0.093775 0.000000 0.000000
# 5 0.000000 0.000000 0.000000 0.000000 0.078642 0.000000
# 6 0.000000 0.000000 0.000000 0.000000 0.000000 -0.008058
#
#
# Mechanical properties :
#
#
# Convention : Reuss Voigt Hill
#
# Bulk Modulus (GPa) = 62.50723 64.85433 63.68078
# Shear Modulus (GPa) = 22.10617 -4.99865 8.55376
#
# Velocity S-wave (km/s) = 3.34014 -1.58831 2.07772
# Velocity P-wave (km/s) = 6.81334 5.41914 6.15584
#
# Compressibility (1/GPa) = 0.01599815
#
# Stress axis : x y z
#
# Youngs Moduli (GPa) = 67.92544 106.31706 82.53407
#
# Poissons Ratio (x) = 0.59266 0.44025
# Poissons Ratio (y) = 0.37864 -0.06484
# Poissons Ratio (z) = 0.36232 -0.08352
#
# Static dielectric constant tensor:
#      x y z
#    x 1.825480 0.000000 0.000000 
#    y 0.000000 1.702010 0.000000 
#    z 0.000000 0.000000 1.705780 
# 
# From -- ./inp_files/32461.got.cif
#   From: 2010.05.17/outbox.cif.g08.bks.cpg/sg50_17_cif.got.tgz:32461.got - 2010.06.03 11:33:33.
