data_PCOD9396344
_publ_section_title
;
Structure prediction by ZEFSAII (Michael W. Deem and Ramdas Pophale) SiO2 
 PCOD9396344
Probable space group: P B A N
;
_chemical_formula_sum "Si O2"
_cell_formula_units_Z 48
_cell_length_a 5.236204
_cell_length_b 28.566297
_cell_length_c 14.192926
_cell_angle_alpha 90.000000
_cell_angle_beta 90.000000
_cell_angle_gamma 90.000000
_cell_volume 2122.963091
_symmetry_space_group_name_H-M "P B A N"
_symmetry_group_IT_number 50
_space_group.IT_coordinate_system_code '2'
_symmetry_cell_setting 'orthorhombic'
loop_
_space_group_symop_operation_xyz
x,y,z
1/2-x,1/2-y,z
x,1/2-y,-z
1/2-x,y,-z
-x,-y,-z
1/2+x,1/2+y,-z
-x,1/2+y,z
1/2+x,-y,z
loop_
_atom_site_type_symbol
_atom_site_label
_atom_site_fract_x
_atom_site_fract_y
_atom_site_fract_z
Si Si1 0.997730 0.717834 0.291576
Si Si2 0.014776 0.020786 0.395410
Si Si3 0.492685 0.115743 0.212763
Si Si4 0.747240 0.194022 0.107318
Si Si5 0.006347 0.880103 0.666974
Si Si6 0.778224 0.474351 0.113292
O O1 0.750000 0.750000 0.291208
O O2 0.968004 0.673917 0.361843
O O3 0.250000 0.750000 0.307024
O O4 0.038187 0.692133 0.189538
O O5 0.025845 0.076421 0.402511
O O6 0.258071 0.997396 0.346968
O O7 0.000000 0.000000 0.500000
O O8 0.521840 0.164872 0.156795
O O9 0.213278 0.109054 0.255181
O O10 0.601144 0.074334 0.147693
O O11 0.703039 0.117602 0.295956
O O12 0.750000 0.250000 0.097144
O O13 0.750000 0.175754 0.000000
O O14 0.489950 0.487059 0.143083
O O15 0.750000 0.473129 0.000000
#
# Coordination Sequence:
#
# PCOD9396344 Si02
#       6
#     8   8   8   8   8   8
#     4  10  20  37  56  81 115 151 197 246 291 342
#     4  10  22  40  62  91 121 150 180 221 282 350
#     4  11  22  35  53  80 111 145 191 246 290 339
#     4   9  18  34  52  74 106 150 198 248 297 337
#     4  11  22  36  58  85 113 148 188 231 288 345
#     4  10  21  36  51  69 100 146 194 241 293 342
#
# _framework density 22.609907
#
# number of rings (size 3 to 8) (size 9 to 14) (size 15 to 20)
#    0.000    1.833    0.000    5.500    0.000    4.000 
#    0.000   25.000    0.000    0.000    0.000   14.000 
#    0.000    0.000    0.000    0.000    0.000    0.000 
#
# Total GULP energy -267461.692485 kJ/mol
# GULP energy per Si atom -5572.118593 kJ/mol
# Density = 2.255845 g / cm^3
# Si number density = 22.609907 Si / 1000 Ang^3
#
#
#
# Elastic Constant Matrix: (Units=GPa)
#
#
# Indices 1 2 3 4 5 6 
#
# 1 132.8367 46.0850 3.6647 0.0000 0.0000 0.0000
# 2 46.0850 162.0214 36.8567 0.0000 0.0000 0.0000
# 3 3.6647 36.8567 43.3399 0.0000 0.0000 0.0000
# 4 0.0000 0.0000 0.0000 33.9567 0.0000 0.0000
# 5 0.0000 0.0000 0.0000 0.0000 4.6430 0.0000
# 6 0.0000 0.0000 0.0000 0.0000 0.0000 38.1970
#
#
#
# Elastic Compliance Matrix: (Units=1/GPa)
#
#
# Indices 1 2 3 4 5 6 
#
# 1 0.008446 -0.002777 0.001648 0.000000 0.000000 0.000000
# 2 -0.002777 0.008566 -0.007049 0.000000 0.000000 0.000000
# 3 0.001648 -0.007049 0.028929 0.000000 0.000000 0.000000
# 4 0.000000 0.000000 0.000000 0.029449 0.000000 0.000000
# 5 0.000000 0.000000 0.000000 0.000000 0.215378 0.000000
# 6 0.000000 0.000000 0.000000 0.000000 0.000000 0.026180
#
#
# Mechanical properties :
#
#
# Convention : Reuss Voigt Hill
#
# Bulk Modulus (GPa) = 33.80363 56.82342 45.31353
# Shear Modulus (GPa) = 14.57017 32.13211 23.35114
#
# Velocity S-wave (km/s) = 2.54129 3.77391 3.21718
# Velocity P-wave (km/s) = 4.85738 6.64654 5.82111
#
# Compressibility (1/GPa) = 0.02958262
#
# Stress axis : x y z
#
# Youngs Moduli (GPa) = 118.39823 116.74665 34.56735
#
# Poissons Ratio (x) = 0.32423 -0.05695
# Poissons Ratio (y) = 0.32881 0.24368
# Poissons Ratio (z) = -0.19507 0.82300
#
# Static dielectric constant tensor:
#      x y z
#    x 1.656790 0.000000 0.000000 
#    y 0.000000 2.116920 0.000000 
#    z 0.000000 0.000000 1.775250 
# 
# From -- ./inp_files/24069.got.cif
#   From: 2010.05.17/outbox.cif.g08.bks.cpg/sg50_13_cif.got.tgz:24069.got - 2010.06.03 11:33:33.
