data_PCOD9396736
_publ_section_title
;
Structure prediction by ZEFSAII (Michael W. Deem and Ramdas Pophale) SiO2 
 PCOD9396736
Probable space group: P B A N
;
_chemical_formula_sum "Si O2"
_cell_formula_units_Z 44
_cell_length_a 14.691203
_cell_length_b 5.352277
_cell_length_c 27.187447
_cell_angle_alpha 90.000000
_cell_angle_beta 90.000000
_cell_angle_gamma 90.000000
_cell_volume 2137.786692
_symmetry_space_group_name_H-M "P B A N"
_symmetry_group_IT_number 50
_space_group.IT_coordinate_system_code '2'
_symmetry_cell_setting 'orthorhombic'
loop_
_space_group_symop_operation_xyz
x,y,z
1/2-x,1/2-y,z
x,1/2-y,-z
1/2-x,y,-z
-x,-y,-z
1/2+x,1/2+y,-z
-x,1/2+y,z
1/2+x,-y,z
loop_
_atom_site_type_symbol
_atom_site_label
_atom_site_fract_x
_atom_site_fract_y
_atom_site_fract_z
Si Si1 0.554329 0.265175 0.059386
Si Si2 0.706309 0.000814 0.205337
Si Si3 0.561887 0.483047 0.622751
Si Si4 0.853071 0.500114 0.478724
Si Si5 0.050998 0.420760 0.729026
Si Si6 0.750000 0.250000 0.108649
O O1 0.495103 0.507044 0.075108
O O2 0.657879 0.291502 0.078354
O O3 0.557003 0.250000 0.000000
O O4 0.750000 0.750000 0.224911
O O5 0.603008 0.988241 0.221302
O O6 0.750000 0.250000 0.227532
O O7 0.726292 0.029958 0.147477
O O8 0.492430 0.719808 0.618205
O O9 0.635897 0.498817 0.579709
O O10 0.601320 0.510714 0.677924
O O11 0.896269 0.750000 0.500000
O O12 0.750000 0.500169 0.500000
O O13 0.896151 0.250000 0.500000
O O14 0.970224 0.626200 0.727888
#
# Coordination Sequence:
#
# PCOD9396736 Si02
#       6
#     8   8   8   8   8   4
#     4  10  23  41  64  95 129 173 223 267 319 380
#     4  10  23  40  56  92 122 157 203 248 310 366
#     4  10  21  37  59  84 107 146 190 233 287 348
#     4  10  21  37  52  80 113 141 178 224 281 343
#     4  10  21  40  63  85 117 154 199 250 303 363
#     4  10  25  40  66  92 136 168 215 266 330 372
#
# _framework density 20.582035000000001
#
# number of rings (size 3 to 8) (size 9 to 14) (size 15 to 20)
#    0.545    1.455    0.000    2.455    2.545    3.636 
#    6.545    2.727    0.000    0.000    0.000    0.000 
#    0.000    0.000    0.000    0.000    0.000    0.000 
#
# Total GULP energy -244989.440451 kJ/mol
# GULP energy per Si atom -5567.941828 kJ/mol
# Density = 2.053519 g / cm^3
# Si number density = 20.582035 Si / 1000 Ang^3
#
#
#
# Elastic Constant Matrix: (Units=GPa)
#
#
# Indices 1 2 3 4 5 6 
#
# 1 89.4434 16.2545 44.6898 0.0000 0.0000 0.0000
# 2 16.2545 144.8792 30.5082 0.0000 0.0000 0.0000
# 3 44.6898 30.5082 49.8767 0.0000 0.0000 0.0000
# 4 0.0000 0.0000 0.0000 30.8023 0.0000 0.0000
# 5 0.0000 0.0000 0.0000 0.0000 -304.0245 0.0000
# 6 0.0000 0.0000 0.0000 0.0000 0.0000 3.2997
#
#
#
# Elastic Compliance Matrix: (Units=1/GPa)
#
#
# Indices 1 2 3 4 5 6 
#
# 1 0.020649 0.001813 -0.019611 0.000000 0.000000 0.000000
# 2 0.001813 0.008082 -0.006568 0.000000 0.000000 0.000000
# 3 -0.019611 -0.006568 0.041638 0.000000 0.000000 0.000000
# 4 0.000000 0.000000 0.000000 0.032465 0.000000 0.000000
# 5 0.000000 0.000000 0.000000 0.000000 -0.003289 0.000000
# 6 0.000000 0.000000 0.000000 0.000000 0.000000 0.303062
#
#
# Mechanical properties :
#
#
# Convention : Reuss Voigt Hill
#
# Bulk Modulus (GPa) = 46.21515 51.90046 49.05781
# Shear Modulus (GPa) = 10.90392 -41.13473 -15.11541
#
# Velocity S-wave (km/s) = 2.30419 -4.47539 -2.71292
# Velocity P-wave (km/s) = 5.43893 1.19766 3.75150
#
# Compressibility (1/GPa) = 0.02163792
#
# Stress axis : x y z
#
# Youngs Moduli (GPa) = 48.42828 123.73250 24.01654
#
# Poissons Ratio (x) = -0.22431 0.47098
# Poissons Ratio (y) = -0.08779 0.15774
# Poissons Ratio (z) = 0.94971 0.81265
#
# Static dielectric constant tensor:
#      x y z
#    x 1.451510 0.000000 0.000000 
#    y 0.000000 1.770900 0.000000 
#    z 0.000000 0.000000 1.755980 
# 
# From -- ./inp_files/32215.got.cif
#   From: 2010.05.17/outbox.cif.g08.bks.cpg/sg50_17_cif.got.tgz:32215.got - 2010.06.03 11:33:33.
