data_PCOD9396242
_publ_section_title
;
Structure prediction by ZEFSAII (Michael W. Deem and Ramdas Pophale) SiO2 
 PCOD9396242
Probable space group: P B A N
;
_chemical_formula_sum "Si O2"
_cell_formula_units_Z 64
_cell_length_a 12.057389
_cell_length_b 18.086326
_cell_length_c 14.522000
_cell_angle_alpha 90.000000
_cell_angle_beta 90.000000
_cell_angle_gamma 90.000000
_cell_volume 3166.868713
_symmetry_space_group_name_H-M "P B A N"
_symmetry_group_IT_number 50
_space_group.IT_coordinate_system_code '2'
_symmetry_cell_setting 'orthorhombic'
loop_
_space_group_symop_operation_xyz
x,y,z
1/2-x,1/2-y,z
x,1/2-y,-z
1/2-x,y,-z
-x,-y,-z
1/2+x,1/2+y,-z
-x,1/2+y,z
1/2+x,-y,z
loop_
_atom_site_type_symbol
_atom_site_label
_atom_site_fract_x
_atom_site_fract_y
_atom_site_fract_z
Si Si1 0.264823 0.838083 0.395834
Si Si2 0.489390 0.118084 0.656304
Si Si3 0.882821 0.836426 0.477439
Si Si4 0.670613 0.881993 0.867426
Si Si5 0.956166 0.360494 0.300907
Si Si6 0.923656 0.882857 0.933892
Si Si7 0.526211 0.996332 0.806020
Si Si8 0.941352 0.737764 0.205350
O O1 0.250000 0.750000 0.394902
O O2 0.250000 0.863595 0.500000
O O3 0.385015 0.855389 0.357343
O O4 0.161512 0.873707 0.345145
O O5 0.438166 0.112998 0.555595
O O6 0.501723 0.045603 0.717169
O O7 0.415916 0.176227 0.716605
O O8 0.912908 0.750000 0.500000
O O9 0.750000 0.841777 0.500000
O O10 0.943463 0.856456 0.378985
O O11 0.796865 0.881918 0.898461
O O12 0.644451 0.805043 0.814176
O O13 0.648302 0.961150 0.819115
O O14 0.589585 0.881386 0.956718
O O15 0.968384 0.419584 0.219699
O O16 0.957671 0.281828 0.250313
O O17 0.969495 0.808256 0.886202
O O18 0.986704 0.953594 0.891425
#
# Coordination Sequence:
#
# PCOD9396242 Si02
#       8
#     8   8   8   8   8   8   8   8
#     4  11  20  36  66  80 114 157 204 249 281 340
#     4  11  22  40  57  90 119 161 202 240 292 349
#     4  11  22  38  61  87 123 157 195 252 306 345
#     4  10  21  39  63  89 117 153 194 245 307 359
#     4  11  22  40  57  90 119 161 202 240 292 349
#     4  10  21  39  63  89 117 153 194 245 307 359
#     4  10  25  39  58  86 124 154 196 237 295 362
#     4  10  20  35  60  90 119 142 197 255 289 347
#
# _framework density 20.209236000000001
#
# number of rings (size 3 to 8) (size 9 to 14) (size 15 to 20)
#    0.000    1.500    3.750    1.125    1.750    6.500 
#    0.000    0.000    0.000    0.000    0.000    3.500 
#    0.000    0.000    0.000    0.000    0.000    0.000 
#
# Total GULP energy -356303.029002 kJ/mol
# GULP energy per Si atom -5567.234828 kJ/mol
# Density = 2.016324 g / cm^3
# Si number density = 20.209236 Si / 1000 Ang^3
#
#
#
# Elastic Constant Matrix: (Units=GPa)
#
#
# Indices 1 2 3 4 5 6 
#
# 1 72.8107 10.9891 22.0453 0.0000 0.0000 0.0000
# 2 10.9891 86.7671 30.3607 0.0000 0.0000 0.0000
# 3 22.0453 30.3607 81.5688 0.0000 0.0000 0.0000
# 4 0.0000 0.0000 0.0000 24.1305 0.0000 0.0000
# 5 0.0000 0.0000 0.0000 0.0000 28.2018 0.0000
# 6 0.0000 0.0000 0.0000 0.0000 0.0000 12.2298
#
#
#
# Elastic Compliance Matrix: (Units=1/GPa)
#
#
# Indices 1 2 3 4 5 6 
#
# 1 0.014981 -0.000553 -0.003843 0.000000 0.000000 0.000000
# 2 -0.000553 0.013271 -0.004790 0.000000 0.000000 0.000000
# 3 -0.003843 -0.004790 0.015081 0.000000 0.000000 0.000000
# 4 0.000000 0.000000 0.000000 0.041441 0.000000 0.000000
# 5 0.000000 0.000000 0.000000 0.000000 0.035459 0.000000
# 6 0.000000 0.000000 0.000000 0.000000 0.000000 0.081767
#
#
# Mechanical properties :
#
#
# Convention : Reuss Voigt Hill
#
# Bulk Modulus (GPa) = 40.06174 40.88187 40.47181
# Shear Modulus (GPa) = 21.86325 24.76252 23.31289
#
# Velocity S-wave (km/s) = 3.29271 3.50424 3.40012
# Velocity P-wave (km/s) = 5.85853 6.05360 5.95687
#
# Compressibility (1/GPa) = 0.02496147
#
# Stress axis : x y z
#
# Youngs Moduli (GPa) = 66.74994 75.35065 66.30722
#
# Poissons Ratio (x) = 0.04164 0.25484
# Poissons Ratio (y) = 0.03689 0.31763
# Poissons Ratio (z) = 0.25654 0.36096
#
# Static dielectric constant tensor:
#      x y z
#    x 1.759420 0.000000 0.000000 
#    y 0.000000 1.801880 0.000000 
#    z 0.000000 0.000000 1.779790 
# 
# From -- ./inp_files/26058.got.cif
#   From: 2010.05.17/outbox.cif.g08.bks.cpg/sg50_14_cif.got.tgz:26058.got - 2010.06.03 11:33:33.
