data_PCOD9396124
_publ_section_title
;
Structure prediction by ZEFSAII (Michael W. Deem and Ramdas Pophale) SiO2 
 PCOD9396124
Probable space group: P B A N
;
_chemical_formula_sum "Si O2"
_cell_formula_units_Z 58
_cell_length_a 24.381999
_cell_length_b 15.119537
_cell_length_c 8.809351
_cell_angle_alpha 90.000000
_cell_angle_beta 90.000000
_cell_angle_gamma 90.000000
_cell_volume 3247.519112
_symmetry_space_group_name_H-M "P B A N"
_symmetry_group_IT_number 50
_space_group.IT_coordinate_system_code '2'
_symmetry_cell_setting 'orthorhombic'
loop_
_space_group_symop_operation_xyz
x,y,z
1/2-x,1/2-y,z
x,1/2-y,-z
1/2-x,y,-z
-x,-y,-z
1/2+x,1/2+y,-z
-x,1/2+y,z
1/2+x,-y,z
loop_
_atom_site_type_symbol
_atom_site_label
_atom_site_fract_x
_atom_site_fract_y
_atom_site_fract_z
Si Si1 0.149010 0.357054 0.625987
Si Si2 0.473542 0.898340 0.331665
Si Si3 0.250000 0.250000 0.500000
Si Si4 0.734667 0.351984 0.165550
Si Si5 0.299950 0.528334 0.396143
Si Si6 0.857779 0.165185 0.396561
Si Si7 0.444892 0.230052 0.822805
Si Si8 0.944160 0.901263 0.383482
O O1 0.206053 0.307041 0.595304
O O2 0.166909 0.452380 0.686612
O O3 0.110049 0.306126 0.741426
O O4 0.113621 0.377235 0.470617
O O5 0.421632 0.836747 0.364700
O O6 0.509931 0.847335 0.206054
O O7 0.512092 0.899360 0.479840
O O8 0.451057 0.999751 0.311580
O O9 0.750000 0.250000 0.163709
O O10 0.771609 0.403564 0.284579
O O11 0.674104 0.348976 0.237829
O O12 0.750000 0.388247 0.000000
O O13 0.250000 0.492051 0.500000
O O14 0.341197 0.581240 0.502920
O O15 0.841392 0.250000 0.500000
O O16 0.457136 0.321948 0.733275
O O17 0.438583 0.250000 0.000000
#
# Coordination Sequence:
#
# PCOD9396124 Si02
#       8
#     8   8   2   8   8   8   8   8
#     4  11  20  39  63  89 116 152 203 257 295 351
#     4  10  21  38  65  92 111 152 210 251 296 353
#     4  12  20  36  70  92 106 152 214 252 298 340
#     4  10  21  38  52  78 127 165 183 233 312 365
#     4  10  20  33  57  87 110 147 201 253 293 347
#     4  11  19  34  60  87 112 149 205 252 285 353
#     4  11  24  43  59  86 133 163 187 245 318 367
#     4  10  20  40  65  88 120 151 197 261 302 342
#
# _framework density 17.859787000000001
#
# number of rings (size 3 to 8) (size 9 to 14) (size 15 to 20)
#    0.000    1.517    4.828    2.069    0.000    0.552 
#    4.966    0.345    0.000    0.000    0.000    0.000 
#    0.000    0.000    0.000    0.000    0.000    0.000 
#
# Total GULP energy -322902.659037 kJ/mol
# GULP energy per Si atom -5567.287225 kJ/mol
# Density = 1.781914 g / cm^3
# Si number density = 17.859787 Si / 1000 Ang^3
#
#
#
# Elastic Constant Matrix: (Units=GPa)
#
#
# Indices 1 2 3 4 5 6 
#
# 1 108.2127 30.8760 32.5953 0.0000 0.0000 0.0000
# 2 30.8760 101.6334 44.6211 0.0000 0.0000 0.0000
# 3 32.5953 44.6211 79.5715 0.0000 0.0000 0.0000
# 4 0.0000 0.0000 0.0000 12.1668 0.0000 0.0000
# 5 0.0000 0.0000 0.0000 0.0000 7.1636 0.0000
# 6 0.0000 0.0000 0.0000 0.0000 0.0000 22.8158
#
#
#
# Elastic Compliance Matrix: (Units=1/GPa)
#
#
# Indices 1 2 3 4 5 6 
#
# 1 0.010777 -0.001772 -0.003421 0.000000 0.000000 0.000000
# 2 -0.001772 0.013344 -0.006757 0.000000 0.000000 0.000000
# 3 -0.003421 -0.006757 0.017758 0.000000 0.000000 0.000000
# 4 0.000000 0.000000 0.000000 0.082191 0.000000 0.000000
# 5 0.000000 0.000000 0.000000 0.000000 0.139594 0.000000
# 6 0.000000 0.000000 0.000000 0.000000 0.000000 0.043829
#
#
# Mechanical properties :
#
#
# Convention : Reuss Voigt Hill
#
# Bulk Modulus (GPa) = 55.62084 56.17803 55.89944
# Shear Modulus (GPa) = 14.81981 20.51761 17.66871
#
# Velocity S-wave (km/s) = 2.88373 3.39310 3.14873
# Velocity P-wave (km/s) = 6.50373 6.84647 6.67730
#
# Compressibility (1/GPa) = 0.01797887
#
# Stress axis : x y z
#
# Youngs Moduli (GPa) = 92.78907 74.93844 56.31323
#
# Poissons Ratio (x) = 0.13280 0.19264
# Poissons Ratio (y) = 0.16443 0.38051
# Poissons Ratio (z) = 0.31743 0.50637
#
# Static dielectric constant tensor:
#      x y z
#    x 1.612430 0.000000 0.000000 
#    y 0.000000 1.648730 0.000000 
#    z 0.000000 0.000000 1.613530 
# 
# From -- ./inp_files/16104.got.cif
#   From: 2010.05.17/outbox.cif.g08.bks.cpg/sg50_9_cif.got.tgz:16104.got - 2010.06.03 11:33:33.
