data_PCOD9396718
_publ_section_title
;
Structure prediction by ZEFSAII (Michael W. Deem and Ramdas Pophale) SiO2 
 PCOD9396718
Probable space group: P B A N
;
_chemical_formula_sum "Si O2"
_cell_formula_units_Z 40
_cell_length_a 13.232301
_cell_length_b 15.613183
_cell_length_c 8.342029
_cell_angle_alpha 90.000000
_cell_angle_beta 90.000000
_cell_angle_gamma 90.000000
_cell_volume 1723.449319
_symmetry_space_group_name_H-M "P B A N"
_symmetry_group_IT_number 50
_space_group.IT_coordinate_system_code '2'
_symmetry_cell_setting 'orthorhombic'
loop_
_space_group_symop_operation_xyz
x,y,z
1/2-x,1/2-y,z
x,1/2-y,-z
1/2-x,y,-z
-x,-y,-z
1/2+x,1/2+y,-z
-x,1/2+y,z
1/2+x,-y,z
loop_
_atom_site_type_symbol
_atom_site_label
_atom_site_fract_x
_atom_site_fract_y
_atom_site_fract_z
Si Si1 0.471424 0.118805 0.389293
Si Si2 0.199222 0.065633 0.842333
Si Si3 0.584348 0.945030 0.281340
Si Si4 0.363771 0.776780 0.754231
Si Si5 0.583527 0.107765 0.937576
O O1 0.380368 0.121998 0.259003
O O2 0.431265 0.118430 0.569744
O O3 0.560511 0.186337 0.374270
O O4 0.525667 0.029273 0.340941
O O5 0.296967 0.042334 0.736571
O O6 0.149525 0.974670 0.892186
O O7 0.250000 0.107392 0.000000
O O8 0.531243 0.919798 0.111300
O O9 0.250000 0.750000 0.710323
O O10 0.096749 0.812200 0.821830
O O11 0.377868 0.849883 0.895537
#
# Coordination Sequence:
#
# PCOD9396718 Si02
#       5
#     8   8   8   8   8
#     4  10  22  37  58  88 124 165 209 255 310 376
#     4  11  20  36  63  90 118 160 208 257 313 367
#     4  10  21  38  57  86 126 163 207 258 308 372
#     4  11  21  38  60  88 124 159 202 258 314 368
#     4  10  21  36  60  90 120 156 204 255 308 370
#
# _framework density 23.20927
#
# number of rings (size 3 to 8) (size 9 to 14) (size 15 to 20)
#    0.000    1.600    0.000    6.600    0.000    4.000 
#    0.000    6.000    0.000    6.000    0.000    0.000 
#    0.000    0.000    0.000    0.000    0.000    0.000 
#
# Total GULP energy -223205.956640 kJ/mol
# GULP energy per Si atom -5580.148916 kJ/mol
# Density = 2.315644 g / cm^3
# Si number density = 23.209270 Si / 1000 Ang^3
#
#
#
# Elastic Constant Matrix: (Units=GPa)
#
#
# Indices 1 2 3 4 5 6 
#
# 1 175.2932 54.4230 57.6346 0.0000 0.0000 0.0000
# 2 54.4230 53.3207 45.1181 0.0000 0.0000 0.0000
# 3 57.6346 45.1181 112.6834 0.0000 0.0000 0.0000
# 4 0.0000 0.0000 0.0000 33.3664 0.0000 0.0000
# 5 0.0000 0.0000 0.0000 0.0000 17.7981 0.0000
# 6 0.0000 0.0000 0.0000 0.0000 0.0000 33.1525
#
#
#
# Elastic Compliance Matrix: (Units=1/GPa)
#
#
# Indices 1 2 3 4 5 6 
#
# 1 0.008479 -0.007538 -0.001318 0.000000 0.000000 0.000000
# 2 -0.007538 0.035067 -0.010185 0.000000 0.000000 0.000000
# 3 -0.001318 -0.010185 0.013627 0.000000 0.000000 0.000000
# 4 0.000000 0.000000 0.000000 0.029970 0.000000 0.000000
# 5 0.000000 0.000000 0.000000 0.000000 0.056186 0.000000
# 6 0.000000 0.000000 0.000000 0.000000 0.000000 0.030164
#
#
# Mechanical properties :
#
#
# Convention : Reuss Voigt Hill
#
# Bulk Modulus (GPa) = 52.38640 72.84986 62.61813
# Shear Modulus (GPa) = 22.94232 29.13817 26.04024
#
# Velocity S-wave (km/s) = 3.14745 3.54708 3.35322
# Velocity P-wave (km/s) = 5.98573 6.94494 6.48309
#
# Compressibility (1/GPa) = 0.01908892
#
# Stress axis : x y z
#
# Youngs Moduli (GPa) = 117.94404 28.51695 73.38545
#
# Poissons Ratio (x) = 0.21497 0.09674
# Poissons Ratio (y) = 0.88912 0.74743
# Poissons Ratio (z) = 0.15548 0.29044
#
# Static dielectric constant tensor:
#      x y z
#    x 1.905120 0.000000 0.000000 
#    y 0.000000 1.854820 0.000000 
#    z 0.000000 0.000000 2.105750 
# 
# From -- ./inp_files/11042.got.cif
#   From: 2010.05.17/outbox.cif.g08.bks.cpg/sg50_6_cif.got.tgz:11042.got - 2010.06.03 11:33:33.
