data_PCOD9396824
_publ_section_title
;
Structure prediction by ZEFSAII (Michael W. Deem and Ramdas Pophale) SiO2 
 PCOD9396824
Probable space group: P B A N
;
_chemical_formula_sum "Si O2"
_cell_formula_units_Z 58
_cell_length_a 24.802146
_cell_length_b 13.156356
_cell_length_c 8.880334
_cell_angle_alpha 90.000000
_cell_angle_beta 90.000000
_cell_angle_gamma 90.000000
_cell_volume 2897.705044
_symmetry_space_group_name_H-M "P B A N"
_symmetry_group_IT_number 50
_space_group.IT_coordinate_system_code '2'
_symmetry_cell_setting 'orthorhombic'
loop_
_space_group_symop_operation_xyz
x,y,z
1/2-x,1/2-y,z
x,1/2-y,-z
1/2-x,y,-z
-x,-y,-z
1/2+x,1/2+y,-z
-x,1/2+y,z
1/2+x,-y,z
loop_
_atom_site_type_symbol
_atom_site_label
_atom_site_fract_x
_atom_site_fract_y
_atom_site_fract_z
Si Si1 0.229907 0.551844 0.158336
Si Si2 0.942064 0.396764 0.359109
Si Si3 0.376623 0.216167 0.824345
Si Si4 0.853665 0.919054 0.336602
Si Si5 0.002596 0.780261 0.828922
Si Si6 0.250000 0.750000 0.000000
Si Si7 0.335093 0.485342 0.321250
Si Si8 0.459590 0.958130 0.320408
O O1 0.180153 0.493395 0.229064
O O2 0.219365 0.669363 0.108686
O O3 0.279347 0.537517 0.273681
O O4 0.250000 0.504436 0.000000
O O5 0.967236 0.304714 0.268027
O O6 0.882682 0.431457 0.312814
O O7 0.944816 0.385394 0.539243
O O8 0.982061 0.492195 0.337136
O O9 0.350103 0.304091 0.721425
O O10 0.440081 0.207843 0.779575
O O11 0.349146 0.108480 0.789011
O O12 0.372945 0.250000 0.000000
O O13 0.836154 0.939859 0.508797
O O14 0.915666 0.953973 0.319213
O O15 0.035724 0.884785 0.820034
O O16 0.000020 0.750000 0.000000
#
# Coordination Sequence:
#
# PCOD9396824 Si02
#       8
#     8   8   8   8   8   2   8   8
#     4  10  23  46  70  94 125 165 206 259 324 377
#     4  10  21  38  60  87 125 170 212 258 317 377
#     4  11  23  38  61  96 135 175 207 257 324 385
#     4  11  23  41  67  96 128 168 218 268 312 379
#     4  11  23  36  57  90 128 169 217 261 316 383
#     4   8  24  48  74  86 124 172 202 260 328 372
#     4  11  23  41  67  96 128 168 218 268 312 379
#     4  10  21  38  60  87 125 170 212 258 317 377
#
# _framework density 20.015840000000001
#
# number of rings (size 3 to 8) (size 9 to 14) (size 15 to 20)
#    0.414    1.103    2.759    2.069    0.000    5.517 
#    2.483    5.517    0.000    0.000    0.000    0.000 
#    0.000    0.000    0.000    0.000    0.000    0.000 
#
# Total GULP energy -323522.820874 kJ/mol
# GULP energy per Si atom -5577.979670 kJ/mol
# Density = 1.997028 g / cm^3
# Si number density = 20.015840 Si / 1000 Ang^3
#
#
#
# Elastic Constant Matrix: (Units=GPa)
#
#
# Indices 1 2 3 4 5 6 
#
# 1 48.4165 2.6174 13.2215 0.0000 0.0000 0.0000
# 2 2.6174 68.2254 16.9053 0.0000 0.0000 0.0000
# 3 13.2215 16.9053 44.8729 0.0000 0.0000 0.0000
# 4 0.0000 0.0000 0.0000 31.5536 0.0000 0.0000
# 5 0.0000 0.0000 0.0000 0.0000 24.4337 0.0000
# 6 0.0000 0.0000 0.0000 0.0000 0.0000 17.2152
#
#
#
# Elastic Compliance Matrix: (Units=1/GPa)
#
#
# Indices 1 2 3 4 5 6 
#
# 1 0.022507 0.000860 -0.006956 0.000000 0.000000 0.000000
# 2 0.000860 0.016199 -0.006356 0.000000 0.000000 0.000000
# 3 -0.006956 -0.006356 0.026729 0.000000 0.000000 0.000000
# 4 0.000000 0.000000 0.000000 0.031692 0.000000 0.000000
# 5 0.000000 0.000000 0.000000 0.000000 0.040927 0.000000
# 6 0.000000 0.000000 0.000000 0.000000 0.000000 0.058088
#
#
# Mechanical properties :
#
#
# Convention : Reuss Voigt Hill
#
# Bulk Modulus (GPa) = 24.67189 25.22257 24.94723
# Shear Modulus (GPa) = 21.31676 23.22520 22.27098
#
# Velocity S-wave (km/s) = 3.26697 3.41007 3.33929
# Velocity P-wave (km/s) = 5.15594 5.30410 5.23054
#
# Compressibility (1/GPa) = 0.04053196
#
# Stress axis : x y z
#
# Youngs Moduli (GPa) = 44.43055 61.73105 37.41223
#
# Poissons Ratio (x) = -0.05309 0.26022
# Poissons Ratio (y) = -0.03821 0.23780
# Poissons Ratio (z) = 0.30904 0.39238
#
# Static dielectric constant tensor:
#      x y z
#    x 1.689130 0.000000 0.000000 
#    y 0.000000 1.700720 0.000000 
#    z 0.000000 0.000000 1.739820 
# 
# From -- ./inp_files/16559.got.cif
#   From: 2010.05.17/outbox.cif.g08.bks.cpg/sg50_9_cif.got.tgz:16559.got - 2010.06.03 11:33:33.
