data_PCOD9396037
_publ_section_title
;
Structure prediction by ZEFSAII (Michael W. Deem and Ramdas Pophale) SiO2 
 PCOD9396037
Probable space group: P B A N
;
_chemical_formula_sum "Si O2"
_cell_formula_units_Z 64
_cell_length_a 20.024574
_cell_length_b 14.672913
_cell_length_c 11.142517
_cell_angle_alpha 90.000000
_cell_angle_beta 90.000000
_cell_angle_gamma 90.000000
_cell_volume 3273.881332
_symmetry_space_group_name_H-M "P B A N"
_symmetry_group_IT_number 50
_space_group.IT_coordinate_system_code '2'
_symmetry_cell_setting 'orthorhombic'
loop_
_space_group_symop_operation_xyz
x,y,z
1/2-x,1/2-y,z
x,1/2-y,-z
1/2-x,y,-z
-x,-y,-z
1/2+x,1/2+y,-z
-x,1/2+y,z
1/2+x,-y,z
loop_
_atom_site_type_symbol
_atom_site_label
_atom_site_fract_x
_atom_site_fract_y
_atom_site_fract_z
Si Si1 0.068216 0.032260 0.939338
Si Si2 0.371213 0.324659 0.100923
Si Si3 0.281185 0.902856 0.636214
Si Si4 0.351021 0.378801 0.594168
Si Si5 0.641138 0.430868 0.269131
Si Si6 0.038722 0.302355 0.237737
Si Si7 0.097333 0.738393 0.639874
Si Si8 0.802577 0.614003 0.337266
O O1 0.047318 0.113564 0.851167
O O2 0.110086 0.963063 0.856631
O O3 0.115459 0.079808 0.036984
O O4 0.000000 0.000000 0.000000
O O5 0.439364 0.285817 0.160986
O O6 0.322747 0.341561 0.212307
O O7 0.350107 0.250000 0.000000
O O8 0.250000 0.896983 0.500000
O O9 0.218775 0.901462 0.727068
O O10 0.336369 0.824470 0.651468
O O11 0.309892 0.003922 0.658000
O O12 0.365013 0.484103 0.636492
O O13 0.405841 0.318912 0.660200
O O14 0.275144 0.363722 0.639143
O O15 0.346562 0.359773 0.452952
O O16 0.605243 0.340356 0.311985
O O17 0.965705 0.302665 0.292160
O O18 0.083041 0.750000 0.500000
#
# Coordination Sequence:
#
# PCOD9396037 Si02
#       8
#     8   8   8   8   8   8   8   8
#     4  10  22  44  66  85 127 179 218 269 322 379
#     4  10  23  42  64  93 125 172 224 274 315 389
#     4  11  20  40  63  98 132 163 209 259 333 394
#     4   9  19  40  62  95 129 162 200 268 337 394
#     4  10  20  40  64  93 126 169 213 264 324 392
#     4  10  24  40  58  97 132 159 222 267 328 399
#     4  12  23  35  63 102 129 168 204 266 332 401
#     4  10  19  38  69  88 127 169 209 263 334 392
#
# _framework density 19.548660999999999
#
# number of rings (size 3 to 8) (size 9 to 14) (size 15 to 20)
#    0.000    1.750    3.750    1.125    3.500    0.500 
#    0.000   17.500    0.000    0.000    6.500    0.000 
#    0.000    0.000    0.000    0.000    0.000    0.000 
#
# Total GULP energy -357190.447618 kJ/mol
# GULP energy per Si atom -5581.100744 kJ/mol
# Density = 1.950417 g / cm^3
# Si number density = 19.548661 Si / 1000 Ang^3
#
#
#
# Elastic Constant Matrix: (Units=GPa)
#
#
# Indices 1 2 3 4 5 6 
#
# 1 71.8649 33.5383 61.5984 0.0000 0.0000 0.0000
# 2 33.5383 68.7458 41.3661 0.0000 0.0000 0.0000
# 3 61.5984 41.3661 129.3510 0.0000 0.0000 0.0000
# 4 0.0000 0.0000 0.0000 24.3616 0.0000 0.0000
# 5 0.0000 0.0000 0.0000 0.0000 37.5742 0.0000
# 6 0.0000 0.0000 0.0000 0.0000 0.0000 -45.9304
#
#
#
# Elastic Compliance Matrix: (Units=1/GPa)
#
#
# Indices 1 2 3 4 5 6 
#
# 1 0.025588 -0.006379 -0.010145 0.000000 0.000000 0.000000
# 2 -0.006379 0.019603 -0.003231 0.000000 0.000000 0.000000
# 3 -0.010145 -0.003231 0.013596 0.000000 0.000000 0.000000
# 4 0.000000 0.000000 0.000000 0.041048 0.000000 0.000000
# 5 0.000000 0.000000 0.000000 0.000000 0.026614 0.000000
# 6 0.000000 0.000000 0.000000 0.000000 0.000000 -0.021772
#
#
# Mechanical properties :
#
#
# Convention : Reuss Voigt Hill
#
# Bulk Modulus (GPa) = 51.87927 60.32968 56.10448
# Shear Modulus (GPa) = 33.19797 12.09833 22.64815
#
# Velocity S-wave (km/s) = 4.12542 2.49043 3.40744
# Velocity P-wave (km/s) = 7.02056 6.26083 6.65155
#
# Compressibility (1/GPa) = 0.01927552
#
# Stress axis : x y z
#
# Youngs Moduli (GPa) = 39.08119 51.01376 73.55331
#
# Poissons Ratio (x) = 0.32539 0.74622
# Poissons Ratio (y) = 0.24928 0.23767
# Poissons Ratio (z) = 0.39649 0.16484
#
# Static dielectric constant tensor:
#      x y z
#    x 1.714580 0.000000 0.000000 
#    y 0.000000 1.750300 0.000000 
#    z 0.000000 0.000000 1.695700 
# 
# From -- ./inp_files/21941.got.cif
#   From: 2010.05.17/outbox.cif.g08.bks.cpg/sg50_11_cif.got.tgz:21941.got - 2010.06.03 11:33:33.
