data_PCOD9396097
_publ_section_title
;
Structure prediction by ZEFSAII (Michael W. Deem and Ramdas Pophale) SiO2 
 PCOD9396097
Probable space group: P B A N
;
_chemical_formula_sum "Si O2"
_cell_formula_units_Z 56
_cell_length_a 9.512241
_cell_length_b 13.303180
_cell_length_c 20.089610
_cell_angle_alpha 90.000000
_cell_angle_beta 90.000000
_cell_angle_gamma 90.000000
_cell_volume 2542.200608
_symmetry_space_group_name_H-M "P B A N"
_symmetry_group_IT_number 50
_space_group.IT_coordinate_system_code '2'
_symmetry_cell_setting 'orthorhombic'
loop_
_space_group_symop_operation_xyz
x,y,z
1/2-x,1/2-y,z
x,1/2-y,-z
1/2-x,y,-z
-x,-y,-z
1/2+x,1/2+y,-z
-x,1/2+y,z
1/2+x,-y,z
loop_
_atom_site_type_symbol
_atom_site_label
_atom_site_fract_x
_atom_site_fract_y
_atom_site_fract_z
Si Si1 0.559493 0.874212 0.069687
Si Si2 0.759729 0.370189 0.879603
Si Si3 0.749202 0.868269 0.419982
Si Si4 0.752197 0.446713 0.270397
Si Si5 0.998546 0.000487 0.355620
Si Si6 0.966985 0.630992 0.923970
Si Si7 0.731319 0.866667 0.810736
O O1 0.404233 0.908864 0.089809
O O2 0.551376 0.752009 0.071622
O O3 0.661517 0.897007 0.130542
O O4 0.596087 0.902182 0.994353
O O5 0.750000 0.250000 0.885121
O O6 0.751558 0.395518 0.801612
O O7 0.626935 0.404072 0.922328
O O8 0.750000 0.750000 0.398581
O O9 0.750000 0.869275 0.500000
O O10 0.609042 0.928900 0.395599
O O11 0.888646 0.929541 0.395617
O O12 0.608058 0.431430 0.311002
O O13 0.751397 0.565614 0.252800
O O14 0.896074 0.431714 0.310790
O O15 0.912399 0.610904 0.849489
O O16 0.750000 0.750000 0.796057
#
# Coordination Sequence:
#
# PCOD9396097 Si02
#       7
#     8   8   8   8   8   8   8
#     4   9  17  31  50  70  95 134 188 253 323 383
#     4  10  20  33  49  69 101 144 190 249 313 376
#     4  10  22  44  74 105 137 174 214 256 306 361
#     4  11  22  37  55  84 122 162 207 250 304 373
#     4  10  23  40  64  96 135 174 210 260 308 364
#     4   9  17  31  50  70  95 134 188 253 323 383
#     4  10  20  34  53  75 105 147 196 255 315 374
#
# _framework density 22.02816
#
# number of rings (size 3 to 8) (size 9 to 14) (size 15 to 20)
#    0.000    2.143    0.000    3.000    0.000    6.857 
#    0.000    6.429    0.000    7.714    0.000    0.000 
#    0.000    0.000    0.000    0.000    0.000    0.000 
#
# Total GULP energy -312670.122482 kJ/mol
# GULP energy per Si atom -5583.395044 kJ/mol
# Density = 2.197802 g / cm^3
# Si number density = 22.028160 Si / 1000 Ang^3
#
#
#
# Elastic Constant Matrix: (Units=GPa)
#
#
# Indices 1 2 3 4 5 6 
#
# 1 124.6437 0.9378 44.2296 0.0000 0.0000 0.0000
# 2 0.9378 102.5635 14.0921 0.0000 0.0000 0.0000
# 3 44.2296 14.0921 95.4854 0.0000 0.0000 0.0000
# 4 0.0000 0.0000 0.0000 33.0471 0.0000 0.0000
# 5 0.0000 0.0000 0.0000 0.0000 26.3383 0.0000
# 6 0.0000 0.0000 0.0000 0.0000 0.0000 11.3071
#
#
#
# Elastic Compliance Matrix: (Units=1/GPa)
#
#
# Indices 1 2 3 4 5 6 
#
# 1 0.009630 0.000536 -0.004540 0.000000 0.000000 0.000000
# 2 0.000536 0.009982 -0.001721 0.000000 0.000000 0.000000
# 3 -0.004540 -0.001721 0.012830 0.000000 0.000000 0.000000
# 4 0.000000 0.000000 0.000000 0.030260 0.000000 0.000000
# 5 0.000000 0.000000 0.000000 0.000000 0.037967 0.000000
# 6 0.000000 0.000000 0.000000 0.000000 0.000000 0.088440
#
#
# Mechanical properties :
#
#
# Convention : Reuss Voigt Hill
#
# Bulk Modulus (GPa) = 47.64036 49.02350 48.33193
# Shear Modulus (GPa) = 24.08989 31.70071 27.89530
#
# Velocity S-wave (km/s) = 3.31054 3.79766 3.56244
# Velocity P-wave (km/s) = 6.02386 6.44460 6.23778
#
# Compressibility (1/GPa) = 0.02099061
#
# Stress axis : x y z
#
# Youngs Moduli (GPa) = 103.84526 100.18376 77.94463
#
# Poissons Ratio (x) = -0.05367 0.35384
# Poissons Ratio (y) = -0.05563 0.13416
# Poissons Ratio (z) = 0.47142 0.17244
#
# Static dielectric constant tensor:
#      x y z
#    x 1.872280 0.000000 0.000000 
#    y 0.000000 1.977060 0.000000 
#    z 0.000000 0.000000 1.748640 
# 
# From -- ./inp_files/30641.got.cif
#   From: 2010.05.17/outbox.cif.g08.bks.cpg/sg50_16_cif.got.tgz:30641.got - 2010.06.03 11:33:33.
