data_PCOD9396176
_publ_section_title
;
Structure prediction by ZEFSAII (Michael W. Deem and Ramdas Pophale) SiO2 
 PCOD9396176
Probable space group: P B A N
;
_chemical_formula_sum "Si O2"
_cell_formula_units_Z 48
_cell_length_a 9.283338
_cell_length_b 28.686422
_cell_length_c 7.999975
_cell_angle_alpha 90.000000
_cell_angle_beta 90.000000
_cell_angle_gamma 90.000000
_cell_volume 2130.439354
_symmetry_space_group_name_H-M "P B A N"
_symmetry_group_IT_number 50
_space_group.IT_coordinate_system_code '2'
_symmetry_cell_setting 'orthorhombic'
loop_
_space_group_symop_operation_xyz
x,y,z
1/2-x,1/2-y,z
x,1/2-y,-z
1/2-x,y,-z
-x,-y,-z
1/2+x,1/2+y,-z
-x,1/2+y,z
1/2+x,-y,z
loop_
_atom_site_type_symbol
_atom_site_label
_atom_site_fract_x
_atom_site_fract_y
_atom_site_fract_z
Si Si1 0.170314 0.043558 0.181933
Si Si2 0.716088 0.355054 0.804076
Si Si3 0.460324 0.306321 0.682039
Si Si4 0.176564 0.546262 0.184683
Si Si5 0.695725 0.853455 0.188983
Si Si6 0.451983 0.705160 0.701825
O O1 0.199451 0.094236 0.259786
O O2 0.996033 0.039245 0.169442
O O3 0.244759 0.998558 0.265149
O O4 0.250000 0.045672 0.000000
O O5 0.548318 0.348756 0.765453
O O6 0.781117 0.403765 0.737739
O O7 0.787626 0.310047 0.717165
O O8 0.750000 0.351751 0.000000
O O9 0.294492 0.317840 0.709438
O O10 0.499061 0.302196 0.488178
O O11 0.505178 0.256612 0.759139
O O12 0.250000 0.549255 0.000000
O O13 0.535998 0.833295 0.191009
O O14 0.750000 0.853867 0.000000
#
# Coordination Sequence:
#
# PCOD9396176 Si02
#       6
#     8   8   8   8   8   8
#     4  10  20  34  59  90 126 159 198 250 307 369
#     4  11  23  38  63  95 123 154 206 260 305 352
#     4  11  25  39  66  83 122 174 201 251 302 375
#     4  10  20  34  59  90 126 159 198 250 307 369
#     4  11  23  38  63  95 123 154 206 260 305 352
#     4  11  23  45  58  89 122 164 215 239 310 377
#
# _framework density 22.530563999999998
#
# number of rings (size 3 to 8) (size 9 to 14) (size 15 to 20)
#    0.000    1.333    1.667    5.000    9.333    6.667 
#    0.000    0.000    0.000    6.000    0.000    0.000 
#    0.000    0.000    0.000    0.000    0.000    0.000 
#
# Total GULP energy -268105.905591 kJ/mol
# GULP energy per Si atom -5585.539700 kJ/mol
# Density = 2.247928 g / cm^3
# Si number density = 22.530564 Si / 1000 Ang^3
#
#
#
# Elastic Constant Matrix: (Units=GPa)
#
#
# Indices 1 2 3 4 5 6 
#
# 1 107.3019 36.4327 3.7319 0.0000 0.0000 0.0000
# 2 36.4327 159.4942 4.5701 0.0000 0.0000 0.0000
# 3 3.7319 4.5701 33.7517 0.0000 0.0000 0.0000
# 4 0.0000 0.0000 0.0000 57.5787 0.0000 0.0000
# 5 0.0000 0.0000 0.0000 0.0000 31.2159 0.0000
# 6 0.0000 0.0000 0.0000 0.0000 0.0000 35.5636
#
#
#
# Elastic Compliance Matrix: (Units=1/GPa)
#
#
# Indices 1 2 3 4 5 6 
#
# 1 0.010125 -0.002290 -0.000809 0.000000 0.000000 0.000000
# 2 -0.002290 0.006812 -0.000669 0.000000 0.000000 0.000000
# 3 -0.000809 -0.000669 0.029808 0.000000 0.000000 0.000000
# 4 0.000000 0.000000 0.000000 0.017368 0.000000 0.000000
# 5 0.000000 0.000000 0.000000 0.000000 0.032035 0.000000
# 6 0.000000 0.000000 0.000000 0.000000 0.000000 0.028119
#
#
# Mechanical properties :
#
#
# Convention : Reuss Voigt Hill
#
# Bulk Modulus (GPa) = 25.50458 43.33525 34.41991
# Shear Modulus (GPa) = 34.51305 41.92583 38.21944
#
# Velocity S-wave (km/s) = 3.91811 4.31843 4.12313
# Velocity P-wave (km/s) = 5.64033 6.64386 6.16256
#
# Compressibility (1/GPa) = 0.03920865
#
# Stress axis : x y z
#
# Youngs Moduli (GPa) = 98.76485 146.79956 33.54775
#
# Poissons Ratio (x) = 0.33612 0.02716
# Poissons Ratio (y) = 0.22614 0.02245
# Poissons Ratio (z) = 0.07995 0.09824
#
# Static dielectric constant tensor:
#      x y z
#    x 1.773340 0.000000 0.000000 
#    y 0.000000 1.898940 0.000000 
#    z 0.000000 0.000000 1.839370 
# 
# From -- ./inp_files/10044.got.cif
#   From: 2010.05.17/outbox.cif.g08.bks.cpg/sg50_6_cif.got.tgz:10044.got - 2010.06.03 11:33:33.
