data_PCOD9396641
_publ_section_title
;
Structure prediction by ZEFSAII (Michael W. Deem and Ramdas Pophale) SiO2 
 PCOD9396641
Probable space group: P B A N
;
_chemical_formula_sum "Si O2"
_cell_formula_units_Z 30
_cell_length_a 38.277465
_cell_length_b 5.142498
_cell_length_c 7.404936
_cell_angle_alpha 90.000000
_cell_angle_beta 90.000000
_cell_angle_gamma 90.000000
_cell_volume 1457.600836
_symmetry_space_group_name_H-M "P B A N"
_symmetry_group_IT_number 50
_space_group.IT_coordinate_system_code '2'
_symmetry_cell_setting 'orthorhombic'
loop_
_space_group_symop_operation_xyz
x,y,z
1/2-x,1/2-y,z
x,1/2-y,-z
1/2-x,y,-z
-x,-y,-z
1/2+x,1/2+y,-z
-x,1/2+y,z
1/2+x,-y,z
loop_
_atom_site_type_symbol
_atom_site_label
_atom_site_fract_x
_atom_site_fract_y
_atom_site_fract_z
Si Si1 0.901413 0.749492 0.716343
Si Si2 0.750000 0.750000 0.000000
Si Si3 0.641342 0.250953 0.718595
Si Si4 0.200924 0.750000 0.000000
Si Si5 0.482016 0.236856 0.212687
O O1 0.901507 0.750000 0.500000
O O2 0.874557 0.526472 0.774356
O O3 0.940879 0.692780 0.772096
O O4 0.887135 0.030881 0.769372
O O5 0.777990 0.516077 0.944885
O O6 0.646539 0.250000 0.500000
O O7 0.676413 0.309768 0.828022
O O8 0.494389 0.509081 0.291935
O O9 0.489983 0.250000 0.000000
#
# Coordination Sequence:
#
# PCOD9396641 Si02
#       5
#     8   2   8   4   8
#     4  10  21  36  55  82 113 145 196 246 283 341
#     4  10  24  42  62  98 120 146 204 208 266 354
#     4  10  22  38  60  91 116 148 195 235 283 338
#     4  11  22  42  66  86 124 157 174 239 272 330
#     4  10  21  34  49  74 109 148 194 239 289 348
#
# _framework density 20.581764
#
# number of rings (size 3 to 8) (size 9 to 14) (size 15 to 20)
#    0.000    1.867    0.000    3.200    3.733    1.067 
#    0.000    4.000    0.000    0.000    0.000    0.000 
#    0.000    0.000    0.000    0.000    0.000    0.000 
#
# Total GULP energy -167009.963937 kJ/mol
# GULP energy per Si atom -5566.998798 kJ/mol
# Density = 2.053492 g / cm^3
# Si number density = 20.581764 Si / 1000 Ang^3
#
#
#
# Elastic Constant Matrix: (Units=GPa)
#
#
# Indices 1 2 3 4 5 6 
#
# 1 66.2561 7.7942 -3.6839 0.0000 0.0000 0.0000
# 2 7.7942 89.5698 0.9961 0.0000 0.0000 0.0000
# 3 -3.6839 0.9961 56.1769 0.0000 0.0000 0.0000
# 4 0.0000 0.0000 0.0000 -1.3974 0.0000 0.0000
# 5 0.0000 0.0000 0.0000 0.0000 -29.6487 0.0000
# 6 0.0000 0.0000 0.0000 0.0000 0.0000 48.2870
#
#
#
# Elastic Compliance Matrix: (Units=1/GPa)
#
#
# Indices 1 2 3 4 5 6 
#
# 1 0.015308 -0.001344 0.001028 0.000000 0.000000 0.000000
# 2 -0.001344 0.011285 -0.000288 0.000000 0.000000 0.000000
# 3 0.001028 -0.000288 0.017873 0.000000 0.000000 0.000000
# 4 0.000000 0.000000 0.000000 -0.715630 0.000000 0.000000
# 5 0.000000 0.000000 0.000000 0.000000 -0.033728 0.000000
# 6 0.000000 0.000000 0.000000 0.000000 0.000000 0.020710
#
#
# Mechanical properties :
#
#
# Convention : Reuss Voigt Hill
#
# Bulk Modulus (GPa) = 23.11706 24.69063 23.90385
# Shear Modulus (GPa) = -7.47881 17.24128 4.88123
#
# Velocity S-wave (km/s) = -1.90830 2.89744 1.54168
# Velocity P-wave (km/s) = 2.52997 4.81829 3.84816
#
# Compressibility (1/GPa) = 0.04325809
#
# Stress axis : x y z
#
# Youngs Moduli (GPa) = 65.32468 88.61643 55.94901
#
# Poissons Ratio (x) = 0.11906 -0.05750
# Poissons Ratio (y) = 0.08777 0.01612
# Poissons Ratio (z) = -0.06713 0.02554
#
# Static dielectric constant tensor:
#      x y z
#    x 1.701320 0.000000 0.000000 
#    y 0.000000 1.830950 0.000000 
#    z 0.000000 0.000000 1.806210 
# 
# From -- ./inp_files/7930.got.cif
#   From: 2010.05.17/outbox.cif.g08.bks.cpg/sg50_4_cif.got.tgz:7930.got - 2010.06.03 11:33:33.
