data_PCOD9396297
_publ_section_title
;
Structure prediction by ZEFSAII (Michael W. Deem and Ramdas Pophale) SiO2 
 PCOD9396297
Probable space group: P B A N
;
_chemical_formula_sum "Si O2"
_cell_formula_units_Z 56
_cell_length_a 15.759647
_cell_length_b 20.530454
_cell_length_c 9.024743
_cell_angle_alpha 90.000000
_cell_angle_beta 90.000000
_cell_angle_gamma 90.000000
_cell_volume 2919.980035
_symmetry_space_group_name_H-M "P B A N"
_symmetry_group_IT_number 50
_space_group.IT_coordinate_system_code '2'
_symmetry_cell_setting 'orthorhombic'
loop_
_space_group_symop_operation_xyz
x,y,z
1/2-x,1/2-y,z
x,1/2-y,-z
1/2-x,y,-z
-x,-y,-z
1/2+x,1/2+y,-z
-x,1/2+y,z
1/2+x,-y,z
loop_
_atom_site_type_symbol
_atom_site_label
_atom_site_fract_x
_atom_site_fract_y
_atom_site_fract_z
Si Si1 0.979373 0.741360 0.171236
Si Si2 0.289226 0.184779 0.833095
Si Si3 0.925023 0.121602 0.187875
Si Si4 0.532600 0.510761 0.333670
Si Si5 0.729473 0.947432 0.672368
Si Si6 0.237351 0.918453 0.175267
Si Si7 0.943420 0.125760 0.832730
O O1 0.888177 0.705377 0.165236
O O2 0.040579 0.689726 0.247200
O O3 0.997393 0.814796 0.224811
O O4 0.005516 0.750000 0.000000
O O5 0.250000 0.250000 0.760821
O O6 0.263099 0.117979 0.752999
O O7 0.250000 0.180241 0.000000
O O8 0.825667 0.114340 0.219489
O O9 0.969222 0.059814 0.259432
O O10 0.945394 0.119167 0.011658
O O11 0.500000 0.500000 0.500000
O O12 0.628251 0.539453 0.318448
O O13 0.475078 0.560484 0.243761
O O14 0.750000 0.942565 0.500000
O O15 0.771492 0.012212 0.743034
O O16 0.157147 0.871710 0.200611
O O17 0.250000 0.932288 0.000000
#
# Coordination Sequence:
#
# PCOD9396297 Si02
#       7
#     8   8   8   8   8   8   8
#     4  10  20  36  60  90 117 153 195 242 299 349
#     4  11  22  38  60  84 119 156 197 240 296 363
#     4   9  21  36  60  87 119 150 196 243 294 356
#     4  11  23  38  58  86 118 158 201 248 297 347
#     4  11  24  38  58  86 120 158 197 246 299 352
#     4   9  19  38  59  90 117 152 193 241 298 350
#     4  10  20  37  62  86 118 153 197 243 296 358
#
# _framework density 19.178213
#
# number of rings (size 3 to 8) (size 9 to 14) (size 15 to 20)
#    0.000    1.857    1.429    2.571    6.000    0.857 
#    0.000    3.571    0.000    0.000    0.000    3.000 
#    0.000    0.000    0.000    0.000    0.000    0.000 
#
# Total GULP energy -312027.589199 kJ/mol
# GULP energy per Si atom -5571.921236 kJ/mol
# Density = 1.913456 g / cm^3
# Si number density = 19.178213 Si / 1000 Ang^3
#
#
#
# Elastic Constant Matrix: (Units=GPa)
#
#
# Indices 1 2 3 4 5 6 
#
# 1 73.6085 55.0832 28.6833 0.0000 0.0000 0.0000
# 2 55.0832 110.7525 33.8662 0.0000 0.0000 0.0000
# 3 28.6833 33.8662 32.0421 0.0000 0.0000 0.0000
# 4 0.0000 0.0000 0.0000 -17.1625 0.0000 0.0000
# 5 0.0000 0.0000 0.0000 0.0000 18.2292 0.0000
# 6 0.0000 0.0000 0.0000 0.0000 0.0000 32.6191
#
#
#
# Elastic Compliance Matrix: (Units=1/GPa)
#
#
# Indices 1 2 3 4 5 6 
#
# 1 0.025158 -0.008312 -0.013735 0.000000 0.000000 0.000000
# 2 -0.008312 0.016087 -0.009562 0.000000 0.000000 0.000000
# 3 -0.013735 -0.009562 0.053611 0.000000 0.000000 0.000000
# 4 0.000000 0.000000 0.000000 -0.058267 0.000000 0.000000
# 5 0.000000 0.000000 0.000000 0.000000 0.054857 0.000000
# 6 0.000000 0.000000 0.000000 0.000000 0.000000 0.030657
#
#
# Mechanical properties :
#
#
# Convention : Reuss Voigt Hill
#
# Bulk Modulus (GPa) = 31.60882 50.18537 40.89710
# Shear Modulus (GPa) = 25.52738 13.32185 19.42462
#
# Velocity S-wave (km/s) = 3.65233 2.63845 3.18598
# Velocity P-wave (km/s) = 5.85691 5.95874 5.90805
#
# Compressibility (1/GPa) = 0.03163674
#
# Stress axis : x y z
#
# Youngs Moduli (GPa) = 39.74869 62.16102 18.65303
#
# Poissons Ratio (x) = 0.51671 0.25620
# Poissons Ratio (y) = 0.33041 0.17836
# Poissons Ratio (z) = 0.54595 0.59438
#
# Static dielectric constant tensor:
#      x y z
#    x 1.748520 0.000000 0.000000 
#    y 0.000000 1.671080 0.000000 
#    z 0.000000 0.000000 1.648410 
# 
# From -- ./inp_files/13269.got.cif
#   From: 2010.05.17/outbox.cif.g08.bks.cpg/sg50_7_cif.got.tgz:13269.got - 2010.06.03 11:33:33.
