data_PCOD9396754
_publ_section_title
;
Structure prediction by ZEFSAII (Michael W. Deem and Ramdas Pophale) SiO2 
 PCOD9396754
Probable space group: P B A N
;
_chemical_formula_sum "Si O2"
_cell_formula_units_Z 30
_cell_length_a 5.462560
_cell_length_b 14.149684
_cell_length_c 17.298067
_cell_angle_alpha 90.000000
_cell_angle_beta 90.000000
_cell_angle_gamma 90.000000
_cell_volume 1337.028104
_symmetry_space_group_name_H-M "P B A N"
_symmetry_group_IT_number 50
_space_group.IT_coordinate_system_code '2'
_symmetry_cell_setting 'orthorhombic'
loop_
_space_group_symop_operation_xyz
x,y,z
1/2-x,1/2-y,z
x,1/2-y,-z
1/2-x,y,-z
-x,-y,-z
1/2+x,1/2+y,-z
-x,1/2+y,z
1/2+x,-y,z
loop_
_atom_site_type_symbol
_atom_site_label
_atom_site_fract_x
_atom_site_fract_y
_atom_site_fract_z
Si Si1 0.749046 0.862045 0.170435
Si Si2 0.750000 0.940297 0.000000
Si Si3 0.857792 0.142707 0.422557
Si Si4 0.250000 0.250000 0.500000
Si Si5 0.749729 0.365901 0.253136
O O1 0.750000 0.750000 0.181380
O O2 0.758309 0.883118 0.079735
O O3 0.489037 0.894954 0.204511
O O4 0.994225 0.895495 0.214634
O O5 0.500000 0.000000 0.000000
O O6 0.750000 0.250000 0.421773
O O7 0.750000 0.095353 0.500000
O O8 0.789477 0.099344 0.341032
O O9 0.132912 0.173504 0.440548
O O10 0.750000 0.250000 0.255213
#
# Coordination Sequence:
#
# PCOD9396754 Si02
#       5
#     8   4   8   2   8
#     4  10  21  37  57  83 110 144 180 227 274 327
#     4  12  25  42  63  82 110 140 180 226 283 340
#     4   8  15  22  36  64 103 151 182 210 258 319
#     4   8  14  20  36  58 104 154 190 200 266 316
#     4   9  18  29  49  75 110 146 183 219 265 320
#
# _framework density 22.437823999999999
#
# number of rings (size 3 to 8) (size 9 to 14) (size 15 to 20)
#    0.000    2.933    0.000    2.000   13.067    0.000 
#    0.000    5.333    0.000    0.000    0.000    0.000 
#    0.000   21.333    0.000    0.000    0.000    0.000 
#
# Total GULP energy -167171.420021 kJ/mol
# GULP energy per Si atom -5572.380667 kJ/mol
# Density = 2.238675 g / cm^3
# Si number density = 22.437824 Si / 1000 Ang^3
#
#
#
# Elastic Constant Matrix: (Units=GPa)
#
#
# Indices 1 2 3 4 5 6 
#
# 1 167.6705 16.0796 93.2953 0.0000 0.0000 0.0000
# 2 16.0796 58.8235 7.2608 0.0000 0.0000 0.0000
# 3 93.2953 7.2608 223.1543 0.0000 0.0000 0.0000
# 4 0.0000 0.0000 0.0000 -23.0920 0.0000 0.0000
# 5 0.0000 0.0000 0.0000 0.0000 58.4401 0.0000
# 6 0.0000 0.0000 0.0000 0.0000 0.0000 -16.7275
#
#
#
# Elastic Compliance Matrix: (Units=1/GPa)
#
#
# Indices 1 2 3 4 5 6 
#
# 1 0.007952 -0.001770 -0.003267 0.000000 0.000000 0.000000
# 2 -0.001770 0.017463 0.000172 0.000000 0.000000 0.000000
# 3 -0.003267 0.000172 0.005841 0.000000 0.000000 0.000000
# 4 0.000000 0.000000 0.000000 -0.043305 0.000000 0.000000
# 5 0.000000 0.000000 0.000000 0.000000 0.017112 0.000000
# 6 0.000000 0.000000 0.000000 0.000000 0.000000 -0.059782
#
#
# Mechanical properties :
#
#
# Convention : Reuss Voigt Hill
#
# Bulk Modulus (GPa) = 46.45691 75.87999 61.16845
# Shear Modulus (GPa) = -132.22527 25.92496 -53.15016
#
# Velocity S-wave (km/s) = -7.68489 3.40282 -4.87229
# Velocity P-wave (km/s) = 7.61536 7.02355 2.08128
#
# Compressibility (1/GPa) = 0.02152532
#
# Stress axis : x y z
#
# Youngs Moduli (GPa) = 125.76189 57.26487 171.19324
#
# Poissons Ratio (x) = 0.10138 0.55924
# Poissons Ratio (y) = 0.22264 -0.02944
# Poissons Ratio (z) = 0.41083 -0.00985
#
# Static dielectric constant tensor:
#      x y z
#    x 1.354530 0.000000 0.000000 
#    y 0.000000 1.814690 0.000000 
#    z 0.000000 0.000000 2.054050 
# 
# From -- ./inp_files/23678.got.cif
#   From: 2010.05.17/outbox.cif.g08.bks.cpg/sg50_12_cif.got.tgz:23678.got - 2010.06.03 11:33:33.
