data_PCOD9396104
_publ_section_title
;
Structure prediction by ZEFSAII (Michael W. Deem and Ramdas Pophale) SiO2 
 PCOD9396104
Probable space group: P B A N
;
_chemical_formula_sum "Si O2"
_cell_formula_units_Z 64
_cell_length_a 19.237282
_cell_length_b 29.457863
_cell_length_c 5.539459
_cell_angle_alpha 90.000000
_cell_angle_beta 90.000000
_cell_angle_gamma 90.000000
_cell_volume 3139.151687
_symmetry_space_group_name_H-M "P B A N"
_symmetry_group_IT_number 50
_space_group.IT_coordinate_system_code '2'
_symmetry_cell_setting 'orthorhombic'
loop_
_space_group_symop_operation_xyz
x,y,z
1/2-x,1/2-y,z
x,1/2-y,-z
1/2-x,y,-z
-x,-y,-z
1/2+x,1/2+y,-z
-x,1/2+y,z
1/2+x,-y,z
loop_
_atom_site_type_symbol
_atom_site_label
_atom_site_fract_x
_atom_site_fract_y
_atom_site_fract_z
Si Si1 0.682474 0.424481 0.171750
Si Si2 0.042330 0.050974 0.722501
Si Si3 0.589022 0.019182 0.116975
Si Si4 0.505635 0.347589 0.752434
Si Si5 0.292273 0.680615 0.745485
Si Si6 0.677137 0.986614 0.487499
Si Si7 0.444455 0.690855 0.748188
Si Si8 0.578626 0.759478 0.749303
O O1 0.685960 0.373246 0.271762
O O2 0.683470 0.466500 0.359829
O O3 0.750000 0.426428 0.000000
O O4 0.610614 0.436006 0.030146
O O5 0.027718 0.103231 0.759190
O O6 0.109593 0.041800 0.562486
O O7 0.964538 0.031816 0.669742
O O8 0.059829 0.022236 0.962084
O O9 0.661441 0.001805 0.218205
O O10 0.545396 0.338134 0.499018
O O11 0.444410 0.311058 0.749309
O O12 0.546618 0.336114 0.999155
O O13 0.250000 0.691028 0.500000
O O14 0.365081 0.707927 0.749134
O O15 0.250000 0.686357 0.000000
O O16 0.750000 0.961627 0.500000
O O17 0.506432 0.728761 0.747297
O O18 0.616345 0.750000 0.500000
O O19 0.615541 0.750000 0.000000
#
# Coordination Sequence:
#
# PCOD9396104 Si02
#       8
#     8   8   8   8   8   8   8   8
#     4  10  20  33  51  73 101 150 201 236 276 333
#     4  10  23  34  52  82 110 146 187 244 288 334
#     4  10  21  37  51  76 112 143 196 241 285 330
#     4  10  20  35  58  80 107 143 181 230 286 345
#     4  11  23  34  51  79 110 144 197 247 278 330
#     4  11  21  35  56  72 107 153 190 230 283 344
#     4  10  20  35  57  80 111 146 182 232 297 343
#     4   8  16  32  54  78 102 137 176 219 279 353
#
# _framework density 20.387672999999999
#
# number of rings (size 3 to 8) (size 9 to 14) (size 15 to 20)
#    0.000    2.000    1.250    2.250    5.250    0.000 
#    0.000    0.000    0.000   20.250    0.000    0.000 
#    0.000    4.500    3.000    0.000    0.000    0.000 
#
# Total GULP energy -356508.278456 kJ/mol
# GULP energy per Si atom -5570.441851 kJ/mol
# Density = 2.034127 g / cm^3
# Si number density = 20.387673 Si / 1000 Ang^3
#
#
#
# Elastic Constant Matrix: (Units=GPa)
#
#
# Indices 1 2 3 4 5 6 
#
# 1 57.1535 11.6041 6.9249 0.0000 0.0000 0.0000
# 2 11.6041 64.5401 4.1349 0.0000 0.0000 0.0000
# 3 6.9249 4.1349 106.1904 0.0000 0.0000 0.0000
# 4 0.0000 0.0000 0.0000 -4.1592 0.0000 0.0000
# 5 0.0000 0.0000 0.0000 0.0000 25.4596 0.0000
# 6 0.0000 0.0000 0.0000 0.0000 0.0000 12.9189
#
#
#
# Elastic Compliance Matrix: (Units=1/GPa)
#
#
# Indices 1 2 3 4 5 6 
#
# 1 0.018279 -0.003218 -0.001067 0.000000 0.000000 0.000000
# 2 -0.003218 0.016100 -0.000417 0.000000 0.000000 0.000000
# 3 -0.001067 -0.000417 0.009503 0.000000 0.000000 0.000000
# 4 0.000000 0.000000 0.000000 -0.240428 0.000000 0.000000
# 5 0.000000 0.000000 0.000000 0.000000 0.039278 0.000000
# 6 0.000000 0.000000 0.000000 0.000000 0.000000 0.077406
#
#
# Mechanical properties :
#
#
# Convention : Reuss Voigt Hill
#
# Bulk Modulus (GPa) = 29.00410 30.35686 29.68048
# Shear Modulus (GPa) = -84.79510 20.52520 -32.13495
#
# Velocity S-wave (km/s) = -6.45613 3.17637 -3.97444
# Velocity P-wave (km/s) = 6.42794 5.32678 2.54399
#
# Compressibility (1/GPa) = 0.03447788
#
# Stress axis : x y z
#
# Youngs Moduli (GPa) = 54.70642 62.11340 105.23164
#
# Poissons Ratio (x) = 0.19989 0.11225
# Poissons Ratio (y) = 0.17606 0.04388
# Poissons Ratio (z) = 0.05836 0.02590
#
# Static dielectric constant tensor:
#      x y z
#    x 1.770110 0.000000 0.000000 
#    y 0.000000 1.714800 0.000000 
#    z 0.000000 0.000000 1.849030 
# 
# From -- ./inp_files/4773.got.cif
#   From: 2010.05.17/outbox.cif.g08.bks.cpg/sg50_3_cif.got.tgz:4773.got - 2010.06.03 11:33:33.
