data_PCOD9396077
_publ_section_title
;
Structure prediction by ZEFSAII (Michael W. Deem and Ramdas Pophale) SiO2 
 PCOD9396077
Probable space group: P B A N
;
_chemical_formula_sum "Si O2"
_cell_formula_units_Z 48
_cell_length_a 16.844921
_cell_length_b 28.314861
_cell_length_c 5.178292
_cell_angle_alpha 90.000000
_cell_angle_beta 90.000000
_cell_angle_gamma 90.000000
_cell_volume 2469.846420
_symmetry_space_group_name_H-M "P B A N"
_symmetry_group_IT_number 50
_space_group.IT_coordinate_system_code '2'
_symmetry_cell_setting 'orthorhombic'
loop_
_space_group_symop_operation_xyz
x,y,z
1/2-x,1/2-y,z
x,1/2-y,-z
1/2-x,y,-z
-x,-y,-z
1/2+x,1/2+y,-z
-x,1/2+y,z
1/2+x,-y,z
loop_
_atom_site_type_symbol
_atom_site_label
_atom_site_fract_x
_atom_site_fract_y
_atom_site_fract_z
Si Si1 0.662024 0.331442 0.603330
Si Si2 0.022082 0.392925 0.876880
Si Si3 0.200349 0.987519 0.250315
Si Si4 0.701118 0.601495 0.751996
Si Si5 0.915720 0.299057 0.900944
Si Si6 0.055096 0.574343 0.627541
O O1 0.750000 0.339574 0.500000
O O2 0.619692 0.299628 0.385434
O O3 0.613875 0.380428 0.621510
O O4 0.652836 0.309309 0.886617
O O5 0.110598 0.383014 0.781719
O O6 0.975417 0.343405 0.901806
O O7 0.981119 0.426005 0.659007
O O8 0.012740 0.417031 0.157432
O O9 0.250000 0.972222 0.500000
O O10 0.111812 0.967806 0.281441
O O11 0.197846 0.044219 0.245534
O O12 0.250000 0.971027 0.000000
O O13 0.750000 0.616047 0.500000
O O14 0.750000 0.617286 0.000000
O O15 0.952452 0.250000 0.000000
#
# Coordination Sequence:
#
# PCOD9396077 Si02
#       6
#     8   8   8   8   8   8
#     4  10  20  32  49  74 105 140 176 209 242 291
#     4  10  21  36  54  77 102 134 174 215 264 316
#     4  10  20  33  51  76 108 145 179 213 254 299
#     4  10  21  37  56  78 103 133 172 218 269 320
#     4  10  21  35  51  74 102 135 171 211 261 307
#     4  10  20  33  51  76 107 141 176 211 250 299
#
# _framework density 19.434408000000001
#
# number of rings (size 3 to 8) (size 9 to 14) (size 15 to 20)
#    0.000    2.000    0.000    3.500    0.000    6.000 
#    0.000    0.000    0.000    0.500    0.000    1.167 
#    0.000    0.000    0.000    0.000    0.000    0.000 
#
# Total GULP energy -267916.830339 kJ/mol
# GULP energy per Si atom -5581.600632 kJ/mol
# Density = 1.939017 g / cm^3
# Si number density = 19.434408 Si / 1000 Ang^3
#
#
#
# Elastic Constant Matrix: (Units=GPa)
#
#
# Indices 1 2 3 4 5 6 
#
# 1 106.3365 5.3027 41.5187 0.0000 0.0000 0.0000
# 2 5.3027 10.7621 23.4981 0.0000 0.0000 0.0000
# 3 41.5187 23.4981 137.5065 0.0000 0.0000 0.0000
# 4 0.0000 0.0000 0.0000 3.1681 0.0000 0.0000
# 5 0.0000 0.0000 0.0000 0.0000 32.8026 0.0000
# 6 0.0000 0.0000 0.0000 0.0000 0.0000 -4.0190
#
#
#
# Elastic Compliance Matrix: (Units=1/GPa)
#
#
# Indices 1 2 3 4 5 6 
#
# 1 0.010715 0.002847 -0.003722 0.000000 0.000000 0.000000
# 2 0.002847 0.148979 -0.026318 0.000000 0.000000 0.000000
# 3 -0.003722 -0.026318 0.012894 0.000000 0.000000 0.000000
# 4 0.000000 0.000000 0.000000 0.315651 0.000000 0.000000
# 5 0.000000 0.000000 0.000000 0.000000 0.030485 0.000000
# 6 0.000000 0.000000 0.000000 0.000000 0.000000 -0.248816
#
#
# Mechanical properties :
#
#
# Convention : Reuss Voigt Hill
#
# Bulk Modulus (GPa) = 8.46016 43.91604 26.18810
# Shear Modulus (GPa) = 13.74777 18.67603 16.21190
#
# Velocity S-wave (km/s) = 2.66257 3.10333 2.89136
# Velocity P-wave (km/s) = 3.71686 5.95709 4.96498
#
# Compressibility (1/GPa) = 0.11820104
#
# Stress axis : x y z
#
# Youngs Moduli (GPa) = 93.32415 6.71237 77.55794
#
# Poissons Ratio (x) = -0.01911 0.28866
# Poissons Ratio (y) = -0.26566 2.04118
# Poissons Ratio (z) = 0.34734 0.17666
#
# Static dielectric constant tensor:
#      x y z
#    x 1.666810 0.000000 0.000000 
#    y 0.000000 1.693160 0.000000 
#    z 0.000000 0.000000 1.680480 
# 
# From -- ./inp_files/3555.got.cif
#   From: 2010.05.17/outbox.cif.g08.bks.cpg/sg50_2_cif.got.tgz:3555.got - 2010.06.03 11:33:33.
