data_PCOD9396985
_publ_section_title
;
Structure prediction by ZEFSAII (Michael W. Deem and Ramdas Pophale) SiO2 
 PCOD9396985
Probable space group: P B A N
;
_chemical_formula_sum "Si O2"
_cell_formula_units_Z 48
_cell_length_a 13.816919
_cell_length_b 13.855359
_cell_length_c 11.287259
_cell_angle_alpha 90.000000
_cell_angle_beta 90.000000
_cell_angle_gamma 90.000000
_cell_volume 2160.814499
_symmetry_space_group_name_H-M "P B A N"
_symmetry_group_IT_number 50
_space_group.IT_coordinate_system_code '2'
_symmetry_cell_setting 'orthorhombic'
loop_
_space_group_symop_operation_xyz
x,y,z
1/2-x,1/2-y,z
x,1/2-y,-z
1/2-x,y,-z
-x,-y,-z
1/2+x,1/2+y,-z
-x,1/2+y,z
1/2+x,-y,z
loop_
_atom_site_type_symbol
_atom_site_label
_atom_site_fract_x
_atom_site_fract_y
_atom_site_fract_z
Si Si1 0.250000 0.750000 0.500000
Si Si2 0.705751 0.593447 0.872337
Si Si3 0.124790 0.614965 0.326790
Si Si4 0.750000 0.750000 0.500000
Si Si5 0.866954 0.894464 0.334489
Si Si6 0.035372 0.714589 0.780041
Si Si7 0.714584 0.112058 0.133697
Si Si8 0.420414 0.250000 0.000000
O O1 0.181655 0.681205 0.420748
O O2 0.790098 0.611369 0.776601
O O3 0.657119 0.490078 0.847353
O O4 0.750000 0.571015 0.000000
O O5 0.641406 0.685122 0.908543
O O6 0.116810 0.505443 0.373365
O O7 0.034470 0.678097 0.277801
O O8 0.189416 0.600174 0.209890
O O9 0.817953 0.822132 0.426467
O O10 0.971897 0.853293 0.302148
O O11 0.146924 0.689723 0.803133
O O12 0.989733 0.695864 0.909645
O O13 0.750000 0.133531 0.000000
#
# Coordination Sequence:
#
# PCOD9396985 Si02
#       8
#     2   8   8   2   8   8   8   4
#     4  12  22  50  78  86 132 194 238 274 362 430
#     4  10  21  41  65  96 138 187 222 269 357 418
#     4  11  25  47  70 103 135 187 229 292 359 417
#     4  12  26  54  70  98 138 192 234 306 366 406
#     4  11  26  46  73 102 140 181 243 294 350 420
#     4  12  24  40  68 108 139 174 235 285 347 420
#     4  10  22  43  67  99 144 182 220 281 352 425
#     4  12  23  34  65 102 146 184 217 278 338 431
#
# _framework density 22.213846
#
# number of rings (size 3 to 8) (size 9 to 14) (size 15 to 20)
#    0.000    1.000    3.333    2.750    2.333    2.000 
#    0.000    1.667    0.000    0.000    0.000    0.000 
#    0.000    0.000    0.000    0.000    0.000    0.000 
#
# Total GULP energy -267595.536694 kJ/mol
# GULP energy per Si atom -5574.907014 kJ/mol
# Density = 2.216329 g / cm^3
# Si number density = 22.213846 Si / 1000 Ang^3
#
#
#
# Elastic Constant Matrix: (Units=GPa)
#
#
# Indices 1 2 3 4 5 6 
#
# 1 57.5999 45.3762 17.0502 0.0000 0.0000 0.0000
# 2 45.3762 173.6522 52.1210 0.0000 0.0000 0.0000
# 3 17.0502 52.1210 89.8255 0.0000 0.0000 0.0000
# 4 0.0000 0.0000 0.0000 208.3391 0.0000 0.0000
# 5 0.0000 0.0000 0.0000 0.0000 -12.8043 0.0000
# 6 0.0000 0.0000 0.0000 0.0000 0.0000 32.8652
#
#
#
# Elastic Compliance Matrix: (Units=1/GPa)
#
#
# Indices 1 2 3 4 5 6 
#
# 1 0.021937 -0.005428 -0.001015 0.000000 0.000000 0.000000
# 2 -0.005428 0.008316 -0.003795 0.000000 0.000000 0.000000
# 3 -0.001015 -0.003795 0.013527 0.000000 0.000000 0.000000
# 4 0.000000 0.000000 0.000000 0.004800 0.000000 0.000000
# 5 0.000000 0.000000 0.000000 0.000000 -0.078099 0.000000
# 6 0.000000 0.000000 0.000000 0.000000 0.000000 0.030427
#
#
# Mechanical properties :
#
#
# Convention : Reuss Voigt Hill
#
# Bulk Modulus (GPa) = 42.90765 61.13027 52.01896
# Shear Modulus (GPa) = 171.51099 59.44869 115.47984
#
# Velocity S-wave (km/s) = 8.79640 5.17881 7.21792
# Velocity P-wave (km/s) = 11.06917 7.95857 9.64016
#
# Compressibility (1/GPa) = 0.02330587
#
# Stress axis : x y z
#
# Youngs Moduli (GPa) = 45.58420 120.24959 73.92430
#
# Poissons Ratio (x) = 0.65270 0.07500
# Poissons Ratio (y) = 0.24742 0.28055
# Poissons Ratio (z) = 0.04625 0.45636
#
# Static dielectric constant tensor:
#      x y z
#    x 1.920250 0.000000 0.000000 
#    y 0.000000 2.341240 0.000000 
#    z 0.000000 0.000000 1.834680 
# 
# From -- ./inp_files/21130.got.cif
#   From: 2010.05.17/outbox.cif.g08.bks.cpg/sg50_11_cif.got.tgz:21130.got - 2010.06.03 11:33:33.
