data_PCOD9396661
_publ_section_title
;
Structure prediction by ZEFSAII (Michael W. Deem and Ramdas Pophale) SiO2 
 PCOD9396661
Probable space group: P B A N
;
_chemical_formula_sum "Si O2"
_cell_formula_units_Z 26
_cell_length_a 5.263210
_cell_length_b 13.450006
_cell_length_c 16.439877
_cell_angle_alpha 90.000000
_cell_angle_beta 90.000000
_cell_angle_gamma 90.000000
_cell_volume 1163.782281
_symmetry_space_group_name_H-M "P B A N"
_symmetry_group_IT_number 50
_space_group.IT_coordinate_system_code '2'
_symmetry_cell_setting 'orthorhombic'
loop_
_space_group_symop_operation_xyz
x,y,z
1/2-x,1/2-y,z
x,1/2-y,-z
1/2-x,y,-z
-x,-y,-z
1/2+x,1/2+y,-z
-x,1/2+y,z
1/2+x,-y,z
loop_
_atom_site_type_symbol
_atom_site_label
_atom_site_fract_x
_atom_site_fract_y
_atom_site_fract_z
Si Si1 0.001422 0.358862 0.037596
Si Si2 0.964050 0.570670 0.604270
Si Si3 0.750000 0.750000 0.500000
Si Si4 0.521860 0.434624 0.790488
O O1 0.007385 0.359974 0.134718
O O2 0.001494 0.250000 0.000000
O O3 0.750000 0.403414 0.000000
O O4 0.250000 0.405363 0.000000
O O5 0.718907 0.496836 0.591453
O O6 0.919774 0.671283 0.552357
O O7 0.982441 0.603458 0.698876
O O8 0.300150 0.517023 0.798902
#
# Coordination Sequence:
#
# PCOD9396661 Si02
#       4
#     8   8   2   8
#     4  10  21  35  54  82 116 154 198 251 299 359
#     4  10  24  44  66  98 134 168 218 272 322 398
#     4  12  24  42  76 100 130 178 216 270 348 392
#     4  10  21  39  60  84 120 162 202 255 318 373
#
# _framework density 22.340948999999998
#
# number of rings (size 3 to 8) (size 9 to 14) (size 15 to 20)
#    0.000    1.846    0.000    2.769    0.000    8.615 
#    0.000    6.154    0.000    0.000    0.000    0.000 
#    0.000    0.000    0.000    0.000    0.000    0.000 
#
# Total GULP energy -145040.175590 kJ/mol
# GULP energy per Si atom -5578.468292 kJ/mol
# Density = 2.229010 g / cm^3
# Si number density = 22.340949 Si / 1000 Ang^3
#
#
#
# Elastic Constant Matrix: (Units=GPa)
#
#
# Indices 1 2 3 4 5 6 
#
# 1 151.5697 11.2471 10.8442 0.0000 0.0000 0.0000
# 2 11.2471 144.3691 66.6696 0.0000 0.0000 0.0000
# 3 10.8442 66.6696 213.1816 0.0000 0.0000 0.0000
# 4 0.0000 0.0000 0.0000 56.1854 0.0000 0.0000
# 5 0.0000 0.0000 0.0000 0.0000 21.8415 0.0000
# 6 0.0000 0.0000 0.0000 0.0000 0.0000 -62.3847
#
#
#
# Elastic Compliance Matrix: (Units=1/GPa)
#
#
# Indices 1 2 3 4 5 6 
#
# 1 0.006644 -0.000423 -0.000206 0.000000 0.000000 0.000000
# 2 -0.000423 0.008123 -0.002519 0.000000 0.000000 0.000000
# 3 -0.000206 -0.002519 0.005489 0.000000 0.000000 0.000000
# 4 0.000000 0.000000 0.000000 0.017798 0.000000 0.000000
# 5 0.000000 0.000000 0.000000 0.000000 0.045784 0.000000
# 6 0.000000 0.000000 0.000000 0.000000 0.000000 -0.016030
#
#
# Mechanical properties :
#
#
# Convention : Reuss Voigt Hill
#
# Bulk Modulus (GPa) = 71.62693 76.29358 73.96025
# Shear Modulus (GPa) = 63.48676 31.15242 47.31959
#
# Velocity S-wave (km/s) = 5.33656 3.73823 4.60724
# Velocity P-wave (km/s) = 8.37271 7.27023 7.84087
#
# Compressibility (1/GPa) = 0.01396123
#
# Stress axis : x y z
#
# Youngs Moduli (GPa) = 150.51849 123.11050 182.18178
#
# Poissons Ratio (x) = 0.05202 0.03750
# Poissons Ratio (y) = 0.06360 0.45888
# Poissons Ratio (z) = 0.03098 0.31009
#
# Static dielectric constant tensor:
#      x y z
#    x 1.862710 0.000000 0.000000 
#    y 0.000000 1.740590 0.000000 
#    z 0.000000 0.000000 1.842460 
# 
# From -- ./inp_files/23573.got.cif
#   From: 2010.05.17/outbox.cif.g08.bks.cpg/sg50_12_cif.got.tgz:23573.got - 2010.06.03 11:33:33.
