data_PCOD9396498
_publ_section_title
;
Structure prediction by ZEFSAII (Michael W. Deem and Ramdas Pophale) SiO2 
 PCOD9396498
Probable space group: P B A N
;
_chemical_formula_sum "Si O2"
_cell_formula_units_Z 64
_cell_length_a 29.763999
_cell_length_b 11.483530
_cell_length_c 9.498015
_cell_angle_alpha 90.000000
_cell_angle_beta 90.000000
_cell_angle_gamma 90.000000
_cell_volume 3246.381402
_symmetry_space_group_name_H-M "P B A N"
_symmetry_group_IT_number 50
_space_group.IT_coordinate_system_code '2'
_symmetry_cell_setting 'orthorhombic'
loop_
_space_group_symop_operation_xyz
x,y,z
1/2-x,1/2-y,z
x,1/2-y,-z
1/2-x,y,-z
-x,-y,-z
1/2+x,1/2+y,-z
-x,1/2+y,z
1/2+x,-y,z
loop_
_atom_site_type_symbol
_atom_site_label
_atom_site_fract_x
_atom_site_fract_y
_atom_site_fract_z
Si Si1 0.319157 0.006280 0.754409
Si Si2 0.939414 0.490551 0.852964
Si Si3 0.695757 0.381369 0.480277
Si Si4 0.076979 0.206703 0.656992
Si Si5 0.472592 0.351916 0.106018
Si Si6 0.817085 0.765665 0.337034
Si Si7 0.784126 0.999661 0.206871
Si Si8 0.852483 0.111051 0.010361
O O1 0.326271 0.964364 0.594596
O O2 0.317411 0.145273 0.748623
O O3 0.268147 0.967336 0.791950
O O4 0.355111 0.944588 0.854346
O O5 0.936850 0.581780 0.723715
O O6 0.894589 0.417947 0.889046
O O7 0.983171 0.411623 0.832471
O O8 0.947385 0.561400 0.999160
O O9 0.680738 0.250000 0.500000
O O10 0.750000 0.385595 0.500000
O O11 0.689644 0.426974 0.325045
O O12 0.062903 0.250000 0.500000
O O13 0.058718 0.299286 0.772137
O O14 0.130847 0.199750 0.655277
O O15 0.487872 0.250000 0.000000
O O16 0.801401 0.750000 0.500000
O O17 0.789882 0.866153 0.256257
O O18 0.810071 0.037279 0.068719
O O19 0.844929 0.250000 0.000000
#
# Coordination Sequence:
#
# PCOD9396498 Si02
#       8
#     8   8   8   8   8   8   8   8
#     4  11  23  36  58  85 114 160 211 253 300 357
#     4  10  20  39  62  86 118 158 203 247 302 377
#     4   9  18  34  55  78 108 153 207 248 292 355
#     4  10  21  37  61  92 124 156 193 254 322 371
#     4   9  19  37  64  91 118 156 201 241 302 386
#     4  11  21  38  62  89 123 157 203 255 310 368
#     4  11  22  38  58  83 118 162 202 253 309 356
#     4  12  25  40  58  84 122 160 203 258 311 361
#
# _framework density 19.714258999999998
#
# number of rings (size 3 to 8) (size 9 to 14) (size 15 to 20)
#    0.000    1.625    2.500    2.625    0.000    3.500 
#    0.000    1.250    0.000    2.250    0.000    0.000 
#    0.000    0.000    0.000    0.000    0.000    0.000 
#
# Total GULP energy -356953.364915 kJ/mol
# GULP energy per Si atom -5577.396327 kJ/mol
# Density = 1.966939 g / cm^3
# Si number density = 19.714259 Si / 1000 Ang^3
#
#
#
# Elastic Constant Matrix: (Units=GPa)
#
#
# Indices 1 2 3 4 5 6 
#
# 1 58.2649 5.9237 16.4374 0.0000 0.0000 0.0000
# 2 5.9237 81.6433 12.1988 0.0000 0.0000 0.0000
# 3 16.4374 12.1988 87.9410 0.0000 0.0000 0.0000
# 4 0.0000 0.0000 0.0000 21.3316 0.0000 0.0000
# 5 0.0000 0.0000 0.0000 0.0000 10.7144 0.0000
# 6 0.0000 0.0000 0.0000 0.0000 0.0000 6.1566
#
#
#
# Elastic Compliance Matrix: (Units=1/GPa)
#
#
# Indices 1 2 3 4 5 6 
#
# 1 0.018173 -0.000828 -0.003282 0.000000 0.000000 0.000000
# 2 -0.000828 0.012545 -0.001585 0.000000 0.000000 0.000000
# 3 -0.003282 -0.001585 0.012205 0.000000 0.000000 0.000000
# 4 0.000000 0.000000 0.000000 0.046879 0.000000 0.000000
# 5 0.000000 0.000000 0.000000 0.000000 0.093333 0.000000
# 6 0.000000 0.000000 0.000000 0.000000 0.000000 0.162426
#
#
# Mechanical properties :
#
#
# Convention : Reuss Voigt Hill
#
# Bulk Modulus (GPa) = 31.71385 32.99657 32.35521
# Shear Modulus (GPa) = 13.60683 20.52646 17.06665
#
# Velocity S-wave (km/s) = 2.63002 3.23026 2.94547
# Velocity P-wave (km/s) = 5.03432 5.53954 5.29296
#
# Compressibility (1/GPa) = 0.03153196
#
# Stress axis : x y z
#
# Youngs Moduli (GPa) = 55.02644 79.71061 81.93612
#
# Poissons Ratio (x) = 0.06602 0.26891
# Poissons Ratio (y) = 0.04557 0.12991
# Poissons Ratio (z) = 0.18059 0.12638
#
# Static dielectric constant tensor:
#      x y z
#    x 1.680550 0.000000 0.000000 
#    y 0.000000 1.732420 0.000000 
#    z 0.000000 0.000000 1.680480 
# 
# From -- ./inp_files/17123.got.cif
#   From: 2010.05.17/outbox.cif.g08.bks.cpg/sg50_9_cif.got.tgz:17123.got - 2010.06.03 11:33:33.
