data_PCOD9396102
_publ_section_title
;
Structure prediction by ZEFSAII (Michael W. Deem and Ramdas Pophale) SiO2 
 PCOD9396102
Probable space group: P B A N
;
_chemical_formula_sum "Si O2"
_cell_formula_units_Z 28
_cell_length_a 13.315539
_cell_length_b 17.318083
_cell_length_c 6.144780
_cell_angle_alpha 90.000000
_cell_angle_beta 90.000000
_cell_angle_gamma 90.000000
_cell_volume 1416.983869
_symmetry_space_group_name_H-M "P B A N"
_symmetry_group_IT_number 50
_space_group.IT_coordinate_system_code '2'
_symmetry_cell_setting 'orthorhombic'
loop_
_space_group_symop_operation_xyz
x,y,z
1/2-x,1/2-y,z
x,1/2-y,-z
1/2-x,y,-z
-x,-y,-z
1/2+x,1/2+y,-z
-x,1/2+y,z
1/2+x,-y,z
loop_
_atom_site_type_symbol
_atom_site_label
_atom_site_fract_x
_atom_site_fract_y
_atom_site_fract_z
Si Si1 0.899584 0.324527 0.616499
Si Si2 0.021837 0.100747 0.774490
Si Si3 0.851411 0.041106 0.113502
Si Si4 0.531886 0.750000 0.000000
O O1 0.854980 0.250000 0.500000
O O2 0.828372 0.387081 0.727842
O O3 0.972033 0.369701 0.448227
O O4 0.965106 0.286881 0.809046
O O5 0.095492 0.028253 0.757677
O O6 0.931230 0.072201 0.933433
O O7 0.078530 0.174020 0.886946
O O8 0.750000 0.014751 0.000000
#
# Coordination Sequence:
#
# PCOD9396102 Si02
#       4
#     8   8   8   4
#     4   9  17  33  53  74 103 141 177 218 271 325
#     4   9  18  34  53  72 103 138 172 219 270 321
#     4  10  20  33  50  77 105 136 177 219 265 324
#     4   8  16  32  54  76  98 132 176 220 268 318
#
# _framework density 19.760280999999999
#
# number of rings (size 3 to 8) (size 9 to 14) (size 15 to 20)
#    0.000    2.857    0.000    0.857    0.000    1.143 
#    0.000   33.571    0.000    0.000    0.000   30.000 
#    0.000    0.000    0.000    0.000    0.000    0.000 
#
# Total GULP energy -155939.179873 kJ/mol
# GULP energy per Si atom -5569.256424 kJ/mol
# Density = 1.971531 g / cm^3
# Si number density = 19.760281 Si / 1000 Ang^3
#
#
#
# Elastic Constant Matrix: (Units=GPa)
#
#
# Indices 1 2 3 4 5 6 
#
# 1 50.6786 34.8003 13.3848 0.0000 0.0000 0.0000
# 2 34.8003 111.4299 34.3983 0.0000 0.0000 0.0000
# 3 13.3848 34.3983 86.9073 0.0000 0.0000 0.0000
# 4 0.0000 0.0000 0.0000 44.9068 0.0000 0.0000
# 5 0.0000 0.0000 0.0000 0.0000 4.8232 0.0000
# 6 0.0000 0.0000 0.0000 0.0000 0.0000 -5.3772
#
#
#
# Elastic Compliance Matrix: (Units=1/GPa)
#
#
# Indices 1 2 3 4 5 6 
#
# 1 0.025177 -0.007594 -0.000872 0.000000 0.000000 0.000000
# 2 -0.007594 0.012514 -0.003783 0.000000 0.000000 0.000000
# 3 -0.000872 -0.003783 0.013138 0.000000 0.000000 0.000000
# 4 0.000000 0.000000 0.000000 0.022268 0.000000 0.000000
# 5 0.000000 0.000000 0.000000 0.000000 0.207333 0.000000
# 6 0.000000 0.000000 0.000000 0.000000 0.000000 -0.185969
#
#
# Mechanical properties :
#
#
# Convention : Reuss Voigt Hill
#
# Bulk Modulus (GPa) = 37.97841 46.02029 41.99935
# Shear Modulus (GPa) = 39.14309 19.96605 29.55457
#
# Velocity S-wave (km/s) = 4.45556 3.18215 3.87157
# Velocity P-wave (km/s) = 6.76244 6.06970 6.42541
#
# Compressibility (1/GPa) = 0.02633075
#
# Stress axis : x y z
#
# Youngs Moduli (GPa) = 39.71878 79.91183 76.11329
#
# Poissons Ratio (x) = 0.60683 0.06637
# Poissons Ratio (y) = 0.30162 0.28797
# Poissons Ratio (z) = 0.03463 0.30234
#
# Static dielectric constant tensor:
#      x y z
#    x 1.621010 0.000000 0.000000 
#    y 0.000000 1.737420 0.000000 
#    z 0.000000 0.000000 1.727600 
# 
# From -- ./inp_files/2841.got.cif
#   From: 2010.05.17/outbox.cif.g08.bks.cpg/sg50_2_cif.got.tgz:2841.got - 2010.06.03 11:33:33.
