data_PCOD9396811
_publ_section_title
;
Structure prediction by ZEFSAII (Michael W. Deem and Ramdas Pophale) SiO2 
 PCOD9396811
Probable space group: P B A N
;
_chemical_formula_sum "Si O2"
_cell_formula_units_Z 48
_cell_length_a 18.131313
_cell_length_b 14.503583
_cell_length_c 9.202000
_cell_angle_alpha 90.000000
_cell_angle_beta 90.000000
_cell_angle_gamma 90.000000
_cell_volume 2419.840766
_symmetry_space_group_name_H-M "P B A N"
_symmetry_group_IT_number 50
_space_group.IT_coordinate_system_code '2'
_symmetry_cell_setting 'orthorhombic'
loop_
_space_group_symop_operation_xyz
x,y,z
1/2-x,1/2-y,z
x,1/2-y,-z
1/2-x,y,-z
-x,-y,-z
1/2+x,1/2+y,-z
-x,1/2+y,z
1/2+x,-y,z
loop_
_atom_site_type_symbol
_atom_site_label
_atom_site_fract_x
_atom_site_fract_y
_atom_site_fract_z
Si Si1 0.961590 0.466486 0.353505
Si Si2 0.181653 0.847833 0.417476
Si Si3 0.390218 0.443955 0.816407
Si Si4 0.861942 0.908785 0.843772
Si Si5 0.836286 0.733560 0.661024
Si Si6 0.741227 0.066932 0.833956
O O1 0.898144 0.393980 0.400980
O O2 0.918781 0.545108 0.266737
O O3 0.000000 0.500000 0.500000
O O4 0.026337 0.440197 0.241156
O O5 0.174408 0.750000 0.500000
O O6 0.250000 0.900229 0.500000
O O7 0.218074 0.854920 0.258848
O O8 0.351619 0.368014 0.716303
O O9 0.343317 0.539099 0.797566
O O10 0.383470 0.419110 0.987242
O O11 0.857927 0.804740 0.788006
O O12 0.787892 0.970557 0.821903
O O13 0.750000 0.750000 0.646036
O O14 0.870228 0.750000 0.500000
O O15 0.750000 0.094041 0.000000
#
# Coordination Sequence:
#
# PCOD9396811 Si02
#       6
#     8   8   8   8   8   8
#     4  11  23  38  60  89 122 161 206 262 317 375
#     4  10  22  41  62  85 116 159 204 253 307 369
#     4  11  21  37  62  91 124 165 209 261 315 378
#     4  10  21  38  58  88 127 166 209 253 316 379
#     4  11  22  35  57  92 129 165 204 257 316 379
#     4   9  19  37  63  89 118 158 208 255 303 371
#
# _framework density 19.836016999999998
#
# number of rings (size 3 to 8) (size 9 to 14) (size 15 to 20)
#    0.000    1.667    1.667    3.000    0.000    4.000 
#    0.000    1.667    0.000    4.000    0.000    0.000 
#    0.000    0.000    0.000    0.000    0.000    0.000 
#
# Total GULP energy -267350.902325 kJ/mol
# GULP energy per Si atom -5569.810465 kJ/mol
# Density = 1.979087 g / cm^3
# Si number density = 19.836017 Si / 1000 Ang^3
#
#
#
# Elastic Constant Matrix: (Units=GPa)
#
#
# Indices 1 2 3 4 5 6 
#
# 1 124.5647 29.1256 43.1984 0.0000 0.0000 0.0000
# 2 29.1256 60.2532 37.2253 0.0000 0.0000 0.0000
# 3 43.1984 37.2253 130.5496 0.0000 0.0000 0.0000
# 4 0.0000 0.0000 0.0000 31.8387 0.0000 0.0000
# 5 0.0000 0.0000 0.0000 0.0000 42.0400 0.0000
# 6 0.0000 0.0000 0.0000 0.0000 0.0000 15.9221
#
#
#
# Elastic Compliance Matrix: (Units=1/GPa)
#
#
# Indices 1 2 3 4 5 6 
#
# 1 0.009562 -0.003238 -0.002241 0.000000 0.000000 0.000000
# 2 -0.003238 0.021242 -0.004986 0.000000 0.000000 0.000000
# 3 -0.002241 -0.004986 0.009823 0.000000 0.000000 0.000000
# 4 0.000000 0.000000 0.000000 0.031408 0.000000 0.000000
# 5 0.000000 0.000000 0.000000 0.000000 0.023787 0.000000
# 6 0.000000 0.000000 0.000000 0.000000 0.000000 0.062806
#
#
# Mechanical properties :
#
#
# Convention : Reuss Voigt Hill
#
# Bulk Modulus (GPa) = 50.76506 59.38512 55.07509
# Shear Modulus (GPa) = 26.86398 31.68137 29.27268
#
# Velocity S-wave (km/s) = 3.68408 4.00079 3.84570
# Velocity P-wave (km/s) = 6.61396 7.16553 6.89526
#
# Compressibility (1/GPa) = 0.01969859
#
# Stress axis : x y z
#
# Youngs Moduli (GPa) = 104.57930 47.07679 101.80165
#
# Poissons Ratio (x) = 0.15242 0.22812
# Poissons Ratio (y) = 0.33860 0.50754
# Poissons Ratio (z) = 0.23435 0.23471
#
# Static dielectric constant tensor:
#      x y z
#    x 1.758010 0.000000 0.000000 
#    y 0.000000 1.630540 0.000000 
#    z 0.000000 0.000000 1.748940 
# 
# From -- ./inp_files/12971.got.cif
#   From: 2010.05.17/outbox.cif.g08.bks.cpg/sg50_7_cif.got.tgz:12971.got - 2010.06.03 11:33:33.
