data_PCOD9396392
_publ_section_title
;
Structure prediction by ZEFSAII (Michael W. Deem and Ramdas Pophale) SiO2 
 PCOD9396392
Probable space group: P B A N
;
_chemical_formula_sum "Si O2"
_cell_formula_units_Z 48
_cell_length_a 16.128842
_cell_length_b 9.381358
_cell_length_c 14.762295
_cell_angle_alpha 90.000000
_cell_angle_beta 90.000000
_cell_angle_gamma 90.000000
_cell_volume 2233.689366
_symmetry_space_group_name_H-M "P B A N"
_symmetry_group_IT_number 50
_space_group.IT_coordinate_system_code '2'
_symmetry_cell_setting 'orthorhombic'
loop_
_space_group_symop_operation_xyz
x,y,z
1/2-x,1/2-y,z
x,1/2-y,-z
1/2-x,y,-z
-x,-y,-z
1/2+x,1/2+y,-z
-x,1/2+y,z
1/2+x,-y,z
loop_
_atom_site_type_symbol
_atom_site_label
_atom_site_fract_x
_atom_site_fract_y
_atom_site_fract_z
Si Si1 0.905279 0.624946 0.688875
Si Si2 0.706975 0.113936 0.725587
Si Si3 0.945630 0.111655 0.557085
Si Si4 0.110350 0.727657 0.097447
Si Si5 0.006706 0.507494 0.841245
Si Si6 0.643072 0.573575 0.698281
O O1 0.859872 0.475049 0.667163
O O2 0.847099 0.760594 0.677145
O O3 0.987944 0.660202 0.633223
O O4 0.934162 0.596877 0.791607
O O5 0.750000 0.250000 0.679757
O O6 0.665137 0.177959 0.816661
O O7 0.778784 0.999451 0.746242
O O8 0.920198 0.250000 0.500000
O O9 0.876160 0.021325 0.609615
O O10 0.000000 0.000000 0.500000
O O11 0.068085 0.878678 0.116833
O O12 0.036784 0.609381 0.096206
O O13 0.151842 0.750000 0.000000
O O14 0.061121 0.434511 0.761625
#
# Coordination Sequence:
#
# PCOD9396392 Si02
#       6
#     8   8   8   8   8   8
#     4  10  22  39  66  88 123 170 213 258 312 389
#     4  11  24  39  62  90 123 171 215 255 325 398
#     4  11  23  39  67  99 126 160 213 271 325 368
#     4  11  22  39  63  92 125 162 214 274 327 373
#     4  10  20  37  63  92 118 164 215 261 310 382
#     4  11  21  40  63  89 130 168 211 259 315 398
#
# _framework density 21.489111000000001
#
# number of rings (size 3 to 8) (size 9 to 14) (size 15 to 20)
#    0.000    1.333    5.000    1.000    2.333    0.333 
#    0.000    0.833    0.000    0.000    4.333    0.000 
#    0.000    0.000    0.000    0.000    0.000    0.000 
#
# Total GULP energy -267831.372453 kJ/mol
# GULP energy per Si atom -5579.820259 kJ/mol
# Density = 2.144020 g / cm^3
# Si number density = 21.489111 Si / 1000 Ang^3
#
#
#
# Elastic Constant Matrix: (Units=GPa)
#
#
# Indices 1 2 3 4 5 6 
#
# 1 49.0759 7.4086 3.8977 0.0000 0.0000 0.0000
# 2 7.4086 111.7087 32.9128 0.0000 0.0000 0.0000
# 3 3.8977 32.9128 62.9269 0.0000 0.0000 0.0000
# 4 0.0000 0.0000 0.0000 25.1272 0.0000 0.0000
# 5 0.0000 0.0000 0.0000 0.0000 11.6132 0.0000
# 6 0.0000 0.0000 0.0000 0.0000 0.0000 44.8267
#
#
#
# Elastic Compliance Matrix: (Units=1/GPa)
#
#
# Indices 1 2 3 4 5 6 
#
# 1 0.020606 -0.001171 -0.000664 0.000000 0.000000 0.000000
# 2 -0.001171 0.010649 -0.005497 0.000000 0.000000 0.000000
# 3 -0.000664 -0.005497 0.018808 0.000000 0.000000 0.000000
# 4 0.000000 0.000000 0.000000 0.039797 0.000000 0.000000
# 5 0.000000 0.000000 0.000000 0.000000 0.086109 0.000000
# 6 0.000000 0.000000 0.000000 0.000000 0.000000 0.022308
#
#
# Mechanical properties :
#
#
# Convention : Reuss Voigt Hill
#
# Bulk Modulus (GPa) = 28.24962 34.68331 31.46646
# Shear Modulus (GPa) = 22.24774 28.27958 25.26366
#
# Velocity S-wave (km/s) = 3.22110 3.63160 3.43249
# Velocity P-wave (km/s) = 5.19698 5.81031 5.51218
#
# Compressibility (1/GPa) = 0.03539871
#
# Stress axis : x y z
#
# Youngs Moduli (GPa) = 48.52935 93.90378 53.16922
#
# Poissons Ratio (x) = 0.10996 0.03530
# Poissons Ratio (y) = 0.05683 0.29229
# Poissons Ratio (z) = 0.03222 0.51622
#
# Static dielectric constant tensor:
#      x y z
#    x 1.825020 0.000000 0.000000 
#    y 0.000000 1.809480 0.000000 
#    z 0.000000 0.000000 1.820650 
# 
# From -- ./inp_files/24965.got.cif
#   From: 2010.05.17/outbox.cif.g08.bks.cpg/sg50_13_cif.got.tgz:24965.got - 2010.06.03 11:33:33.
