data_PCOD9396654
_publ_section_title
;
Structure prediction by ZEFSAII (Michael W. Deem and Ramdas Pophale) SiO2 
 PCOD9396654
Probable space group: P B A N
;
_chemical_formula_sum "Si O2"
_cell_formula_units_Z 48
_cell_length_a 27.566549
_cell_length_b 5.525794
_cell_length_c 15.500498
_cell_angle_alpha 90.000000
_cell_angle_beta 90.000000
_cell_angle_gamma 90.000000
_cell_volume 2361.145460
_symmetry_space_group_name_H-M "P B A N"
_symmetry_group_IT_number 50
_space_group.IT_coordinate_system_code '2'
_symmetry_cell_setting 'orthorhombic'
loop_
_space_group_symop_operation_xyz
x,y,z
1/2-x,1/2-y,z
x,1/2-y,-z
1/2-x,y,-z
-x,-y,-z
1/2+x,1/2+y,-z
-x,1/2+y,z
1/2+x,-y,z
loop_
_atom_site_type_symbol
_atom_site_label
_atom_site_fract_x
_atom_site_fract_y
_atom_site_fract_z
Si Si1 0.154450 0.466364 0.128424
Si Si2 0.078651 0.250000 0.000000
Si Si3 0.113667 0.125636 0.278831
Si Si4 0.471903 0.237500 0.396526
Si Si5 0.798689 0.362189 0.246666
Si Si6 0.470753 0.008524 0.844020
Si Si7 0.250000 0.250000 0.877643
O O1 0.111532 0.421391 0.061170
O O2 0.137241 0.313207 0.211758
O O3 0.171405 0.709088 0.175180
O O4 0.203880 0.378618 0.080844
O O5 0.048738 0.063706 0.059583
O O6 0.080555 0.244023 0.351947
O O7 0.074953 0.985037 0.219324
O O8 0.159406 0.965221 0.308351
O O9 0.467498 0.250000 0.500000
O O10 0.502198 0.482493 0.372521
O O11 0.750000 0.250000 0.288884
O O12 0.774112 0.559675 0.186155
O O13 0.498438 0.265322 0.829191
#
# Coordination Sequence:
#
# PCOD9396654 Si02
#       7
#     8   4   8   8   8   8   4
#     4   9  19  34  54  81 108 148 192 246 300 360
#     4  10  22  37  52  78 114 146 203 242 302 356
#     4  10  21  34  60  88 113 154 202 240 295 363
#     4  10  22  39  60  91 131 163 198 246 297 353
#     4   9  18  35  60  84 116 144 196 251 305 359
#     4  11  24  40  56  79 113 156 199 244 291 346
#     4   8  16  35  50  82 105 138 186 246 305 356
#
# _framework density 20.329115000000002
#
# number of rings (size 3 to 8) (size 9 to 14) (size 15 to 20)
#    0.000    2.333    0.000    1.500    7.000    0.333 
#    6.000    0.000    0.000   15.000    0.000   26.833 
#    0.000    0.000    0.000    0.000    0.000    0.000 
#
# Total GULP energy -267221.785012 kJ/mol
# GULP energy per Si atom -5567.120521 kJ/mol
# Density = 2.028285 g / cm^3
# Si number density = 20.329115 Si / 1000 Ang^3
#
#
#
# Elastic Constant Matrix: (Units=GPa)
#
#
# Indices 1 2 3 4 5 6 
#
# 1 142.1525 67.5421 33.6157 0.0000 0.0000 0.0000
# 2 67.5421 95.4360 18.6972 0.0000 0.0000 0.0000
# 3 33.6157 18.6972 46.9301 0.0000 0.0000 0.0000
# 4 0.0000 0.0000 0.0000 -2.2647 0.0000 0.0000
# 5 0.0000 0.0000 0.0000 0.0000 38.7974 0.0000
# 6 0.0000 0.0000 0.0000 0.0000 0.0000 44.8970
#
#
#
# Elastic Compliance Matrix: (Units=1/GPa)
#
#
# Indices 1 2 3 4 5 6 
#
# 1 0.011800 -0.007262 -0.005559 0.000000 0.000000 0.000000
# 2 -0.007262 0.015834 -0.001107 0.000000 0.000000 0.000000
# 3 -0.005559 -0.001107 0.025731 0.000000 0.000000 0.000000
# 4 0.000000 0.000000 0.000000 -0.441567 0.000000 0.000000
# 5 0.000000 0.000000 0.000000 0.000000 0.025775 0.000000
# 6 0.000000 0.000000 0.000000 0.000000 0.000000 0.022273
#
#
# Mechanical properties :
#
#
# Convention : Reuss Voigt Hill
#
# Bulk Modulus (GPa) = 39.20046 58.24764 48.72405
# Shear Modulus (GPa) = -16.45842 27.26353 5.40256
#
# Velocity S-wave (km/s) = -2.84843 3.66609 1.63197
# Velocity P-wave (km/s) = 2.91662 6.82897 5.25078
#
# Compressibility (1/GPa) = 0.02550990
#
# Stress axis : x y z
#
# Youngs Moduli (GPa) = 84.74882 63.15361 38.86358
#
# Poissons Ratio (x) = 0.45861 0.21604
# Poissons Ratio (y) = 0.61543 0.04302
# Poissons Ratio (z) = 0.47110 0.06991
#
# Static dielectric constant tensor:
#      x y z
#    x 4.767750 0.000000 0.000000 
#    y 0.000000 1.818520 0.000000 
#    z 0.000000 0.000000 1.721360 
# 
# From -- ./inp_files/24098.got.cif
#   From: 2010.05.17/outbox.cif.g08.bks.cpg/sg50_13_cif.got.tgz:24098.got - 2010.06.03 11:33:33.
