data_PCOD9396075
_publ_section_title
;
Structure prediction by ZEFSAII (Michael W. Deem and Ramdas Pophale) SiO2 
 PCOD9396075
Probable space group: P B A N
;
_chemical_formula_sum "Si O2"
_cell_formula_units_Z 34
_cell_length_a 5.490666
_cell_length_b 37.716902
_cell_length_c 7.315545
_cell_angle_alpha 90.000000
_cell_angle_beta 90.000000
_cell_angle_gamma 90.000000
_cell_volume 1514.982882
_symmetry_space_group_name_H-M "P B A N"
_symmetry_group_IT_number 50
_space_group.IT_coordinate_system_code '2'
_symmetry_cell_setting 'orthorhombic'
loop_
_space_group_symop_operation_xyz
x,y,z
1/2-x,1/2-y,z
x,1/2-y,-z
1/2-x,y,-z
-x,-y,-z
1/2+x,1/2+y,-z
-x,1/2+y,z
1/2+x,-y,z
loop_
_atom_site_type_symbol
_atom_site_label
_atom_site_fract_x
_atom_site_fract_y
_atom_site_fract_z
Si Si1 0.754442 0.863998 0.276117
Si Si2 0.250000 0.750000 0.500000
Si Si3 0.140670 0.214261 0.705693
Si Si4 0.239037 0.515462 0.213613
Si Si5 0.745686 0.098545 0.720257
O O1 0.750000 0.864047 0.500000
O O2 0.799241 0.823582 0.213544
O O3 0.493550 0.879683 0.218093
O O4 0.991742 0.886502 0.218750
O O5 0.366849 0.722802 0.352469
O O6 0.250000 0.250000 0.792692
O O7 0.250000 0.213521 0.500000
O O8 0.496704 0.502567 0.292788
O O9 0.217957 0.557631 0.227432
O O10 0.250000 0.505023 0.000000
O O11 0.750000 0.100552 0.500000
#
# Coordination Sequence:
#
# PCOD9396075 Si02
#       5
#     8   2   8   8   8
#     4   9  18  28  43  64 100 131 160 196 237 282
#     4   8  14  20  36  54  84 128 176 196 222 276
#     4   8  15  22  35  57  86 130 169 194 228 275
#     4  10  21  37  56  74  95 123 158 198 239 285
#     4  10  20  32  48  73  99 128 157 192 243 288
#
# _framework density 22.442495999999998
#
# number of rings (size 3 to 8) (size 9 to 14) (size 15 to 20)
#    0.000    3.059    0.000    1.412   11.529    0.941 
#    0.000    0.000    0.000    0.000    0.000    0.000 
#    0.000    5.647    0.000    0.000    0.000    0.000 
#
# Total GULP energy -189423.102415 kJ/mol
# GULP energy per Si atom -5571.267718 kJ/mol
# Density = 2.239142 g / cm^3
# Si number density = 22.442496 Si / 1000 Ang^3
#
#
#
# Elastic Constant Matrix: (Units=GPa)
#
#
# Indices 1 2 3 4 5 6 
#
# 1 171.4915 76.6875 1.7975 0.0000 0.0000 0.0000
# 2 76.6875 141.7149 -25.1928 0.0000 0.0000 0.0000
# 3 1.7975 -25.1928 74.1676 0.0000 0.0000 0.0000
# 4 0.0000 0.0000 0.0000 39.4838 0.0000 0.0000
# 5 0.0000 0.0000 0.0000 0.0000 -19.1018 0.0000
# 6 0.0000 0.0000 0.0000 0.0000 0.0000 69.7052
#
#
#
# Elastic Compliance Matrix: (Units=1/GPa)
#
#
# Indices 1 2 3 4 5 6 
#
# 1 0.007900 -0.004586 -0.001749 0.000000 0.000000 0.000000
# 2 -0.004586 0.010172 0.003566 0.000000 0.000000 0.000000
# 3 -0.001749 0.003566 0.014737 0.000000 0.000000 0.000000
# 4 0.000000 0.000000 0.000000 0.025327 0.000000 0.000000
# 5 0.000000 0.000000 0.000000 0.000000 -0.052351 0.000000
# 6 0.000000 0.000000 0.000000 0.000000 0.000000 0.014346
#
#
# Mechanical properties :
#
#
# Convention : Reuss Voigt Hill
#
# Bulk Modulus (GPa) = 36.66877 54.88427 45.77652
# Shear Modulus (GPa) = 143.84498 40.28958 92.06728
#
# Velocity S-wave (km/s) = 8.01462 4.24162 6.41192
# Velocity P-wave (km/s) = 10.10049 6.96398 8.67516
#
# Compressibility (1/GPa) = 0.02727116
#
# Stress axis : x y z
#
# Youngs Moduli (GPa) = 126.57642 98.30744 67.85748
#
# Poissons Ratio (x) = 0.45085 0.11870
# Poissons Ratio (y) = 0.58050 -0.24201
# Poissons Ratio (z) = 0.22142 -0.35060
#
# Static dielectric constant tensor:
#      x y z
#    x 1.821080 0.000000 0.000000 
#    y 0.000000 1.842670 0.000000 
#    z 0.000000 0.000000 1.835310 
# 
# From -- ./inp_files/17976.got.cif
#   From: 2010.05.17/outbox.cif.g08.bks.cpg/sg50_9_cif.got.tgz:17976.got - 2010.06.03 11:33:33.
