data_PCOD9396901
_publ_section_title
;
Structure prediction by ZEFSAII (Michael W. Deem and Ramdas Pophale) SiO2 
 PCOD9396901
Probable space group: P B A N
;
_chemical_formula_sum "Si O2"
_cell_formula_units_Z 46
_cell_length_a 23.706041
_cell_length_b 12.104581
_cell_length_c 8.084067
_cell_angle_alpha 90.000000
_cell_angle_beta 90.000000
_cell_angle_gamma 90.000000
_cell_volume 2319.736716
_symmetry_space_group_name_H-M "P B A N"
_symmetry_group_IT_number 50
_space_group.IT_coordinate_system_code '2'
_symmetry_cell_setting 'orthorhombic'
loop_
_space_group_symop_operation_xyz
x,y,z
1/2-x,1/2-y,z
x,1/2-y,-z
1/2-x,y,-z
-x,-y,-z
1/2+x,1/2+y,-z
-x,1/2+y,z
1/2+x,-y,z
loop_
_atom_site_type_symbol
_atom_site_label
_atom_site_fract_x
_atom_site_fract_y
_atom_site_fract_z
Si Si1 0.944526 0.750000 0.000000
Si Si2 0.379769 0.049858 0.003609
Si Si3 0.179440 0.049670 0.652311
Si Si4 0.053725 0.647472 0.894545
Si Si5 0.134261 0.862222 0.404011
Si Si6 0.750000 0.750000 0.500000
Si Si7 0.278044 0.918083 0.835614
O O1 0.904415 0.659301 0.079719
O O2 0.988503 0.682451 0.885859
O O3 0.361306 0.071277 0.191785
O O4 0.429091 0.958978 0.999335
O O5 0.325741 0.003250 0.904773
O O6 0.207866 0.163860 0.592300
O O7 0.149839 0.969958 0.514777
O O8 0.231118 0.978707 0.727717
O O9 0.081346 0.624284 0.718181
O O10 0.080115 0.750000 0.000000
O O11 0.124166 0.750000 0.500000
O O12 0.187417 0.839024 0.283380
O O13 0.250000 0.871277 0.000000
#
# Coordination Sequence:
#
# PCOD9396901 Si02
#       7
#     4   8   8   8   8   2   8
#     4  10  22  38  67  92 113 164 210 278 298 352
#     4  10  21  39  64  89 119 160 213 245 317 364
#     4  11  23  38  61  90 128 164 194 251 308 379
#     4   9  21  40  64  88 122 156 208 272 300 351
#     4  11  21  39  64  89 125 165 200 247 317 367
#     4  12  24  40  56  88 140 156 190 242 300 376
#     4   9  20  39  58  92 122 160 203 247 301 369
#
# _framework density 19.829837000000001
#
# number of rings (size 3 to 8) (size 9 to 14) (size 15 to 20)
#    0.522    1.391    1.739    1.565    2.435    1.391 
#    0.000    6.957    5.739    0.000    0.000    0.000 
#    0.000    0.000    0.000    0.000    0.000    0.000 
#
# Total GULP energy -256189.654937 kJ/mol
# GULP energy per Si atom -5569.340325 kJ/mol
# Density = 1.978470 g / cm^3
# Si number density = 19.829837 Si / 1000 Ang^3
#
#
#
# Elastic Constant Matrix: (Units=GPa)
#
#
# Indices 1 2 3 4 5 6 
#
# 1 88.6261 31.5108 32.2767 0.0000 0.0000 0.0000
# 2 31.5108 113.1512 32.3619 0.0000 0.0000 0.0000
# 3 32.2767 32.3619 94.1727 0.0000 0.0000 0.0000
# 4 0.0000 0.0000 0.0000 5.1788 0.0000 0.0000
# 5 0.0000 0.0000 0.0000 0.0000 8.6643 0.0000
# 6 0.0000 0.0000 0.0000 0.0000 0.0000 14.0300
#
#
#
# Elastic Compliance Matrix: (Units=1/GPa)
#
#
# Indices 1 2 3 4 5 6 
#
# 1 0.013610 -0.002724 -0.003729 0.000000 0.000000 0.000000
# 2 -0.002724 0.010346 -0.002622 0.000000 0.000000 0.000000
# 3 -0.003729 -0.002622 0.012798 0.000000 0.000000 0.000000
# 4 0.000000 0.000000 0.000000 0.193093 0.000000 0.000000
# 5 0.000000 0.000000 0.000000 0.000000 0.115417 0.000000
# 6 0.000000 0.000000 0.000000 0.000000 0.000000 0.071276
#
#
# Mechanical properties :
#
#
# Convention : Reuss Voigt Hill
#
# Bulk Modulus (GPa) = 53.74839 54.24987 53.99913
# Shear Modulus (GPa) = 11.34072 18.89467 15.11770
#
# Velocity S-wave (km/s) = 2.39404 3.09016 2.76410
# Velocity P-wave (km/s) = 5.89962 6.33634 6.12188
#
# Compressibility (1/GPa) = 0.01860521
#
# Stress axis : x y z
#
# Youngs Moduli (GPa) = 73.47721 96.65471 78.13899
#
# Poissons Ratio (x) = 0.26326 0.29135
# Poissons Ratio (y) = 0.20013 0.20487
# Poissons Ratio (z) = 0.27397 0.25342
#
# Static dielectric constant tensor:
#      x y z
#    x 1.724360 0.000000 0.000000 
#    y 0.000000 1.746600 0.000000 
#    z 0.000000 0.000000 1.726640 
# 
# From -- ./inp_files/16004.got.cif
#   From: 2010.05.17/outbox.cif.g08.bks.cpg/sg50_9_cif.got.tgz:16004.got - 2010.06.03 11:33:33.
