data_PCOD9396645
_publ_section_title
;
Structure prediction by ZEFSAII (Michael W. Deem and Ramdas Pophale) SiO2 
 PCOD9396645
Probable space group: P B A N
;
_chemical_formula_sum "Si O2"
_cell_formula_units_Z 64
_cell_length_a 8.838847
_cell_length_b 29.676273
_cell_length_c 13.612325
_cell_angle_alpha 90.000000
_cell_angle_beta 90.000000
_cell_angle_gamma 90.000000
_cell_volume 3570.567795
_symmetry_space_group_name_H-M "P B A N"
_symmetry_group_IT_number 50
_space_group.IT_coordinate_system_code '2'
_symmetry_cell_setting 'orthorhombic'
loop_
_space_group_symop_operation_xyz
x,y,z
1/2-x,1/2-y,z
x,1/2-y,-z
1/2-x,y,-z
-x,-y,-z
1/2+x,1/2+y,-z
-x,1/2+y,z
1/2+x,-y,z
loop_
_atom_site_type_symbol
_atom_site_label
_atom_site_fract_x
_atom_site_fract_y
_atom_site_fract_z
Si Si1 0.584474 0.955029 0.119657
Si Si2 0.942423 0.946372 0.099660
Si Si3 0.935653 0.850949 0.600180
Si Si4 0.083801 0.760515 0.617122
Si Si5 0.060494 0.902562 0.289430
Si Si6 0.612637 0.525299 0.427066
Si Si7 0.394568 0.323458 0.627952
Si Si8 0.100663 0.933571 0.686501
O O1 0.765863 0.953277 0.126775
O O2 0.496542 0.936209 0.213677
O O3 0.531170 0.006654 0.110935
O O4 0.545542 0.932727 0.014488
O O5 0.012478 0.913752 0.179280
O O6 0.915958 0.837879 0.485994
O O7 0.774306 0.840670 0.650893
O O8 0.049006 0.812474 0.637486
O O9 0.001310 0.900955 0.615677
O O10 0.250000 0.750000 0.658229
O O11 0.093161 0.750000 0.500000
O O12 0.941975 0.728289 0.644843
O O13 0.236815 0.911126 0.302129
O O14 0.964963 0.934908 0.364798
O O15 0.015614 0.852294 0.313825
O O16 0.750000 0.539188 0.500000
O O17 0.500000 0.500000 0.500000
O O18 0.642302 0.484050 0.351120
#
# Coordination Sequence:
#
# PCOD9396645 Si02
#       8
#     8   8   8   8   8   8   8   8
#     4  10  21  37  56  76 103 133 179 226 274 320
#     4  10  21  37  56  77 100 137 176 227 274 320
#     4  10  21  34  54  76 109 142 183 223 266 320
#     4   9  17  33  53  75 105 139 177 225 270 314
#     4  12  24  36  55  77 106 143 187 223 271 322
#     4  12  26  38  49  70 109 152 186 220 260 315
#     4  10  21  34  53  78 106 144 183 222 267 321
#     4  12  24  37  53  79 105 145 184 226 270 322
#
# _framework density 17.924320000000002
#
# number of rings (size 3 to 8) (size 9 to 14) (size 15 to 20)
#    0.000    1.375    2.500    3.375    5.250    4.000 
#    0.000    0.000    0.000    0.000    0.000    0.875 
#    0.000    7.000    0.000    0.000    0.000    0.000 
#
# Total GULP energy -356965.779860 kJ/mol
# GULP energy per Si atom -5577.590310 kJ/mol
# Density = 1.788352 g / cm^3
# Si number density = 17.924320 Si / 1000 Ang^3
#
#
#
# Elastic Constant Matrix: (Units=GPa)
#
#
# Indices 1 2 3 4 5 6 
#
# 1 88.7028 3.2656 12.3147 0.0000 0.0000 0.0000
# 2 3.2656 51.4661 0.7200 0.0000 0.0000 0.0000
# 3 12.3147 0.7200 56.3462 0.0000 0.0000 0.0000
# 4 0.0000 0.0000 0.0000 9.2303 0.0000 0.0000
# 5 0.0000 0.0000 0.0000 0.0000 24.7315 0.0000
# 6 0.0000 0.0000 0.0000 0.0000 0.0000 26.9135
#
#
#
# Elastic Compliance Matrix: (Units=1/GPa)
#
#
# Indices 1 2 3 4 5 6 
#
# 1 0.011652 -0.000704 -0.002538 0.000000 0.000000 0.000000
# 2 -0.000704 0.019476 -0.000095 0.000000 0.000000 0.000000
# 3 -0.002538 -0.000095 0.018303 0.000000 0.000000 0.000000
# 4 0.000000 0.000000 0.000000 0.108339 0.000000 0.000000
# 5 0.000000 0.000000 0.000000 0.000000 0.040434 0.000000
# 6 0.000000 0.000000 0.000000 0.000000 0.000000 0.037156
#
#
# Mechanical properties :
#
#
# Convention : Reuss Voigt Hill
#
# Bulk Modulus (GPa) = 23.38721 25.45730 24.42226
# Shear Modulus (GPa) = 19.50941 24.18938 21.84939
#
# Velocity S-wave (km/s) = 3.30272 3.67758 3.49518
# Velocity P-wave (km/s) = 5.25547 5.68034 5.47203
#
# Compressibility (1/GPa) = 0.04275841
#
# Stress axis : x y z
#
# Youngs Moduli (GPa) = 85.82363 51.34462 54.63520
#
# Poissons Ratio (x) = 0.03614 0.13864
# Poissons Ratio (y) = 0.06040 0.00519
# Poissons Ratio (z) = 0.21778 0.00488
#
# Static dielectric constant tensor:
#      x y z
#    x 1.659420 0.000000 0.000000 
#    y 0.000000 1.628160 0.000000 
#    z 0.000000 0.000000 1.651910 
# 
# From -- ./inp_files/19550.got.cif
#   From: 2010.05.17/outbox.cif.g08.bks.cpg/sg50_10_cif.got.tgz:19550.got - 2010.06.03 11:33:33.
