data_PCOD9396420
_publ_section_title
;
Structure prediction by ZEFSAII (Michael W. Deem and Ramdas Pophale) SiO2 
 PCOD9396420
Probable space group: P B A N
;
_chemical_formula_sum "Si O2"
_cell_formula_units_Z 48
_cell_length_a 21.247867
_cell_length_b 13.650457
_cell_length_c 8.633967
_cell_angle_alpha 90.000000
_cell_angle_beta 90.000000
_cell_angle_gamma 90.000000
_cell_volume 2504.222509
_symmetry_space_group_name_H-M "P B A N"
_symmetry_group_IT_number 50
_space_group.IT_coordinate_system_code '2'
_symmetry_cell_setting 'orthorhombic'
loop_
_space_group_symop_operation_xyz
x,y,z
1/2-x,1/2-y,z
x,1/2-y,-z
1/2-x,y,-z
-x,-y,-z
1/2+x,1/2+y,-z
-x,1/2+y,z
1/2+x,-y,z
loop_
_atom_site_type_symbol
_atom_site_label
_atom_site_fract_x
_atom_site_fract_y
_atom_site_fract_z
Si Si1 0.564257 0.489746 0.900370
Si Si2 0.934685 0.411681 0.634123
Si Si3 0.180157 0.859533 0.065957
Si Si4 0.477150 0.197457 0.833577
Si Si5 0.516506 0.885307 0.659010
Si Si6 0.186174 0.639361 0.560735
O O1 0.626575 0.441050 0.971877
O O2 0.568131 0.602109 0.840199
O O3 0.543488 0.415053 0.764651
O O4 0.500000 0.500000 0.000000
O O5 0.992409 0.389288 0.515856
O O6 0.873229 0.400031 0.532983
O O7 0.954169 0.340447 0.774276
O O8 0.937708 0.523761 0.685343
O O9 0.183796 0.858972 0.253627
O O10 0.165328 0.750000 0.000000
O O11 0.250000 0.883244 0.000000
O O12 0.457594 0.282791 0.715838
O O13 0.481287 0.250000 0.000000
O O14 0.187487 0.750000 0.500000
O O15 0.250000 0.589778 0.500000
#
# Coordination Sequence:
#
# PCOD9396420 Si02
#       6
#     8   8   8   8   8   8
#     4  11  23  35  61  94 125 162 209 260 315 377
#     4  10  22  36  59  86 123 165 197 253 311 375
#     4  11  25  43  65  93 128 171 209 262 324 385
#     4  11  22  37  57  92 125 159 202 260 316 373
#     4  10  20  38  57  86 124 158 201 250 320 369
#     4  11  22  39  58  89 123 163 205 248 310 386
#
# _framework density 19.167625000000001
#
# number of rings (size 3 to 8) (size 9 to 14) (size 15 to 20)
#    0.000    1.333    3.333    3.500    2.333    4.000 
#    0.000    0.000    0.000    0.500    0.000    1.167 
#    0.000    0.000    0.000    0.000    0.000    0.000 
#
# Total GULP energy -267591.734548 kJ/mol
# GULP energy per Si atom -5574.827803 kJ/mol
# Density = 1.912400 g / cm^3
# Si number density = 19.167625 Si / 1000 Ang^3
#
#
#
# Elastic Constant Matrix: (Units=GPa)
#
#
# Indices 1 2 3 4 5 6 
#
# 1 117.2506 57.9545 48.2130 0.0000 0.0000 0.0000
# 2 57.9545 139.3612 31.4244 0.0000 0.0000 0.0000
# 3 48.2130 31.4244 76.1109 0.0000 0.0000 0.0000
# 4 0.0000 0.0000 0.0000 32.0761 0.0000 0.0000
# 5 0.0000 0.0000 0.0000 0.0000 18.1362 0.0000
# 6 0.0000 0.0000 0.0000 0.0000 0.0000 18.4741
#
#
#
# Elastic Compliance Matrix: (Units=1/GPa)
#
#
# Indices 1 2 3 4 5 6 
#
# 1 0.013288 -0.004000 -0.006766 0.000000 0.000000 0.000000
# 2 -0.004000 0.009117 -0.001230 0.000000 0.000000 0.000000
# 3 -0.006766 -0.001230 0.017932 0.000000 0.000000 0.000000
# 4 0.000000 0.000000 0.000000 0.031176 0.000000 0.000000
# 5 0.000000 0.000000 0.000000 0.000000 0.055138 0.000000
# 6 0.000000 0.000000 0.000000 0.000000 0.000000 0.054130
#
#
# Mechanical properties :
#
#
# Convention : Reuss Voigt Hill
#
# Bulk Modulus (GPa) = 61.18144 67.54515 64.36330
# Shear Modulus (GPa) = 23.78443 26.74600 25.26521
#
# Velocity S-wave (km/s) = 3.52641 3.73952 3.63453
# Velocity P-wave (km/s) = 6.96916 7.34582 7.15997
#
# Compressibility (1/GPa) = 0.01634483
#
# Stress axis : x y z
#
# Youngs Moduli (GPa) = 75.25535 109.69108 55.76506
#
# Poissons Ratio (x) = 0.43880 0.37729
# Poissons Ratio (y) = 0.30105 0.06859
# Poissons Ratio (z) = 0.50916 0.13491
#
# Static dielectric constant tensor:
#      x y z
#    x 1.764810 0.000000 0.000000 
#    y 0.000000 1.620610 0.000000 
#    z 0.000000 0.000000 1.794550 
# 
# From -- ./inp_files/15255.got.cif
#   From: 2010.05.17/outbox.cif.g08.bks.cpg/sg50_8_cif.got.tgz:15255.got - 2010.06.03 11:33:33.
