data_PCOD9396149
_publ_section_title
;
Structure prediction by ZEFSAII (Michael W. Deem and Ramdas Pophale) SiO2 
 PCOD9396149
Probable space group: P B A N
;
_chemical_formula_sum "Si O2"
_cell_formula_units_Z 64
_cell_length_a 17.135144
_cell_length_b 8.398884
_cell_length_c 22.842348
_cell_angle_alpha 90.000000
_cell_angle_beta 90.000000
_cell_angle_gamma 90.000000
_cell_volume 3287.381337
_symmetry_space_group_name_H-M "P B A N"
_symmetry_group_IT_number 50
_space_group.IT_coordinate_system_code '2'
_symmetry_cell_setting 'orthorhombic'
loop_
_space_group_symop_operation_xyz
x,y,z
1/2-x,1/2-y,z
x,1/2-y,-z
1/2-x,y,-z
-x,-y,-z
1/2+x,1/2+y,-z
-x,1/2+y,z
1/2+x,-y,z
loop_
_atom_site_type_symbol
_atom_site_label
_atom_site_fract_x
_atom_site_fract_y
_atom_site_fract_z
Si Si1 0.339248 0.438973 0.377884
Si Si2 0.154705 0.250000 0.068251
Si Si3 0.156919 0.568606 0.865056
Si Si4 0.340549 0.939209 0.500000
Si Si5 0.414327 0.562502 0.259930
Si Si6 0.339248 0.061027 0.377884
Si Si7 0.156919 0.931393 0.865056
Si Si8 0.585673 0.437498 0.259930
O O1 0.375019 0.503435 0.438477
O O2 0.383618 0.483448 0.319044
O O3 0.336064 0.250000 0.382794
O O4 0.250000 0.502255 0.372978
O O5 0.250000 0.250000 0.072412
O O6 0.127438 0.415209 0.098607
O O7 0.127438 0.084792 0.098607
O O8 0.134049 0.250000 0.000000
O O9 0.139188 0.535771 0.796856
O O10 0.127052 0.749999 0.878507
O O11 0.250000 0.574599 0.873888
O O12 0.339245 0.750000 0.500000
O O13 0.250000 0.999811 0.500000
O O14 0.375019 0.996565 0.438476
O O15 0.500000 0.500000 0.245557
O O16 0.417340 0.750000 0.270631
O O17 0.383617 0.016552 0.319044
O O18 0.139188 0.964228 0.796856
#
# Coordination Sequence:
#
# PCOD9396149 Si02
#       8
#     8   8   8   8   8   8   8   8
#     4  10  20  34  55  81 109 141 181 226 273 328
#     4   9  18  32  56  88 116 143 178 224 275 327
#     4   9  19  35  56  83 113 146 184 227 276 330
#     4   9  17  31  52  77 106 141 178 223 273 323
#     4  11  23  37  54  79 108 145 184 228 278 329
#     4  10  20  34  55  81 109 141 181 226 273 328
#     4   9  19  35  56  83 113 146 184 227 276 330
#     4  11  23  37  54  79 108 145 184 228 278 329
#
# _framework density 19.468382999999999
#
# number of rings (size 3 to 8) (size 9 to 14) (size 15 to 20)
#    0.000    2.250    0.000    2.625    3.500    4.500 
#    0.000    3.125    0.000    0.750    0.000    0.000 
#    0.000    0.000    0.000    0.000    0.000    0.000 
#
# Total GULP energy -356892.161973 kJ/mol
# GULP energy per Si atom -5576.440031 kJ/mol
# Density = 1.942407 g / cm^3
# Si number density = 19.468383 Si / 1000 Ang^3
#
#
#
# Elastic Constant Matrix: (Units=GPa)
#
#
# Indices 1 2 3 4 5 6 
#
# 1 2.3899 8.1862 -6.9086 0.0000 0.0000 0.0000
# 2 8.1862 124.3340 89.2145 0.0000 0.0000 0.0000
# 3 -6.9086 89.2145 116.6927 0.0000 0.0000 0.0000
# 4 0.0000 0.0000 0.0000 29.6863 0.0000 0.0000
# 5 0.0000 0.0000 0.0000 0.0000 -10.2252 0.0000
# 6 0.0000 0.0000 0.0000 0.0000 0.0000 17.3838
#
#
#
# Elastic Compliance Matrix: (Units=1/GPa)
#
#
# Indices 1 2 3 4 5 6 
#
# 1 -0.799456 0.191834 -0.193993 0.000000 0.000000 0.000000
# 2 0.191834 -0.028215 0.032928 0.000000 0.000000 0.000000
# 3 -0.193993 0.032928 -0.028090 0.000000 0.000000 0.000000
# 4 0.000000 0.000000 0.000000 0.033686 0.000000 0.000000
# 5 0.000000 0.000000 0.000000 0.000000 -0.097798 0.000000
# 6 0.000000 0.000000 0.000000 0.000000 0.000000 0.057525
#
#
# Mechanical properties :
#
#
# Convention : Reuss Voigt Hill
#
# Bulk Modulus (GPa) = -1.25909 47.15565 22.94828
# Shear Modulus (GPa) = -4.20653 17.56396 6.67872
#
# Velocity S-wave (km/s) = -1.47153 3.00689 1.85418
# Velocity P-wave (km/s) = 1.88025 6.02739 4.04933
#
# Compressibility (1/GPa) = -0.79422155
#
# Stress axis : x y z
#
# Youngs Moduli (GPa) = -1.25085 -35.44219 -35.59972
#
# Poissons Ratio (x) = 6.79901 -6.90608
# Poissons Ratio (y) = 0.23996 1.17224
# Poissons Ratio (z) = -0.24266 1.16705
#
# Static dielectric constant tensor:
#      x y z
#    x 1.674770 0.000000 0.000000 
#    y 0.000000 1.683960 0.000000 
#    z 0.000000 0.000000 1.664490 
# 
# From -- ./inp_files/31114.got.cif
#   From: 2010.05.17/outbox.cif.g08.bks.cpg/sg50_16_cif.got.tgz:31114.got - 2010.06.03 11:33:33.
