data_PCOD9396229
_publ_section_title
;
Structure prediction by ZEFSAII (Michael W. Deem and Ramdas Pophale) SiO2 
 PCOD9396229
Probable space group: P B A N
;
_chemical_formula_sum "Si O2"
_cell_formula_units_Z 32
_cell_length_a 10.549100
_cell_length_b 16.735449
_cell_length_c 9.111713
_cell_angle_alpha 90.000000
_cell_angle_beta 90.000000
_cell_angle_gamma 90.000000
_cell_volume 1608.617577
_symmetry_space_group_name_H-M "P B A N"
_symmetry_group_IT_number 50
_space_group.IT_coordinate_system_code '2'
_symmetry_cell_setting 'orthorhombic'
loop_
_space_group_symop_operation_xyz
x,y,z
1/2-x,1/2-y,z
x,1/2-y,-z
1/2-x,y,-z
-x,-y,-z
1/2+x,1/2+y,-z
-x,1/2+y,z
1/2+x,-y,z
loop_
_atom_site_type_symbol
_atom_site_label
_atom_site_fract_x
_atom_site_fract_y
_atom_site_fract_z
Si Si1 0.513590 0.422780 0.801782
Si Si2 0.058688 0.331771 0.909791
Si Si3 0.400622 0.755478 0.672641
Si Si4 0.761759 0.537090 0.167946
O O1 0.544261 0.340299 0.722615
O O2 0.627637 0.482805 0.767454
O O3 0.376963 0.460113 0.762759
O O4 0.499054 0.395927 0.974053
O O5 0.966490 0.310371 0.776014
O O6 0.184632 0.372702 0.846218
O O7 0.080927 0.250000 0.000000
O O8 0.250000 0.750000 0.698126
O O9 0.424703 0.750000 0.500000
O O10 0.750000 0.507636 0.000000
#
# Coordination Sequence:
#
# PCOD9396229 Si02
#       4
#     8   8   8   8
#     4  10  22  36  63  90 119 154 193 244 300 349
#     4   9  19  35  59  88 118 154 202 244 292 344
#     4  10  23  40  60  83 119 157 202 246 296 352
#     4  10  20  35  58  95 124 150 189 251 294 353
#
# _framework density 19.892856999999999
#
# number of rings (size 3 to 8) (size 9 to 14) (size 15 to 20)
#    0.000    2.250    0.000    3.000    7.000   15.000 
#    0.000    3.750    0.000    0.000    0.000    0.000 
#    0.000    0.000    0.000    0.000    0.000    0.000 
#
# Total GULP energy -178567.721128 kJ/mol
# GULP energy per Si atom -5580.241285 kJ/mol
# Density = 1.984758 g / cm^3
# Si number density = 19.892857 Si / 1000 Ang^3
#
#
#
# Elastic Constant Matrix: (Units=GPa)
#
#
# Indices 1 2 3 4 5 6 
#
# 1 168.0665 61.7300 46.5978 0.0000 0.0000 0.0000
# 2 61.7300 69.8521 4.1913 0.0000 0.0000 0.0000
# 3 46.5978 4.1913 47.5394 0.0000 0.0000 0.0000
# 4 0.0000 0.0000 0.0000 4.6087 0.0000 0.0000
# 5 0.0000 0.0000 0.0000 0.0000 13.6442 0.0000
# 6 0.0000 0.0000 0.0000 0.0000 0.0000 42.3284
#
#
#
# Elastic Compliance Matrix: (Units=1/GPa)
#
#
# Indices 1 2 3 4 5 6 
#
# 1 0.013404 -0.011116 -0.012158 0.000000 0.000000 0.000000
# 2 -0.011116 0.023610 0.008814 0.000000 0.000000 0.000000
# 3 -0.012158 0.008814 0.032175 0.000000 0.000000 0.000000
# 4 0.000000 0.000000 0.000000 0.216983 0.000000 0.000000
# 5 0.000000 0.000000 0.000000 0.000000 0.073291 0.000000
# 6 0.000000 0.000000 0.000000 0.000000 0.000000 0.023625
#
#
# Mechanical properties :
#
#
# Convention : Reuss Voigt Hill
#
# Bulk Modulus (GPa) = 24.83268 56.72180 40.77724
# Shear Modulus (GPa) = 11.75277 23.64553 17.69915
#
# Velocity S-wave (km/s) = 2.43328 3.45141 2.98606
# Velocity P-wave (km/s) = 4.51717 6.66772 5.69488
#
# Compressibility (1/GPa) = 0.04026952
#
# Stress axis : x y z
#
# Youngs Moduli (GPa) = 74.60624 42.35445 31.07957
#
# Poissons Ratio (x) = 0.47080 0.37787
# Poissons Ratio (y) = 0.82930 -0.27393
# Poissons Ratio (z) = 0.90708 -0.37331
#
# Static dielectric constant tensor:
#      x y z
#    x 1.738920 0.000000 0.000000 
#    y 0.000000 1.718140 0.000000 
#    z 0.000000 0.000000 1.692110 
# 
# From -- ./inp_files/13863.got.cif
#   From: 2010.05.17/outbox.cif.g08.bks.cpg/sg50_7_cif.got.tgz:13863.got - 2010.06.03 11:33:33.
