data_PCOD9396009
_publ_section_title
;
Structure prediction by ZEFSAII (Michael W. Deem and Ramdas Pophale) SiO2 
 PCOD9396009
Probable space group: P B A N
;
_chemical_formula_sum "Si O2"
_cell_formula_units_Z 48
_cell_length_a 13.762710
_cell_length_b 11.398950
_cell_length_c 15.673089
_cell_angle_alpha 90.000000
_cell_angle_beta 90.000000
_cell_angle_gamma 90.000000
_cell_volume 2458.801148
_symmetry_space_group_name_H-M "P B A N"
_symmetry_group_IT_number 50
_space_group.IT_coordinate_system_code '2'
_symmetry_cell_setting 'orthorhombic'
loop_
_space_group_symop_operation_xyz
x,y,z
1/2-x,1/2-y,z
x,1/2-y,-z
1/2-x,y,-z
-x,-y,-z
1/2+x,1/2+y,-z
-x,1/2+y,z
1/2+x,-y,z
loop_
_atom_site_type_symbol
_atom_site_label
_atom_site_fract_x
_atom_site_fract_y
_atom_site_fract_z
Si Si1 0.478226 0.654036 0.574127
Si Si2 0.399474 0.561246 0.967171
Si Si3 0.844555 0.682755 0.910284
Si Si4 0.853161 0.190354 0.689662
Si Si5 0.350147 0.494765 0.457420
Si Si6 0.431581 0.704376 0.130005
O O1 0.480028 0.750000 0.500000
O O2 0.429374 0.713934 0.654503
O O3 0.411298 0.550600 0.536051
O O4 0.585921 0.606305 0.584525
O O5 0.377961 0.634676 0.053002
O O6 0.500000 0.500000 0.000000
O O7 0.332898 0.455136 0.932956
O O8 0.414008 0.658440 0.893218
O O9 0.750000 0.750000 0.871383
O O10 0.950761 0.690941 0.867407
O O11 0.858548 0.750000 0.000000
O O12 0.750000 0.250000 0.700552
O O13 0.840343 0.093295 0.615781
O O14 0.890586 0.154750 0.782005
O O15 0.250000 0.457751 0.500000
#
# Coordination Sequence:
#
# PCOD9396009 Si02
#       6
#     8   8   8   8   8   8
#     4   9  20  36  63  92 117 155 198 251 303 372
#     4   9  17  38  59  83 121 166 207 258 304 369
#     4  10  19  37  64  87 112 170 221 250 321 385
#     4  11  22  39  60  93 122 162 204 254 313 374
#     4  10  19  38  67  87 118 159 205 244 307 377
#     4  10  20  37  61  91 127 160 209 266 312 366
#
# _framework density 19.521709999999999
#
# number of rings (size 3 to 8) (size 9 to 14) (size 15 to 20)
#    0.000    2.167    5.000    0.000    0.000    3.000 
#    6.000    0.833   11.000    0.000    0.000    0.000 
#    0.000    0.000    0.000    0.000    0.000    0.000 
#
# Total GULP energy -267332.702888 kJ/mol
# GULP energy per Si atom -5569.431310 kJ/mol
# Density = 1.947728 g / cm^3
# Si number density = 19.521710 Si / 1000 Ang^3
#
#
#
# Elastic Constant Matrix: (Units=GPa)
#
#
# Indices 1 2 3 4 5 6 
#
# 1 120.2191 33.2146 24.5405 0.0000 0.0000 0.0000
# 2 33.2146 70.9276 -5.6616 0.0000 0.0000 0.0000
# 3 24.5405 -5.6616 66.0448 0.0000 0.0000 0.0000
# 4 0.0000 0.0000 0.0000 4.0511 0.0000 0.0000
# 5 0.0000 0.0000 0.0000 0.0000 -2.6507 0.0000
# 6 0.0000 0.0000 0.0000 0.0000 0.0000 14.0572
#
#
#
# Elastic Compliance Matrix: (Units=1/GPa)
#
#
# Indices 1 2 3 4 5 6 
#
# 1 0.010707 -0.005369 -0.004439 0.000000 0.000000 0.000000
# 2 -0.005369 0.016888 0.003442 0.000000 0.000000 0.000000
# 3 -0.004439 0.003442 0.017086 0.000000 0.000000 0.000000
# 4 0.000000 0.000000 0.000000 0.246849 0.000000 0.000000
# 5 0.000000 0.000000 0.000000 0.000000 -0.377257 0.000000
# 6 0.000000 0.000000 0.000000 0.000000 0.000000 0.071138
#
#
# Mechanical properties :
#
#
# Convention : Reuss Voigt Hill
#
# Bulk Modulus (GPa) = 31.29780 40.15316 35.72548
# Shear Modulus (GPa) = 568.76960 16.76471 292.76715
#
# Velocity S-wave (km/s) = 17.08756 2.93366 12.25951
# Velocity P-wave (km/s) = 20.13406 5.66465 14.78967
#
# Compressibility (1/GPa) = 0.03195113
#
# Stress axis : x y z
#
# Youngs Moduli (GPa) = 93.39259 59.21476 58.52850
#
# Poissons Ratio (x) = 0.31790 0.25980
# Poissons Ratio (y) = 0.50138 -0.20148
# Poissons Ratio (z) = 0.41455 -0.20385
#
# Static dielectric constant tensor:
#      x y z
#    x 1.749960 0.000000 0.000000 
#    y 0.000000 1.737890 0.000000 
#    z 0.000000 0.000000 1.651000 
# 
# From -- ./inp_files/26412.got.cif
#   From: 2010.05.17/outbox.cif.g08.bks.cpg/sg50_14_cif.got.tgz:26412.got - 2010.06.03 11:33:33.
