data_PCOD9396252
_publ_section_title
;
Structure prediction by ZEFSAII (Michael W. Deem and Ramdas Pophale) SiO2 
 PCOD9396252
Probable space group: P B A N
;
_chemical_formula_sum "Si O2"
_cell_formula_units_Z 50
_cell_length_a 26.061987
_cell_length_b 6.012646
_cell_length_c 13.836150
_cell_angle_alpha 90.000000
_cell_angle_beta 90.000000
_cell_angle_gamma 90.000000
_cell_volume 2168.145485
_symmetry_space_group_name_H-M "P B A N"
_symmetry_group_IT_number 50
_space_group.IT_coordinate_system_code '2'
_symmetry_cell_setting 'orthorhombic'
loop_
_space_group_symop_operation_xyz
x,y,z
1/2-x,1/2-y,z
x,1/2-y,-z
1/2-x,y,-z
-x,-y,-z
1/2+x,1/2+y,-z
-x,1/2+y,z
1/2+x,-y,z
loop_
_atom_site_type_symbol
_atom_site_label
_atom_site_fract_x
_atom_site_fract_y
_atom_site_fract_z
Si Si1 0.382766 0.174710 0.300120
Si Si2 0.750000 0.250000 0.833525
Si Si3 0.056133 0.525886 0.828554
Si Si4 0.141465 0.900132 0.873698
Si Si5 0.209998 0.053549 0.341034
Si Si6 0.487617 0.085534 0.358802
Si Si7 0.076556 0.250000 0.000000
Si Si8 0.750000 0.250000 0.500000
O O1 0.412465 0.341480 0.229668
O O2 0.344497 0.332907 0.353270
O O3 0.426706 0.049039 0.356428
O O4 0.352230 0.007297 0.232454
O O5 0.799797 0.330487 0.894639
O O6 0.723970 0.432980 0.760660
O O7 0.097579 0.712355 0.859680
O O8 0.013579 0.603056 0.750209
O O9 0.041633 0.391277 0.925522
O O10 0.114947 0.077768 0.945344
O O11 0.250000 0.250000 0.352657
O O12 0.215449 0.886902 0.427990
O O13 0.493142 0.342908 0.397655
#
# Coordination Sequence:
#
# PCOD9396252 Si02
#       8
#     8   4   8   8   8   8   4   2
#     4  10  20  35  64  90 120 161 211 264 318 382
#     4  11  22  35  67  89 114 162 218 271 318 380
#     4  10  20  38  57  85 120 163 216 278 332 390
#     4  11  20  39  57  84 117 163 222 276 325 390
#     4  11  21  40  64  98 128 161 197 252 314 385
#     4  10  20  36  61  93 124 160 215 280 329 387
#     4  10  24  38  59  76 122 170 220 281 348 386
#     4  10  26  40  64 100 140 162 194 238 316 398
#
# _framework density 23.061184000000001
#
# number of rings (size 3 to 8) (size 9 to 14) (size 15 to 20)
#    0.000    1.600    4.800    0.720    0.000    0.000 
#    0.000    9.600    0.000    0.000    0.000    4.480 
#    0.000    0.000    0.000    0.000    0.000    0.000 
#
# Total GULP energy -278793.057438 kJ/mol
# GULP energy per Si atom -5575.861149 kJ/mol
# Density = 2.300870 g / cm^3
# Si number density = 23.061184 Si / 1000 Ang^3
#
#
#
# Elastic Constant Matrix: (Units=GPa)
#
#
# Indices 1 2 3 4 5 6 
#
# 1 98.7695 16.4250 7.3082 0.0000 0.0000 0.0000
# 2 16.4250 100.8789 23.7811 0.0000 0.0000 0.0000
# 3 7.3082 23.7811 35.2804 0.0000 0.0000 0.0000
# 4 0.0000 0.0000 0.0000 -53.9462 0.0000 0.0000
# 5 0.0000 0.0000 0.0000 0.0000 3363.0765 0.0000
# 6 0.0000 0.0000 0.0000 0.0000 0.0000 21.1508
#
#
#
# Elastic Compliance Matrix: (Units=1/GPa)
#
#
# Indices 1 2 3 4 5 6 
#
# 1 0.010450 -0.001416 -0.001210 0.000000 0.000000 0.000000
# 2 -0.001416 0.011978 -0.007780 0.000000 0.000000 0.000000
# 3 -0.001210 -0.007780 0.033839 0.000000 0.000000 0.000000
# 4 0.000000 0.000000 0.000000 -0.018537 0.000000 0.000000
# 5 0.000000 0.000000 0.000000 0.000000 0.000297 0.000000
# 6 0.000000 0.000000 0.000000 0.000000 0.000000 0.047279
#
#
# Mechanical properties :
#
#
# Convention : Reuss Voigt Hill
#
# Bulk Modulus (GPa) = 28.20579 36.66192 32.43386
# Shear Modulus (GPa) = 42.39550 678.55053 360.47302
#
# Velocity S-wave (km/s) = 4.29230 17.17201 12.51603
# Velocity P-wave (km/s) = 6.06816 20.22629 14.93194
#
# Compressibility (1/GPa) = 0.03545371
#
# Stress axis : x y z
#
# Youngs Moduli (GPa) = 95.69731 83.48952 29.55141
#
# Poissons Ratio (x) = 0.11823 0.03576
# Poissons Ratio (y) = 0.13552 0.22992
# Poissons Ratio (z) = 0.11580 0.64957
#
# Static dielectric constant tensor:
#      x y z
#    x 1.939050 0.000000 0.000000 
#    y 0.000000 1.688320 0.000000 
#    z 0.000000 0.000000 1.958530 
# 
# From -- ./inp_files/27648.got.cif
#   From: 2010.05.17/outbox.cif.g08.bks.cpg/sg50_14_cif.got.tgz:27648.got - 2010.06.03 11:33:33.
