data_PCOD9396330
_publ_section_title
;
Structure prediction by ZEFSAII (Michael W. Deem and Ramdas Pophale) SiO2 
 PCOD9396330
Probable space group: P B A N
;
_chemical_formula_sum "Si O2"
_cell_formula_units_Z 32
_cell_length_a 8.905694
_cell_length_b 15.620397
_cell_length_c 10.437690
_cell_angle_alpha 90.000000
_cell_angle_beta 90.000000
_cell_angle_gamma 90.000000
_cell_volume 1451.992023
_symmetry_space_group_name_H-M "P B A N"
_symmetry_group_IT_number 50
_space_group.IT_coordinate_system_code '2'
_symmetry_cell_setting 'orthorhombic'
loop_
_space_group_symop_operation_xyz
x,y,z
1/2-x,1/2-y,z
x,1/2-y,-z
1/2-x,y,-z
-x,-y,-z
1/2+x,1/2+y,-z
-x,1/2+y,z
1/2+x,-y,z
loop_
_atom_site_type_symbol
_atom_site_label
_atom_site_fract_x
_atom_site_fract_y
_atom_site_fract_z
Si Si1 0.496906 0.423150 0.333758
Si Si2 0.250000 0.505688 0.500000
Si Si3 0.928232 0.262466 0.844871
Si Si4 0.750000 0.999253 0.000000
Si Si5 0.497347 0.583172 0.157842
O O1 0.338411 0.442401 0.402495
O O2 0.628263 0.429500 0.438345
O O3 0.513207 0.345975 0.231117
O O4 0.525461 0.510710 0.258930
O O5 0.750000 0.250000 0.825443
O O6 0.006168 0.177755 0.789431
O O7 0.953736 0.250000 0.000000
O O8 0.620750 0.937395 0.948984
O O9 0.832790 0.062012 0.900446
#
# Coordination Sequence:
#
# PCOD9396330 Si02
#       5
#     8   4   8   4   8
#     4  11  23  44  68  93 129 175 229 282 330 389
#     4  10  24  46  68  92 132 184 234 278 322 388
#     4  11  22  38  66 101 134 171 218 275 345 413
#     4  10  20  36  64  98 138 176 204 266 344 412
#     4  11  21  39  63  94 132 170 217 268 334 401
#
# _framework density 22.038688
#
# number of rings (size 3 to 8) (size 9 to 14) (size 15 to 20)
#    0.000    1.250    0.000    9.000    0.000    0.000 
#    0.000   25.000    0.000    6.000    0.000    0.000 
#    0.000    0.000    0.000    0.000    0.000    0.000 
#
# Total GULP energy -178601.342979 kJ/mol
# GULP energy per Si atom -5581.291968 kJ/mol
# Density = 2.198853 g / cm^3
# Si number density = 22.038688 Si / 1000 Ang^3
#
#
#
# Elastic Constant Matrix: (Units=GPa)
#
#
# Indices 1 2 3 4 5 6 
#
# 1 85.2327 37.2941 20.2843 0.0000 0.0000 0.0000
# 2 37.2941 179.5625 57.5407 0.0000 0.0000 0.0000
# 3 20.2843 57.5407 52.7625 0.0000 0.0000 0.0000
# 4 0.0000 0.0000 0.0000 17.9779 0.0000 0.0000
# 5 0.0000 0.0000 0.0000 0.0000 24.9610 0.0000
# 6 0.0000 0.0000 0.0000 0.0000 0.0000 23.1066
#
#
#
# Elastic Compliance Matrix: (Units=1/GPa)
#
#
# Indices 1 2 3 4 5 6 
#
# 1 0.013251 -0.001721 -0.003217 0.000000 0.000000 0.000000
# 2 -0.001721 0.008784 -0.008918 0.000000 0.000000 0.000000
# 3 -0.003217 -0.008918 0.029916 0.000000 0.000000 0.000000
# 4 0.000000 0.000000 0.000000 0.055624 0.000000 0.000000
# 5 0.000000 0.000000 0.000000 0.000000 0.040063 0.000000
# 6 0.000000 0.000000 0.000000 0.000000 0.000000 0.043278
#
#
# Mechanical properties :
#
#
# Convention : Reuss Voigt Hill
#
# Bulk Modulus (GPa) = 41.25781 60.86621 51.06201
# Shear Modulus (GPa) = 22.05477 26.70499 24.37988
#
# Velocity S-wave (km/s) = 3.16686 3.48477 3.32961
# Velocity P-wave (km/s) = 5.66862 6.62339 6.16452
#
# Compressibility (1/GPa) = 0.02423783
#
# Stress axis : x y z
#
# Youngs Moduli (GPa) = 75.46365 113.83795 33.42743
#
# Poissons Ratio (x) = 0.19594 0.10755
# Poissons Ratio (y) = 0.12989 0.29811
# Poissons Ratio (z) = 0.24279 1.01523
#
# Static dielectric constant tensor:
#      x y z
#    x 1.893640 0.000000 0.000000 
#    y 0.000000 1.818140 0.000000 
#    z 0.000000 0.000000 2.269590 
# 
# From -- ./inp_files/18411.got.cif
#   From: 2010.05.17/outbox.cif.g08.bks.cpg/sg50_10_cif.got.tgz:18411.got - 2010.06.03 11:33:33.
