data_PCOD9396373
_publ_section_title
;
Structure prediction by ZEFSAII (Michael W. Deem and Ramdas Pophale) SiO2 
 PCOD9396373
Probable space group: P B A N
;
_chemical_formula_sum "Si O2"
_cell_formula_units_Z 64
_cell_length_a 14.433042
_cell_length_b 16.049479
_cell_length_c 14.601139
_cell_angle_alpha 90.000000
_cell_angle_beta 90.000000
_cell_angle_gamma 90.000000
_cell_volume 3382.248787
_symmetry_space_group_name_H-M "P B A N"
_symmetry_group_IT_number 50
_space_group.IT_coordinate_system_code '2'
_symmetry_cell_setting 'orthorhombic'
loop_
_space_group_symop_operation_xyz
x,y,z
1/2-x,1/2-y,z
x,1/2-y,-z
1/2-x,y,-z
-x,-y,-z
1/2+x,1/2+y,-z
-x,1/2+y,z
1/2+x,-y,z
loop_
_atom_site_type_symbol
_atom_site_label
_atom_site_fract_x
_atom_site_fract_y
_atom_site_fract_z
Si Si1 0.461760 0.764893 0.103528
Si Si2 0.351084 0.228968 0.191708
Si Si3 0.152140 0.773050 0.260250
Si Si4 0.661267 0.160373 0.452647
Si Si5 0.541966 0.589812 0.476144
Si Si6 0.570065 0.396082 0.246898
Si Si7 0.376272 0.121326 0.668994
Si Si8 0.670156 0.937453 0.700822
O O1 0.570130 0.751918 0.120072
O O2 0.414685 0.702359 0.177731
O O3 0.394762 0.812257 0.299798
O O4 0.434210 0.750000 0.000000
O O5 0.250000 0.250000 0.154815
O O6 0.364671 0.289471 0.280581
O O7 0.354173 0.134433 0.225950
O O8 0.250000 0.750000 0.216426
O O9 0.175129 0.832691 0.343724
O O10 0.064506 0.644008 0.145032
O O11 0.663483 0.250000 0.500000
O O12 0.750000 0.113642 0.500000
O O13 0.554508 0.136015 0.460437
O O14 0.500000 0.500000 0.500000
O O15 0.597561 0.626188 0.562603
O O16 0.609990 0.582553 0.389844
O O17 0.467226 0.417980 0.282221
O O18 0.637938 0.472437 0.263324
O O19 0.280124 0.071737 0.681598
#
# Coordination Sequence:
#
# PCOD9396373 Si02
#       8
#     8   8   8   8   8   8   8   8
#     4   9  20  39  65  92 122 152 194 253 316 373
#     4   9  20  38  63  85 116 160 213 249 303 377
#     4  10  20  37  61  89 119 158 197 247 308 368
#     4  11  23  37  60  85 118 160 209 256 299 367
#     4  12  25  35  52  85 123 162 210 261 307 366
#     4   9  21  40  59  89 126 149 203 257 311 366
#     4  10  21  40  54  81 124 163 214 260 302 366
#     4  11  22  39  58  85 120 170 204 255 318 360
#
# _framework density 18.922322000000001
#
# number of rings (size 3 to 8) (size 9 to 14) (size 15 to 20)
#    0.750    1.125    2.500    1.875    1.750    2.500 
#    2.250    2.500    0.000    0.000    6.500    0.000 
#    0.000    0.000    0.000    0.000    0.000    0.000 
#
# Total GULP energy -356392.941017 kJ/mol
# GULP energy per Si atom -5568.639703 kJ/mol
# Density = 1.887925 g / cm^3
# Si number density = 18.922322 Si / 1000 Ang^3
#
#
#
# Elastic Constant Matrix: (Units=GPa)
#
#
# Indices 1 2 3 4 5 6 
#
# 1 135.4418 23.7957 36.0998 0.0000 0.0000 0.0000
# 2 23.7957 35.3603 22.1100 0.0000 0.0000 0.0000
# 3 36.0998 22.1100 109.3687 0.0000 0.0000 0.0000
# 4 0.0000 0.0000 0.0000 14.3754 0.0000 0.0000
# 5 0.0000 0.0000 0.0000 0.0000 10.5121 0.0000
# 6 0.0000 0.0000 0.0000 0.0000 0.0000 24.2289
#
#
#
# Elastic Compliance Matrix: (Units=1/GPa)
#
#
# Indices 1 2 3 4 5 6 
#
# 1 0.008717 -0.004656 -0.001936 0.000000 0.000000 0.000000
# 2 -0.004656 0.034859 -0.005510 0.000000 0.000000 0.000000
# 3 -0.001936 -0.005510 0.010896 0.000000 0.000000 0.000000
# 4 0.000000 0.000000 0.000000 0.069563 0.000000 0.000000
# 5 0.000000 0.000000 0.000000 0.000000 0.095128 0.000000
# 6 0.000000 0.000000 0.000000 0.000000 0.000000 0.041273
#
#
# Mechanical properties :
#
#
# Convention : Reuss Voigt Hill
#
# Bulk Modulus (GPa) = 33.03796 49.35354 41.19575
# Shear Modulus (GPa) = 16.96461 23.03428 19.99944
#
# Velocity S-wave (km/s) = 2.99748 3.49278 3.25456
# Velocity P-wave (km/s) = 5.42932 6.51190 5.99509
#
# Compressibility (1/GPa) = 0.03026821
#
# Stress axis : x y z
#
# Youngs Moduli (GPa) = 114.71515 28.68710 91.77312
#
# Poissons Ratio (x) = 0.13356 0.17769
# Poissons Ratio (y) = 0.53407 0.50570
# Poissons Ratio (z) = 0.22211 0.15808
#
# Static dielectric constant tensor:
#      x y z
#    x 1.249440 0.000000 0.000000 
#    y 0.000000 1.686530 0.000000 
#    z 0.000000 0.000000 1.795570 
# 
# From -- ./inp_files/26633.got.cif
#   From: 2010.05.17/outbox.cif.g08.bks.cpg/sg50_14_cif.got.tgz:26633.got - 2010.06.03 11:33:33.
