data_PCOD9396954
_publ_section_title
;
Structure prediction by ZEFSAII (Michael W. Deem and Ramdas Pophale) SiO2 
 PCOD9396954
Probable space group: P B A N
;
_chemical_formula_sum "Si O2"
_cell_formula_units_Z 32
_cell_length_a 8.661300
_cell_length_b 9.445143
_cell_length_c 16.855258
_cell_angle_alpha 90.000000
_cell_angle_beta 90.000000
_cell_angle_gamma 90.000000
_cell_volume 1378.881750
_symmetry_space_group_name_H-M "P B A N"
_symmetry_group_IT_number 50
_space_group.IT_coordinate_system_code '2'
_symmetry_cell_setting 'orthorhombic'
loop_
_space_group_symop_operation_xyz
x,y,z
1/2-x,1/2-y,z
x,1/2-y,-z
1/2-x,y,-z
-x,-y,-z
1/2+x,1/2+y,-z
-x,1/2+y,z
1/2+x,-y,z
loop_
_atom_site_type_symbol
_atom_site_label
_atom_site_fract_x
_atom_site_fract_y
_atom_site_fract_z
Si Si1 0.750000 0.430730 0.500000
Si Si2 0.301744 0.444451 0.145390
Si Si3 0.001513 0.695058 0.912827
Si Si4 0.453735 0.160887 0.423771
Si Si5 0.750000 0.750000 0.287027
O O1 0.866333 0.358662 0.438126
O O2 0.636627 0.516153 0.440755
O O3 0.366334 0.599766 0.127397
O O4 0.157238 0.399980 0.088998
O O5 0.444964 0.336601 0.131035
O O6 0.250521 0.390754 0.232349
O O7 0.042716 0.750000 0.000000
O O8 0.405810 0.250000 0.500000
O O9 0.396448 0.236021 0.344821
#
# Coordination Sequence:
#
# PCOD9396954 Si02
#       5
#     4   8   8   8   4
#     4  10  22  34  66  90 124 174 246 272 342 414
#     4  10  23  40  64 100 136 181 229 277 359 415
#     4  10  21  42  66  96 138 174 226 285 337 419
#     4  11  20  40  58  94 130 175 232 289 339 411
#     4  10  21  40  65  88 146 178 218 308 353 410
#
# _framework density 23.20721
#
# number of rings (size 3 to 8) (size 9 to 14) (size 15 to 20)
#    0.000    2.000    2.500    2.625    0.000    5.000 
#    0.000    2.500   11.000    0.000    0.000    0.000 
#    0.000    0.000    0.000    0.000    0.000    0.000 
#
# Total GULP energy -178530.582493 kJ/mol
# GULP energy per Si atom -5579.080703 kJ/mol
# Density = 2.315439 g / cm^3
# Si number density = 23.207210 Si / 1000 Ang^3
#
#
#
# Elastic Constant Matrix: (Units=GPa)
#
#
# Indices 1 2 3 4 5 6 
#
# 1 140.1133 52.9623 39.8539 0.0000 0.0000 0.0000
# 2 52.9623 86.7479 34.8859 0.0000 0.0000 0.0000
# 3 39.8539 34.8859 129.9964 0.0000 0.0000 0.0000
# 4 0.0000 0.0000 0.0000 17.1209 0.0000 0.0000
# 5 0.0000 0.0000 0.0000 0.0000 57.7508 0.0000
# 6 0.0000 0.0000 0.0000 0.0000 0.0000 50.2649
#
#
#
# Elastic Compliance Matrix: (Units=1/GPa)
#
#
# Indices 1 2 3 4 5 6 
#
# 1 0.009541 -0.005211 -0.001527 0.000000 0.000000 0.000000
# 2 -0.005211 0.015769 -0.002634 0.000000 0.000000 0.000000
# 3 -0.001527 -0.002634 0.008867 0.000000 0.000000 0.000000
# 4 0.000000 0.000000 0.000000 0.058408 0.000000 0.000000
# 5 0.000000 0.000000 0.000000 0.000000 0.017316 0.000000
# 6 0.000000 0.000000 0.000000 0.000000 0.000000 0.019895
#
#
# Mechanical properties :
#
#
# Convention : Reuss Voigt Hill
#
# Bulk Modulus (GPa) = 64.79456 68.02911 66.41183
# Shear Modulus (GPa) = 32.53437 40.30436 36.41936
#
# Velocity S-wave (km/s) = 3.74827 4.17191 3.96575
# Velocity P-wave (km/s) = 6.83471 7.25148 7.04618
#
# Compressibility (1/GPa) = 0.01543340
#
# Stress axis : x y z
#
# Youngs Moduli (GPa) = 104.80933 63.41733 112.77254
#
# Poissons Ratio (x) = 0.33048 0.17216
# Poissons Ratio (y) = 0.54619 0.29704
# Poissons Ratio (z) = 0.16000 0.16704
#
# Static dielectric constant tensor:
#      x y z
#    x 1.927530 0.000000 0.000000 
#    y 0.000000 2.078710 0.000000 
#    z 0.000000 0.000000 1.861960 
# 
# From -- ./inp_files/24456.got.cif
#   From: 2010.05.17/outbox.cif.g08.bks.cpg/sg50_13_cif.got.tgz:24456.got - 2010.06.03 11:33:33.
