data_PCOD9396755
_publ_section_title
;
Structure prediction by ZEFSAII (Michael W. Deem and Ramdas Pophale) SiO2 
 PCOD9396755
Probable space group: P B A N
;
_chemical_formula_sum "Si O2"
_cell_formula_units_Z 26
_cell_length_a 4.895508
_cell_length_b 11.351389
_cell_length_c 18.608701
_cell_angle_alpha 90.000000
_cell_angle_beta 90.000000
_cell_angle_gamma 90.000000
_cell_volume 1034.100693
_symmetry_space_group_name_H-M "P B A N"
_symmetry_group_IT_number 50
_space_group.IT_coordinate_system_code '2'
_symmetry_cell_setting 'orthorhombic'
loop_
_space_group_symop_operation_xyz
x,y,z
1/2-x,1/2-y,z
x,1/2-y,-z
1/2-x,y,-z
-x,-y,-z
1/2+x,1/2+y,-z
-x,1/2+y,z
1/2+x,-y,z
loop_
_atom_site_type_symbol
_atom_site_label
_atom_site_fract_x
_atom_site_fract_y
_atom_site_fract_z
Si Si1 0.539204 0.418320 0.147102
Si Si2 0.516962 0.583838 0.383435
Si Si3 0.750000 0.250000 0.500000
Si Si4 0.250000 0.750000 0.267320
Si Si5 0.250000 0.588861 0.000000
O O1 0.229844 0.464362 0.148579
O O2 0.586725 0.337575 0.215473
O O3 0.652607 0.354946 0.075052
O O4 0.820471 0.531598 0.382896
O O5 0.436220 0.664259 0.451351
O O6 0.440927 0.667412 0.316588
O O7 0.500000 0.500000 0.000000
#
# Coordination Sequence:
#
# PCOD9396755 Si02
#       5
#     8   8   2   4   4
#     4  10  21  37  57  83 115 152 198 247 293 347
#     4  11  25  43  63  92 125 154 193 241 286 343
#     4  10  24  42  72  94 116 160 196 232 292 344
#     4  11  24  38  62  87 118 162 196 233 296 350
#     4   8  16  33  54  77 110 148 190 247 298 335
#
# _framework density 25.142619
#
# number of rings (size 3 to 8) (size 9 to 14) (size 15 to 20)
#    0.000    1.846    0.000    2.769    0.000   10.462 
#    0.000    0.000    0.000   11.077    0.000    0.000 
#    0.000    0.000    0.000    0.000    0.000    0.000 
#
# Total GULP energy -145323.795746 kJ/mol
# GULP energy per Si atom -5589.376759 kJ/mol
# Density = 2.508539 g / cm^3
# Si number density = 25.142619 Si / 1000 Ang^3
#
#
#
# Elastic Constant Matrix: (Units=GPa)
#
#
# Indices 1 2 3 4 5 6 
#
# 1 85.1002 -10.9083 -12.4662 0.0000 0.0000 0.0000
# 2 -10.9083 89.3065 29.8662 0.0000 0.0000 0.0000
# 3 -12.4662 29.8662 154.3060 0.0000 0.0000 0.0000
# 4 0.0000 0.0000 0.0000 72.7548 0.0000 0.0000
# 5 0.0000 0.0000 0.0000 0.0000 16.8504 0.0000
# 6 0.0000 0.0000 0.0000 0.0000 0.0000 -18.6488
#
#
#
# Elastic Compliance Matrix: (Units=1/GPa)
#
#
# Indices 1 2 3 4 5 6 
#
# 1 0.012015 0.001222 0.000734 0.000000 0.000000 0.000000
# 2 0.001222 0.012097 -0.002243 0.000000 0.000000 0.000000
# 3 0.000734 -0.002243 0.006974 0.000000 0.000000 0.000000
# 4 0.000000 0.000000 0.000000 0.013745 0.000000 0.000000
# 5 0.000000 0.000000 0.000000 0.000000 0.059346 0.000000
# 6 0.000000 0.000000 0.000000 0.000000 0.000000 -0.053623
#
#
# Mechanical properties :
#
#
# Convention : Reuss Voigt Hill
#
# Bulk Modulus (GPa) = 32.77302 37.96623 35.36962
# Shear Modulus (GPa) = 81.57014 35.67271 58.62142
#
# Velocity S-wave (km/s) = 5.70205 3.77080 4.83386
# Velocity P-wave (km/s) = 7.51095 5.83881 6.72704
#
# Compressibility (1/GPa) = 0.03051291
#
# Stress axis : x y z
#
# Youngs Moduli (GPa) = 83.22899 82.66760 143.38971
#
# Poissons Ratio (x) = -0.10102 -0.10527
# Poissons Ratio (y) = -0.10171 0.32157
# Poissons Ratio (z) = -0.06110 0.18539
#
# Static dielectric constant tensor:
#      x y z
#    x 1.884700 0.000000 0.000000 
#    y 0.000000 2.638410 0.000000 
#    z 0.000000 0.000000 2.165260 
# 
# From -- ./inp_files/27846.got.cif
#   From: 2010.05.17/outbox.cif.g08.bks.cpg/sg50_14_cif.got.tgz:27846.got - 2010.06.03 11:33:33.
