data_PCOD9396138
_publ_section_title
;
Structure prediction by ZEFSAII (Michael W. Deem and Ramdas Pophale) SiO2 
 PCOD9396138
Probable space group: P B A N
;
_chemical_formula_sum "Si O2"
_cell_formula_units_Z 58
_cell_length_a 7.621206
_cell_length_b 30.855220
_cell_length_c 12.815888
_cell_angle_alpha 90.000000
_cell_angle_beta 90.000000
_cell_angle_gamma 90.000000
_cell_volume 3013.707170
_symmetry_space_group_name_H-M "P B A N"
_symmetry_group_IT_number 50
_space_group.IT_coordinate_system_code '2'
_symmetry_cell_setting 'orthorhombic'
loop_
_space_group_symop_operation_xyz
x,y,z
1/2-x,1/2-y,z
x,1/2-y,-z
1/2-x,y,-z
-x,-y,-z
1/2+x,1/2+y,-z
-x,1/2+y,z
1/2+x,-y,z
loop_
_atom_site_type_symbol
_atom_site_label
_atom_site_fract_x
_atom_site_fract_y
_atom_site_fract_z
Si Si1 0.539529 0.702804 0.126110
Si Si2 0.530137 0.448627 0.609723
Si Si3 0.966912 0.699542 0.112944
Si Si4 0.930333 0.643394 0.686029
Si Si5 0.055528 0.545665 0.373517
Si Si6 0.480626 0.366610 0.285406
Si Si7 0.943789 0.311365 0.525923
Si Si8 0.750000 0.750000 0.500000
O O1 0.753183 0.700709 0.118528
O O2 0.482980 0.752162 0.151600
O O3 0.489095 0.668749 0.215210
O O4 0.479677 0.694211 0.007685
O O5 0.472967 0.407113 0.674429
O O6 0.474148 0.495453 0.652331
O O7 0.738965 0.448259 0.611071
O O8 0.469182 0.446037 0.488081
O O9 0.034319 0.660334 0.183687
O O10 0.721683 0.644971 0.696276
O O11 0.986059 0.666956 0.579804
O O12 0.996056 0.581642 0.290990
O O13 0.581613 0.347231 0.384959
O O14 0.750000 0.294006 0.500000
O O15 0.104035 0.279234 0.560261
#
# Coordination Sequence:
#
# PCOD9396138 Si02
#       8
#     8   8   8   8   8   8   8   2
#     4   8  16  31  53  80 110 150 198 240 279 330
#     4  10  20  34  53  78 109 146 186 232 288 344
#     4   8  16  31  53  80 110 150 198 240 279 330
#     4  11  20  33  57  83 118 152 189 235 285 345
#     4  10  20  34  53  78 109 146 186 232 288 344
#     4  11  20  33  57  83 118 152 189 235 285 345
#     4  12  25  39  56  83 118 156 196 236 285 346
#     4  12  26  44  52  78 118 164 198 232 288 352
#
# _framework density 19.245401999999999
#
# number of rings (size 3 to 8) (size 9 to 14) (size 15 to 20)
#    0.000    1.931    2.759    2.690    1.931    1.103 
#    0.000    0.000    0.000    4.138    0.000    7.724 
#    0.000    0.000    0.000    0.000    0.000    0.000 
#
# Total GULP energy -323508.487339 kJ/mol
# GULP energy per Si atom -5577.732540 kJ/mol
# Density = 1.920160 g / cm^3
# Si number density = 19.245402 Si / 1000 Ang^3
#
#
#
# Elastic Constant Matrix: (Units=GPa)
#
#
# Indices 1 2 3 4 5 6 
#
# 1 67.1899 10.5888 2.1861 0.0000 0.0000 0.0000
# 2 10.5888 173.9123 85.1157 0.0000 0.0000 0.0000
# 3 2.1861 85.1157 98.6343 0.0000 0.0000 0.0000
# 4 0.0000 0.0000 0.0000 69.1025 0.0000 0.0000
# 5 0.0000 0.0000 0.0000 0.0000 -1.9677 0.0000
# 6 0.0000 0.0000 0.0000 0.0000 0.0000 25.7433
#
#
#
# Elastic Compliance Matrix: (Units=1/GPa)
#
#
# Indices 1 2 3 4 5 6 
#
# 1 0.015063 -0.001305 0.000792 0.000000 0.000000 0.000000
# 2 -0.001305 0.010067 -0.008658 0.000000 0.000000 0.000000
# 3 0.000792 -0.008658 0.017593 0.000000 0.000000 0.000000
# 4 0.000000 0.000000 0.000000 0.014471 0.000000 0.000000
# 5 0.000000 0.000000 0.000000 0.000000 -0.508199 0.000000
# 6 0.000000 0.000000 0.000000 0.000000 0.000000 0.038845
#
#
# Mechanical properties :
#
#
# Convention : Reuss Voigt Hill
#
# Bulk Modulus (GPa) = 41.01628 59.50197 50.25912
# Shear Modulus (GPa) = -12.96374 34.69866 10.86746
#
# Velocity S-wave (km/s) = -2.59820 4.25073 2.37887
# Velocity P-wave (km/s) = 3.51535 7.42134 5.80663
#
# Compressibility (1/GPa) = 0.02438057
#
# Stress axis : x y z
#
# Youngs Moduli (GPa) = 66.38762 99.33452 56.84235
#
# Poissons Ratio (x) = 0.12961 -0.04503
# Poissons Ratio (y) = 0.08662 0.49216
# Poissons Ratio (z) = -0.05259 0.86007
#
# Static dielectric constant tensor:
#      x y z
#    x 1.726120 0.000000 0.000000 
#    y 0.000000 1.728760 0.000000 
#    z 0.000000 0.000000 1.666680 
# 
# From -- ./inp_files/19498.got.cif
#   From: 2010.05.17/outbox.cif.g08.bks.cpg/sg50_10_cif.got.tgz:19498.got - 2010.06.03 11:33:33.
