data_PCOD9396030
_publ_section_title
;
Structure prediction by ZEFSAII (Michael W. Deem and Ramdas Pophale) SiO2 
 PCOD9396030
Probable space group: P B A N
;
_chemical_formula_sum "Si O2"
_cell_formula_units_Z 40
_cell_length_a 11.836382
_cell_length_b 12.768930
_cell_length_c 11.227803
_cell_angle_alpha 90.000000
_cell_angle_beta 90.000000
_cell_angle_gamma 90.000000
_cell_volume 1696.946940
_symmetry_space_group_name_H-M "P B A N"
_symmetry_group_IT_number 50
_space_group.IT_coordinate_system_code '2'
_symmetry_cell_setting 'orthorhombic'
loop_
_space_group_symop_operation_xyz
x,y,z
1/2-x,1/2-y,z
x,1/2-y,-z
1/2-x,y,-z
-x,-y,-z
1/2+x,1/2+y,-z
-x,1/2+y,z
1/2+x,-y,z
loop_
_atom_site_type_symbol
_atom_site_label
_atom_site_fract_x
_atom_site_fract_y
_atom_site_fract_z
Si Si1 0.267948 0.425427 0.340793
Si Si2 0.906722 0.141431 0.934233
Si Si3 0.051513 0.116172 0.506456
Si Si4 0.159397 0.068893 0.918354
Si Si5 0.161684 0.657765 0.658214
O O1 0.387549 0.369521 0.375739
O O2 0.163279 0.378845 0.413005
O O3 0.222415 0.432897 0.207306
O O4 0.286232 0.546231 0.376791
O O5 0.859125 0.146855 0.800246
O O6 0.040017 0.124865 0.915082
O O7 0.883211 0.250000 0.000000
O O8 0.866083 0.044433 0.017981
O O9 0.953313 0.173523 0.582579
O O10 0.000000 0.000000 0.500000
O O11 0.250000 0.125317 0.000000
O O12 0.250000 0.750000 0.637344
#
# Coordination Sequence:
#
# PCOD9396030 Si02
#       5
#     8   8   8   8   8
#     4  10  19  38  63  94 131 185 233 280 339 432
#     4  11  24  37  59 101 140 176 231 295 353 426
#     4   9  20  37  62  92 128 179 229 277 338 416
#     4  11  22  39  65  94 134 184 233 281 360 423
#     4  11  21  37  64 101 138 175 229 297 356 415
#
# _framework density 23.571743999999999
#
# number of rings (size 3 to 8) (size 9 to 14) (size 15 to 20)
#    0.000    1.600    4.000    1.200    0.000    0.400 
#    0.000    8.000    0.000    0.000    0.000    5.600 
#    0.000    0.000    0.000    0.000    0.000    0.000 
#
# Total GULP energy -223257.043327 kJ/mol
# GULP energy per Si atom -5581.426083 kJ/mol
# Density = 2.351809 g / cm^3
# Si number density = 23.571744 Si / 1000 Ang^3
#
#
#
# Elastic Constant Matrix: (Units=GPa)
#
#
# Indices 1 2 3 4 5 6 
#
# 1 192.3370 39.7196 73.2904 0.0000 0.0000 0.0000
# 2 39.7196 103.7260 32.3996 0.0000 0.0000 0.0000
# 3 73.2904 32.3996 194.0028 0.0000 0.0000 0.0000
# 4 0.0000 0.0000 0.0000 -3.4458 0.0000 0.0000
# 5 0.0000 0.0000 0.0000 0.0000 55.0670 0.0000
# 6 0.0000 0.0000 0.0000 0.0000 0.0000 21.5581
#
#
#
# Elastic Compliance Matrix: (Units=1/GPa)
#
#
# Indices 1 2 3 4 5 6 
#
# 1 0.006371 -0.001781 -0.002109 0.000000 0.000000 0.000000
# 2 -0.001781 0.010669 -0.001109 0.000000 0.000000 0.000000
# 3 -0.002109 -0.001109 0.006137 0.000000 0.000000 0.000000
# 4 0.000000 0.000000 0.000000 -0.290211 0.000000 0.000000
# 5 0.000000 0.000000 0.000000 0.000000 0.018160 0.000000
# 6 0.000000 0.000000 0.000000 0.000000 0.000000 0.046386
#
#
# Mechanical properties :
#
#
# Convention : Reuss Voigt Hill
#
# Bulk Modulus (GPa) = 75.88265 86.76501 81.32383
# Shear Modulus (GPa) = -26.58198 37.61295 5.51548
#
# Velocity S-wave (km/s) = -3.36178 3.99893 1.53132
# Velocity P-wave (km/s) = 4.14649 7.62960 6.14020
#
# Compressibility (1/GPa) = 0.01317824
#
# Stress axis : x y z
#
# Youngs Moduli (GPa) = 156.96859 93.72878 162.95511
#
# Poissons Ratio (x) = 0.16690 0.34373
# Poissons Ratio (y) = 0.27951 0.18073
# Poissons Ratio (z) = 0.33110 0.10395
#
# Static dielectric constant tensor:
#      x y z
#    x 1.887360 0.000000 0.000000 
#    y 0.000000 2.001360 0.000000 
#    z 0.000000 0.000000 2.005400 
# 
# From -- ./inp_files/19991.got.cif
#   From: 2010.05.17/outbox.cif.g08.bks.cpg/sg50_10_cif.got.tgz:19991.got - 2010.06.03 11:33:33.
