data_PCOD9396689
_publ_section_title
;
Structure prediction by ZEFSAII (Michael W. Deem and Ramdas Pophale) SiO2 
 PCOD9396689
Probable space group: P B A N
;
_chemical_formula_sum "Si O2"
_cell_formula_units_Z 56
_cell_length_a 21.251672
_cell_length_b 5.058777
_cell_length_c 24.913353
_cell_angle_alpha 90.000000
_cell_angle_beta 90.000000
_cell_angle_gamma 90.000000
_cell_volume 2678.371538
_symmetry_space_group_name_H-M "P B A N"
_symmetry_group_IT_number 50
_space_group.IT_coordinate_system_code '2'
_symmetry_cell_setting 'orthorhombic'
loop_
_space_group_symop_operation_xyz
x,y,z
1/2-x,1/2-y,z
x,1/2-y,-z
1/2-x,y,-z
-x,-y,-z
1/2+x,1/2+y,-z
-x,1/2+y,z
1/2+x,-y,z
loop_
_atom_site_type_symbol
_atom_site_label
_atom_site_fract_x
_atom_site_fract_y
_atom_site_fract_z
Si Si1 0.319592 0.715736 0.239855
Si Si2 0.839547 0.718330 0.694179
Si Si3 0.952692 0.230967 0.178709
Si Si4 0.031483 0.431220 0.656133
Si Si5 0.210818 0.484660 0.585519
Si Si6 0.922967 0.006844 0.536354
Si Si7 0.954366 0.244868 0.057014
O O1 0.250000 0.750000 0.213331
O O2 0.320061 0.412467 0.258174
O O3 0.387305 0.769051 0.211737
O O4 0.321502 0.921362 0.290314
O O5 0.912497 0.777929 0.684412
O O6 0.810667 0.838464 0.640067
O O7 0.927236 0.239102 0.116824
O O8 0.000357 0.480131 0.187238
O O9 0.041139 0.440145 0.591734
O O10 0.026236 0.738124 0.670483
O O11 0.250000 0.250000 0.557701
O O12 0.147794 0.570088 0.555201
O O13 0.250000 0.750000 0.594147
O O14 0.946665 0.250000 0.500000
O O15 0.919256 0.750000 0.500000
O O16 0.999722 0.495683 0.055867
O O17 0.917307 0.250000 0.000000
#
# Coordination Sequence:
#
# PCOD9396689 Si02
#       7
#     8   8   8   8   8   8   8
#     4  12  24  39  60  86 119 157 195 238 295 355
#     4  11  24  40  59  82 109 145 190 233 279 342
#     4  10  21  36  56  86 120 155 199 248 295 343
#     4  11  24  41  61  84 109 142 183 228 277 332
#     4  11  22  38  59  79 104 136 175 225 274 329
#     4  11  24  39  56  83 111 137 173 213 269 345
#     4   8  14  27  49  77 110 149 194 243 291 339
#
# _framework density 20.908228999999999
#
# number of rings (size 3 to 8) (size 9 to 14) (size 15 to 20)
#    0.000    1.429    0.000    6.000    0.000   11.429 
#    0.000    0.000    0.000    0.429    0.000    0.000 
#    0.000   13.714    0.000    0.000    0.000    2.143 
#
# Total GULP energy -312439.436202 kJ/mol
# GULP energy per Si atom -5579.275646 kJ/mol
# Density = 2.086064 g / cm^3
# Si number density = 20.908229 Si / 1000 Ang^3
#
#
#
# Elastic Constant Matrix: (Units=GPa)
#
#
# Indices 1 2 3 4 5 6 
#
# 1 113.6589 20.7741 38.5326 0.0000 0.0000 0.0000
# 2 20.7741 128.8098 13.4730 0.0000 0.0000 0.0000
# 3 38.5326 13.4730 73.4024 0.0000 0.0000 0.0000
# 4 0.0000 0.0000 0.0000 36.7907 0.0000 0.0000
# 5 0.0000 0.0000 0.0000 0.0000 -6.6968 0.0000
# 6 0.0000 0.0000 0.0000 0.0000 0.0000 102.0972
#
#
#
# Elastic Compliance Matrix: (Units=1/GPa)
#
#
# Indices 1 2 3 4 5 6 
#
# 1 0.010876 -0.001180 -0.005493 0.000000 0.000000 0.000000
# 2 -0.001180 0.008043 -0.000857 0.000000 0.000000 0.000000
# 3 -0.005493 -0.000857 0.016664 0.000000 0.000000 0.000000
# 4 0.000000 0.000000 0.000000 0.027181 0.000000 0.000000
# 5 0.000000 0.000000 0.000000 0.000000 -0.149325 0.000000
# 6 0.000000 0.000000 0.000000 0.000000 0.000000 0.009795
#
#
# Mechanical properties :
#
#
# Convention : Reuss Voigt Hill
#
# Bulk Modulus (GPa) = 48.72214 51.27006 49.99610
# Shear Modulus (GPa) = -91.13195 42.64430 -24.24382
#
# Velocity S-wave (km/s) = -6.60918 4.52109 -3.40889
# Velocity P-wave (km/s) = 5.90663 7.19919 2.91033
#
# Compressibility (1/GPa) = 0.02052455
#
# Stress axis : x y z
#
# Youngs Moduli (GPa) = 91.94527 124.32759 60.00836
#
# Poissons Ratio (x) = 0.14665 0.32962
# Poissons Ratio (y) = 0.10845 0.05144
# Poissons Ratio (z) = 0.50504 0.10657
#
# Static dielectric constant tensor:
#      x y z
#    x 1.841580 0.000000 0.000000 
#    y 0.000000 1.739950 0.000000 
#    z 0.000000 0.000000 1.836830 
# 
# From -- ./inp_files/31872.got.cif
#   From: 2010.05.17/outbox.cif.g08.bks.cpg/sg50_16_cif.got.tgz:31872.got - 2010.06.03 11:33:33.
