data_PCOD9396905
_publ_section_title
;
Structure prediction by ZEFSAII (Michael W. Deem and Ramdas Pophale) SiO2 
 PCOD9396905
Probable space group: P B A N
;
_chemical_formula_sum "Si O2"
_cell_formula_units_Z 64
_cell_length_a 13.407950
_cell_length_b 22.152828
_cell_length_c 9.460242
_cell_angle_alpha 90.000000
_cell_angle_beta 90.000000
_cell_angle_gamma 90.000000
_cell_volume 2809.919016
_symmetry_space_group_name_H-M "P B A N"
_symmetry_group_IT_number 50
_space_group.IT_coordinate_system_code '2'
_symmetry_cell_setting 'orthorhombic'
loop_
_space_group_symop_operation_xyz
x,y,z
1/2-x,1/2-y,z
x,1/2-y,-z
1/2-x,y,-z
-x,-y,-z
1/2+x,1/2+y,-z
-x,1/2+y,z
1/2+x,-y,z
loop_
_atom_site_type_symbol
_atom_site_label
_atom_site_fract_x
_atom_site_fract_y
_atom_site_fract_z
Si Si1 0.636739 0.098368 0.034967
Si Si2 0.135833 0.394603 0.743151
Si Si3 0.362138 0.718841 0.862563
Si Si4 0.140390 0.094889 0.702171
Si Si5 0.352801 0.995675 0.545303
Si Si6 0.432978 0.875250 0.650432
Si Si7 0.871681 0.963962 0.005961
Si Si8 0.014492 0.802274 0.591402
O O1 0.620747 0.122734 0.196358
O O2 0.589373 0.031658 0.024374
O O3 0.750000 0.083500 0.000000
O O4 0.625099 0.149271 0.913709
O O5 0.251811 0.375006 0.727980
O O6 0.144151 0.463159 0.684006
O O7 0.099082 0.409005 0.901121
O O8 0.061807 0.351837 0.656054
O O9 0.250000 0.750000 0.849762
O O10 0.423504 0.725588 0.720711
O O11 0.408323 0.750000 0.000000
O O12 0.048998 0.139310 0.678245
O O13 0.143331 0.047192 0.574189
O O14 0.108072 0.055456 0.835503
O O15 0.250000 0.963337 0.500000
O O16 0.427367 0.941981 0.579260
O O17 0.407134 0.832513 0.519065
O O18 0.750000 0.962842 0.000000
O O19 0.962905 0.750000 0.500000
#
# Coordination Sequence:
#
# PCOD9396905 Si02
#       8
#     8   8   8   8   8   8   8   8
#     4  11  23  41  69 101 144 195 235 290 363 452
#     4  10  21  46  68 101 147 192 232 303 373 426
#     4  11  25  51  73  94 141 193 242 303 368 421
#     4  10  22  39  69 103 147 188 228 295 366 440
#     4  10  21  39  65 103 150 192 222 287 375 443
#     4  12  25  41  68 107 146 181 248 293 364 441
#     4   9  20  37  66 106 144 182 239 285 366 444
#     4  12  29  47  71 104 138 191 258 310 357 451
#
# _framework density 22.776457000000001
#
# number of rings (size 3 to 8) (size 9 to 14) (size 15 to 20)
#    0.000    1.375    3.750    1.125    5.250    0.750 
#    0.000    1.250    0.000    0.000    0.000    0.000 
#    0.000    0.000    0.000    0.000    0.000    0.000 
#
# Total GULP energy -356466.142712 kJ/mol
# GULP energy per Si atom -5569.783480 kJ/mol
# Density = 2.272462 g / cm^3
# Si number density = 22.776457 Si / 1000 Ang^3
#
#
#
# Elastic Constant Matrix: (Units=GPa)
#
#
# Indices 1 2 3 4 5 6 
#
# 1 95.2632 30.0951 31.2614 0.0000 0.0000 0.0000
# 2 30.0951 75.1978 13.2868 0.0000 0.0000 0.0000
# 3 31.2614 13.2868 114.1016 0.0000 0.0000 0.0000
# 4 0.0000 0.0000 0.0000 -38.6553 0.0000 0.0000
# 5 0.0000 0.0000 0.0000 0.0000 26.4721 0.0000
# 6 0.0000 0.0000 0.0000 0.0000 0.0000 30.9296
#
#
#
# Elastic Compliance Matrix: (Units=1/GPa)
#
#
# Indices 1 2 3 4 5 6 
#
# 1 0.012954 -0.004653 -0.003007 0.000000 0.000000 0.000000
# 2 -0.004653 0.015249 -0.000501 0.000000 0.000000 0.000000
# 3 -0.003007 -0.000501 0.009646 0.000000 0.000000 0.000000
# 4 0.000000 0.000000 0.000000 -0.025870 0.000000 0.000000
# 5 0.000000 0.000000 0.000000 0.000000 0.037776 0.000000
# 6 0.000000 0.000000 0.000000 0.000000 0.000000 0.032332
#
#
# Mechanical properties :
#
#
# Convention : Reuss Voigt Hill
#
# Bulk Modulus (GPa) = 46.45324 48.20544 47.32934
# Shear Modulus (GPa) = 47.35522 17.74388 32.54955
#
# Velocity S-wave (km/s) = 4.56469 2.79417 3.78443
# Velocity P-wave (km/s) = 6.94417 5.62320 6.31830
#
# Compressibility (1/GPa) = 0.02152703
#
# Stress axis : x y z
#
# Youngs Moduli (GPa) = 77.19585 65.57831 103.66581
#
# Poissons Ratio (x) = 0.30514 0.31175
# Poissons Ratio (y) = 0.35919 0.05192
# Poissons Ratio (z) = 0.23215 0.03285
#
# Static dielectric constant tensor:
#      x y z
#    x 1.954500 0.000000 0.000000 
#    y 0.000000 1.936250 0.000000 
#    z 0.000000 0.000000 1.855940 
# 
# From -- ./inp_files/13469.got.cif
#   From: 2010.05.17/outbox.cif.g08.bks.cpg/sg50_7_cif.got.tgz:13469.got - 2010.06.03 11:33:33.
