data_PCOD9396643
_publ_section_title
;
Structure prediction by ZEFSAII (Michael W. Deem and Ramdas Pophale) SiO2 
 PCOD9396643
Probable space group: P B A N
;
_chemical_formula_sum "Si O2"
_cell_formula_units_Z 48
_cell_length_a 17.413606
_cell_length_b 29.225375
_cell_length_c 4.994264
_cell_angle_alpha 90.000000
_cell_angle_beta 90.000000
_cell_angle_gamma 90.000000
_cell_volume 2541.676667
_symmetry_space_group_name_H-M "P B A N"
_symmetry_group_IT_number 50
_space_group.IT_coordinate_system_code '2'
_symmetry_cell_setting 'orthorhombic'
loop_
_space_group_symop_operation_xyz
x,y,z
1/2-x,1/2-y,z
x,1/2-y,-z
1/2-x,y,-z
-x,-y,-z
1/2+x,1/2+y,-z
-x,1/2+y,z
1/2+x,-y,z
loop_
_atom_site_type_symbol
_atom_site_label
_atom_site_fract_x
_atom_site_fract_y
_atom_site_fract_z
Si Si1 0.068344 0.197404 0.057856
Si Si2 0.029675 0.102848 0.891029
Si Si3 0.527474 0.050521 0.600585
Si Si4 0.301994 0.969957 0.236928
Si Si5 0.167156 0.196411 0.559514
Si Si6 0.198724 0.422971 0.235670
O O1 0.014553 0.155624 0.966508
O O2 0.142714 0.193714 0.866002
O O3 0.041060 0.250000 0.000000
O O4 0.098089 0.184868 0.354978
O O5 0.115344 0.099413 0.764380
O O6 0.976571 0.082239 0.660952
O O7 0.023949 0.071456 0.158344
O O8 0.613860 0.049543 0.712234
O O9 0.500000 0.000000 0.500000
O O10 0.250000 0.967507 0.500000
O O11 0.316322 0.023542 0.173141
O O12 0.250000 0.949982 0.000000
O O13 0.174530 0.250000 0.500000
O O14 0.250000 0.174873 0.500000
O O15 0.250000 0.422439 0.500000
O O16 0.250000 0.402835 0.000000
#
# Coordination Sequence:
#
# PCOD9396643 Si02
#       6
#     8   8   8   8   8   8
#     4  10  21  36  52  74 108 146 190 244 286 328
#     4  12  24  37  57  84 114 155 201 237 287 341
#     4  12  24  39  61  85 117 151 189 239 286 344
#     4  10  21  37  58  80 111 150 186 227 283 337
#     4   9  17  31  51  71  97 142 195 242 286 320
#     4  10  21  34  51  77 114 150 194 236 276 324
#
# _framework density 18.885172000000001
#
# number of rings (size 3 to 8) (size 9 to 14) (size 15 to 20)
#    0.000    1.500    1.667    4.000    4.667    4.000 
#    0.000    0.000    0.000    0.000    0.000    0.000 
#    0.000   10.000    0.000    0.000    0.000    0.000 
#
# Total GULP energy -267873.159856 kJ/mol
# GULP energy per Si atom -5580.690830 kJ/mol
# Density = 1.884219 g / cm^3
# Si number density = 18.885172 Si / 1000 Ang^3
#
#
#
# Elastic Constant Matrix: (Units=GPa)
#
#
# Indices 1 2 3 4 5 6 
#
# 1 68.3807 31.4170 19.3368 0.0000 0.0000 0.0000
# 2 31.4170 107.0884 24.9003 0.0000 0.0000 0.0000
# 3 19.3368 24.9003 92.1603 0.0000 0.0000 0.0000
# 4 0.0000 0.0000 0.0000 8.9957 0.0000 0.0000
# 5 0.0000 0.0000 0.0000 0.0000 1612.6939 0.0000
# 6 0.0000 0.0000 0.0000 0.0000 0.0000 1.6558
#
#
#
# Elastic Compliance Matrix: (Units=1/GPa)
#
#
# Indices 1 2 3 4 5 6 
#
# 1 0.017395 -0.004540 -0.002423 0.000000 0.000000 0.000000
# 2 -0.004540 0.011149 -0.002060 0.000000 0.000000 0.000000
# 3 -0.002423 -0.002060 0.011916 0.000000 0.000000 0.000000
# 4 0.000000 0.000000 0.000000 0.111164 0.000000 0.000000
# 5 0.000000 0.000000 0.000000 0.000000 0.000620 0.000000
# 6 0.000000 0.000000 0.000000 0.000000 0.000000 0.603952
#
#
# Mechanical properties :
#
#
# Convention : Reuss Voigt Hill
#
# Bulk Modulus (GPa) = 44.61488 46.54863 45.58176
# Shear Modulus (GPa) = 6.39621 337.46742 171.93182
#
# Velocity S-wave (km/s) = 1.84235 13.38216 9.55187
# Velocity P-wave (km/s) = 5.31048 16.23201 12.07641
#
# Compressibility (1/GPa) = 0.02241404
#
# Stress axis : x y z
#
# Youngs Moduli (GPa) = 57.48767 89.69514 83.92363
#
# Poissons Ratio (x) = 0.40720 0.20336
# Poissons Ratio (y) = 0.26098 0.17286
# Poissons Ratio (z) = 0.13930 0.18475
#
# Static dielectric constant tensor:
#      x y z
#    x 1.797790 0.000000 0.000000 
#    y 0.000000 1.746030 0.000000 
#    z 0.000000 0.000000 1.695210 
# 
# From -- ./inp_files/3714.got.cif
#   From: 2010.05.17/outbox.cif.g08.bks.cpg/sg50_2_cif.got.tgz:3714.got - 2010.06.03 11:33:33.
