data_PCOD9396273
_publ_section_title
;
Structure prediction by ZEFSAII (Michael W. Deem and Ramdas Pophale) SiO2 
 PCOD9396273
Probable space group: P B A N
;
_chemical_formula_sum "Si O2"
_cell_formula_units_Z 64
_cell_length_a 25.564070
_cell_length_b 15.119382
_cell_length_c 8.654841
_cell_angle_alpha 90.000000
_cell_angle_beta 90.000000
_cell_angle_gamma 90.000000
_cell_volume 3345.208038
_symmetry_space_group_name_H-M "P B A N"
_symmetry_group_IT_number 50
_space_group.IT_coordinate_system_code '2'
_symmetry_cell_setting 'orthorhombic'
loop_
_space_group_symop_operation_xyz
x,y,z
1/2-x,1/2-y,z
x,1/2-y,-z
1/2-x,y,-z
-x,-y,-z
1/2+x,1/2+y,-z
-x,1/2+y,z
1/2+x,-y,z
loop_
_atom_site_type_symbol
_atom_site_label
_atom_site_fract_x
_atom_site_fract_y
_atom_site_fract_z
Si Si1 0.863472 0.100002 0.687883
Si Si2 0.750000 0.604365 0.677381
Si Si3 0.639213 0.902905 0.814953
Si Si4 0.360787 0.402906 0.185046
Si Si5 0.560506 0.750000 0.813604
Si Si6 0.250000 0.611173 0.677712
Si Si7 0.443961 0.750000 0.313596
Si Si8 0.136528 0.899999 0.687881
O O1 0.806566 0.135286 0.744431
O O2 0.910250 0.164323 0.734161
O O3 0.861006 0.097708 0.500001
O O4 0.869974 0.000491 0.747203
O O5 0.750000 0.633292 0.500000
O O6 0.803889 0.630301 0.758840
O O7 0.696111 0.630301 0.758839
O O8 0.750000 0.496397 0.677737
O O9 0.593906 0.835725 0.765164
O O10 0.630026 0.000490 0.747201
O O11 0.639939 0.907824 1.000000
O O12 0.406094 0.335727 0.234836
O O13 0.502151 0.750000 0.750372
O O14 0.558521 0.750000 0.000000
O O15 0.250000 0.642101 0.500000
O O16 0.306567 0.635286 0.744430
O O17 0.446113 0.750000 0.500000
O O18 0.410251 0.835679 0.265840
#
# Coordination Sequence:
#
# PCOD9396273 Si02
#       8
#     8   8   8   8   8   8   8   8
#     4   9  18  34  55  82 111 141 176 220 273 325
#     4   9  17  32  55  84 113 139 169 215 271 327
#     4  10  20  36  57  80 107 143 181 221 267 321
#     4  10  20  36  57  80 107 143 181 221 267 321
#     4  10  24  41  54  73 106 146 189 228 268 318
#     4   7  12  26  50  76 105 133 160 199 255 317
#     4  10  22  37  55  79 108 142 185 230 272 320
#     4   9  18  34  55  82 111 141 176 220 273 325
#
# _framework density 19.131845999999999
#
# number of rings (size 3 to 8) (size 9 to 14) (size 15 to 20)
#    0.000    2.750    0.000    2.625    0.000    5.000 
#    0.000   10.000    0.000    0.000    0.000    6.125 
#    0.000    0.000    0.000    0.000    0.000    0.000 
#
# Total GULP energy -356990.392227 kJ/mol
# GULP energy per Si atom -5577.974879 kJ/mol
# Density = 1.908830 g / cm^3
# Si number density = 19.131846 Si / 1000 Ang^3
#
#
#
# Elastic Constant Matrix: (Units=GPa)
#
#
# Indices 1 2 3 4 5 6 
#
# 1 229.2035 100.2356 37.4657 0.0000 0.0000 0.0000
# 2 100.2356 108.9184 24.6209 0.0000 0.0000 0.0000
# 3 37.4657 24.6209 26.6073 0.0000 0.0000 0.0000
# 4 0.0000 0.0000 0.0000 18.2980 0.0000 0.0000
# 5 0.0000 0.0000 0.0000 0.0000 26.9142 0.0000
# 6 0.0000 0.0000 0.0000 0.0000 0.0000 33.9230
#
#
#
# Elastic Compliance Matrix: (Units=1/GPa)
#
#
# Indices 1 2 3 4 5 6 
#
# 1 0.007903 -0.006016 -0.005561 0.000000 0.000000 0.000000
# 2 -0.006016 0.016189 -0.006510 0.000000 0.000000 0.000000
# 3 -0.005561 -0.006510 0.051438 0.000000 0.000000 0.000000
# 4 0.000000 0.000000 0.000000 0.054651 0.000000 0.000000
# 5 0.000000 0.000000 0.000000 0.000000 0.037155 0.000000
# 6 0.000000 0.000000 0.000000 0.000000 0.000000 0.029478
#
#
# Mechanical properties :
#
#
# Convention : Reuss Voigt Hill
#
# Bulk Modulus (GPa) = 25.40871 76.59706 51.00288
# Shear Modulus (GPa) = 20.31648 29.32086 24.81867
#
# Velocity S-wave (km/s) = 3.26225 3.91905 3.60563
# Velocity P-wave (km/s) = 5.24398 7.78472 6.63707
#
# Compressibility (1/GPa) = 0.03935659
#
# Stress axis : x y z
#
# Youngs Moduli (GPa) = 126.53815 61.77141 19.44085
#
# Poissons Ratio (x) = 0.37159 0.10812
# Poissons Ratio (y) = 0.76121 0.12655
# Poissons Ratio (z) = 0.70372 0.40210
#
# Static dielectric constant tensor:
#      x y z
#    x 1.665210 0.000000 0.000000 
#    y 0.000000 1.673460 0.000000 
#    z 0.000000 0.000000 1.652750 
# 
# From -- ./inp_files/15491.got.cif
#   From: 2010.05.17/outbox.cif.g08.bks.cpg/sg50_8_cif.got.tgz:15491.got - 2010.06.03 11:33:33.
