data_PCOD9396443
_publ_section_title
;
Structure prediction by ZEFSAII (Michael W. Deem and Ramdas Pophale) SiO2 
 PCOD9396443
Probable space group: P B A N
;
_chemical_formula_sum "Si O2"
_cell_formula_units_Z 56
_cell_length_a 15.526701
_cell_length_b 19.691008
_cell_length_c 8.529846
_cell_angle_alpha 90.000000
_cell_angle_beta 90.000000
_cell_angle_gamma 90.000000
_cell_volume 2607.884354
_symmetry_space_group_name_H-M "P B A N"
_symmetry_group_IT_number 50
_space_group.IT_coordinate_system_code '2'
_symmetry_cell_setting 'orthorhombic'
loop_
_space_group_symop_operation_xyz
x,y,z
1/2-x,1/2-y,z
x,1/2-y,-z
1/2-x,y,-z
-x,-y,-z
1/2+x,1/2+y,-z
-x,1/2+y,z
1/2+x,-y,z
loop_
_atom_site_type_symbol
_atom_site_label
_atom_site_fract_x
_atom_site_fract_y
_atom_site_fract_z
Si Si1 0.445439 0.068699 0.003360
Si Si2 0.894447 0.201445 0.348839
Si Si3 0.005367 0.902162 0.454130
Si Si4 0.550289 0.323889 0.825202
Si Si5 0.290769 0.011238 0.169581
Si Si6 0.254076 0.643073 0.173152
Si Si7 0.380302 0.031397 0.663648
O O1 0.406787 0.066795 0.828215
O O2 0.502083 0.135493 0.037353
O O3 0.378867 0.052610 0.147400
O O4 0.500000 0.000000 0.000000
O O5 0.895132 0.250000 0.500000
O O6 0.942640 0.132843 0.402196
O O7 0.932808 0.243864 0.200242
O O8 0.797800 0.183617 0.301242
O O9 0.994872 0.844977 0.324903
O O10 0.913586 0.924359 0.520139
O O11 0.062352 0.963277 0.375885
O O12 0.644312 0.358369 0.798815
O O13 0.221734 0.022084 0.308729
O O14 0.295053 0.929270 0.164757
O O15 0.250000 0.028034 0.000000
O O16 0.250000 0.673776 0.000000
#
# Coordination Sequence:
#
# PCOD9396443 Si02
#       7
#     8   8   8   8   8   8   8
#     4  11  20  36  64  87 122 162 200 268 325 373
#     4  10  25  41  59  83 127 177 210 256 313 395
#     4  10  21  38  59  86 124 164 210 255 316 383
#     4  11  22  40  56  86 125 166 212 254 318 386
#     4   9  19  36  60  92 122 153 203 264 327 379
#     4  11  22  39  59  88 125 164 215 259 312 393
#     4  10  20  38  61  91 122 157 209 264 318 384
#
# _framework density 21.473344999999998
#
# number of rings (size 3 to 8) (size 9 to 14) (size 15 to 20)
#    0.000    1.714    2.857    2.143    4.000    5.143 
#    0.000    2.143    0.000    0.857    0.000    6.000 
#    0.000    0.000    0.000    0.000    0.000    0.000 
#
# Total GULP energy -311858.035857 kJ/mol
# GULP energy per Si atom -5568.893497 kJ/mol
# Density = 2.142447 g / cm^3
# Si number density = 21.473345 Si / 1000 Ang^3
#
#
#
# Elastic Constant Matrix: (Units=GPa)
#
#
# Indices 1 2 3 4 5 6 
#
# 1 85.9939 39.9065 38.2731 0.0000 0.0000 0.0000
# 2 39.9065 64.0745 36.3394 0.0000 0.0000 0.0000
# 3 38.2731 36.3394 82.4020 0.0000 0.0000 0.0000
# 4 0.0000 0.0000 0.0000 37.5317 0.0000 0.0000
# 5 0.0000 0.0000 0.0000 0.0000 41.0257 0.0000
# 6 0.0000 0.0000 0.0000 0.0000 0.0000 23.0680
#
#
#
# Elastic Compliance Matrix: (Units=1/GPa)
#
#
# Indices 1 2 3 4 5 6 
#
# 1 0.017488 -0.008382 -0.004427 0.000000 0.000000 0.000000
# 2 -0.008382 0.024829 -0.007057 0.000000 0.000000 0.000000
# 3 -0.004427 -0.007057 0.017304 0.000000 0.000000 0.000000
# 4 0.000000 0.000000 0.000000 0.026644 0.000000 0.000000
# 5 0.000000 0.000000 0.000000 0.000000 0.024375 0.000000
# 6 0.000000 0.000000 0.000000 0.000000 0.000000 0.043350
#
#
# Mechanical properties :
#
#
# Convention : Reuss Voigt Hill
#
# Bulk Modulus (GPa) = 50.27252 51.27870 50.77561
# Shear Modulus (GPa) = 24.95627 28.18852 26.57239
#
# Velocity S-wave (km/s) = 3.41280 3.62708 3.52157
# Velocity P-wave (km/s) = 6.24436 6.43995 6.34291
#
# Compressibility (1/GPa) = 0.01989158
#
# Stress axis : x y z
#
# Youngs Moduli (GPa) = 57.18072 40.27523 57.79136
#
# Poissons Ratio (x) = 0.33757 0.25582
# Poissons Ratio (y) = 0.47926 0.40782
# Poissons Ratio (z) = 0.25311 0.28421
#
# Static dielectric constant tensor:
#      x y z
#    x 1.890740 0.000000 0.000000 
#    y 0.000000 1.841730 0.000000 
#    z 0.000000 0.000000 1.878740 
# 
# From -- ./inp_files/13285.got.cif
#   From: 2010.05.17/outbox.cif.g08.bks.cpg/sg50_7_cif.got.tgz:13285.got - 2010.06.03 11:33:33.
