data_PCOD9396513
_publ_section_title
;
Structure prediction by ZEFSAII (Michael W. Deem and Ramdas Pophale) SiO2 
 PCOD9396513
Probable space group: P B A N
;
_chemical_formula_sum "Si O2"
_cell_formula_units_Z 48
_cell_length_a 9.203570
_cell_length_b 11.464737
_cell_length_c 18.988408
_cell_angle_alpha 90.000000
_cell_angle_beta 90.000000
_cell_angle_gamma 90.000000
_cell_volume 2003.590533
_symmetry_space_group_name_H-M "P B A N"
_symmetry_group_IT_number 50
_space_group.IT_coordinate_system_code '2'
_symmetry_cell_setting 'orthorhombic'
loop_
_space_group_symop_operation_xyz
x,y,z
1/2-x,1/2-y,z
x,1/2-y,-z
1/2-x,y,-z
-x,-y,-z
1/2+x,1/2+y,-z
-x,1/2+y,z
1/2+x,-y,z
loop_
_atom_site_type_symbol
_atom_site_label
_atom_site_fract_x
_atom_site_fract_y
_atom_site_fract_z
Si Si1 0.997333 0.125880 0.134689
Si Si2 0.499384 0.250000 0.000000
Si Si3 0.015979 0.750000 0.500000
Si Si4 0.197236 0.949951 0.068126
Si Si5 0.250000 0.750000 0.617287
Si Si6 0.248848 0.106735 0.654084
Si Si7 0.436326 0.577210 0.710418
Si Si8 0.250000 0.414947 0.500000
O O1 0.834280 0.101720 0.107984
O O2 0.976865 0.143293 0.216973
O O3 0.096225 0.012957 0.123657
O O4 0.066701 0.210993 0.075287
O O5 0.600009 0.354767 0.971574
O O6 0.900436 0.651142 0.479741
O O7 0.120388 0.712199 0.563784
O O8 0.250000 0.025695 0.000000
O O9 0.322767 0.655500 0.667564
O O10 0.250000 0.250000 0.650109
O O11 0.410146 0.067549 0.672383
O O12 0.206686 0.047120 0.578661
O O13 0.138715 0.051026 0.711522
#
# Coordination Sequence:
#
# PCOD9396513 Si02
#       8
#     8   4   4   8   4   8   8   4
#     4  11  23  43  65 100 136 180 229 290 358 436
#     4  10  21  38  69  96 123 180 225 282 347 422
#     4  10  20  42  74 102 142 194 246 322 362 446
#     4  10  20  39  64  93 130 168 230 282 342 424
#     4  11  24  44  70 109 142 190 264 297 384 450
#     4  12  27  49  71 108 152 198 259 312 381 452
#     4  12  29  44  73 107 153 200 242 316 381 457
#     4  11  20  44  72 103 148 191 254 324 367 442
#
# _framework density 23.956990000000001
#
# number of rings (size 3 to 8) (size 9 to 14) (size 15 to 20)
#    0.000    1.000    3.333    5.250    7.000    3.333 
#    0.000    5.417    0.000    0.000    0.000    0.000 
#    0.000    0.000    0.000    0.000    0.000    0.000 
#
# Total GULP energy -267486.342956 kJ/mol
# GULP energy per Si atom -5572.632145 kJ/mol
# Density = 2.390246 g / cm^3
# Si number density = 23.956990 Si / 1000 Ang^3
#
#
#
# Elastic Constant Matrix: (Units=GPa)
#
#
# Indices 1 2 3 4 5 6 
#
# 1 103.6934 30.8220 24.4892 0.0000 0.0000 0.0000
# 2 30.8220 58.8836 25.0895 0.0000 0.0000 0.0000
# 3 24.4892 25.0895 135.6735 0.0000 0.0000 0.0000
# 4 0.0000 0.0000 0.0000 95.8293 0.0000 0.0000
# 5 0.0000 0.0000 0.0000 0.0000 22.8687 0.0000
# 6 0.0000 0.0000 0.0000 0.0000 0.0000 149.9865
#
#
#
# Elastic Compliance Matrix: (Units=1/GPa)
#
#
# Indices 1 2 3 4 5 6 
#
# 1 0.011557 -0.005602 -0.001050 0.000000 0.000000 0.000000
# 2 -0.005602 0.021151 -0.002900 0.000000 0.000000 0.000000
# 3 -0.001050 -0.002900 0.008096 0.000000 0.000000 0.000000
# 4 0.000000 0.000000 0.000000 0.010435 0.000000 0.000000
# 5 0.000000 0.000000 0.000000 0.000000 0.043728 0.000000
# 6 0.000000 0.000000 0.000000 0.000000 0.000000 0.006667
#
#
# Mechanical properties :
#
#
# Convention : Reuss Voigt Hill
#
# Bulk Modulus (GPa) = 46.08351 51.00577 48.54464
# Shear Modulus (GPa) = 39.07102 68.26022 53.66562
#
# Velocity S-wave (km/s) = 4.04280 5.34366 4.73808
# Velocity P-wave (km/s) = 6.40859 7.70777 7.08801
#
# Compressibility (1/GPa) = 0.02169974
#
# Stress axis : x y z
#
# Youngs Moduli (GPa) = 86.52806 47.27990 123.51037
#
# Poissons Ratio (x) = 0.26486 0.12970
# Poissons Ratio (y) = 0.48472 0.35820
# Poissons Ratio (z) = 0.09086 0.13712
#
# Static dielectric constant tensor:
#      x y z
#    x 1.887780 0.000000 0.000000 
#    y 0.000000 2.088000 0.000000 
#    z 0.000000 0.000000 2.283800 
# 
# From -- ./inp_files/28778.got.cif
#   From: 2010.05.17/outbox.cif.g08.bks.cpg/sg50_15_cif.got.tgz:28778.got - 2010.06.03 11:33:33.
