data_PCOD9396193
_publ_section_title
;
Structure prediction by ZEFSAII (Michael W. Deem and Ramdas Pophale) SiO2 
 PCOD9396193
Probable space group: P B A N
;
_chemical_formula_sum "Si O2"
_cell_formula_units_Z 32
_cell_length_a 24.082006
_cell_length_b 10.951836
_cell_length_c 5.026453
_cell_angle_alpha 90.000000
_cell_angle_beta 90.000000
_cell_angle_gamma 90.000000
_cell_volume 1325.687673
_symmetry_space_group_name_H-M "P B A N"
_symmetry_group_IT_number 50
_space_group.IT_coordinate_system_code '2'
_symmetry_cell_setting 'orthorhombic'
loop_
_space_group_symop_operation_xyz
x,y,z
1/2-x,1/2-y,z
x,1/2-y,-z
1/2-x,y,-z
-x,-y,-z
1/2+x,1/2+y,-z
-x,1/2+y,z
1/2+x,-y,z
loop_
_atom_site_type_symbol
_atom_site_label
_atom_site_fract_x
_atom_site_fract_y
_atom_site_fract_z
Si Si1 0.460946 0.018111 0.749554
Si Si2 0.250000 0.250000 0.000000
Si Si3 0.168248 0.422916 0.286196
Si Si4 0.750000 0.250000 0.500000
Si Si5 0.661073 0.427832 0.786649
Si Si6 0.917277 0.750000 0.000000
O O1 0.500000 0.000000 0.500000
O O2 0.406737 0.927068 0.750540
O O3 0.444632 0.159547 0.788256
O O4 0.500000 0.000000 0.000000
O O5 0.216099 0.336699 0.190254
O O6 0.172012 0.456233 0.592735
O O7 0.115382 0.347803 0.183822
O O8 0.170371 0.542973 0.097177
O O9 0.706034 0.330102 0.678384
#
# Coordination Sequence:
#
# PCOD9396193 Si02
#       6
#     8   2   8   2   8   4
#     4  11  24  43  69 100 136 181 247 307 362 443
#     4  10  20  34  64  96 124 170 208 272 332 402
#     4  10  22  40  64  94 131 170 230 275 342 431
#     4  12  28  46  72 100 156 198 236 312 392 464
#     4  11  25  44  64  98 135 186 235 289 363 445
#     4   9  22  41  66  94 134 177 218 303 368 414
#
# _framework density 24.138414000000001
#
# number of rings (size 3 to 8) (size 9 to 14) (size 15 to 20)
#    0.000    1.500    0.000    4.500    0.000   19.000 
#    0.000    0.000    0.000    0.000    0.000    0.000 
#    0.000    0.000    0.000    0.000    0.000    0.000 
#
# Total GULP energy -178705.901792 kJ/mol
# GULP energy per Si atom -5584.559431 kJ/mol
# Density = 2.408347 g / cm^3
# Si number density = 24.138414 Si / 1000 Ang^3
#
#
#
# Elastic Constant Matrix: (Units=GPa)
#
#
# Indices 1 2 3 4 5 6 
#
# 1 175.4880 58.8475 48.9996 0.0000 0.0000 0.0000
# 2 58.8475 94.2803 18.2011 0.0000 0.0000 0.0000
# 3 48.9996 18.2011 117.6847 0.0000 0.0000 0.0000
# 4 0.0000 0.0000 0.0000 33.6689 0.0000 0.0000
# 5 0.0000 0.0000 0.0000 0.0000 45.6609 0.0000
# 6 0.0000 0.0000 0.0000 0.0000 0.0000 34.5099
#
#
#
# Elastic Compliance Matrix: (Units=1/GPa)
#
#
# Indices 1 2 3 4 5 6 
#
# 1 0.007915 -0.004436 -0.002609 0.000000 0.000000 0.000000
# 2 -0.004436 0.013420 -0.000228 0.000000 0.000000 0.000000
# 3 -0.002609 -0.000228 0.009619 0.000000 0.000000 0.000000
# 4 0.000000 0.000000 0.000000 0.029701 0.000000 0.000000
# 5 0.000000 0.000000 0.000000 0.000000 0.021901 0.000000
# 6 0.000000 0.000000 0.000000 0.000000 0.000000 0.028977
#
#
# Mechanical properties :
#
#
# Convention : Reuss Voigt Hill
#
# Bulk Modulus (GPa) = 60.95522 71.06106 66.00814
# Shear Modulus (GPa) = 38.00872 40.19491 39.10181
#
# Velocity S-wave (km/s) = 3.97245 4.08509 4.02916
# Velocity P-wave (km/s) = 6.80791 7.19399 7.00361
#
# Compressibility (1/GPa) = 0.01640549
#
# Stress axis : x y z
#
# Youngs Moduli (GPa) = 126.34824 74.51644 103.96101
#
# Poissons Ratio (x) = 0.33059 0.27126
# Poissons Ratio (y) = 0.56053 0.02374
# Poissons Ratio (z) = 0.32967 0.01702
#
# Static dielectric constant tensor:
#      x y z
#    x 2.087470 0.000000 0.000000 
#    y 0.000000 1.975700 0.000000 
#    z 0.000000 0.000000 1.873760 
# 
# From -- ./inp_files/5764.got.cif
#   From: 2010.05.17/outbox.cif.g08.bks.cpg/sg50_3_cif.got.tgz:5764.got - 2010.06.03 11:33:33.
