data_PCOD9396429
_publ_section_title
;
Structure prediction by ZEFSAII (Michael W. Deem and Ramdas Pophale) SiO2 
 PCOD9396429
Probable space group: P B A N
;
_chemical_formula_sum "Si O2"
_cell_formula_units_Z 28
_cell_length_a 14.093838
_cell_length_b 17.170385
_cell_length_c 6.009762
_cell_angle_alpha 90.000000
_cell_angle_beta 90.000000
_cell_angle_gamma 90.000000
_cell_volume 1454.342119
_symmetry_space_group_name_H-M "P B A N"
_symmetry_group_IT_number 50
_space_group.IT_coordinate_system_code '2'
_symmetry_cell_setting 'orthorhombic'
loop_
_space_group_symop_operation_xyz
x,y,z
1/2-x,1/2-y,z
x,1/2-y,-z
1/2-x,y,-z
-x,-y,-z
1/2+x,1/2+y,-z
-x,1/2+y,z
1/2+x,-y,z
loop_
_atom_site_type_symbol
_atom_site_label
_atom_site_fract_x
_atom_site_fract_y
_atom_site_fract_z
Si Si1 0.154592 0.852934 0.368052
Si Si2 0.480073 0.595965 0.759891
Si Si3 0.569875 0.250000 0.000000
Si Si4 0.150809 0.496030 0.924329
O O1 0.250000 0.838369 0.500000
O O2 0.066874 0.876727 0.528829
O O3 0.175564 0.927102 0.214252
O O4 0.129278 0.781238 0.209063
O O5 0.483368 0.672940 0.915118
O O6 0.583536 0.557718 0.772827
O O7 0.410843 0.530442 0.869519
O O8 0.250000 0.459135 0.000000
#
# Coordination Sequence:
#
# PCOD9396429 Si02
#       4
#     8   8   4   8
#     4  11  21  37  59  86 124 159 200 250 317 374
#     4  10  21  37  58  83 120 156 199 250 304 363
#     4  10  24  37  53  88 120 156 199 246 311 376
#     4  10  20  38  59  87 113 155 206 252 298 366
#
# _framework density 19.252693000000001
#
# number of rings (size 3 to 8) (size 9 to 14) (size 15 to 20)
#    0.000    1.714    2.857    1.714    0.000    3.429 
#    0.000    0.714    0.000    0.000    0.000    0.000 
#    0.000    0.000    0.000    0.000    0.000    0.000 
#
# Total GULP energy -156335.362037 kJ/mol
# GULP energy per Si atom -5583.405787 kJ/mol
# Density = 1.920887 g / cm^3
# Si number density = 19.252693 Si / 1000 Ang^3
#
#
#
# Elastic Constant Matrix: (Units=GPa)
#
#
# Indices 1 2 3 4 5 6 
#
# 1 122.5932 40.9625 35.4795 0.0000 0.0000 0.0000
# 2 40.9625 70.4655 15.2444 0.0000 0.0000 0.0000
# 3 35.4795 15.2444 79.0301 0.0000 0.0000 0.0000
# 4 0.0000 0.0000 0.0000 28.1700 0.0000 0.0000
# 5 0.0000 0.0000 0.0000 0.0000 22.4836 0.0000
# 6 0.0000 0.0000 0.0000 0.0000 0.0000 8.3511
#
#
#
# Elastic Compliance Matrix: (Units=1/GPa)
#
#
# Indices 1 2 3 4 5 6 
#
# 1 0.011182 -0.005650 -0.003930 0.000000 0.000000 0.000000
# 2 -0.005650 0.017664 -0.000871 0.000000 0.000000 0.000000
# 3 -0.003930 -0.000871 0.014586 0.000000 0.000000 0.000000
# 4 0.000000 0.000000 0.000000 0.035499 0.000000 0.000000
# 5 0.000000 0.000000 0.000000 0.000000 0.044477 0.000000
# 6 0.000000 0.000000 0.000000 0.000000 0.000000 0.119745
#
#
# Mechanical properties :
#
#
# Convention : Reuss Voigt Hill
#
# Bulk Modulus (GPa) = 44.38526 50.60683 47.49604
# Shear Modulus (GPa) = 18.41173 23.82776 21.11975
#
# Velocity S-wave (km/s) = 3.09580 3.52182 3.31566
# Velocity P-wave (km/s) = 5.99022 6.54830 6.27547
#
# Compressibility (1/GPa) = 0.02253000
#
# Stress axis : x y z
#
# Youngs Moduli (GPa) = 89.42585 56.61154 68.55970
#
# Poissons Ratio (x) = 0.31987 0.26946
# Poissons Ratio (y) = 0.50528 0.05970
# Poissons Ratio (z) = 0.35147 0.04929
#
# Static dielectric constant tensor:
#      x y z
#    x 1.673920 0.000000 0.000000 
#    y 0.000000 1.668280 0.000000 
#    z 0.000000 0.000000 1.733110 
# 
# From -- ./inp_files/1879.got.cif
#   From: 2010.05.17/outbox.cif.g08.bks.cpg/sg50_1_cif.got.tgz:1879.got - 2010.06.03 11:33:33.
