data_PCOD9396272
_publ_section_title
;
Structure prediction by ZEFSAII (Michael W. Deem and Ramdas Pophale) SiO2 
 PCOD9396272
Probable space group: P B A N
;
_chemical_formula_sum "Si O2"
_cell_formula_units_Z 40
_cell_length_a 13.669697
_cell_length_b 11.339498
_cell_length_c 13.046313
_cell_angle_alpha 90.000000
_cell_angle_beta 90.000000
_cell_angle_gamma 90.000000
_cell_volume 2022.276386
_symmetry_space_group_name_H-M "P B A N"
_symmetry_group_IT_number 50
_space_group.IT_coordinate_system_code '2'
_symmetry_cell_setting 'orthorhombic'
loop_
_space_group_symop_operation_xyz
x,y,z
1/2-x,1/2-y,z
x,1/2-y,-z
1/2-x,y,-z
-x,-y,-z
1/2+x,1/2+y,-z
-x,1/2+y,z
1/2+x,-y,z
loop_
_atom_site_type_symbol
_atom_site_label
_atom_site_fract_x
_atom_site_fract_y
_atom_site_fract_z
Si Si1 0.461068 0.615621 0.624626
Si Si2 0.347039 0.034802 0.546489
Si Si3 0.637518 0.890782 0.000523
Si Si4 0.844538 0.172303 0.706377
Si Si5 0.011229 0.979940 0.168412
O O1 0.401305 0.539657 0.542243
O O2 0.572982 0.624491 0.588614
O O3 0.409590 0.739788 0.638472
O O4 0.468097 0.545697 0.732223
O O5 0.250000 0.088672 0.500000
O O6 0.318992 0.941130 0.636291
O O7 0.578761 0.935024 0.099875
O O8 0.638536 0.750000 0.000000
O O9 0.750000 0.933338 0.000000
O O10 0.576903 0.935528 0.902496
O O11 0.750000 0.250000 0.737675
O O12 0.915928 0.124280 0.794800
#
# Coordination Sequence:
#
# PCOD9396272 Si02
#       5
#     8   8   8   8   8
#     4  10  21  34  58  87 124 154 205 252 297 364
#     4  10  20  36  56  87 121 167 202 245 308 363
#     4  10  22  42  64  83 119 165 195 251 321 370
#     4  11  21  35  62  91 121 164 204 257 308 363
#     4  10  23  39  60  91 121 153 210 254 302 371
#
# _framework density 19.779689000000001
#
# number of rings (size 3 to 8) (size 9 to 14) (size 15 to 20)
#    0.000    1.800    2.000    1.800    2.800    0.000 
#    0.000    0.000    0.000   20.400    0.000    0.000 
#    0.000    0.000    0.000    0.000    0.000    0.000 
#
# Total GULP energy -223415.078971 kJ/mol
# GULP energy per Si atom -5585.376974 kJ/mol
# Density = 1.973467 g / cm^3
# Si number density = 19.779689 Si / 1000 Ang^3
#
#
#
# Elastic Constant Matrix: (Units=GPa)
#
#
# Indices 1 2 3 4 5 6 
#
# 1 122.1328 17.2480 15.7089 0.0000 0.0000 0.0000
# 2 17.2480 33.3155 -6.2708 0.0000 0.0000 0.0000
# 3 15.7089 -6.2708 66.9673 0.0000 0.0000 0.0000
# 4 0.0000 0.0000 0.0000 16.8925 0.0000 0.0000
# 5 0.0000 0.0000 0.0000 0.0000 -54.2462 0.0000
# 6 0.0000 0.0000 0.0000 0.0000 0.0000 23.8917
#
#
#
# Elastic Compliance Matrix: (Units=1/GPa)
#
#
# Indices 1 2 3 4 5 6 
#
# 1 0.009281 -0.005309 -0.002674 0.000000 0.000000 0.000000
# 2 -0.005309 0.033591 0.004391 0.000000 0.000000 0.000000
# 3 -0.002674 0.004391 0.015971 0.000000 0.000000 0.000000
# 4 0.000000 0.000000 0.000000 0.059198 0.000000 0.000000
# 5 0.000000 0.000000 0.000000 0.000000 -0.018434 0.000000
# 6 0.000000 0.000000 0.000000 0.000000 0.000000 0.041856
#
#
# Mechanical properties :
#
#
# Convention : Reuss Voigt Hill
#
# Bulk Modulus (GPa) = 19.35770 30.64311 25.00040
# Shear Modulus (GPa) = 30.14473 10.35622 20.25048
#
# Velocity S-wave (km/s) = 3.90811 2.29067 3.20316
# Velocity P-wave (km/s) = 5.49294 4.74574 5.13295
#
# Compressibility (1/GPa) = 0.05165904
#
# Stress axis : x y z
#
# Youngs Moduli (GPa) = 107.74154 29.77008 62.61298
#
# Poissons Ratio (x) = 0.15804 0.16745
# Poissons Ratio (y) = 0.57195 -0.27491
# Poissons Ratio (z) = 0.28813 -0.13071
#
# Static dielectric constant tensor:
#      x y z
#    x 1.702870 0.000000 0.000000 
#    y 0.000000 1.674130 0.000000 
#    z 0.000000 0.000000 1.696810 
# 
# From -- ./inp_files/19980.got.cif
#   From: 2010.05.17/outbox.cif.g08.bks.cpg/sg50_10_cif.got.tgz:19980.got - 2010.06.03 11:33:33.
