data_PCOD9396430
_publ_section_title
;
Structure prediction by ZEFSAII (Michael W. Deem and Ramdas Pophale) SiO2 
 PCOD9396430
Probable space group: P B A N
;
_chemical_formula_sum "Si O2"
_cell_formula_units_Z 58
_cell_length_a 27.879262
_cell_length_b 9.459108
_cell_length_c 12.171800
_cell_angle_alpha 90.000000
_cell_angle_beta 90.000000
_cell_angle_gamma 90.000000
_cell_volume 3209.861287
_symmetry_space_group_name_H-M "P B A N"
_symmetry_group_IT_number 50
_space_group.IT_coordinate_system_code '2'
_symmetry_cell_setting 'orthorhombic'
loop_
_space_group_symop_operation_xyz
x,y,z
1/2-x,1/2-y,z
x,1/2-y,-z
1/2-x,y,-z
-x,-y,-z
1/2+x,1/2+y,-z
-x,1/2+y,z
1/2+x,-y,z
loop_
_atom_site_type_symbol
_atom_site_label
_atom_site_fract_x
_atom_site_fract_y
_atom_site_fract_z
Si Si1 0.487513 0.549461 0.258565
Si Si2 0.859953 0.127113 0.279428
Si Si3 0.311880 0.910393 0.815705
Si Si4 0.917398 0.573841 0.879252
Si Si5 0.401497 0.095577 0.866188
Si Si6 0.540017 0.322708 0.383735
Si Si7 0.250000 0.750000 0.000000
Si Si8 0.240610 0.919626 0.622826
O O1 0.529686 0.546260 0.168573
O O2 0.439758 0.475300 0.215017
O O3 0.509190 0.462323 0.360949
O O4 0.475907 0.708953 0.292128
O O5 0.842055 0.277511 0.232604
O O6 0.903948 0.146170 0.363359
O O7 0.813893 0.059682 0.338567
O O8 0.880882 0.031689 0.181326
O O9 0.281905 0.847423 0.918547
O O10 0.276323 0.965153 0.720074
O O11 0.349194 0.030764 0.847847
O O12 0.903372 0.735736 0.853659
O O13 0.916465 0.557539 0.009601
O O14 0.532442 0.250000 0.500000
O O15 0.250000 0.750000 0.617866
O O16 0.250000 0.975666 0.500000
#
# Coordination Sequence:
#
# PCOD9396430 Si02
#       8
#     8   8   8   8   8   8   2   8
#     4  11  21  41  57  84 120 152 196 243 290 355
#     4  10  20  38  59  88 118 150 194 248 289 346
#     4  11  21  35  62  88 116 154 192 249 289 358
#     4  10  23  39  57  86 120 157 190 241 292 358
#     4  11  22  38  61  84 120 155 197 231 302 355
#     4  11  23  36  61  86 117 155 199 243 296 346
#     4  12  20  36  58  94 124 140 196 252 308 332
#     4   9  19  35  59  86 116 149 195 242 295 342
#
# _framework density 18.069317999999999
#
# number of rings (size 3 to 8) (size 9 to 14) (size 15 to 20)
#    0.000    1.517    4.828    1.655    3.862    0.000 
#    0.000    0.690    0.000    0.828    0.000    0.000 
#    0.000    0.000    0.000    0.000    0.000    0.000 
#
# Total GULP energy -323776.905961 kJ/mol
# GULP energy per Si atom -5582.360448 kJ/mol
# Density = 1.802819 g / cm^3
# Si number density = 18.069318 Si / 1000 Ang^3
#
#
#
# Elastic Constant Matrix: (Units=GPa)
#
#
# Indices 1 2 3 4 5 6 
#
# 1 113.6731 15.1732 30.0993 0.0000 0.0000 0.0000
# 2 15.1732 27.3361 1.8735 0.0000 0.0000 0.0000
# 3 30.0993 1.8735 68.0681 0.0000 0.0000 0.0000
# 4 0.0000 0.0000 0.0000 17.0765 0.0000 0.0000
# 5 0.0000 0.0000 0.0000 0.0000 10.5250 0.0000
# 6 0.0000 0.0000 0.0000 0.0000 0.0000 18.1786
#
#
#
# Elastic Compliance Matrix: (Units=1/GPa)
#
#
# Indices 1 2 3 4 5 6 
#
# 1 0.010773 -0.005664 -0.004608 0.000000 0.000000 0.000000
# 2 -0.005664 0.039629 0.001414 0.000000 0.000000 0.000000
# 3 -0.004608 0.001414 0.016690 0.000000 0.000000 0.000000
# 4 0.000000 0.000000 0.000000 0.058560 0.000000 0.000000
# 5 0.000000 0.000000 0.000000 0.000000 0.095012 0.000000
# 6 0.000000 0.000000 0.000000 0.000000 0.000000 0.055010
#
#
# Mechanical properties :
#
#
# Convention : Reuss Voigt Hill
#
# Bulk Modulus (GPa) = 20.25294 33.70769 26.98032
# Shear Modulus (GPa) = 16.13691 19.95144 18.04417
#
# Velocity S-wave (km/s) = 2.99165 3.32650 3.16350
# Velocity P-wave (km/s) = 4.81311 5.78353 5.32049
#
# Compressibility (1/GPa) = 0.04937555
#
# Stress axis : x y z
#
# Youngs Moduli (GPa) = 92.82162 25.23425 59.91647
#
# Poissons Ratio (x) = 0.14293 0.27610
# Poissons Ratio (y) = 0.52575 -0.08472
# Poissons Ratio (z) = 0.42772 -0.03568
#
# Static dielectric constant tensor:
#      x y z
#    x 1.601730 0.000000 0.000000 
#    y 0.000000 1.596160 0.000000 
#    z 0.000000 0.000000 1.623990 
# 
# From -- ./inp_files/19389.got.cif
#   From: 2010.05.17/outbox.cif.g08.bks.cpg/sg50_10_cif.got.tgz:19389.got - 2010.06.03 11:33:33.
