data_PCOD9396745
_publ_section_title
;
Structure prediction by ZEFSAII (Michael W. Deem and Ramdas Pophale) SiO2 
 PCOD9396745
Probable space group: P B A N
;
_chemical_formula_sum "Si O2"
_cell_formula_units_Z 54
_cell_length_a 17.295956
_cell_length_b 5.250248
_cell_length_c 28.025591
_cell_angle_alpha 90.000000
_cell_angle_beta 90.000000
_cell_angle_gamma 90.000000
_cell_volume 2544.949504
_symmetry_space_group_name_H-M "P B A N"
_symmetry_group_IT_number 50
_space_group.IT_coordinate_system_code '2'
_symmetry_cell_setting 'orthorhombic'
loop_
_space_group_symop_operation_xyz
x,y,z
1/2-x,1/2-y,z
x,1/2-y,-z
1/2-x,y,-z
-x,-y,-z
1/2+x,1/2+y,-z
-x,1/2+y,z
1/2+x,-y,z
loop_
_atom_site_type_symbol
_atom_site_label
_atom_site_fract_x
_atom_site_fract_y
_atom_site_fract_z
Si Si1 0.446661 0.750000 0.500000
Si Si2 0.298077 0.999672 0.930847
Si Si3 0.049341 0.088867 0.352271
Si Si4 0.671107 0.391826 0.575762
Si Si5 0.297416 0.498492 0.183946
Si Si6 0.970156 0.161203 0.946662
Si Si7 0.546580 0.588096 0.761023
Si Si8 0.750000 0.750000 0.500000
O O1 0.500000 0.500000 0.500000
O O2 0.392149 0.772450 0.453169
O O3 0.250000 0.750000 0.944016
O O4 0.384848 0.957317 0.949192
O O5 0.250000 0.250000 0.945413
O O6 0.305569 0.007158 0.873406
O O7 0.064253 0.074513 0.295543
O O8 0.011760 0.362454 0.363209
O O9 0.126320 0.031355 0.381915
O O10 0.750000 0.250000 0.590969
O O11 0.698136 0.583481 0.534698
O O12 0.250000 0.250000 0.198637
O O13 0.379829 0.487034 0.208397
O O14 0.250000 0.750000 0.196865
O O15 0.976435 0.442537 0.922951
O O16 0.994583 0.250000 0.000000
O O17 0.481801 0.374170 0.771107
#
# Coordination Sequence:
#
# PCOD9396745 Si02
#       8
#     4   8   8   8   8   8   8   2
#     4  12  24  40  63  85 112 152 190 228 286 344
#     4  10  21  37  57  85 120 159 202 253 305 369
#     4  10  24  44  64  90 120 157 198 238 291 355
#     4  12  25  42  62  89 121 154 191 249 290 346
#     4  10  21  37  59  89 125 157 198 248 304 362
#     4  10  21  37  56  81 115 154 202 257 306 357
#     4  10  21  40  63  90 122 156 200 246 291 360
#     4  12  24  44  60  88 128 142 198 242 294 338
#
# _framework density 21.218495000000001
#
# number of rings (size 3 to 8) (size 9 to 14) (size 15 to 20)
#    0.000    1.481    1.481    3.111    2.074    2.074 
#    1.333    0.741    0.000    0.000    0.000    0.000 
#    0.000    0.000    0.000    0.000    0.000    0.000 
#
# Total GULP energy -301840.130896 kJ/mol
# GULP energy per Si atom -5589.632054 kJ/mol
# Density = 2.117020 g / cm^3
# Si number density = 21.218495 Si / 1000 Ang^3
#
#
#
# Elastic Constant Matrix: (Units=GPa)
#
#
# Indices 1 2 3 4 5 6 
#
# 1 116.5290 42.5054 30.6793 0.0000 0.0000 0.0000
# 2 42.5054 146.8071 14.3987 0.0000 0.0000 0.0000
# 3 30.6793 14.3987 36.3452 0.0000 0.0000 0.0000
# 4 0.0000 0.0000 0.0000 24.9434 0.0000 0.0000
# 5 0.0000 0.0000 0.0000 0.0000 44.5221 0.0000
# 6 0.0000 0.0000 0.0000 0.0000 0.0000 29.9080
#
#
#
# Elastic Compliance Matrix: (Units=1/GPa)
#
#
# Indices 1 2 3 4 5 6 
#
# 1 0.011890 -0.002558 -0.009023 0.000000 0.000000 0.000000
# 2 -0.002558 0.007637 -0.000867 0.000000 0.000000 0.000000
# 3 -0.009023 -0.000867 0.035474 0.000000 0.000000 0.000000
# 4 0.000000 0.000000 0.000000 0.040091 0.000000 0.000000
# 5 0.000000 0.000000 0.000000 0.000000 0.022461 0.000000
# 6 0.000000 0.000000 0.000000 0.000000 0.000000 0.033436
#
#
# Mechanical properties :
#
#
# Convention : Reuss Voigt Hill
#
# Bulk Modulus (GPa) = 33.21595 52.76092 42.98843
# Shear Modulus (GPa) = 26.89344 34.01457 30.45400
#
# Velocity S-wave (km/s) = 3.56399 4.00817 3.79259
# Velocity P-wave (km/s) = 5.71177 6.80735 6.28348
#
# Compressibility (1/GPa) = 0.03010602
#
# Stress axis : x y z
#
# Youngs Moduli (GPa) = 84.10380 130.93865 28.18972
#
# Poissons Ratio (x) = 0.33488 0.25436
# Poissons Ratio (y) = 0.21510 0.02443
# Poissons Ratio (z) = 0.75889 0.11349
#
# Static dielectric constant tensor:
#      x y z
#    x 1.782410 0.000000 0.000000 
#    y 0.000000 1.839690 0.000000 
#    z 0.000000 0.000000 1.768100 
# 
# From -- ./inp_files/32544.got.cif
#   From: 2010.05.17/outbox.cif.g08.bks.cpg/sg50_17_cif.got.tgz:32544.got - 2010.06.03 11:33:33.
