data_PCOD9396544
_publ_section_title
;
Structure prediction by ZEFSAII (Michael W. Deem and Ramdas Pophale) SiO2 
 PCOD9396544
Probable space group: P B A N
;
_chemical_formula_sum "Si O2"
_cell_formula_units_Z 48
_cell_length_a 9.629089
_cell_length_b 22.600735
_cell_length_c 11.156057
_cell_angle_alpha 90.000000
_cell_angle_beta 90.000000
_cell_angle_gamma 90.000000
_cell_volume 2427.831201
_symmetry_space_group_name_H-M "P B A N"
_symmetry_group_IT_number 50
_space_group.IT_coordinate_system_code '2'
_symmetry_cell_setting 'orthorhombic'
loop_
_space_group_symop_operation_xyz
x,y,z
1/2-x,1/2-y,z
x,1/2-y,-z
1/2-x,y,-z
-x,-y,-z
1/2+x,1/2+y,-z
-x,1/2+y,z
1/2+x,-y,z
loop_
_atom_site_type_symbol
_atom_site_label
_atom_site_fract_x
_atom_site_fract_y
_atom_site_fract_z
Si Si1 0.912917 0.751581 0.856253
Si Si2 0.427839 0.640599 0.238372
Si Si3 0.610371 0.916020 0.560615
Si Si4 0.403287 0.944907 0.975889
Si Si5 0.868789 0.456200 0.601091
Si Si6 0.616640 0.142726 0.805029
O O1 0.750000 0.750000 0.827458
O O2 0.973354 0.690268 0.812123
O O3 0.999841 0.806283 0.798650
O O4 0.929431 0.750000 0.000000
O O5 0.501013 0.622975 0.364098
O O6 0.424337 0.581998 0.155808
O O7 0.272413 0.667240 0.218713
O O8 0.750000 0.889496 0.500000
O O9 0.519291 0.944525 0.455370
O O10 0.652851 0.975044 0.635476
O O11 0.250000 0.968247 0.000000
O O12 0.411166 0.889295 0.067600
O O13 0.500000 0.000000 0.000000
O O14 0.750000 0.443112 0.500000
O O15 0.873531 0.411225 0.710764
#
# Coordination Sequence:
#
# PCOD9396544 Si02
#       6
#     8   8   8   8   8   8
#     4  11  25  43  64  92 121 165 214 269 330 383
#     4  11  22  41  64  91 124 166 217 256 317 387
#     4  10  22  38  65  95 129 169 205 260 318 383
#     4  10  22  37  59  94 128 159 202 258 319 382
#     4  10  20  40  63  93 129 166 210 253 319 385
#     4  11  22  40  66  90 123 169 214 260 313 388
#
# _framework density 19.770731999999999
#
# number of rings (size 3 to 8) (size 9 to 14) (size 15 to 20)
#    0.000    1.500    3.333    1.500    2.333    2.000 
#    0.000    0.833    0.000    0.000    0.000    0.000 
#    0.000    0.000    0.000    0.000    0.000    0.000 
#
# Total GULP energy -267211.433902 kJ/mol
# GULP energy per Si atom -5566.904873 kJ/mol
# Density = 1.972573 g / cm^3
# Si number density = 19.770732 Si / 1000 Ang^3
#
#
#
# Elastic Constant Matrix: (Units=GPa)
#
#
# Indices 1 2 3 4 5 6 
#
# 1 126.3276 56.9858 20.3398 0.0000 0.0000 0.0000
# 2 56.9858 53.0110 0.6373 0.0000 0.0000 0.0000
# 3 20.3398 0.6373 34.9394 0.0000 0.0000 0.0000
# 4 0.0000 0.0000 0.0000 12.5466 0.0000 0.0000
# 5 0.0000 0.0000 0.0000 0.0000 32.8018 0.0000
# 6 0.0000 0.0000 0.0000 0.0000 0.0000 71.7074
#
#
#
# Elastic Compliance Matrix: (Units=1/GPa)
#
#
# Indices 1 2 3 4 5 6 
#
# 1 0.018515 -0.019778 -0.010418 0.000000 0.000000 0.000000
# 2 -0.019778 0.039996 0.010784 0.000000 0.000000 0.000000
# 3 -0.010418 0.010784 0.034489 0.000000 0.000000 0.000000
# 4 0.000000 0.000000 0.000000 0.079703 0.000000 0.000000
# 5 0.000000 0.000000 0.000000 0.000000 0.030486 0.000000
# 6 0.000000 0.000000 0.000000 0.000000 0.000000 0.013946
#
#
# Mechanical properties :
#
#
# Convention : Reuss Voigt Hill
#
# Bulk Modulus (GPa) = 18.45825 41.13375 29.79600
# Shear Modulus (GPa) = 18.24708 32.49882 25.37295
#
# Velocity S-wave (km/s) = 3.04128 4.05876 3.58629
# Velocity P-wave (km/s) = 4.65714 6.54334 5.67909
#
# Compressibility (1/GPa) = 0.05417631
#
# Stress axis : x y z
#
# Youngs Moduli (GPa) = 54.00989 25.00279 28.99480
#
# Poissons Ratio (x) = 0.49451 0.30206
# Poissons Ratio (y) = 1.06822 -0.31269
# Poissons Ratio (z) = 0.56266 -0.26964
#
# Static dielectric constant tensor:
#      x y z
#    x 2.459100 0.000000 0.000000 
#    y 0.000000 1.756230 0.000000 
#    z 0.000000 0.000000 2.279560 
# 
# From -- ./inp_files/19192.got.cif
#   From: 2010.05.17/outbox.cif.g08.bks.cpg/sg50_10_cif.got.tgz:19192.got - 2010.06.03 11:33:33.
