data_PCOD9396514
_publ_section_title
;
Structure prediction by ZEFSAII (Michael W. Deem and Ramdas Pophale) SiO2 
 PCOD9396514
Probable space group: P B A N
;
_chemical_formula_sum "Si O2"
_cell_formula_units_Z 54
_cell_length_a 11.838737
_cell_length_b 14.367467
_cell_length_c 15.481699
_cell_angle_alpha 90.000000
_cell_angle_beta 90.000000
_cell_angle_gamma 90.000000
_cell_volume 2633.323413
_symmetry_space_group_name_H-M "P B A N"
_symmetry_group_IT_number 50
_space_group.IT_coordinate_system_code '2'
_symmetry_cell_setting 'orthorhombic'
loop_
_space_group_symop_operation_xyz
x,y,z
1/2-x,1/2-y,z
x,1/2-y,-z
1/2-x,y,-z
-x,-y,-z
1/2+x,1/2+y,-z
-x,1/2+y,z
1/2+x,-y,z
loop_
_atom_site_type_symbol
_atom_site_label
_atom_site_fract_x
_atom_site_fract_y
_atom_site_fract_z
Si Si1 0.062661 0.377120 0.911063
Si Si2 0.568950 0.516733 0.412653
Si Si3 0.250000 0.602005 0.500000
Si Si4 0.250000 0.250000 0.000000
Si Si5 0.788309 0.145850 0.778671
Si Si6 0.453525 0.874597 0.272437
Si Si7 0.870564 0.412384 0.043936
Si Si8 0.435566 0.679169 0.372001
O O1 0.167533 0.315183 0.942972
O O2 0.089257 0.486759 0.922675
O O3 0.028992 0.356930 0.812144
O O4 0.957532 0.365923 0.977395
O O5 0.500000 0.500000 0.500000
O O6 0.687969 0.466684 0.431992
O O7 0.514152 0.458112 0.335157
O O8 0.551950 0.626236 0.394441
O O9 0.344494 0.662589 0.449155
O O10 0.750000 0.250000 0.758848
O O11 0.668939 0.095008 0.767986
O O12 0.846513 0.146276 0.870841
O O13 0.878873 0.122890 0.706890
O O14 0.448865 0.783855 0.335812
O O15 0.750000 0.425739 0.000000
#
# Coordination Sequence:
#
# PCOD9396514 Si02
#       8
#     8   8   4   2   8   8   8   8
#     4  11  26  44  67  94 140 181 222 275 337 415
#     4  10  22  39  63  93 127 170 211 265 333 393
#     4  10  20  39  64  93 132 168 214 277 332 397
#     4  12  28  48  62 100 134 190 228 270 352 408
#     4  10  21  37  62 101 127 155 216 276 336 380
#     4  11  22  42  64  98 129 166 221 276 336 396
#     4  11  22  43  68  98 129 176 222 279 332 391
#     4  10  22  39  62  97 126 169 212 273 332 394
#
# _framework density 20.506406999999999
#
# number of rings (size 3 to 8) (size 9 to 14) (size 15 to 20)
#    0.000    1.481    3.704    0.889    4.148    3.259 
#    2.667    0.000    0.000    3.556    0.000    0.000 
#    0.000    0.000    0.000    0.000    0.000    0.000 
#
# Total GULP energy -301046.899360 kJ/mol
# GULP energy per Si atom -5574.942581 kJ/mol
# Density = 2.045973 g / cm^3
# Si number density = 20.506407 Si / 1000 Ang^3
#
#
#
# Elastic Constant Matrix: (Units=GPa)
#
#
# Indices 1 2 3 4 5 6 
#
# 1 72.0590 38.3082 35.1777 0.0000 0.0000 0.0000
# 2 38.3082 89.2723 29.6728 0.0000 0.0000 0.0000
# 3 35.1777 29.6728 114.6424 0.0000 0.0000 0.0000
# 4 0.0000 0.0000 0.0000 26.2505 0.0000 0.0000
# 5 0.0000 0.0000 0.0000 0.0000 27.6079 0.0000
# 6 0.0000 0.0000 0.0000 0.0000 0.0000 17.7810
#
#
#
# Elastic Compliance Matrix: (Units=1/GPa)
#
#
# Indices 1 2 3 4 5 6 
#
# 1 0.019680 -0.007044 -0.004216 0.000000 0.000000 0.000000
# 2 -0.007044 0.014777 -0.001663 0.000000 0.000000 0.000000
# 3 -0.004216 -0.001663 0.010447 0.000000 0.000000 0.000000
# 4 0.000000 0.000000 0.000000 0.038094 0.000000 0.000000
# 5 0.000000 0.000000 0.000000 0.000000 0.036222 0.000000
# 6 0.000000 0.000000 0.000000 0.000000 0.000000 0.056240
#
#
# Mechanical properties :
#
#
# Convention : Reuss Voigt Hill
#
# Bulk Modulus (GPa) = 52.47014 53.58790 53.02902
# Shear Modulus (GPa) = 24.07796 25.84888 24.96342
#
# Velocity S-wave (km/s) = 3.43033 3.55424 3.49284
# Velocity P-wave (km/s) = 6.42902 6.55992 6.49480
#
# Compressibility (1/GPa) = 0.01905846
#
# Stress axis : x y z
#
# Youngs Moduli (GPa) = 50.81251 67.67176 95.72251
#
# Poissons Ratio (x) = 0.47667 0.40353
# Poissons Ratio (y) = 0.35792 0.15922
# Poissons Ratio (z) = 0.21421 0.11256
#
# Static dielectric constant tensor:
#      x y z
#    x 1.775110 0.000000 0.000000 
#    y 0.000000 1.757840 0.000000 
#    z 0.000000 0.000000 1.742600 
# 
# From -- ./inp_files/25984.got.cif
#   From: 2010.05.17/outbox.cif.g08.bks.cpg/sg50_13_cif.got.tgz:25984.got - 2010.06.03 11:33:33.
