data_PCOD9396687
_publ_section_title
;
Structure prediction by ZEFSAII (Michael W. Deem and Ramdas Pophale) SiO2 
 PCOD9396687
Probable space group: P B A N
;
_chemical_formula_sum "Si O2"
_cell_formula_units_Z 48
_cell_length_a 17.837494
_cell_length_b 5.333185
_cell_length_c 22.831857
_cell_angle_alpha 90.000000
_cell_angle_beta 90.000000
_cell_angle_gamma 90.000000
_cell_volume 2172.009521
_symmetry_space_group_name_H-M "P B A N"
_symmetry_group_IT_number 50
_space_group.IT_coordinate_system_code '2'
_symmetry_cell_setting 'orthorhombic'
loop_
_space_group_symop_operation_xyz
x,y,z
1/2-x,1/2-y,z
x,1/2-y,-z
1/2-x,y,-z
-x,-y,-z
1/2+x,1/2+y,-z
-x,1/2+y,z
1/2+x,-y,z
loop_
_atom_site_type_symbol
_atom_site_label
_atom_site_fract_x
_atom_site_fract_y
_atom_site_fract_z
Si Si1 0.217926 0.500002 0.433886
Si Si2 0.792829 0.501400 0.775194
Si Si3 0.032632 0.836185 0.933559
Si Si4 0.796115 0.497991 0.916384
Si Si5 0.457553 0.000029 0.274784
Si Si6 0.956399 0.002673 0.416248
O O1 0.250000 0.250000 0.404623
O O2 0.250000 0.500091 0.500000
O O3 0.128880 0.500040 0.437196
O O4 0.250000 0.750000 0.404562
O O5 0.750000 0.250000 0.757855
O O6 0.797840 0.506712 0.845769
O O7 0.874924 0.498182 0.749599
O O8 0.750000 0.750000 0.755723
O O9 0.117180 0.948388 0.934693
O O10 0.019358 0.557215 0.905880
O O11 0.011745 0.750000 0.000000
O O12 0.750000 0.250000 0.933740
O O13 0.750000 0.750000 0.934738
O O14 0.499428 0.251118 0.255682
O O15 0.454139 0.998700 0.345462
O O16 0.000781 0.754184 0.434319
#
# Coordination Sequence:
#
# PCOD9396687 Si02
#       6
#     8   8   8   8   8   8
#     4  10  21  38  56  81 110 139 182 228 271 329
#     4  10  21  36  55  82 114 147 183 226 276 329
#     4  10  21  37  56  80 109 142 184 231 277 325
#     4  10  21  37  56  81 113 147 186 229 277 335
#     4  10  21  36  56  83 112 144 186 227 271 332
#     4  10  21  38  58  81 111 146 182 227 278 328
#
# _framework density 22.099353000000001
#
# number of rings (size 3 to 8) (size 9 to 14) (size 15 to 20)
#    0.000    2.000    0.000    3.000    0.000    3.000 
#    0.000   10.833    0.000    0.000    0.000    0.000 
#    0.000    0.000    0.000    0.000    0.000    0.000 
#
# Total GULP energy -268234.863812 kJ/mol
# GULP energy per Si atom -5588.226329 kJ/mol
# Density = 2.204905 g / cm^3
# Si number density = 22.099353 Si / 1000 Ang^3
#
#
#
# Elastic Constant Matrix: (Units=GPa)
#
#
# Indices 1 2 3 4 5 6 
#
# 1 228.0066 132.5501 29.3310 0.0000 0.0000 0.0000
# 2 132.5501 269.9425 39.9250 0.0000 0.0000 0.0000
# 3 29.3310 39.9250 39.9066 0.0000 0.0000 0.0000
# 4 0.0000 0.0000 0.0000 -16.0550 0.0000 0.0000
# 5 0.0000 0.0000 0.0000 0.0000 37.9287 0.0000
# 6 0.0000 0.0000 0.0000 0.0000 0.0000 48.0538
#
#
#
# Elastic Compliance Matrix: (Units=1/GPa)
#
#
# Indices 1 2 3 4 5 6 
#
# 1 0.006245 -0.002802 -0.001786 0.000000 0.000000 0.000000
# 2 -0.002802 0.005605 -0.003548 0.000000 0.000000 0.000000
# 3 -0.001786 -0.003548 0.029921 0.000000 0.000000 0.000000
# 4 0.000000 0.000000 0.000000 -0.062286 0.000000 0.000000
# 5 0.000000 0.000000 0.000000 0.000000 0.026365 0.000000
# 6 0.000000 0.000000 0.000000 0.000000 0.000000 0.020810
#
#
# Mechanical properties :
#
#
# Convention : Reuss Voigt Hill
#
# Bulk Modulus (GPa) = 39.21918 104.60756 71.91337
# Shear Modulus (GPa) = 97.21335 36.38880 66.80107
#
# Velocity S-wave (km/s) = 6.63963 4.06223 5.50393
# Velocity P-wave (km/s) = 8.75014 8.33308 8.54415
#
# Compressibility (1/GPa) = 0.02549773
#
# Stress axis : x y z
#
# Youngs Moduli (GPa) = 160.13805 178.40576 33.42095
#
# Poissons Ratio (x) = 0.49991 0.05970
# Poissons Ratio (y) = 0.44872 0.11859
# Poissons Ratio (z) = 0.28606 0.63303
#
# Static dielectric constant tensor:
#      x y z
#    x 1.738790 0.000000 0.000000 
#    y 0.000000 1.779260 0.000000 
#    z 0.000000 0.000000 1.878100 
# 
# From -- ./inp_files/32257.got.cif
#   From: 2010.05.17/outbox.cif.g08.bks.cpg/sg50_17_cif.got.tgz:32257.got - 2010.06.03 11:33:33.
