data_PCOD9396354
_publ_section_title
;
Structure prediction by ZEFSAII (Michael W. Deem and Ramdas Pophale) SiO2 
 PCOD9396354
Probable space group: P B A N
;
_chemical_formula_sum "Si O2"
_cell_formula_units_Z 64
_cell_length_a 10.169914
_cell_length_b 22.726080
_cell_length_c 13.480674
_cell_angle_alpha 90.000000
_cell_angle_beta 90.000000
_cell_angle_gamma 90.000000
_cell_volume 3115.684099
_symmetry_space_group_name_H-M "P B A N"
_symmetry_group_IT_number 50
_space_group.IT_coordinate_system_code '2'
_symmetry_cell_setting 'orthorhombic'
loop_
_space_group_symop_operation_xyz
x,y,z
1/2-x,1/2-y,z
x,1/2-y,-z
1/2-x,y,-z
-x,-y,-z
1/2+x,1/2+y,-z
-x,1/2+y,z
1/2+x,-y,z
loop_
_atom_site_type_symbol
_atom_site_label
_atom_site_fract_x
_atom_site_fract_y
_atom_site_fract_z
Si Si1 0.046002 0.806165 0.380734
Si Si2 0.754690 0.412668 0.612994
Si Si3 0.319654 0.997405 0.790241
Si Si4 0.513775 0.323872 0.401962
Si Si5 0.632097 0.702027 0.188619
Si Si6 0.061955 0.037491 0.911386
Si Si7 0.630660 0.631746 0.780553
Si Si8 0.596442 0.664654 0.993681
O O1 0.150812 0.858747 0.374021
O O2 0.969247 0.821493 0.483447
O O3 0.091547 0.738005 0.391091
O O4 0.958551 0.800910 0.283561
O O5 0.750000 0.435726 0.500000
O O6 0.732215 0.463108 0.693568
O O7 0.892634 0.378921 0.619310
O O8 0.194919 0.009299 0.864106
O O9 0.382806 0.061881 0.770440
O O10 0.441136 0.959660 0.833766
O O11 0.404833 0.332527 0.318137
O O12 0.750000 0.750000 0.190957
O O13 0.716254 0.642094 0.196808
O O14 0.547669 0.704391 0.086384
O O15 0.086184 0.098896 0.965585
O O16 0.000000 0.000000 0.000000
O O17 0.557193 0.658803 0.878081
O O18 0.750000 0.681843 0.000000
#
# Coordination Sequence:
#
# PCOD9396354 Si02
#       8
#     8   8   8   8   8   8   8   8
#     4  10  21  41  66  91 120 162 207 269 310 377
#     4  10  23  42  63  92 123 166 211 254 317 383
#     4  12  24  40  65  91 131 165 213 257 317 373
#     4  10  21  42  65  91 120 161 215 258 317 369
#     4  11  21  38  62  89 123 157 206 257 320 371
#     4  12  21  39  62  91 120 166 211 261 298 370
#     4  11  22  39  58  90 128 163 201 257 309 381
#     4  10  20  37  58  86 124 161 206 248 311 377
#
# _framework density 20.541235
#
# number of rings (size 3 to 8) (size 9 to 14) (size 15 to 20)
#    0.000    1.250    5.000    2.250    0.000    4.250 
#    2.250    1.875    0.000    0.000    0.000    1.750 
#    0.000    0.000    0.000    0.000    0.000    0.000 
#
# Total GULP energy -356309.677593 kJ/mol
# GULP energy per Si atom -5567.338712 kJ/mol
# Density = 2.049448 g / cm^3
# Si number density = 20.541235 Si / 1000 Ang^3
#
#
#
# Elastic Constant Matrix: (Units=GPa)
#
#
# Indices 1 2 3 4 5 6 
#
# 1 36.8390 -5.3077 24.0239 0.0000 0.0000 0.0000
# 2 -5.3077 72.3690 34.3542 0.0000 0.0000 0.0000
# 3 24.0239 34.3542 146.4717 0.0000 0.0000 0.0000
# 4 0.0000 0.0000 0.0000 38.6919 0.0000 0.0000
# 5 0.0000 0.0000 0.0000 0.0000 30.1735 0.0000
# 6 0.0000 0.0000 0.0000 0.0000 0.0000 23.4235
#
#
#
# Elastic Compliance Matrix: (Units=1/GPa)
#
#
# Indices 1 2 3 4 5 6 
#
# 1 0.032220 0.005482 -0.006570 0.000000 0.000000 0.000000
# 2 0.005482 0.016482 -0.004765 0.000000 0.000000 0.000000
# 3 -0.006570 -0.004765 0.009023 0.000000 0.000000 0.000000
# 4 0.000000 0.000000 0.000000 0.025845 0.000000 0.000000
# 5 0.000000 0.000000 0.000000 0.000000 0.033142 0.000000
# 6 0.000000 0.000000 0.000000 0.000000 0.000000 0.042692
#
#
# Mechanical properties :
#
#
# Convention : Reuss Voigt Hill
#
# Bulk Modulus (GPa) = 21.73068 40.20227 30.96647
# Shear Modulus (GPa) = 26.81695 31.96506 29.39101
#
# Velocity S-wave (km/s) = 3.61711 3.94908 3.78673
# Velocity P-wave (km/s) = 5.29591 6.35670 5.85040
#
# Compressibility (1/GPa) = 0.04601790
#
# Stress axis : x y z
#
# Youngs Moduli (GPa) = 31.03683 60.67188 110.83390
#
# Poissons Ratio (x) = -0.33261 0.72822
# Poissons Ratio (y) = -0.17015 0.52812
# Poissons Ratio (z) = 0.20392 0.28910
#
# Static dielectric constant tensor:
#      x y z
#    x 1.612740 0.000000 0.000000 
#    y 0.000000 1.819240 0.000000 
#    z 0.000000 0.000000 1.855210 
# 
# From -- ./inp_files/20536.got.cif
#   From: 2010.05.17/outbox.cif.g08.bks.cpg/sg50_11_cif.got.tgz:20536.got - 2010.06.03 11:33:33.
