data_PCOD9396858
_publ_section_title
;
Structure prediction by ZEFSAII (Michael W. Deem and Ramdas Pophale) SiO2 
 PCOD9396858
Probable space group: P B A N
;
_chemical_formula_sum "Si O2"
_cell_formula_units_Z 32
_cell_length_a 21.976194
_cell_length_b 12.597838
_cell_length_c 4.922508
_cell_angle_alpha 90.000000
_cell_angle_beta 90.000000
_cell_angle_gamma 90.000000
_cell_volume 1362.808803
_symmetry_space_group_name_H-M "P B A N"
_symmetry_group_IT_number 50
_space_group.IT_coordinate_system_code '2'
_symmetry_cell_setting 'orthorhombic'
loop_
_space_group_symop_operation_xyz
x,y,z
1/2-x,1/2-y,z
x,1/2-y,-z
1/2-x,y,-z
-x,-y,-z
1/2+x,1/2+y,-z
-x,1/2+y,z
1/2+x,-y,z
loop_
_atom_site_type_symbol
_atom_site_label
_atom_site_fract_x
_atom_site_fract_y
_atom_site_fract_z
Si Si1 0.186651 0.443613 0.661958
Si Si2 0.618977 0.750000 0.500000
Si Si3 0.928015 0.250000 0.000000
Si Si4 0.125950 0.957415 0.845300
Si Si5 0.520560 0.913535 0.728452
O O1 0.250000 0.441114 0.500000
O O2 0.161781 0.323328 0.686638
O O3 0.143400 0.507877 0.455545
O O4 0.177454 0.501767 0.948167
O O5 0.573672 0.832113 0.637989
O O6 0.886134 0.332920 0.842946
O O7 0.970039 0.171726 0.820646
O O8 0.061985 0.014942 0.933219
O O9 0.500000 0.000000 0.500000
#
# Coordination Sequence:
#
# PCOD9396858 Si02
#       5
#     8   4   4   8   8
#     4  11  24  45  66  92 127 169 223 288 336 387
#     4  10  21  38  66  98 128 170 217 264 336 414
#     4  12  22  40  65  94 135 180 212 270 342 412
#     4  11  25  42  65  97 129 169 224 270 331 414
#     4  11  22  39  66 101 141 178 218 275 344 430
#
# _framework density 23.480917999999999
#
# number of rings (size 3 to 8) (size 9 to 14) (size 15 to 20)
#    0.000    1.000    0.000    7.875    0.000    6.000 
#    0.000    8.750    0.000    0.000    0.000    0.000 
#    0.000    0.000    0.000    0.000    0.000    0.000 
#
# Total GULP energy -178592.126313 kJ/mol
# GULP energy per Si atom -5581.003947 kJ/mol
# Density = 2.342747 g / cm^3
# Si number density = 23.480918 Si / 1000 Ang^3
#
#
#
# Elastic Constant Matrix: (Units=GPa)
#
#
# Indices 1 2 3 4 5 6 
#
# 1 92.1223 40.9620 7.2614 0.0000 0.0000 0.0000
# 2 40.9620 201.1080 35.3493 0.0000 0.0000 0.0000
# 3 7.2614 35.3493 84.7029 0.0000 0.0000 0.0000
# 4 0.0000 0.0000 0.0000 30.0500 0.0000 0.0000
# 5 0.0000 0.0000 0.0000 0.0000 40.5834 0.0000
# 6 0.0000 0.0000 0.0000 0.0000 0.0000 25.7023
#
#
#
# Elastic Compliance Matrix: (Units=1/GPa)
#
#
# Indices 1 2 3 4 5 6 
#
# 1 0.011936 -0.002430 -0.000009 0.000000 0.000000 0.000000
# 2 -0.002430 0.005861 -0.002238 0.000000 0.000000 0.000000
# 3 -0.000009 -0.002238 0.012741 0.000000 0.000000 0.000000
# 4 0.000000 0.000000 0.000000 0.033278 0.000000 0.000000
# 5 0.000000 0.000000 0.000000 0.000000 0.024641 0.000000
# 6 0.000000 0.000000 0.000000 0.000000 0.000000 0.038907
#
#
# Mechanical properties :
#
#
# Convention : Reuss Voigt Hill
#
# Bulk Modulus (GPa) = 47.20432 60.56429 53.88430
# Shear Modulus (GPa) = 34.77600 38.89115 36.83357
#
# Velocity S-wave (km/s) = 3.85259 4.07417 3.96493
# Velocity P-wave (km/s) = 6.31956 6.92681 6.63014
#
# Compressibility (1/GPa) = 0.02118450
#
# Stress axis : x y z
#
# Youngs Moduli (GPa) = 83.77905 170.63086 78.48942
#
# Poissons Ratio (x) = 0.41455 0.00073
# Poissons Ratio (y) = 0.20354 0.17562
# Poissons Ratio (z) = 0.00078 0.38179
#
# Static dielectric constant tensor:
#      x y z
#    x 2.036240 0.000000 0.000000 
#    y 0.000000 2.023540 0.000000 
#    z 0.000000 0.000000 0.973360 
# 
# From -- ./inp_files/2030.got.cif
#   From: 2010.05.17/outbox.cif.g08.bks.cpg/sg50_2_cif.got.tgz:2030.got - 2010.06.03 11:33:33.
