data_PCOD9396625
_publ_section_title
;
Structure prediction by ZEFSAII (Michael W. Deem and Ramdas Pophale) SiO2 
 PCOD9396625
Probable space group: P B A N
;
_chemical_formula_sum "Si O2"
_cell_formula_units_Z 40
_cell_length_a 30.369455
_cell_length_b 5.132300
_cell_length_c 12.826632
_cell_angle_alpha 90.000000
_cell_angle_beta 90.000000
_cell_angle_gamma 90.000000
_cell_volume 1999.224971
_symmetry_space_group_name_H-M "P B A N"
_symmetry_group_IT_number 50
_space_group.IT_coordinate_system_code '2'
_symmetry_cell_setting 'orthorhombic'
loop_
_space_group_symop_operation_xyz
x,y,z
1/2-x,1/2-y,z
x,1/2-y,-z
1/2-x,y,-z
-x,-y,-z
1/2+x,1/2+y,-z
-x,1/2+y,z
1/2+x,-y,z
loop_
_atom_site_type_symbol
_atom_site_label
_atom_site_fract_x
_atom_site_fract_y
_atom_site_fract_z
Si Si1 0.612624 0.273689 0.837319
Si Si2 0.482306 0.556412 0.882865
Si Si3 0.200631 0.190990 0.339428
Si Si4 0.354830 0.698456 0.612671
Si Si5 0.332467 0.269761 0.885715
O O1 0.565874 0.177614 0.878698
O O2 0.614229 0.258026 0.711558
O O3 0.627803 0.556871 0.877016
O O4 0.648411 0.059411 0.872512
O O5 0.485714 0.271838 0.832606
O O6 0.500000 0.500000 0.000000
O O7 0.250000 0.250000 0.373002
O O8 0.166379 0.411792 0.377954
O O9 0.197431 0.203567 0.213385
O O10 0.184497 0.909009 0.375527
O O11 0.375430 0.750000 0.500000
O O12 0.312080 0.250000 0.000000
#
# Coordination Sequence:
#
# PCOD9396625 Si02
#       5
#     8   8   8   8   8
#     4  10  21  36  52  77 111 138 179 220 259 322
#     4  10  21  32  50  79 107 138 167 216 270 316
#     4  10  21  36  53  82 111 135 181 230 266 313
#     4  10  21  37  57  79 103 143 182 220 274 315
#     4  10  21  33  54  75 106 152 177 209 262 325
#
# _framework density 20.007755
#
# number of rings (size 3 to 8) (size 9 to 14) (size 15 to 20)
#    0.000    2.000    0.000    3.000    8.400    2.800 
#    0.000    0.000    0.000    8.400    0.000    0.000 
#    0.000    0.000    0.000    0.000    0.000    0.000 
#
# Total GULP energy -223250.094870 kJ/mol
# GULP energy per Si atom -5581.252372 kJ/mol
# Density = 1.996222 g / cm^3
# Si number density = 20.007755 Si / 1000 Ang^3
#
#
#
# Elastic Constant Matrix: (Units=GPa)
#
#
# Indices 1 2 3 4 5 6 
#
# 1 51.3938 -6.5059 -2.1922 0.0000 0.0000 0.0000
# 2 -6.5059 103.1566 -6.5396 0.0000 0.0000 0.0000
# 3 -2.1922 -6.5396 132.9245 0.0000 0.0000 0.0000
# 4 0.0000 0.0000 0.0000 16.9698 0.0000 0.0000
# 5 0.0000 0.0000 0.0000 0.0000 -25.7747 0.0000
# 6 0.0000 0.0000 0.0000 0.0000 0.0000 17.2858
#
#
#
# Elastic Compliance Matrix: (Units=1/GPa)
#
#
# Indices 1 2 3 4 5 6 
#
# 1 0.019634 0.001263 0.000386 0.000000 0.000000 0.000000
# 2 0.001263 0.009806 0.000503 0.000000 0.000000 0.000000
# 3 0.000386 0.000503 0.007554 0.000000 0.000000 0.000000
# 4 0.000000 0.000000 0.000000 0.058928 0.000000 0.000000
# 5 0.000000 0.000000 0.000000 0.000000 -0.038798 0.000000
# 6 0.000000 0.000000 0.000000 0.000000 0.000000 0.057851
#
#
# Mechanical properties :
#
#
# Convention : Reuss Voigt Hill
#
# Bulk Modulus (GPa) = 24.21458 28.55551 26.38504
# Shear Modulus (GPa) = 40.18098 21.87703 31.02901
#
# Velocity S-wave (km/s) = 4.48623 3.31029 3.94235
# Velocity P-wave (km/s) = 6.24211 5.37716 5.82571
#
# Compressibility (1/GPa) = 0.04129744
#
# Stress axis : x y z
#
# Youngs Moduli (GPa) = 50.93232 101.98320 132.37685
#
# Poissons Ratio (x) = -0.12878 -0.05109
# Poissons Ratio (y) = -0.06431 -0.06662
# Poissons Ratio (z) = -0.01966 -0.05132
#
# Static dielectric constant tensor:
#      x y z
#    x 1.693390 0.000000 0.000000 
#    y 0.000000 1.781960 0.000000 
#    z 0.000000 0.000000 1.783370 
# 
# From -- ./inp_files/17988.got.cif
#   From: 2010.05.17/outbox.cif.g08.bks.cpg/sg50_9_cif.got.tgz:17988.got - 2010.06.03 11:33:33.
