data_PCOD9396998
_publ_section_title
;
Structure prediction by ZEFSAII (Michael W. Deem and Ramdas Pophale) SiO2 
 PCOD9396998
Probable space group: P B A N
;
_chemical_formula_sum "Si O2"
_cell_formula_units_Z 40
_cell_length_a 7.476407
_cell_length_b 16.717259
_cell_length_c 12.792043
_cell_angle_alpha 90.000000
_cell_angle_beta 90.000000
_cell_angle_gamma 90.000000
_cell_volume 1598.813906
_symmetry_space_group_name_H-M "P B A N"
_symmetry_group_IT_number 50
_space_group.IT_coordinate_system_code '2'
_symmetry_cell_setting 'orthorhombic'
loop_
_space_group_symop_operation_xyz
x,y,z
1/2-x,1/2-y,z
x,1/2-y,-z
1/2-x,y,-z
-x,-y,-z
1/2+x,1/2+y,-z
-x,1/2+y,z
1/2+x,-y,z
loop_
_atom_site_type_symbol
_atom_site_label
_atom_site_fract_x
_atom_site_fract_y
_atom_site_fract_z
Si Si1 0.958190 0.841923 0.470714
Si Si2 0.963858 0.266087 0.261470
Si Si3 0.461643 0.906247 0.325448
Si Si4 0.155884 0.522380 0.799850
Si Si5 0.634623 0.877390 0.898584
O O1 0.002772 0.750000 0.500000
O O2 0.750000 0.857334 0.500000
O O3 0.994743 0.835106 0.347697
O O4 0.069040 0.895905 0.551262
O O5 0.750000 0.250000 0.256570
O O6 0.045828 0.180419 0.295639
O O7 0.058480 0.298991 0.158302
O O8 0.304471 0.917600 0.241218
O O9 0.559851 0.989703 0.304601
O O10 0.233110 0.438479 0.839415
O O11 0.042077 0.564668 0.891145
O O12 0.750000 0.857733 0.000000
#
# Coordination Sequence:
#
# PCOD9396998 Si02
#       5
#     8   8   8   8   8
#     4   9  19  36  63  98 140 191 242 292 363 444
#     4  11  22  42  71 104 146 191 255 312 371 450
#     4  10  21  41  68 101 147 194 246 300 379 448
#     4  10  22  42  68 104 145 194 243 310 375 461
#     4  11  23  43  71 103 139 190 245 314 385 446
#
# _framework density 25.018547999999999
#
# number of rings (size 3 to 8) (size 9 to 14) (size 15 to 20)
#    0.000    1.800    2.000    1.800    0.000    6.000 
#    0.000   13.000    0.000    1.200    0.000    1.400 
#    0.000    0.000    0.000    0.000    0.000    0.000 
#
# Total GULP energy -222978.235866 kJ/mol
# GULP energy per Si atom -5574.455897 kJ/mol
# Density = 2.496160 g / cm^3
# Si number density = 25.018548 Si / 1000 Ang^3
#
#
#
# Elastic Constant Matrix: (Units=GPa)
#
#
# Indices 1 2 3 4 5 6 
#
# 1 81.2946 17.8677 62.9766 0.0000 0.0000 0.0000
# 2 17.8677 126.7016 41.9641 0.0000 0.0000 0.0000
# 3 62.9766 41.9641 144.6326 0.0000 0.0000 0.0000
# 4 0.0000 0.0000 0.0000 150.1529 0.0000 0.0000
# 5 0.0000 0.0000 0.0000 0.0000 40.4072 0.0000
# 6 0.0000 0.0000 0.0000 0.0000 0.0000 -40.2129
#
#
#
# Elastic Compliance Matrix: (Units=1/GPa)
#
#
# Indices 1 2 3 4 5 6 
#
# 1 0.018563 0.000066 -0.008102 0.000000 0.000000 0.000000
# 2 0.000066 0.008732 -0.002562 0.000000 0.000000 0.000000
# 3 -0.008102 -0.002562 0.011185 0.000000 0.000000 0.000000
# 4 0.000000 0.000000 0.000000 0.006660 0.000000 0.000000
# 5 0.000000 0.000000 0.000000 0.000000 0.024748 0.000000
# 6 0.000000 0.000000 0.000000 0.000000 0.000000 -0.024868
#
#
# Mechanical properties :
#
#
# Convention : Reuss Voigt Hill
#
# Bulk Modulus (GPa) = 57.85915 66.47173 62.16544
# Shear Modulus (GPa) = 69.46633 45.39080 57.42857
#
# Velocity S-wave (km/s) = 5.27506 4.26406 4.79627
# Velocity P-wave (km/s) = 7.76391 7.13230 7.45480
#
# Compressibility (1/GPa) = 0.01728335
#
# Stress axis : x y z
#
# Youngs Moduli (GPa) = 53.87158 114.52293 89.40474
#
# Poissons Ratio (x) = -0.00751 0.72433
# Poissons Ratio (y) = -0.00353 0.22906
# Poissons Ratio (z) = 0.43645 0.29341
#
# Static dielectric constant tensor:
#      x y z
#    x 2.176530 0.000000 0.000000 
#    y 0.000000 2.005710 0.000000 
#    z 0.000000 0.000000 2.091130 
# 
# From -- ./inp_files/18757.got.cif
#   From: 2010.05.17/outbox.cif.g08.bks.cpg/sg50_10_cif.got.tgz:18757.got - 2010.06.03 11:33:33.
