data_PCOD9396169
_publ_section_title
;
Structure prediction by ZEFSAII (Michael W. Deem and Ramdas Pophale) SiO2 
 PCOD9396169
Probable space group: P B A N
;
_chemical_formula_sum "Si O2"
_cell_formula_units_Z 48
_cell_length_a 29.201069
_cell_length_b 9.302962
_cell_length_c 7.452964
_cell_angle_alpha 90.000000
_cell_angle_beta 90.000000
_cell_angle_gamma 90.000000
_cell_volume 2024.645632
_symmetry_space_group_name_H-M "P B A N"
_symmetry_group_IT_number 50
_space_group.IT_coordinate_system_code '2'
_symmetry_cell_setting 'orthorhombic'
loop_
_space_group_symop_operation_xyz
x,y,z
1/2-x,1/2-y,z
x,1/2-y,-z
1/2-x,y,-z
-x,-y,-z
1/2+x,1/2+y,-z
-x,1/2+y,z
1/2+x,-y,z
loop_
_atom_site_type_symbol
_atom_site_label
_atom_site_fract_x
_atom_site_fract_y
_atom_site_fract_z
Si Si1 0.291437 0.830593 0.809625
Si Si2 0.985570 0.748401 0.800009
Si Si3 0.296756 0.168140 0.810125
Si Si4 0.389381 0.731992 0.293035
Si Si5 0.898894 0.918739 0.697947
Si Si6 0.944406 0.034815 0.333180
O O1 0.250000 0.750000 0.718914
O O2 0.336116 0.793737 0.701940
O O3 0.283966 0.999946 0.833790
O O4 0.297775 0.750000 0.000000
O O5 0.935365 0.818591 0.793284
O O6 0.976537 0.586128 0.748151
O O7 0.004981 0.750000 0.000000
O O8 0.018286 0.835148 0.666018
O O9 0.250000 0.250000 0.736371
O O10 0.347146 0.148309 0.711413
O O11 0.305246 0.250000 0.000000
O O12 0.404432 0.750000 0.500000
O O13 0.404497 0.578785 0.216710
O O14 0.405163 0.884323 0.215918
O O15 0.917760 0.953583 0.496263
#
# Coordination Sequence:
#
# PCOD9396169 Si02
#       6
#     8   8   8   8   8   8
#     4  10  20  34  57  90 123 163 210 261 324 387
#     4  12  25  41  65  95 127 169 223 276 330 397
#     4  10  20  37  64  96 135 174 217 276 332 397
#     4   9  21  40  61  86 121 162 209 260 318 389
#     4  10  22  41  63  93 129 171 216 266 333 400
#     4  11  24  43  66  93 131 174 217 274 336 398
#
# _framework density 23.707853
#
# number of rings (size 3 to 8) (size 9 to 14) (size 15 to 20)
#    0.000    1.667    0.000    5.000    0.000    9.000 
#    0.000    0.000    0.000    8.000    0.000    4.667 
#    0.000    0.000    0.000    0.000    0.000    0.000 
#
# Total GULP energy -267236.575971 kJ/mol
# GULP energy per Si atom -5567.428666 kJ/mol
# Density = 2.365389 g / cm^3
# Si number density = 23.707853 Si / 1000 Ang^3
#
#
#
# Elastic Constant Matrix: (Units=GPa)
#
#
# Indices 1 2 3 4 5 6 
#
# 1 159.2356 81.1428 45.6040 0.0000 0.0000 0.0000
# 2 81.1428 184.7915 47.6776 0.0000 0.0000 0.0000
# 3 45.6040 47.6776 87.8306 0.0000 0.0000 0.0000
# 4 0.0000 0.0000 0.0000 -5.7290 0.0000 0.0000
# 5 0.0000 0.0000 0.0000 0.0000 16.1160 0.0000
# 6 0.0000 0.0000 0.0000 0.0000 0.0000 30.2891
#
#
#
# Elastic Compliance Matrix: (Units=1/GPa)
#
#
# Indices 1 2 3 4 5 6 
#
# 1 0.008654 -0.003071 -0.002827 0.000000 0.000000 0.000000
# 2 -0.003071 0.007383 -0.002413 0.000000 0.000000 0.000000
# 3 -0.002827 -0.002413 0.014163 0.000000 0.000000 0.000000
# 4 0.000000 0.000000 0.000000 -0.174551 0.000000 0.000000
# 5 0.000000 0.000000 0.000000 0.000000 0.062050 0.000000
# 6 0.000000 0.000000 0.000000 0.000000 0.000000 0.033015
#
#
# Mechanical properties :
#
#
# Convention : Reuss Voigt Hill
#
# Bulk Modulus (GPa) = 73.64329 86.74517 80.19423
# Shear Modulus (GPa) = -177.69267 25.29745 -76.19761
#
# Velocity S-wave (km/s) = -8.66682 3.27012 -5.67539
# Velocity P-wave (km/s) = 8.30791 7.13631 3.00786
#
# Compressibility (1/GPa) = 0.01357897
#
# Stress axis : x y z
#
# Youngs Moduli (GPa) = 115.54846 135.45509 70.60622
#
# Poissons Ratio (x) = 0.41597 0.19958
# Poissons Ratio (y) = 0.35484 0.17037
# Poissons Ratio (z) = 0.32661 0.32685
#
# Static dielectric constant tensor:
#      x y z
#    x 2.224310 0.000000 0.000000 
#    y 0.000000 1.826930 0.000000 
#    z 0.000000 0.000000 2.038960 
# 
# From -- ./inp_files/16978.got.cif
#   From: 2010.05.17/outbox.cif.g08.bks.cpg/sg50_9_cif.got.tgz:16978.got - 2010.06.03 11:33:33.
