data_PCOD9396349
_publ_section_title
;
Structure prediction by ZEFSAII (Michael W. Deem and Ramdas Pophale) SiO2 
 PCOD9396349
Probable space group: P B A N
;
_chemical_formula_sum "Si O2"
_cell_formula_units_Z 32
_cell_length_a 24.402636
_cell_length_b 11.708307
_cell_length_c 5.202125
_cell_angle_alpha 90.000000
_cell_angle_beta 90.000000
_cell_angle_gamma 90.000000
_cell_volume 1486.317622
_symmetry_space_group_name_H-M "P B A N"
_symmetry_group_IT_number 50
_space_group.IT_coordinate_system_code '2'
_symmetry_cell_setting 'orthorhombic'
loop_
_space_group_symop_operation_xyz
x,y,z
1/2-x,1/2-y,z
x,1/2-y,-z
1/2-x,y,-z
-x,-y,-z
1/2+x,1/2+y,-z
-x,1/2+y,z
1/2+x,-y,z
loop_
_atom_site_type_symbol
_atom_site_label
_atom_site_fract_x
_atom_site_fract_y
_atom_site_fract_z
Si Si1 0.774650 0.121917 0.757076
Si Si2 0.899751 0.416596 0.148258
Si Si3 0.912763 0.682029 0.250821
Si Si4 0.031175 0.888073 0.621598
O O1 0.750000 0.250000 0.753524
O O2 0.750000 0.068068 0.500000
O O3 0.838935 0.130603 0.809894
O O4 0.750000 0.057753 0.000000
O O5 0.896168 0.550179 0.225742
O O6 0.935947 0.353127 0.364907
O O7 0.927909 0.409366 0.865017
O O8 0.892703 0.750000 0.500000
O O9 0.979195 0.680259 0.270449
O O10 0.895949 0.750000 0.000000
O O11 0.000000 0.000000 0.500000
#
# Coordination Sequence:
#
# PCOD9396349 Si02
#       4
#     8   8   8   8
#     4  10  22  42  61  87 118 149 213 267 307 372
#     4  11  21  39  64  81 122 175 195 255 332 354
#     4  11  21  36  55  90 125 154 204 251 292 384
#     4  10  20  37  57  87 122 164 207 239 306 386
#
# _framework density 21.529719
#
# number of rings (size 3 to 8) (size 9 to 14) (size 15 to 20)
#    0.000    1.500    0.000    9.000    0.000    0.000 
#   27.000    0.000    0.000    4.500    0.000    0.000 
#    0.000    0.000    0.000    0.000    0.000    0.000 
#
# Total GULP energy -178470.195853 kJ/mol
# GULP energy per Si atom -5577.193620 kJ/mol
# Density = 2.148072 g / cm^3
# Si number density = 21.529719 Si / 1000 Ang^3
#
#
#
# Elastic Constant Matrix: (Units=GPa)
#
#
# Indices 1 2 3 4 5 6 
#
# 1 134.6108 5.8890 36.9082 0.0000 0.0000 0.0000
# 2 5.8890 89.4057 22.3875 0.0000 0.0000 0.0000
# 3 36.9082 22.3875 212.5074 0.0000 0.0000 0.0000
# 4 0.0000 0.0000 0.0000 31.6242 0.0000 0.0000
# 5 0.0000 0.0000 0.0000 0.0000 28.1203 0.0000
# 6 0.0000 0.0000 0.0000 0.0000 0.0000 3681.8498
#
#
#
# Elastic Compliance Matrix: (Units=1/GPa)
#
#
# Indices 1 2 3 4 5 6 
#
# 1 0.007803 -0.000179 -0.001336 0.000000 0.000000 0.000000
# 2 -0.000179 0.011492 -0.001180 0.000000 0.000000 0.000000
# 3 -0.001336 -0.001180 0.005062 0.000000 0.000000 0.000000
# 4 0.000000 0.000000 0.000000 0.031621 0.000000 0.000000
# 5 0.000000 0.000000 0.000000 0.000000 0.035562 0.000000
# 6 0.000000 0.000000 0.000000 0.000000 0.000000 0.000272
#
#
# Mechanical properties :
#
#
# Convention : Reuss Voigt Hill
#
# Bulk Modulus (GPa) = 52.72360 62.98814 57.85587
# Shear Modulus (GPa) = 48.29775 773.07481 410.68628
#
# Velocity S-wave (km/s) = 4.74149 18.96979 13.82633
# Velocity P-wave (km/s) = 7.38360 22.56377 16.78751
#
# Compressibility (1/GPa) = 0.01896684
#
# Stress axis : x y z
#
# Youngs Moduli (GPa) = 128.15461 87.01595 197.54731
#
# Poissons Ratio (x) = 0.01561 0.26399
# Poissons Ratio (y) = 0.02298 0.23302
# Poissons Ratio (z) = 0.17126 0.10264
#
# Static dielectric constant tensor:
#      x y z
#    x 1.874530 0.000000 0.000000 
#    y 0.000000 1.905710 0.000000 
#    z 0.000000 0.000000 1.812570 
# 
# From -- ./inp_files/5741.got.cif
#   From: 2010.05.17/outbox.cif.g08.bks.cpg/sg50_3_cif.got.tgz:5741.got - 2010.06.03 11:33:33.
