data_PCOD9396634
_publ_section_title
;
Structure prediction by ZEFSAII (Michael W. Deem and Ramdas Pophale) SiO2 
 PCOD9396634
Probable space group: P B A N
;
_chemical_formula_sum "Si O2"
_cell_formula_units_Z 40
_cell_length_a 24.402707
_cell_length_b 10.352703
_cell_length_c 8.893933
_cell_angle_alpha 90.000000
_cell_angle_beta 90.000000
_cell_angle_gamma 90.000000
_cell_volume 2246.909674
_symmetry_space_group_name_H-M "P B A N"
_symmetry_group_IT_number 50
_space_group.IT_coordinate_system_code '2'
_symmetry_cell_setting 'orthorhombic'
loop_
_space_group_symop_operation_xyz
x,y,z
1/2-x,1/2-y,z
x,1/2-y,-z
1/2-x,y,-z
-x,-y,-z
1/2+x,1/2+y,-z
-x,1/2+y,z
1/2+x,-y,z
loop_
_atom_site_type_symbol
_atom_site_label
_atom_site_fract_x
_atom_site_fract_y
_atom_site_fract_z
Si Si1 0.894339 0.738324 0.171513
Si Si2 0.892747 0.482953 0.682785
Si Si3 0.110838 0.520849 0.677381
Si Si4 0.007261 0.059113 0.165411
Si Si5 0.187592 0.756979 0.683048
O O1 0.868399 0.616985 0.259075
O O2 0.958428 0.693022 0.164195
O O3 0.886718 0.872470 0.255284
O O4 0.875248 0.750000 0.000000
O O5 0.894062 0.483391 0.502122
O O6 0.843470 0.387819 0.727775
O O7 0.949731 0.431167 0.751101
O O8 0.049801 0.533001 0.745120
O O9 0.150342 0.635421 0.728145
O O10 0.000000 0.000000 0.000000
O O11 0.250000 0.750000 0.736804
O O12 0.188940 0.750000 0.500000
#
# Coordination Sequence:
#
# PCOD9396634 Si02
#       5
#     8   8   8   8   8
#     4  10  21  35  54  80 116 155 189 230 293 347
#     4  11  19  36  59  87 115 152 195 249 285 356
#     4   9  21  35  58  86 117 147 201 240 294 350
#     4  10  21  33  54  80 124 157 187 226 303 349
#     4   9  20  39  62  87 116 152 195 247 301 350
#
# _framework density 17.802227999999999
#
# number of rings (size 3 to 8) (size 9 to 14) (size 15 to 20)
#    1.200    1.000    2.000    1.200    2.800    0.000 
#    3.600    4.000    0.000   15.600    0.000    0.000 
#    0.000    0.000    0.000    0.000    0.000    0.000 
#
# Total GULP energy -222773.890488 kJ/mol
# GULP energy per Si atom -5569.347262 kJ/mol
# Density = 1.776171 g / cm^3
# Si number density = 17.802228 Si / 1000 Ang^3
#
#
#
# Elastic Constant Matrix: (Units=GPa)
#
#
# Indices 1 2 3 4 5 6 
#
# 1 121.8186 65.0957 38.2671 0.0000 0.0000 0.0000
# 2 65.0957 140.6452 43.1408 0.0000 0.0000 0.0000
# 3 38.2671 43.1408 89.7402 0.0000 0.0000 0.0000
# 4 0.0000 0.0000 0.0000 18.5382 0.0000 0.0000
# 5 0.0000 0.0000 0.0000 0.0000 -3.2623 0.0000
# 6 0.0000 0.0000 0.0000 0.0000 0.0000 27.1413
#
#
#
# Elastic Compliance Matrix: (Units=1/GPa)
#
#
# Indices 1 2 3 4 5 6 
#
# 1 0.011453 -0.004461 -0.002739 0.000000 0.000000 0.000000
# 2 -0.004461 0.010077 -0.002942 0.000000 0.000000 0.000000
# 3 -0.002739 -0.002942 0.013726 0.000000 0.000000 0.000000
# 4 0.000000 0.000000 0.000000 0.053943 0.000000 0.000000
# 5 0.000000 0.000000 0.000000 0.000000 -0.306530 0.000000
# 6 0.000000 0.000000 0.000000 0.000000 0.000000 0.036844
#
#
# Mechanical properties :
#
#
# Convention : Reuss Voigt Hill
#
# Bulk Modulus (GPa) = 66.79422 71.69012 69.24217
# Shear Modulus (GPa) = -32.21397 22.19680 -5.00859
#
# Velocity S-wave (km/s) = -4.25849 3.53491 -1.67916
# Velocity P-wave (km/s) = 3.66359 7.55106 5.93466
#
# Compressibility (1/GPa) = 0.01497136
#
# Stress axis : x y z
#
# Youngs Moduli (GPa) = 87.31275 99.23469 72.85503
#
# Poissons Ratio (x) = 0.44265 0.19959
# Poissons Ratio (y) = 0.38947 0.21436
# Poissons Ratio (z) = 0.23919 0.29198
#
# Static dielectric constant tensor:
#      x y z
#    x 1.594390 0.000000 0.000000 
#    y 0.000000 1.620910 0.000000 
#    z 0.000000 0.000000 1.603090 
# 
# From -- ./inp_files/13908.got.cif
#   From: 2010.05.17/outbox.cif.g08.bks.cpg/sg50_7_cif.got.tgz:13908.got - 2010.06.03 11:33:33.
