data_PCOD9396130
_publ_section_title
;
Structure prediction by ZEFSAII (Michael W. Deem and Ramdas Pophale) SiO2 
 PCOD9396130
Probable space group: P B A N
;
_chemical_formula_sum "Si O2"
_cell_formula_units_Z 64
_cell_length_a 7.949523
_cell_length_b 18.860964
_cell_length_c 18.798940
_cell_angle_alpha 90.000000
_cell_angle_beta 90.000000
_cell_angle_gamma 90.000000
_cell_volume 2818.631610
_symmetry_space_group_name_H-M "P B A N"
_symmetry_group_IT_number 50
_space_group.IT_coordinate_system_code '2'
_symmetry_cell_setting 'orthorhombic'
loop_
_space_group_symop_operation_xyz
x,y,z
1/2-x,1/2-y,z
x,1/2-y,-z
1/2-x,y,-z
-x,-y,-z
1/2+x,1/2+y,-z
-x,1/2+y,z
1/2+x,-y,z
loop_
_atom_site_type_symbol
_atom_site_label
_atom_site_fract_x
_atom_site_fract_y
_atom_site_fract_z
Si Si1 0.969723 0.525344 0.273321
Si Si2 0.441432 0.420478 0.517676
Si Si3 0.546458 0.245844 0.261045
Si Si4 0.704282 0.422900 0.081205
Si Si5 0.573593 0.933908 0.855940
Si Si6 0.577502 0.388328 0.664968
Si Si7 0.930427 0.354175 0.618097
Si Si8 0.604243 0.645889 0.841461
O O1 0.855383 0.462244 0.304095
O O2 0.914492 0.585254 0.218843
O O3 0.081764 0.474686 0.220879
O O4 0.017694 0.572876 0.341672
O O5 0.250000 0.415729 0.500000
O O6 0.500000 0.500000 0.500000
O O7 0.456080 0.406150 0.601074
O O8 0.530179 0.364975 0.464363
O O9 0.750000 0.250000 0.247269
O O10 0.506151 0.164298 0.276114
O O11 0.501753 0.289892 0.333289
O O12 0.443947 0.281508 0.197628
O O13 0.636131 0.503130 0.091616
O O14 0.549714 0.373079 0.105749
O O15 0.877797 0.416031 0.127164
O O16 0.750000 0.409705 0.000000
O O17 0.706292 0.869973 0.866942
O O18 0.731537 0.348241 0.628672
#
# Coordination Sequence:
#
# PCOD9396130 Si02
#       8
#     8   8   8   8   8   8   8   8
#     4  10  20  33  62  93 124 162 221 278 333 387
#     4  12  25  40  59  91 126 165 213 277 337 402
#     4   9  22  41  67  90 123 176 216 275 338 401
#     4  11  22  36  62 102 144 181 224 282 344 407
#     4  11  21  34  60  97 139 185 221 280 346 405
#     4  11  22  39  67  89 123 170 216 271 333 404
#     4  10  21  39  62  88 123 163 216 267 333 401
#     4  10  22  40  62  95 136 173 225 283 334 402
#
# _framework density 22.706053000000001
#
# number of rings (size 3 to 8) (size 9 to 14) (size 15 to 20)
#    0.000    1.500    3.750    2.250    5.250    2.500 
#    0.000    5.000    0.000    0.375    0.000    0.000 
#    3.750    0.000    0.000    0.000    0.000    0.000 
#
# Total GULP energy -357069.449049 kJ/mol
# GULP energy per Si atom -5579.210141 kJ/mol
# Density = 2.265437 g / cm^3
# Si number density = 22.706053 Si / 1000 Ang^3
#
#
#
# Elastic Constant Matrix: (Units=GPa)
#
#
# Indices 1 2 3 4 5 6 
#
# 1 73.7671 10.3085 7.4455 0.0000 0.0000 0.0000
# 2 10.3085 97.6485 10.3444 0.0000 0.0000 0.0000
# 3 7.4455 10.3444 67.8591 0.0000 0.0000 0.0000
# 4 0.0000 0.0000 0.0000 17.0153 0.0000 0.0000
# 5 0.0000 0.0000 0.0000 0.0000 20.0552 0.0000
# 6 0.0000 0.0000 0.0000 0.0000 0.0000 24.6928
#
#
#
# Elastic Compliance Matrix: (Units=1/GPa)
#
#
# Indices 1 2 3 4 5 6 
#
# 1 0.013875 -0.001325 -0.001320 0.000000 0.000000 0.000000
# 2 -0.001325 0.010535 -0.001461 0.000000 0.000000 0.000000
# 3 -0.001320 -0.001461 0.015104 0.000000 0.000000 0.000000
# 4 0.000000 0.000000 0.000000 0.058771 0.000000 0.000000
# 5 0.000000 0.000000 0.000000 0.000000 0.049862 0.000000
# 6 0.000000 0.000000 0.000000 0.000000 0.000000 0.040498
#
#
# Mechanical properties :
#
#
# Convention : Reuss Voigt Hill
#
# Bulk Modulus (GPa) = 31.94659 32.83017 32.38838
# Shear Modulus (GPa) = 24.12078 26.43110 25.27594
#
# Velocity S-wave (km/s) = 3.26284 3.41553 3.34006
# Velocity P-wave (km/s) = 5.31931 5.48129 5.40091
#
# Compressibility (1/GPa) = 0.03130225
#
# Stress axis : x y z
#
# Youngs Moduli (GPa) = 72.07427 94.91805 66.20789
#
# Poissons Ratio (x) = 0.12575 0.08742
# Poissons Ratio (y) = 0.09549 0.09671
# Poissons Ratio (z) = 0.09516 0.13864
#
# Static dielectric constant tensor:
#      x y z
#    x 1.851500 0.000000 0.000000 
#    y 0.000000 1.844550 0.000000 
#    z 0.000000 0.000000 1.751320 
# 
# From -- ./inp_files/28974.got.cif
#   From: 2010.05.17/outbox.cif.g08.bks.cpg/sg50_15_cif.got.tgz:28974.got - 2010.06.03 11:33:33.
