data_PCOD9396589
_publ_section_title
;
Structure prediction by ZEFSAII (Michael W. Deem and Ramdas Pophale) SiO2 
 PCOD9396589
Probable space group: P B A N
;
_chemical_formula_sum "Si O2"
_cell_formula_units_Z 38
_cell_length_a 7.626572
_cell_length_b 21.256098
_cell_length_c 9.833487
_cell_angle_alpha 90.000000
_cell_angle_beta 90.000000
_cell_angle_gamma 90.000000
_cell_volume 1594.118002
_symmetry_space_group_name_H-M "P B A N"
_symmetry_group_IT_number 50
_space_group.IT_coordinate_system_code '2'
_symmetry_cell_setting 'orthorhombic'
loop_
_space_group_symop_operation_xyz
x,y,z
1/2-x,1/2-y,z
x,1/2-y,-z
1/2-x,y,-z
-x,-y,-z
1/2+x,1/2+y,-z
-x,1/2+y,z
1/2+x,-y,z
loop_
_atom_site_type_symbol
_atom_site_label
_atom_site_fract_x
_atom_site_fract_y
_atom_site_fract_z
Si Si1 0.631833 0.936615 0.723338
Si Si2 0.460036 0.919517 0.240932
Si Si3 0.750000 0.250000 0.000000
Si Si4 0.042568 0.346632 0.032261
Si Si5 0.750000 0.750000 0.500000
Si Si6 0.750000 0.250000 0.500000
Si Si7 0.987915 0.350987 0.509825
O O1 0.837566 0.925478 0.717132
O O2 0.555732 0.896870 0.847761
O O3 0.552746 0.906899 0.586109
O O4 0.609540 0.009897 0.756930
O O5 0.381663 0.881137 0.366473
O O6 0.463529 0.881829 0.100520
O O7 0.603383 0.294630 0.928067
O O8 0.250000 0.327705 0.000000
O O9 0.867336 0.697410 0.423497
O O10 0.620085 0.201745 0.426552
#
# Coordination Sequence:
#
# PCOD9396589 Si02
#       7
#     8   8   2   8   2   2   8
#     4  11  24  43  69  96 132 170 220 274 329 392
#     4  11  24  43  69  96 132 170 220 274 329 392
#     4  12  26  46  76  96 140 174 226 276 328 412
#     4  10  26  46  67 104 134 176 219 274 339 395
#     4  10  20  42  58  84 124 170 204 254 328 370
#     4  10  28  40  66  96 140 168 224 266 328 412
#     4  11  23  42  65  96 126 176 216 271 326 390
#
# _framework density 23.837631999999999
#
# number of rings (size 3 to 8) (size 9 to 14) (size 15 to 20)
#    0.000    1.263    2.105    1.579    5.895    5.053 
#    0.000    0.000    0.000    0.000    0.000    0.000 
#    0.000    0.000    0.000    0.000    0.000    0.000 
#
# Total GULP energy -211640.259524 kJ/mol
# GULP energy per Si atom -5569.480514 kJ/mol
# Density = 2.378338 g / cm^3
# Si number density = 23.837632 Si / 1000 Ang^3
#
#
#
# Elastic Constant Matrix: (Units=GPa)
#
#
# Indices 1 2 3 4 5 6 
#
# 1 66.5680 47.5071 9.4115 0.0000 0.0000 0.0000
# 2 47.5071 135.9325 25.0775 0.0000 0.0000 0.0000
# 3 9.4115 25.0775 110.5943 0.0000 0.0000 0.0000
# 4 0.0000 0.0000 0.0000 14.1135 0.0000 0.0000
# 5 0.0000 0.0000 0.0000 0.0000 -25.2501 0.0000
# 6 0.0000 0.0000 0.0000 0.0000 0.0000 45.8898
#
#
#
# Elastic Compliance Matrix: (Units=1/GPa)
#
#
# Indices 1 2 3 4 5 6 
#
# 1 0.020016 -0.006973 -0.000122 0.000000 0.000000 0.000000
# 2 -0.006973 0.010107 -0.001698 0.000000 0.000000 0.000000
# 3 -0.000122 -0.001698 0.009438 0.000000 0.000000 0.000000
# 4 0.000000 0.000000 0.000000 0.070854 0.000000 0.000000
# 5 0.000000 0.000000 0.000000 0.000000 -0.039604 0.000000
# 6 0.000000 0.000000 0.000000 0.000000 0.000000 0.021791
#
#
# Mechanical properties :
#
#
# Convention : Reuss Voigt Hill
#
# Bulk Modulus (GPa) = 45.50957 53.00966 49.25962
# Shear Modulus (GPa) = 42.54852 22.35722 32.45287
#
# Velocity S-wave (km/s) = 4.22943 3.06583 3.69374
# Velocity P-wave (km/s) = 6.55619 5.90072 6.23707
#
# Compressibility (1/GPa) = 0.02197340
#
# Stress axis : x y z
#
# Youngs Moduli (GPa) = 49.96077 98.94303 105.95948
#
# Poissons Ratio (x) = 0.68990 0.01295
# Poissons Ratio (y) = 0.34836 0.17996
# Poissons Ratio (z) = 0.00611 0.16804
#
# Static dielectric constant tensor:
#      x y z
#    x 1.684650 0.000000 0.000000 
#    y 0.000000 2.134800 0.000000 
#    z 0.000000 0.000000 1.913990 
# 
# From -- ./inp_files/18823.got.cif
#   From: 2010.05.17/outbox.cif.g08.bks.cpg/sg50_10_cif.got.tgz:18823.got - 2010.06.03 11:33:33.
