data_PCOD9396457
_publ_section_title
;
Structure prediction by ZEFSAII (Michael W. Deem and Ramdas Pophale) SiO2 
 PCOD9396457
Probable space group: P B A N
;
_chemical_formula_sum "Si O2"
_cell_formula_units_Z 64
_cell_length_a 24.099952
_cell_length_b 16.164954
_cell_length_c 7.803207
_cell_angle_alpha 90.000000
_cell_angle_beta 90.000000
_cell_angle_gamma 90.000000
_cell_volume 3039.931367
_symmetry_space_group_name_H-M "P B A N"
_symmetry_group_IT_number 50
_space_group.IT_coordinate_system_code '2'
_symmetry_cell_setting 'orthorhombic'
loop_
_space_group_symop_operation_xyz
x,y,z
1/2-x,1/2-y,z
x,1/2-y,-z
1/2-x,y,-z
-x,-y,-z
1/2+x,1/2+y,-z
-x,1/2+y,z
1/2+x,-y,z
loop_
_atom_site_type_symbol
_atom_site_label
_atom_site_fract_x
_atom_site_fract_y
_atom_site_fract_z
Si Si1 0.250000 0.846605 0.294080
Si Si2 0.130323 0.406496 0.207927
Si Si3 0.129409 0.911026 0.203986
Si Si4 0.930746 0.250000 0.800606
Si Si5 0.555105 0.750000 0.301402
Si Si6 0.630323 0.593504 0.792072
Si Si7 0.750000 0.845802 0.208860
Si Si8 0.129409 0.911026 0.796015
O O1 0.250000 0.750000 0.237770
O O2 0.250000 0.847533 0.500000
O O3 0.194267 0.891029 0.230896
O O4 0.305733 0.891029 0.230896
O O5 0.090978 0.331455 0.260999
O O6 0.193201 0.387875 0.266019
O O7 0.114431 0.497921 0.270908
O O8 0.130655 0.406920 1.000000
O O9 0.094896 0.833738 0.276590
O O10 0.114431 0.002079 0.270908
O O11 0.118973 0.914779 0.000000
O O12 0.905104 0.333738 0.723410
O O13 0.996761 0.250000 0.794884
O O14 0.912830 0.250000 0.000000
O O15 0.541065 0.750000 0.500000
O O16 0.590978 0.831455 0.260999
O O17 0.693201 0.612125 0.733981
O O18 0.750000 0.750000 0.260959
O O19 0.750000 0.847481 0.000000
#
# Coordination Sequence:
#
# PCOD9396457 Si02
#       8
#     8   8   8   8   8   8   8   8
#     4  11  22  35  57  90 130 168 192 227 293 360
#     4  10  20  38  63  89 117 151 195 245 294 347
#     4  10  21  38  64  91 116 153 202 252 294 338
#     4  10  22  41  62  85 113 150 202 256 297 340
#     4  12  26  41  58  83 117 158 196 240 301 364
#     4  10  20  38  63  89 117 151 195 245 294 347
#     4   9  15  28  56  87 112 144 180 224 285 343
#     4  10  21  38  64  91 116 153 202 252 294 338
#
# _framework density 21.053106
#
# number of rings (size 3 to 8) (size 9 to 14) (size 15 to 20)
#    0.000    1.750    2.500    2.250    0.000    5.500 
#    0.000    6.250    0.000    0.000    0.000    0.000 
#    0.000    0.000    0.000    0.000    0.000    0.000 
#
# Total GULP energy -357583.274127 kJ/mol
# GULP energy per Si atom -5587.238658 kJ/mol
# Density = 2.100519 g / cm^3
# Si number density = 21.053106 Si / 1000 Ang^3
#
#
#
# Elastic Constant Matrix: (Units=GPa)
#
#
# Indices 1 2 3 4 5 6 
#
# 1 101.8226 67.9593 -20.7723 0.0000 0.0000 0.0000
# 2 67.9593 218.8609 6.8195 0.0000 0.0000 0.0000
# 3 -20.7723 6.8195 26.9420 0.0000 0.0000 0.0000
# 4 0.0000 0.0000 0.0000 3.5411 0.0000 0.0000
# 5 0.0000 0.0000 0.0000 0.0000 -140.1325 0.0000
# 6 0.0000 0.0000 0.0000 0.0000 0.0000 -15.6139
#
#
#
# Elastic Compliance Matrix: (Units=1/GPa)
#
#
# Indices 1 2 3 4 5 6 
#
# 1 0.016362 -0.005517 0.014011 0.000000 0.000000 0.000000
# 2 -0.005517 0.006466 -0.005890 0.000000 0.000000 0.000000
# 3 0.014011 -0.005890 0.049410 0.000000 0.000000 0.000000
# 4 0.000000 0.000000 0.000000 0.282395 0.000000 0.000000
# 5 0.000000 0.000000 0.000000 0.000000 -0.007136 0.000000
# 6 0.000000 0.000000 0.000000 0.000000 0.000000 -0.064046
#
#
# Mechanical properties :
#
#
# Convention : Reuss Voigt Hill
#
# Bulk Modulus (GPa) = 12.91227 50.62651 31.76939
# Shear Modulus (GPa) = 16.44422 -10.86644 2.78889
#
# Velocity S-wave (km/s) = 2.79782 -2.27435 1.15220
# Velocity P-wave (km/s) = 4.07229 4.14758 4.11011
#
# Compressibility (1/GPa) = 0.07744569
#
# Stress axis : x y z
#
# Youngs Moduli (GPa) = 61.11850 154.66032 20.23866
#
# Poissons Ratio (x) = 0.85328 -0.28357
# Poissons Ratio (y) = 0.33720 0.11921
# Poissons Ratio (z) = -0.85635 0.91099
#
# Static dielectric constant tensor:
#      x y z
#    x 1.704560 0.000000 0.000000 
#    y 0.000000 1.780900 0.000000 
#    z 0.000000 0.000000 1.747090 
# 
# From -- ./inp_files/16127.got.cif
#   From: 2010.05.17/outbox.cif.g08.bks.cpg/sg50_9_cif.got.tgz:16127.got - 2010.06.03 11:33:33.
