data_PCOD9396581
_publ_section_title
;
Structure prediction by ZEFSAII (Michael W. Deem and Ramdas Pophale) SiO2 
 PCOD9396581
Probable space group: P B A N
;
_chemical_formula_sum "Si O2"
_cell_formula_units_Z 38
_cell_length_a 18.136231
_cell_length_b 12.522912
_cell_length_c 8.467921
_cell_angle_alpha 90.000000
_cell_angle_beta 90.000000
_cell_angle_gamma 90.000000
_cell_volume 1923.220879
_symmetry_space_group_name_H-M "P B A N"
_symmetry_group_IT_number 50
_space_group.IT_coordinate_system_code '2'
_symmetry_cell_setting 'orthorhombic'
loop_
_space_group_symop_operation_xyz
x,y,z
1/2-x,1/2-y,z
x,1/2-y,-z
1/2-x,y,-z
-x,-y,-z
1/2+x,1/2+y,-z
-x,1/2+y,z
1/2+x,-y,z
loop_
_atom_site_type_symbol
_atom_site_label
_atom_site_fract_x
_atom_site_fract_y
_atom_site_fract_z
Si Si1 0.750000 0.250000 0.500000
Si Si2 0.103089 0.070535 0.137368
Si Si3 0.338882 0.372180 0.482374
Si Si4 0.250000 0.026899 0.000000
Si Si5 0.830953 0.070589 0.291659
Si Si6 0.053932 0.865738 0.958299
O O1 0.799319 0.167953 0.395717
O O2 0.128107 0.087877 0.316355
O O3 0.176614 0.092706 0.036388
O O4 0.032720 0.135849 0.078511
O O5 0.077092 0.949984 0.093438
O O6 0.366359 0.250000 0.500000
O O7 0.250000 0.365439 0.500000
O O8 0.352544 0.465218 0.609402
O O9 0.270252 0.958750 0.156248
O O10 0.904232 0.100260 0.198743
O O11 0.081810 0.750000 0.000000
#
# Coordination Sequence:
#
# PCOD9396581 Si02
#       6
#     2   8   8   4   8   8
#     4  12  24  38  66 100 136 170 234 274 340 414
#     4  10  22  44  65  92 134 173 226 274 336 410
#     4  11  23  43  64  98 135 171 227 284 335 403
#     4  10  20  41  69  92 128 172 229 281 322 402
#     4  11  24  40  66 101 130 182 220 280 341 396
#     4  10  25  43  66  98 137 178 222 279 341 411
#
# _framework density 19.758520000000001
#
# number of rings (size 3 to 8) (size 9 to 14) (size 15 to 20)
#    0.000    1.474    3.158    0.000    8.842    5.895 
#    1.895    1.053    0.000    0.000    0.000    0.000 
#    0.000    0.000    0.000    0.000    0.000    0.000 
#
# Total GULP energy -211827.453729 kJ/mol
# GULP energy per Si atom -5574.406677 kJ/mol
# Density = 1.971355 g / cm^3
# Si number density = 19.758520 Si / 1000 Ang^3
#
#
#
# Elastic Constant Matrix: (Units=GPa)
#
#
# Indices 1 2 3 4 5 6 
#
# 1 121.7580 29.4463 47.1331 0.0000 0.0000 0.0000
# 2 29.4463 144.6579 88.5248 0.0000 0.0000 0.0000
# 3 47.1331 88.5248 144.5191 0.0000 0.0000 0.0000
# 4 0.0000 0.0000 0.0000 -6.0626 0.0000 0.0000
# 5 0.0000 0.0000 0.0000 0.0000 17.7421 0.0000
# 6 0.0000 0.0000 0.0000 0.0000 0.0000 -489.3004
#
#
#
# Elastic Compliance Matrix: (Units=1/GPa)
#
#
# Indices 1 2 3 4 5 6 
#
# 1 0.009400 -0.000060 -0.003029 0.000000 0.000000 0.000000
# 2 -0.000060 0.011058 -0.006754 0.000000 0.000000 0.000000
# 3 -0.003029 -0.006754 0.012045 0.000000 0.000000 0.000000
# 4 0.000000 0.000000 0.000000 -0.164947 0.000000 0.000000
# 5 0.000000 0.000000 0.000000 0.000000 0.056363 0.000000
# 6 0.000000 0.000000 0.000000 0.000000 0.000000 -0.002044
#
#
# Mechanical properties :
#
#
# Convention : Reuss Voigt Hill
#
# Bulk Modulus (GPa) = 78.02233 82.34924 80.18579
# Shear Modulus (GPa) = -92.31005 -79.13545 -85.72275
#
# Velocity S-wave (km/s) = -6.84255 -6.33548 -6.59389
# Velocity P-wave (km/s) = 4.78056 3.42773 4.15951
#
# Compressibility (1/GPa) = 0.01281684
#
# Stress axis : x y z
#
# Youngs Moduli (GPa) = 106.38248 90.42919 83.02393
#
# Poissons Ratio (x) = 0.00541 0.25149
# Poissons Ratio (y) = 0.00636 0.56077
# Poissons Ratio (z) = 0.32224 0.61078
#
# Static dielectric constant tensor:
#      x y z
#    x 2.108180 0.000000 0.000000 
#    y 0.000000 1.754040 0.000000 
#    z 0.000000 0.000000 1.696790 
# 
# From -- ./inp_files/11103.got.cif
#   From: 2010.05.17/outbox.cif.g08.bks.cpg/sg50_6_cif.got.tgz:11103.got - 2010.06.03 11:33:33.
