data_PCOD9396127
_publ_section_title
;
Structure prediction by ZEFSAII (Michael W. Deem and Ramdas Pophale) SiO2 
 PCOD9396127
Probable space group: P B A N
;
_chemical_formula_sum "Si O2"
_cell_formula_units_Z 40
_cell_length_a 14.127234
_cell_length_b 7.229893
_cell_length_c 15.339159
_cell_angle_alpha 90.000000
_cell_angle_beta 90.000000
_cell_angle_gamma 90.000000
_cell_volume 1566.717007
_symmetry_space_group_name_H-M "P B A N"
_symmetry_group_IT_number 50
_space_group.IT_coordinate_system_code '2'
_symmetry_cell_setting 'orthorhombic'
loop_
_space_group_symop_operation_xyz
x,y,z
1/2-x,1/2-y,z
x,1/2-y,-z
1/2-x,y,-z
-x,-y,-z
1/2+x,1/2+y,-z
-x,1/2+y,z
1/2+x,-y,z
loop_
_atom_site_type_symbol
_atom_site_label
_atom_site_fract_x
_atom_site_fract_y
_atom_site_fract_z
Si Si1 0.140229 0.969335 0.509470
Si Si2 0.423858 0.793276 0.817828
Si Si3 0.077074 0.101150 0.061644
Si Si4 0.376847 0.438453 0.322529
Si Si5 0.341202 0.022713 0.296589
O O1 0.135140 0.750000 0.500000
O O2 0.250000 0.029854 0.500000
O O3 0.095050 0.064630 0.424458
O O4 0.111169 0.999507 0.608555
O O5 0.514302 0.716612 0.869230
O O6 0.371350 0.615794 0.779152
O O7 0.372630 0.935500 0.885393
O O8 0.441034 0.924224 0.733785
O O9 0.129245 0.250000 0.000000
O O10 0.000000 0.000000 0.000000
O O11 0.361233 0.238051 0.280490
O O12 0.269904 0.518269 0.315111
#
# Coordination Sequence:
#
# PCOD9396127 Si02
#       5
#     8   8   8   8   8
#     4   9  15  29  51  82 128 169 202 224 265 329
#     4  11  21  37  64  88 113 142 198 256 291 344
#     4   9  22  42  63  84  99 141 196 248 304 356
#     4  10  20  33  57  93 127 162 194 234 283 343
#     4  10  20  33  57  93 127 163 193 233 286 339
#
# _framework density 25.531092999999998
#
# number of rings (size 3 to 8) (size 9 to 14) (size 15 to 20)
#    0.000    2.200    2.000    1.200    5.600    2.400 
#    0.000    0.000    0.000   26.400    0.000    0.000 
#    0.000    0.000    0.000    0.000    0.000    0.000 
#
# Total GULP energy -223489.822877 kJ/mol
# GULP energy per Si atom -5587.245572 kJ/mol
# Density = 2.547298 g / cm^3
# Si number density = 25.531093 Si / 1000 Ang^3
#
#
#
# Elastic Constant Matrix: (Units=GPa)
#
#
# Indices 1 2 3 4 5 6 
#
# 1 79.1032 15.5869 34.5659 0.0000 0.0000 0.0000
# 2 15.5869 155.0650 61.9187 0.0000 0.0000 0.0000
# 3 34.5659 61.9187 164.8587 0.0000 0.0000 0.0000
# 4 0.0000 0.0000 0.0000 81.8075 0.0000 0.0000
# 5 0.0000 0.0000 0.0000 0.0000 164.3780 0.0000
# 6 0.0000 0.0000 0.0000 0.0000 0.0000 23.0613
#
#
#
# Elastic Compliance Matrix: (Units=1/GPa)
#
#
# Indices 1 2 3 4 5 6 
#
# 1 0.013927 -0.000275 -0.002817 0.000000 0.000000 0.000000
# 2 -0.000275 0.007592 -0.002794 0.000000 0.000000 0.000000
# 3 -0.002817 -0.002794 0.007706 0.000000 0.000000 0.000000
# 4 0.000000 0.000000 0.000000 0.012224 0.000000 0.000000
# 5 0.000000 0.000000 0.000000 0.000000 0.006084 0.000000
# 6 0.000000 0.000000 0.000000 0.000000 0.000000 0.043363
#
#
# Mechanical properties :
#
#
# Convention : Reuss Voigt Hill
#
# Bulk Modulus (GPa) = 57.29583 69.24110 63.26846
# Shear Modulus (GPa) = 46.08990 72.97974 59.53482
#
# Velocity S-wave (km/s) = 4.25343 5.35226 4.83417
# Velocity P-wave (km/s) = 6.82733 8.08547 7.48289
#
# Compressibility (1/GPa) = 0.01745328
#
# Stress axis : x y z
#
# Youngs Moduli (GPa) = 71.80426 131.71478 129.77423
#
# Poissons Ratio (x) = 0.03624 0.36553
# Poissons Ratio (y) = 0.01976 0.36257
# Poissons Ratio (z) = 0.20225 0.36799
#
# Static dielectric constant tensor:
#      x y z
#    x 2.136600 0.000000 0.000000 
#    y 0.000000 2.032680 0.000000 
#    z 0.000000 0.000000 2.041100 
# 
# From -- ./inp_files/26303.got.cif
#   From: 2010.05.17/outbox.cif.g08.bks.cpg/sg50_14_cif.got.tgz:26303.got - 2010.06.03 11:33:33.
