data_PCOD9396803
_publ_section_title
;
Structure prediction by ZEFSAII (Michael W. Deem and Ramdas Pophale) SiO2 
 PCOD9396803
Probable space group: P B A N
;
_chemical_formula_sum "Si O2"
_cell_formula_units_Z 48
_cell_length_a 5.217034
_cell_length_b 16.373995
_cell_length_c 26.661380
_cell_angle_alpha 90.000000
_cell_angle_beta 90.000000
_cell_angle_gamma 90.000000
_cell_volume 2277.513424
_symmetry_space_group_name_H-M "P B A N"
_symmetry_group_IT_number 50
_space_group.IT_coordinate_system_code '2'
_symmetry_cell_setting 'orthorhombic'
loop_
_space_group_symop_operation_xyz
x,y,z
1/2-x,1/2-y,z
x,1/2-y,-z
1/2-x,y,-z
-x,-y,-z
1/2+x,1/2+y,-z
-x,1/2+y,z
1/2+x,-y,z
loop_
_atom_site_type_symbol
_atom_site_label
_atom_site_fract_x
_atom_site_fract_y
_atom_site_fract_z
Si Si1 0.785937 0.046802 0.060020
Si Si2 0.049764 0.057720 0.207016
Si Si3 0.005731 0.805725 0.710848
Si Si4 0.995678 0.531663 0.443220
Si Si5 0.495425 0.806139 0.120961
Si Si6 0.505720 0.300548 0.405175
O O1 0.890985 0.135436 0.076048
O O2 0.504263 0.017890 0.078152
O O3 0.750000 0.044418 0.000000
O O4 0.029628 0.112453 0.257242
O O5 0.053460 0.127487 0.164082
O O6 0.301294 0.000943 0.203738
O O7 0.750000 0.750000 0.715259
O O8 0.050055 0.827830 0.652373
O O9 0.250000 0.750000 0.726840
O O10 0.259619 0.510969 0.417017
O O11 0.000000 0.500000 0.500000
O O12 0.960346 0.626498 0.442740
O O13 0.750000 0.750000 0.111607
O O14 0.250000 0.750000 0.134893
O O15 0.250000 0.250000 0.403933
O O16 0.750000 0.250000 0.421401
#
# Coordination Sequence:
#
# PCOD9396803 Si02
#       6
#     8   8   8   8   8   8
#     4  10  21  40  63  87 118 156 198 247 300 352
#     4  12  24  39  61  90 122 159 202 244 294 360
#     4  10  21  39  60  86 119 154 194 243 297 353
#     4  10  21  38  56  81 114 148 187 240 295 343
#     4  12  24  40  62  89 124 163 202 250 301 354
#     4  10  21  38  61  85 114 153 196 240 293 358
#
# _framework density 21.075617999999999
#
# number of rings (size 3 to 8) (size 9 to 14) (size 15 to 20)
#    0.000    1.333    0.000    6.000    0.000    1.667 
#    0.000   10.833    0.000    0.000    0.000    0.000 
#    0.000    0.000    0.000    0.000    0.000    0.000 
#
# Total GULP energy -267974.232540 kJ/mol
# GULP energy per Si atom -5582.796511 kJ/mol
# Density = 2.102765 g / cm^3
# Si number density = 21.075618 Si / 1000 Ang^3
#
#
#
# Elastic Constant Matrix: (Units=GPa)
#
#
# Indices 1 2 3 4 5 6 
#
# 1 154.4654 55.2787 22.3369 0.0000 0.0000 0.0000
# 2 55.2787 125.6828 52.0037 0.0000 0.0000 0.0000
# 3 22.3369 52.0037 47.7043 0.0000 0.0000 0.0000
# 4 0.0000 0.0000 0.0000 26.7294 0.0000 0.0000
# 5 0.0000 0.0000 0.0000 0.0000 31.5361 0.0000
# 6 0.0000 0.0000 0.0000 0.0000 0.0000 49.2213
#
#
#
# Elastic Compliance Matrix: (Units=1/GPa)
#
#
# Indices 1 2 3 4 5 6 
#
# 1 0.007684 -0.003445 0.000157 0.000000 0.000000 0.000000
# 2 -0.003445 0.016039 -0.015871 0.000000 0.000000 0.000000
# 3 0.000157 -0.015871 0.038190 0.000000 0.000000 0.000000
# 4 0.000000 0.000000 0.000000 0.037412 0.000000 0.000000
# 5 0.000000 0.000000 0.000000 0.000000 0.031710 0.000000
# 6 0.000000 0.000000 0.000000 0.000000 0.000000 0.020316
#
#
# Mechanical properties :
#
#
# Convention : Reuss Voigt Hill
#
# Bulk Modulus (GPa) = 42.38055 65.23235 53.80645
# Shear Modulus (GPa) = 25.31215 34.71291 30.01253
#
# Velocity S-wave (km/s) = 3.46933 4.06281 3.77774
# Velocity P-wave (km/s) = 6.01671 7.28198 6.67937
#
# Compressibility (1/GPa) = 0.02359573
#
# Stress axis : x y z
#
# Youngs Moduli (GPa) = 130.14139 62.34955 26.18456
#
# Poissons Ratio (x) = 0.21477 -0.00412
# Poissons Ratio (y) = 0.44829 0.41558
# Poissons Ratio (z) = -0.02046 0.98956
#
# Static dielectric constant tensor:
#      x y z
#    x 1.814070 0.000000 0.000000 
#    y 0.000000 1.777670 0.000000 
#    z 0.000000 0.000000 1.783930 
# 
# From -- ./inp_files/32047.got.cif
#   From: 2010.05.17/outbox.cif.g08.bks.cpg/sg50_17_cif.got.tgz:32047.got - 2010.06.03 11:33:33.
