data_PCOD9396260
_publ_section_title
;
Structure prediction by ZEFSAII (Michael W. Deem and Ramdas Pophale) SiO2 
 PCOD9396260
Probable space group: P B A N
;
_chemical_formula_sum "Si O2"
_cell_formula_units_Z 64
_cell_length_a 18.963428
_cell_length_b 16.593313
_cell_length_c 11.614199
_cell_angle_alpha 90.000000
_cell_angle_beta 90.000000
_cell_angle_gamma 90.000000
_cell_volume 3654.594662
_symmetry_space_group_name_H-M "P B A N"
_symmetry_group_IT_number 50
_space_group.IT_coordinate_system_code '2'
_symmetry_cell_setting 'orthorhombic'
loop_
_space_group_symop_operation_xyz
x,y,z
1/2-x,1/2-y,z
x,1/2-y,-z
1/2-x,y,-z
-x,-y,-z
1/2+x,1/2+y,-z
-x,1/2+y,z
1/2+x,-y,z
loop_
_atom_site_type_symbol
_atom_site_label
_atom_site_fract_x
_atom_site_fract_y
_atom_site_fract_z
Si Si1 0.709789 0.829339 0.621219
Si Si2 0.475006 0.028437 0.672772
Si Si3 0.775486 0.488094 0.634989
Si Si4 0.146080 0.580353 0.764817
Si Si5 0.896188 0.392632 0.751662
Si Si6 0.834519 0.343454 0.992978
Si Si7 0.412038 0.772875 0.620178
Si Si8 0.451083 0.127512 0.443314
O O1 0.750000 0.750000 0.675707
O O2 0.750000 0.833634 0.500000
O O3 0.624956 0.834813 0.593684
O O4 0.722627 0.918114 0.672751
O O5 0.527727 0.067266 0.763599
O O6 0.453662 0.094501 0.575188
O O7 0.406251 0.990922 0.729113
O O8 0.520437 0.953621 0.620284
O O9 0.750000 0.482275 0.500000
O O10 0.722352 0.444496 0.720740
O O11 0.849846 0.444419 0.660028
O O12 0.126068 0.657266 0.688583
O O13 0.140366 0.606056 0.896866
O O14 0.858456 0.381721 0.873063
O O15 0.910663 0.305998 0.696712
O O16 0.858902 0.250000 0.000000
O O17 0.750000 0.342193 0.000000
O O18 0.375670 0.750000 0.500000
O O19 0.488782 0.807883 0.587121
#
# Coordination Sequence:
#
# PCOD9396260 Si02
#       8
#     8   8   8   8   8   8   8   8
#     4  10  21  33  55  85 120 163 195 233 290 367
#     4  10  21  36  60  83 116 160 203 246 302 361
#     4  11  22  37  58  89 126 150 199 245 302 369
#     4  11  23  40  59  87 118 163 199 252 304 356
#     4  12  22  38  61  88 114 163 202 247 300 357
#     4  11  23  42  60  82 119 158 203 254 299 358
#     4  11  22  34  58  89 123 154 194 238 307 366
#     4  10  20  36  53  84 129 156 191 244 306 363
#
# _framework density 17.512201999999998
#
# number of rings (size 3 to 8) (size 9 to 14) (size 15 to 20)
#    0.000    1.250    5.000    2.250    3.500    2.000 
#    0.000    1.250    0.000    0.000    0.000    1.750 
#    0.000    0.000    0.000    0.000    0.000    0.000 
#
# Total GULP energy -356517.927192 kJ/mol
# GULP energy per Si atom -5570.592612 kJ/mol
# Density = 1.747234 g / cm^3
# Si number density = 17.512202 Si / 1000 Ang^3
#
#
#
# Elastic Constant Matrix: (Units=GPa)
#
#
# Indices 1 2 3 4 5 6 
#
# 1 68.1357 39.9732 14.5797 0.0000 0.0000 0.0000
# 2 39.9732 98.0402 25.5300 0.0000 0.0000 0.0000
# 3 14.5797 25.5300 93.2202 0.0000 0.0000 0.0000
# 4 0.0000 0.0000 0.0000 81.1978 0.0000 0.0000
# 5 0.0000 0.0000 0.0000 0.0000 36.4267 0.0000
# 6 0.0000 0.0000 0.0000 0.0000 0.0000 8.0002
#
#
#
# Elastic Compliance Matrix: (Units=1/GPa)
#
#
# Indices 1 2 3 4 5 6 
#
# 1 0.019366 -0.007653 -0.000933 0.000000 0.000000 0.000000
# 2 -0.007653 0.014007 -0.002639 0.000000 0.000000 0.000000
# 3 -0.000933 -0.002639 0.011596 0.000000 0.000000 0.000000
# 4 0.000000 0.000000 0.000000 0.012316 0.000000 0.000000
# 5 0.000000 0.000000 0.000000 0.000000 0.027452 0.000000
# 6 0.000000 0.000000 0.000000 0.000000 0.000000 0.124997
#
#
# Mechanical properties :
#
#
# Convention : Reuss Voigt Hill
#
# Bulk Modulus (GPa) = 44.40680 46.61797 45.51238
# Shear Modulus (GPa) = 20.86016 37.07915 28.96966
#
# Velocity S-wave (km/s) = 3.45509 4.60644 4.07167
# Velocity P-wave (km/s) = 6.42881 7.41421 6.93902
#
# Compressibility (1/GPa) = 0.02251908
#
# Stress axis : x y z
#
# Youngs Moduli (GPa) = 51.63686 71.39051 86.23657
#
# Poissons Ratio (x) = 0.54635 0.08045
# Poissons Ratio (y) = 0.39518 0.22760
# Poissons Ratio (z) = 0.04817 0.18842
#
# Static dielectric constant tensor:
#      x y z
#    x 1.640430 0.000000 0.000000 
#    y 0.000000 1.651310 0.000000 
#    z 0.000000 0.000000 1.571550 
# 
# From -- ./inp_files/21961.got.cif
#   From: 2010.05.17/outbox.cif.g08.bks.cpg/sg50_11_cif.got.tgz:21961.got - 2010.06.03 11:33:33.
