data_PCOD9396677
_publ_section_title
;
Structure prediction by ZEFSAII (Michael W. Deem and Ramdas Pophale) SiO2 
 PCOD9396677
Probable space group: P B A N
;
_chemical_formula_sum "Si O2"
_cell_formula_units_Z 48
_cell_length_a 5.266895
_cell_length_b 17.901528
_cell_length_c 25.465948
_cell_angle_alpha 90.000000
_cell_angle_beta 90.000000
_cell_angle_gamma 90.000000
_cell_volume 2401.068833
_symmetry_space_group_name_H-M "P B A N"
_symmetry_group_IT_number 50
_space_group.IT_coordinate_system_code '2'
_symmetry_cell_setting 'orthorhombic'
loop_
_space_group_symop_operation_xyz
x,y,z
1/2-x,1/2-y,z
x,1/2-y,-z
1/2-x,y,-z
-x,-y,-z
1/2+x,1/2+y,-z
-x,1/2+y,z
1/2+x,-y,z
loop_
_atom_site_type_symbol
_atom_site_label
_atom_site_fract_x
_atom_site_fract_y
_atom_site_fract_z
Si Si1 0.755622 0.338626 0.722620
Si Si2 0.998608 0.283615 0.058749
Si Si3 0.592621 0.043805 0.070215
Si Si4 0.743651 0.660766 0.343661
Si Si5 0.752372 0.949704 0.439416
Si Si6 0.395347 0.957774 0.803268
O O1 0.750000 0.250000 0.731715
O O2 0.524607 0.357668 0.683359
O O3 0.697534 0.382900 0.775607
O O4 0.022682 0.357967 0.695246
O O5 0.750000 0.250000 0.085797
O O6 0.979258 0.372450 0.053620
O O7 0.250000 0.250000 0.084878
O O8 0.999757 0.250000 0.000000
O O9 0.602319 0.047536 0.133730
O O10 0.369971 0.986218 0.054289
O O11 0.750000 0.750000 0.352481
O O12 0.768126 0.616036 0.397498
O O13 0.750000 0.923186 0.500000
O O14 0.513521 0.004858 0.431928
O O15 0.679532 0.981821 0.787872
#
# Coordination Sequence:
#
# PCOD9396677 Si02
#       6
#     8   8   8   8   8   8
#     4  10  21  36  53  79 110 141 178 222 271 323
#     4  10  21  39  59  86 117 147 190 236 278 335
#     4  10  21  39  60  84 116 153 190 234 285 336
#     4  10  21  36  54  77 108 142 179 221 270 327
#     4  10  21  36  54  78 105 136 179 226 272 323
#     4  10  21  36  56  82 110 143 185 225 268 328
#
# _framework density 19.991097
#
# number of rings (size 3 to 8) (size 9 to 14) (size 15 to 20)
#    0.000    2.000    0.000    3.000    0.000    5.000 
#    0.000   12.500    0.000    6.000    0.000    0.000 
#    0.000    0.000    0.000    0.000    0.000    0.000 
#
# Total GULP energy -268127.647996 kJ/mol
# GULP energy per Si atom -5585.992667 kJ/mol
# Density = 1.994560 g / cm^3
# Si number density = 19.991097 Si / 1000 Ang^3
#
#
#
# Elastic Constant Matrix: (Units=GPa)
#
#
# Indices 1 2 3 4 5 6 
#
# 1 149.9388 43.9681 27.2625 0.0000 0.0000 0.0000
# 2 43.9681 87.3426 35.1371 0.0000 0.0000 0.0000
# 3 27.2625 35.1371 66.2144 0.0000 0.0000 0.0000
# 4 0.0000 0.0000 0.0000 -23.1977 0.0000 0.0000
# 5 0.0000 0.0000 0.0000 0.0000 7.5029 0.0000
# 6 0.0000 0.0000 0.0000 0.0000 0.0000 25.7940
#
#
#
# Elastic Compliance Matrix: (Units=1/GPa)
#
#
# Indices 1 2 3 4 5 6 
#
# 1 0.007934 -0.003407 -0.001459 0.000000 0.000000 0.000000
# 2 -0.003407 0.016020 -0.007098 0.000000 0.000000 0.000000
# 3 -0.001459 -0.007098 0.019470 0.000000 0.000000 0.000000
# 4 0.000000 0.000000 0.000000 -0.043108 0.000000 0.000000
# 5 0.000000 0.000000 0.000000 0.000000 0.133281 0.000000
# 6 0.000000 0.000000 0.000000 0.000000 0.000000 0.038769
#
#
# Mechanical properties :
#
#
# Convention : Reuss Voigt Hill
#
# Bulk Modulus (GPa) = 51.29383 57.35903 54.32643
# Shear Modulus (GPa) = 24.65587 15.16173 19.90880
#
# Velocity S-wave (km/s) = 3.51571 2.75694 3.15919
# Velocity P-wave (km/s) = 6.49571 6.23609 6.36723
#
# Compressibility (1/GPa) = 0.01949552
#
# Stress axis : x y z
#
# Youngs Moduli (GPa) = 126.04505 62.42275 51.36180
#
# Poissons Ratio (x) = 0.21268 0.07492
# Poissons Ratio (y) = 0.42944 0.36458
# Poissons Ratio (z) = 0.18385 0.44309
#
# Static dielectric constant tensor:
#      x y z
#    x 1.583320 0.000000 0.000000 
#    y 0.000000 1.673650 0.000000 
#    z 0.000000 0.000000 1.676580 
# 
# From -- ./inp_files/32024.got.cif
#   From: 2010.05.17/outbox.cif.g08.bks.cpg/sg50_17_cif.got.tgz:32024.got - 2010.06.03 11:33:33.
