data_PCOD9396566
_publ_section_title
;
Structure prediction by ZEFSAII (Michael W. Deem and Ramdas Pophale) SiO2 
 PCOD9396566
Probable space group: P B A N
;
_chemical_formula_sum "Si O2"
_cell_formula_units_Z 58
_cell_length_a 17.752268
_cell_length_b 15.947993
_cell_length_c 9.093279
_cell_angle_alpha 90.000000
_cell_angle_beta 90.000000
_cell_angle_gamma 90.000000
_cell_volume 2574.425914
_symmetry_space_group_name_H-M "P B A N"
_symmetry_group_IT_number 50
_space_group.IT_coordinate_system_code '2'
_symmetry_cell_setting 'orthorhombic'
loop_
_space_group_symop_operation_xyz
x,y,z
1/2-x,1/2-y,z
x,1/2-y,-z
1/2-x,y,-z
-x,-y,-z
1/2+x,1/2+y,-z
-x,1/2+y,z
1/2+x,-y,z
loop_
_atom_site_type_symbol
_atom_site_label
_atom_site_fract_x
_atom_site_fract_y
_atom_site_fract_z
Si Si1 0.590003 0.503746 0.496664
Si Si2 0.521344 0.223814 0.828803
Si Si3 0.250000 0.250000 0.000000
Si Si4 0.348541 0.830125 0.388752
Si Si5 0.556540 0.882916 0.756499
Si Si6 0.376323 0.130952 0.937778
Si Si7 0.098231 0.533276 0.809879
Si Si8 0.228267 0.847770 0.160452
O O1 0.500000 0.500000 0.500000
O O2 0.616128 0.409759 0.466976
O O3 0.603534 0.572372 0.371149
O O4 0.616945 0.518404 0.661415
O O5 0.594604 0.190164 0.746433
O O6 0.490620 0.298792 0.724536
O O7 0.451575 0.159614 0.850279
O O8 0.538411 0.250000 0.000000
O O9 0.303701 0.312688 0.093661
O O10 0.339470 0.750000 0.500000
O O11 0.273978 0.867067 0.309298
O O12 0.490540 0.946321 0.813497
O O13 0.606832 0.853102 0.891086
O O14 0.372059 0.030847 0.930039
O O15 0.143806 0.620006 0.816586
O O16 0.250000 0.750000 0.151434
O O17 0.250000 0.882921 0.000000
#
# Coordination Sequence:
#
# PCOD9396566 Si02
#       8
#     8   8   2   8   8   8   8   8
#     4  10  22  40  62  98 135 171 223 285 339 413
#     4  10  21  40  69 104 134 180 231 295 342 410
#     4  12  24  48  64 102 138 178 232 290 360 416
#     4  12  25  42  70  97 139 185 226 283 351 420
#     4  10  20  40  68 103 131 176 230 289 346 406
#     4  11  24  42  71  98 138 181 237 290 351 414
#     4  11  24  42  67  99 138 181 235 286 347 427
#     4  11  27  43  63  99 140 186 225 286 349 424
#
# _framework density 22.529294
#
# number of rings (size 3 to 8) (size 9 to 14) (size 15 to 20)
#    0.000    1.241    2.069    5.379    8.690    1.931 
#    0.000    0.000    0.000    0.828    0.000    0.000 
#    0.000    0.000    0.000    0.000    0.000    0.000 
#
# Total GULP energy -323431.688151 kJ/mol
# GULP energy per Si atom -5576.408416 kJ/mol
# Density = 2.247802 g / cm^3
# Si number density = 22.529294 Si / 1000 Ang^3
#
#
#
# Elastic Constant Matrix: (Units=GPa)
#
#
# Indices 1 2 3 4 5 6 
#
# 1 80.7786 15.1081 20.4022 0.0000 0.0000 0.0000
# 2 15.1081 66.0916 -3.0816 0.0000 0.0000 0.0000
# 3 20.4022 -3.0816 58.1842 0.0000 0.0000 0.0000
# 4 0.0000 0.0000 0.0000 32.3664 0.0000 0.0000
# 5 0.0000 0.0000 0.0000 0.0000 27.3692 0.0000
# 6 0.0000 0.0000 0.0000 0.0000 0.0000 31.8768
#
#
#
# Elastic Compliance Matrix: (Units=1/GPa)
#
#
# Indices 1 2 3 4 5 6 
#
# 1 0.014358 -0.003526 -0.005221 0.000000 0.000000 0.000000
# 2 -0.003526 0.016034 0.002085 0.000000 0.000000 0.000000
# 3 -0.005221 0.002085 0.019128 0.000000 0.000000 0.000000
# 4 0.000000 0.000000 0.000000 0.030896 0.000000 0.000000
# 5 0.000000 0.000000 0.000000 0.000000 0.036537 0.000000
# 6 0.000000 0.000000 0.000000 0.000000 0.000000 0.031371
#
#
# Mechanical properties :
#
#
# Convention : Reuss Voigt Hill
#
# Bulk Modulus (GPa) = 27.62679 29.99019 28.80849
# Shear Modulus (GPa) = 28.78330 29.83088 29.30709
#
# Velocity S-wave (km/s) = 3.57822 3.64276 3.61063
# Velocity P-wave (km/s) = 5.41856 5.57077 5.49519
#
# Compressibility (1/GPa) = 0.03619674
#
# Stress axis : x y z
#
# Youngs Moduli (GPa) = 69.64947 62.36879 52.27924
#
# Poissons Ratio (x) = 0.21988 0.27296
# Poissons Ratio (y) = 0.24555 -0.10902
# Poissons Ratio (z) = 0.36365 -0.13006
#
# Static dielectric constant tensor:
#      x y z
#    x 1.865510 0.000000 0.000000 
#    y 0.000000 1.881630 0.000000 
#    z 0.000000 0.000000 1.917710 
# 
# From -- ./inp_files/14496.got.cif
#   From: 2010.05.17/outbox.cif.g08.bks.cpg/sg50_8_cif.got.tgz:14496.got - 2010.06.03 11:33:33.
