data_PCOD9396569
_publ_section_title
;
Structure prediction by ZEFSAII (Michael W. Deem and Ramdas Pophale) SiO2 
 PCOD9396569
Probable space group: P B A N
;
_chemical_formula_sum "Si O2"
_cell_formula_units_Z 34
_cell_length_a 20.726321
_cell_length_b 9.776166
_cell_length_c 8.223425
_cell_angle_alpha 90.000000
_cell_angle_beta 90.000000
_cell_angle_gamma 90.000000
_cell_volume 1666.262894
_symmetry_space_group_name_H-M "P B A N"
_symmetry_group_IT_number 50
_space_group.IT_coordinate_system_code '2'
_symmetry_cell_setting 'orthorhombic'
loop_
_space_group_symop_operation_xyz
x,y,z
1/2-x,1/2-y,z
x,1/2-y,-z
1/2-x,y,-z
-x,-y,-z
1/2+x,1/2+y,-z
-x,1/2+y,z
1/2+x,-y,z
loop_
_atom_site_type_symbol
_atom_site_label
_atom_site_fract_x
_atom_site_fract_y
_atom_site_fract_z
Si Si1 0.750000 0.750000 0.000000
Si Si2 0.674297 0.267419 0.317874
Si Si3 0.919041 0.387301 0.101799
Si Si4 0.022517 0.121185 0.616218
Si Si5 0.640533 0.937884 0.833341
O O1 0.700890 0.845410 0.892781
O O2 0.750000 0.250000 0.325710
O O3 0.646936 0.250000 0.500000
O O4 0.644566 0.151554 0.203677
O O5 0.661105 0.415608 0.241498
O O6 0.975992 0.397082 0.229551
O O7 0.933165 0.250000 0.000000
O O8 0.903053 0.516886 0.989425
O O9 0.013578 0.250000 0.500000
O O10 0.094046 0.124630 0.695067
O O11 0.000000 0.000000 0.500000
#
# Coordination Sequence:
#
# PCOD9396569 Si02
#       5
#     2   8   8   8   8
#     4  12  28  44  64 100 156 188 232 266 380 436
#     4  10  20  40  68  97 127 173 236 288 337 400
#     4  10  21  40  71  97 127 171 238 282 339 405
#     4  12  26  44  70 102 140 179 232 297 361 415
#     4  11  25  43  66 100 138 188 225 288 347 436
#
# _framework density 20.404942999999999
#
# number of rings (size 3 to 8) (size 9 to 14) (size 15 to 20)
#    0.000    1.176    0.000    7.059    4.941    3.294 
#    8.471    0.000    0.000    0.000    0.000    0.000 
#    0.000    0.000    0.000    0.000    0.000    0.000 
#
# Total GULP energy -189810.181110 kJ/mol
# GULP energy per Si atom -5582.652386 kJ/mol
# Density = 2.035850 g / cm^3
# Si number density = 20.404943 Si / 1000 Ang^3
#
#
#
# Elastic Constant Matrix: (Units=GPa)
#
#
# Indices 1 2 3 4 5 6 
#
# 1 119.4617 40.8444 55.3883 0.0000 0.0000 0.0000
# 2 40.8444 97.0879 50.6488 0.0000 0.0000 0.0000
# 3 55.3883 50.6488 136.8428 0.0000 0.0000 0.0000
# 4 0.0000 0.0000 0.0000 18.6704 0.0000 0.0000
# 5 0.0000 0.0000 0.0000 0.0000 53.8335 0.0000
# 6 0.0000 0.0000 0.0000 0.0000 0.0000 14.7898
#
#
#
# Elastic Compliance Matrix: (Units=1/GPa)
#
#
# Indices 1 2 3 4 5 6 
#
# 1 0.010898 -0.002830 -0.003364 0.000000 0.000000 0.000000
# 2 -0.002830 0.013500 -0.003851 0.000000 0.000000 0.000000
# 3 -0.003364 -0.003851 0.010094 0.000000 0.000000 0.000000
# 4 0.000000 0.000000 0.000000 0.053561 0.000000 0.000000
# 5 0.000000 0.000000 0.000000 0.000000 0.018576 0.000000
# 6 0.000000 0.000000 0.000000 0.000000 0.000000 0.067614
#
#
# Mechanical properties :
#
#
# Convention : Reuss Voigt Hill
#
# Bulk Modulus (GPa) = 69.43140 71.90613 70.66877
# Shear Modulus (GPa) = 25.10889 31.22614 28.16751
#
# Velocity S-wave (km/s) = 3.51170 3.91618 3.71944
# Velocity P-wave (km/s) = 7.10938 7.46757 7.29068
#
# Compressibility (1/GPa) = 0.01440271
#
# Stress axis : x y z
#
# Youngs Moduli (GPa) = 91.75994 74.07671 99.06422
#
# Poissons Ratio (x) = 0.20964 0.33321
# Poissons Ratio (y) = 0.25968 0.38150
# Poissons Ratio (z) = 0.30864 0.28527
#
# Static dielectric constant tensor:
#      x y z
#    x 1.758340 0.000000 0.000000 
#    y 0.000000 1.686310 0.000000 
#    z 0.000000 0.000000 2.001800 
# 
# From -- ./inp_files/9231.got.cif
#   From: 2010.05.17/outbox.cif.g08.bks.cpg/sg50_5_cif.got.tgz:9231.got - 2010.06.03 11:33:33.
