data_PCOD9396684
_publ_section_title
;
Structure prediction by ZEFSAII (Michael W. Deem and Ramdas Pophale) SiO2 
 PCOD9396684
Probable space group: P B A N
;
_chemical_formula_sum "Si O2"
_cell_formula_units_Z 64
_cell_length_a 10.632572
_cell_length_b 30.958160
_cell_length_c 9.195782
_cell_angle_alpha 90.000000
_cell_angle_beta 90.000000
_cell_angle_gamma 90.000000
_cell_volume 3026.928342
_symmetry_space_group_name_H-M "P B A N"
_symmetry_group_IT_number 50
_space_group.IT_coordinate_system_code '2'
_symmetry_cell_setting 'orthorhombic'
loop_
_space_group_symop_operation_xyz
x,y,z
1/2-x,1/2-y,z
x,1/2-y,-z
1/2-x,y,-z
-x,-y,-z
1/2+x,1/2+y,-z
-x,1/2+y,z
1/2+x,-y,z
loop_
_atom_site_type_symbol
_atom_site_label
_atom_site_fract_x
_atom_site_fract_y
_atom_site_fract_z
Si Si1 0.195909 0.100827 0.790777
Si Si2 0.138186 0.681882 0.904567
Si Si3 0.949975 0.868710 0.947189
Si Si4 0.444241 0.930695 0.274902
Si Si5 0.113209 0.797547 0.434745
Si Si6 0.973066 0.521638 0.844721
Si Si7 0.833737 0.092033 0.748593
Si Si8 0.043336 0.122779 0.526596
O O1 0.321921 0.122212 0.856039
O O2 0.155849 0.050558 0.824248
O O3 0.163606 0.113863 0.627170
O O4 0.088799 0.122871 0.887799
O O5 0.113433 0.702434 0.743767
O O6 0.178975 0.633160 0.854902
O O7 0.250000 0.701320 0.000000
O O8 0.026495 0.675294 0.025368
O O9 0.035440 0.906071 0.878373
O O10 0.300520 0.921758 0.310899
O O11 0.537251 0.906570 0.384933
O O12 0.468811 0.981218 0.264007
O O13 0.098054 0.750000 0.500000
O O14 0.250000 0.813011 0.500000
O O15 0.999013 0.827705 0.492962
O O16 0.092928 0.551699 0.816019
O O17 0.000000 0.500000 0.000000
O O18 0.924870 0.106472 0.620351
#
# Coordination Sequence:
#
# PCOD9396684 Si02
#       8
#     8   8   8   8   8   8   8   8
#     4  10  22  39  56  82 131 165 219 268 319 363
#     4  11  19  38  65  95 131 165 217 258 317 403
#     4  11  21  36  59  91 118 168 213 266 309 371
#     4  12  23  34  61  84 121 171 223 265 326 381
#     4  10  21  39  65  99 136 168 190 256 338 398
#     4  11  22  36  53  84 121 169 220 283 324 365
#     4  10  21  36  54  85 119 168 216 263 326 376
#     4  10  21  42  61  87 125 171 207 259 321 403
#
# _framework density 21.143547000000002
#
# number of rings (size 3 to 8) (size 9 to 14) (size 15 to 20)
#    0.000    1.375    6.250    1.875    1.750    2.500 
#    0.000    1.250    0.000    0.000    0.000    2.625 
#    3.750    0.000    0.000    0.000    0.000    0.000 
#
# Total GULP energy -356347.128300 kJ/mol
# GULP energy per Si atom -5567.923880 kJ/mol
# Density = 2.109542 g / cm^3
# Si number density = 21.143547 Si / 1000 Ang^3
#
#
#
# Elastic Constant Matrix: (Units=GPa)
#
#
# Indices 1 2 3 4 5 6 
#
# 1 82.4043 26.9853 38.5057 0.0000 0.0000 0.0000
# 2 26.9853 103.1068 41.2502 0.0000 0.0000 0.0000
# 3 38.5057 41.2502 95.4108 0.0000 0.0000 0.0000
# 4 0.0000 0.0000 0.0000 20.1066 0.0000 0.0000
# 5 0.0000 0.0000 0.0000 0.0000 33.4947 0.0000
# 6 0.0000 0.0000 0.0000 0.0000 0.0000 5.5866
#
#
#
# Elastic Compliance Matrix: (Units=1/GPa)
#
#
# Indices 1 2 3 4 5 6 
#
# 1 0.015241 -0.001848 -0.005352 0.000000 0.000000 0.000000
# 2 -0.001848 0.011951 -0.004421 0.000000 0.000000 0.000000
# 3 -0.005352 -0.004421 0.014553 0.000000 0.000000 0.000000
# 4 0.000000 0.000000 0.000000 0.049735 0.000000 0.000000
# 5 0.000000 0.000000 0.000000 0.000000 0.029855 0.000000
# 6 0.000000 0.000000 0.000000 0.000000 0.000000 0.179000
#
#
# Mechanical properties :
#
#
# Convention : Reuss Voigt Hill
#
# Bulk Modulus (GPa) = 54.04659 54.93380 54.49020
# Shear Modulus (GPa) = 15.16321 23.44963 19.30642
#
# Velocity S-wave (km/s) = 2.68088 3.33388 3.02505
# Velocity P-wave (km/s) = 5.93296 6.39198 6.16675
#
# Compressibility (1/GPa) = 0.01850256
#
# Stress axis : x y z
#
# Youngs Moduli (GPa) = 65.61099 83.67432 68.71658
#
# Poissons Ratio (x) = 0.15461 0.36779
# Poissons Ratio (y) = 0.12123 0.30381
# Poissons Ratio (z) = 0.35116 0.36995
#
# Static dielectric constant tensor:
#      x y z
#    x 1.938570 0.000000 0.000000 
#    y 0.000000 1.843900 0.000000 
#    z 0.000000 0.000000 1.828510 
# 
# From -- ./inp_files/11874.got.cif
#   From: 2010.05.17/outbox.cif.g08.bks.cpg/sg50_6_cif.got.tgz:11874.got - 2010.06.03 11:33:33.
