data_PCOD9396109
_publ_section_title
;
Structure prediction by ZEFSAII (Michael W. Deem and Ramdas Pophale) SiO2 
 PCOD9396109
Probable space group: P B A N
;
_chemical_formula_sum "Si O2"
_cell_formula_units_Z 64
_cell_length_a 18.248780
_cell_length_b 19.228541
_cell_length_c 8.110082
_cell_angle_alpha 90.000000
_cell_angle_beta 90.000000
_cell_angle_gamma 90.000000
_cell_volume 2845.806805
_symmetry_space_group_name_H-M "P B A N"
_symmetry_group_IT_number 50
_space_group.IT_coordinate_system_code '2'
_symmetry_cell_setting 'orthorhombic'
loop_
_space_group_symop_operation_xyz
x,y,z
1/2-x,1/2-y,z
x,1/2-y,-z
1/2-x,y,-z
-x,-y,-z
1/2+x,1/2+y,-z
-x,1/2+y,z
1/2+x,-y,z
loop_
_atom_site_type_symbol
_atom_site_label
_atom_site_fract_x
_atom_site_fract_y
_atom_site_fract_z
Si Si1 0.041864 0.709129 0.835394
Si Si2 0.326978 0.210206 0.245578
Si Si3 0.382634 0.414460 0.538752
Si Si4 0.831381 0.121148 0.934862
Si Si5 0.366424 0.993943 0.169478
Si Si6 0.212799 0.510942 0.672917
Si Si7 0.923796 0.625743 0.980785
Si Si8 0.457963 0.184193 0.674528
O O1 0.123412 0.685884 0.869102
O O2 0.987243 0.643393 0.846717
O O3 0.025010 0.762421 0.689971
O O4 0.016665 0.750000 0.000000
O O5 0.250000 0.250000 0.238988
O O6 0.331969 0.142149 0.364463
O O7 0.357817 0.177553 0.074153
O O8 0.386834 0.265446 0.312094
O O9 0.401528 0.479123 0.659057
O O10 0.337319 0.447409 0.387150
O O11 0.449819 0.368795 0.473912
O O12 0.828141 0.068606 0.779691
O O13 0.750000 0.136807 0.000000
O O14 0.871118 0.082039 0.089267
O O15 0.280651 0.007628 0.208135
O O16 0.396126 0.048114 0.037714
O O17 0.250000 0.536790 0.500000
O O18 0.953437 0.638519 0.161044
#
# Coordination Sequence:
#
# PCOD9396109 Si02
#       8
#     8   8   8   8   8   8   8   8
#     4   9  20  39  60  85 116 152 199 257 318 387
#     4  10  21  31  46  77 117 167 216 235 279 343
#     4  10  20  33  52  80 127 165 202 249 307 367
#     4  10  20  38  65  91 110 146 209 271 331 377
#     4   9  19  33  54  88 117 157 204 257 300 368
#     4   9  19  34  57  89 125 154 198 266 316 362
#     4   9  19  36  53  78 119 157 198 251 296 363
#     4  10  20  33  53  78 117 165 195 244 310 368
#
# _framework density 22.489227
#
# number of rings (size 3 to 8) (size 9 to 14) (size 15 to 20)
#    0.000    2.500    0.000    2.250    7.000    2.250 
#    0.000    0.000    0.000   69.000    0.000    7.000 
#    0.000    0.000    0.000    0.000    0.000    0.000 
#
# Total GULP energy -356999.057574 kJ/mol
# GULP energy per Si atom -5578.110275 kJ/mol
# Density = 2.243804 g / cm^3
# Si number density = 22.489227 Si / 1000 Ang^3
#
#
#
# Elastic Constant Matrix: (Units=GPa)
#
#
# Indices 1 2 3 4 5 6 
#
# 1 70.4713 42.7649 30.5710 0.0000 0.0000 0.0000
# 2 42.7649 38.3580 23.0810 0.0000 0.0000 0.0000
# 3 30.5710 23.0810 92.4511 0.0000 0.0000 0.0000
# 4 0.0000 0.0000 0.0000 17.1860 0.0000 0.0000
# 5 0.0000 0.0000 0.0000 0.0000 10.4347 0.0000
# 6 0.0000 0.0000 0.0000 0.0000 0.0000 28.9562
#
#
#
# Elastic Compliance Matrix: (Units=1/GPa)
#
#
# Indices 1 2 3 4 5 6 
#
# 1 0.044454 -0.047914 -0.002738 0.000000 0.000000 0.000000
# 2 -0.047914 0.082322 -0.004708 0.000000 0.000000 0.000000
# 3 -0.002738 -0.004708 0.012897 0.000000 0.000000 0.000000
# 4 0.000000 0.000000 0.000000 0.058187 0.000000 0.000000
# 5 0.000000 0.000000 0.000000 0.000000 0.095834 0.000000
# 6 0.000000 0.000000 0.000000 0.000000 0.000000 0.034535
#
#
# Mechanical properties :
#
#
# Convention : Reuss Voigt Hill
#
# Bulk Modulus (GPa) = 34.53842 43.79047 39.16444
# Shear Modulus (GPa) = 11.14581 18.30627 14.72604
#
# Velocity S-wave (km/s) = 2.22864 2.85617 2.56169
# Velocity P-wave (km/s) = 4.69186 5.51280 5.11881
#
# Compressibility (1/GPa) = 0.02895326
#
# Stress axis : x y z
#
# Youngs Moduli (GPa) = 22.49531 12.14749 77.53561
#
# Poissons Ratio (x) = 0.58203 0.21227
# Poissons Ratio (y) = 1.07783 0.36507
# Poissons Ratio (z) = 0.06159 0.05720
#
# Static dielectric constant tensor:
#      x y z
#    x 1.864910 0.000000 0.000000 
#    y 0.000000 1.847210 0.000000 
#    z 0.000000 0.000000 1.911780 
# 
# From -- ./inp_files/15495.got.cif
#   From: 2010.05.17/outbox.cif.g08.bks.cpg/sg50_8_cif.got.tgz:15495.got - 2010.06.03 11:33:33.
