data_PCOD9396549
_publ_section_title
;
Structure prediction by ZEFSAII (Michael W. Deem and Ramdas Pophale) SiO2 
 PCOD9396549
Probable space group: P B A N
;
_chemical_formula_sum "Si O2"
_cell_formula_units_Z 40
_cell_length_a 5.241952
_cell_length_b 12.679694
_cell_length_c 25.778742
_cell_angle_alpha 90.000000
_cell_angle_beta 90.000000
_cell_angle_gamma 90.000000
_cell_volume 1713.418819
_symmetry_space_group_name_H-M "P B A N"
_symmetry_group_IT_number 50
_space_group.IT_coordinate_system_code '2'
_symmetry_cell_setting 'orthorhombic'
loop_
_space_group_symop_operation_xyz
x,y,z
1/2-x,1/2-y,z
x,1/2-y,-z
1/2-x,y,-z
-x,-y,-z
1/2+x,1/2+y,-z
-x,1/2+y,z
1/2+x,-y,z
loop_
_atom_site_type_symbol
_atom_site_label
_atom_site_fract_x
_atom_site_fract_y
_atom_site_fract_z
Si Si1 0.632724 0.025729 0.322912
Si Si2 0.105962 0.437846 0.564409
Si Si3 0.250000 0.250000 0.929965
Si Si4 0.750000 0.250000 0.308091
Si Si5 0.250000 0.750000 0.000000
Si Si6 0.353283 0.427703 0.845847
Si Si7 0.750000 0.750000 0.238837
Si Si8 0.750000 0.750000 0.500000
O O1 0.665704 0.146593 0.339463
O O2 0.377052 0.009918 0.292228
O O3 0.617040 0.949000 0.372883
O O4 0.375755 0.487148 0.549110
O O5 0.088278 0.324261 0.538531
O O6 0.517391 0.214127 0.959503
O O7 0.329808 0.351016 0.895813
O O8 0.500140 0.274235 0.273682
O O9 0.621012 0.489047 0.845187
O O10 0.322471 0.346907 0.798115
#
# Coordination Sequence:
#
# PCOD9396549 Si02
#       8
#     8   8   4   4   2   8   4   2
#     4  10  23  41  62  90 123 159 200 244 306 376
#     4  10  24  42  63  94 122 157 204 249 301 364
#     4  10  22  41  62  94 131 176 223 269 336 376
#     4  12  24  41  64  89 124 163 200 257 316 386
#     4  10  20  40  64  90 140 176 220 288 308 386
#     4  11  23  42  66  92 129 170 214 276 329 381
#     4  11  26  41  65  99 122 161 218 261 325 385
#     4  12  24  42  70  92 126 162 206 262 302 360
#
# _framework density 23.345139
#
# number of rings (size 3 to 8) (size 9 to 14) (size 15 to 20)
#    0.000    1.400    0.000    4.200    0.000   16.000 
#    0.000   10.000    0.000    0.000    0.000    0.000 
#    0.000    0.000    0.000    0.000    0.000    0.000 
#
# Total GULP energy -223039.725478 kJ/mol
# GULP energy per Si atom -5575.993137 kJ/mol
# Density = 2.329200 g / cm^3
# Si number density = 23.345139 Si / 1000 Ang^3
#
#
#
# Elastic Constant Matrix: (Units=GPa)
#
#
# Indices 1 2 3 4 5 6 
#
# 1 168.9808 10.6559 9.0824 0.0000 0.0000 0.0000
# 2 10.6559 111.2150 25.4403 0.0000 0.0000 0.0000
# 3 9.0824 25.4403 78.5999 0.0000 0.0000 0.0000
# 4 0.0000 0.0000 0.0000 -76.2055 0.0000 0.0000
# 5 0.0000 0.0000 0.0000 0.0000 31.2901 0.0000
# 6 0.0000 0.0000 0.0000 0.0000 0.0000 38.9493
#
#
#
# Elastic Compliance Matrix: (Units=1/GPa)
#
#
# Indices 1 2 3 4 5 6 
#
# 1 0.005975 -0.000448 -0.000546 0.000000 0.000000 0.000000
# 2 -0.000448 0.009744 -0.003102 0.000000 0.000000 0.000000
# 3 -0.000546 -0.003102 0.013790 0.000000 0.000000 0.000000
# 4 0.000000 0.000000 0.000000 -0.013122 0.000000 0.000000
# 5 0.000000 0.000000 0.000000 0.000000 0.031959 0.000000
# 6 0.000000 0.000000 0.000000 0.000000 0.000000 0.025674
#
#
# Mechanical properties :
#
#
# Convention : Reuss Voigt Hill
#
# Bulk Modulus (GPa) = 46.90772 49.90585 48.40679
# Shear Modulus (GPa) = 55.98031 19.71460 37.84745
#
# Velocity S-wave (km/s) = 4.90219 2.90915 4.03080
# Velocity P-wave (km/s) = 7.22349 5.71909 6.51486
#
# Compressibility (1/GPa) = 0.02131845
#
# Stress axis : x y z
#
# Youngs Moduli (GPa) = 167.35311 102.62630 72.51763
#
# Poissons Ratio (x) = 0.04595 0.03956
# Poissons Ratio (y) = 0.07493 0.22496
# Poissons Ratio (z) = 0.09130 0.31836
#
# Static dielectric constant tensor:
#      x y z
#    x 1.964130 0.000000 0.000000 
#    y 0.000000 1.888400 0.000000 
#    z 0.000000 0.000000 1.962120 
# 
# From -- ./inp_files/31976.got.cif
#   From: 2010.05.17/outbox.cif.g08.bks.cpg/sg50_16_cif.got.tgz:31976.got - 2010.06.03 11:33:33.
