data_PCOD9396609
_publ_section_title
;
Structure prediction by ZEFSAII (Michael W. Deem and Ramdas Pophale) SiO2 
 PCOD9396609
Probable space group: P B A N
;
_chemical_formula_sum "Si O2"
_cell_formula_units_Z 30
_cell_length_a 10.945765
_cell_length_b 13.903499
_cell_length_c 8.280490
_cell_angle_alpha 90.000000
_cell_angle_beta 90.000000
_cell_angle_gamma 90.000000
_cell_volume 1260.161673
_symmetry_space_group_name_H-M "P B A N"
_symmetry_group_IT_number 50
_space_group.IT_coordinate_system_code '2'
_symmetry_cell_setting 'orthorhombic'
loop_
_space_group_symop_operation_xyz
x,y,z
1/2-x,1/2-y,z
x,1/2-y,-z
1/2-x,y,-z
-x,-y,-z
1/2+x,1/2+y,-z
-x,1/2+y,z
1/2+x,-y,z
loop_
_atom_site_type_symbol
_atom_site_label
_atom_site_fract_x
_atom_site_fract_y
_atom_site_fract_z
Si Si1 0.250000 0.750000 0.500000
Si Si2 0.606619 0.866531 0.513450
Si Si3 0.914761 0.944903 0.135866
Si Si4 0.451024 0.250000 0.000000
Si Si5 0.410721 0.870124 0.262032
O O1 0.330030 0.817311 0.389906
O O2 0.599816 0.750000 0.500000
O O3 0.750000 0.892436 0.500000
O O4 0.552554 0.902474 0.684582
O O5 0.530514 0.905169 0.361115
O O6 0.877348 0.844243 0.055286
O O7 0.838964 0.039330 0.186212
O O8 0.000000 0.000000 0.000000
O O9 0.540216 0.207056 0.864589
#
# Coordination Sequence:
#
# PCOD9396609 Si02
#       5
#     2   8   8   4   8
#     4  12  24  42  70 100 146 182 232 298 360 452
#     4  11  22  42  70  98 137 186 241 298 355 433
#     4  10  22  41  70  99 137 183 237 298 368 436
#     4  10  20  45  67  94 140 180 235 311 348 420
#     4  11  23  42  70 100 138 185 235 293 370 436
#
# _framework density 23.806470000000001
#
# number of rings (size 3 to 8) (size 9 to 14) (size 15 to 20)
#    0.000    1.333    4.000    0.800    1.867    0.533 
#    0.000    6.667    5.867    0.000    0.000    0.000 
#    0.000    0.000    0.000    0.000    0.000    0.000 
#
# Total GULP energy -167040.563799 kJ/mol
# GULP energy per Si atom -5568.018793 kJ/mol
# Density = 2.375229 g / cm^3
# Si number density = 23.806470 Si / 1000 Ang^3
#
#
#
# Elastic Constant Matrix: (Units=GPa)
#
#
# Indices 1 2 3 4 5 6 
#
# 1 72.2992 53.5987 44.6012 0.0000 0.0000 0.0000
# 2 53.5987 226.4654 71.1864 0.0000 0.0000 0.0000
# 3 44.6012 71.1864 173.6079 0.0000 0.0000 0.0000
# 4 0.0000 0.0000 0.0000 58.7261 0.0000 0.0000
# 5 0.0000 0.0000 0.0000 0.0000 -397.7057 0.0000
# 6 0.0000 0.0000 0.0000 0.0000 0.0000 73.8382
#
#
#
# Elastic Compliance Matrix: (Units=1/GPa)
#
#
# Indices 1 2 3 4 5 6 
#
# 1 0.018342 -0.003283 -0.003366 0.000000 0.000000 0.000000
# 2 -0.003283 0.005657 -0.001476 0.000000 0.000000 0.000000
# 3 -0.003366 -0.001476 0.007230 0.000000 0.000000 0.000000
# 4 0.000000 0.000000 0.000000 0.017028 0.000000 0.000000
# 5 0.000000 0.000000 0.000000 0.000000 -0.002514 0.000000
# 6 0.000000 0.000000 0.000000 0.000000 0.000000 0.013543
#
#
# Mechanical properties :
#
#
# Convention : Reuss Voigt Hill
#
# Bulk Modulus (GPa) = 66.76249 90.12722 78.44486
# Shear Modulus (GPa) = 62.09012 -32.82920 14.63046
#
# Velocity S-wave (km/s) = 5.11252 -3.71752 2.48172
# Velocity P-wave (km/s) = 7.93443 4.41745 6.42141
#
# Compressibility (1/GPa) = 0.01497847
#
# Stress axis : x y z
#
# Youngs Moduli (GPa) = 54.52063 176.78293 138.31091
#
# Poissons Ratio (x) = 0.58037 0.46555
# Poissons Ratio (y) = 0.17899 0.20415
# Poissons Ratio (z) = 0.18351 0.26094
#
# Static dielectric constant tensor:
#      x y z
#    x 1.899310 0.000000 0.000000 
#    y 0.000000 1.711900 0.000000 
#    z 0.000000 0.000000 1.951080 
# 
# From -- ./inp_files/10627.got.cif
#   From: 2010.05.17/outbox.cif.g08.bks.cpg/sg50_6_cif.got.tgz:10627.got - 2010.06.03 11:33:33.
