data_PCOD9396480
_publ_section_title
;
Structure prediction by ZEFSAII (Michael W. Deem and Ramdas Pophale) SiO2 
 PCOD9396480
Probable space group: P B A N
;
_chemical_formula_sum "Si O2"
_cell_formula_units_Z 30
_cell_length_a 13.890504
_cell_length_b 12.097885
_cell_length_c 8.355891
_cell_angle_alpha 90.000000
_cell_angle_beta 90.000000
_cell_angle_gamma 90.000000
_cell_volume 1404.171719
_symmetry_space_group_name_H-M "P B A N"
_symmetry_group_IT_number 50
_space_group.IT_coordinate_system_code '2'
_symmetry_cell_setting 'orthorhombic'
loop_
_space_group_symop_operation_xyz
x,y,z
1/2-x,1/2-y,z
x,1/2-y,-z
1/2-x,y,-z
-x,-y,-z
1/2+x,1/2+y,-z
-x,1/2+y,z
1/2+x,-y,z
loop_
_atom_site_type_symbol
_atom_site_label
_atom_site_fract_x
_atom_site_fract_y
_atom_site_fract_z
Si Si1 0.379600 0.125440 0.243818
Si Si2 0.750000 0.750000 0.500000
Si Si3 0.750000 0.750000 0.000000
Si Si4 0.858239 0.405631 0.569327
Si Si5 0.905406 0.323188 0.251528
Si Si6 0.250000 0.750000 0.000000
O O1 0.324103 0.180365 0.393854
O O2 0.484988 0.169930 0.196546
O O3 0.378499 0.998629 0.299452
O O4 0.313625 0.165954 0.101278
O O5 0.750000 0.403278 0.500000
O O6 0.909416 0.413621 0.396283
O O7 0.884017 0.291568 0.657060
O O8 0.822261 0.322750 0.114400
#
# Coordination Sequence:
#
# PCOD9396480 Si02
#       6
#     8   2   2   8   8   2
#     4  11  23  43  69  98 136 181 229 288 353 409
#     4  10  20  38  68  94 128 170 232 290 340 398
#     4  10  26  48  64 100 150 174 234 292 352 426
#     4  11  21  44  70 100 132 180 241 282 339 419
#     4  11  23  41  68 102 138 179 228 296 341 419
#     4  12  22  40  64  94 152 180 210 290 368 388
#
# _framework density 21.364908
#
# number of rings (size 3 to 8) (size 9 to 14) (size 15 to 20)
#    0.000    1.067    4.000    4.000    0.000    1.067 
#    0.000    2.667    0.000    0.000    0.000    0.000 
#    0.000    0.000    0.000    0.000    0.000    0.000 
#
# Total GULP energy -167069.165748 kJ/mol
# GULP energy per Si atom -5568.972192 kJ/mol
# Density = 2.131628 g / cm^3
# Si number density = 21.364908 Si / 1000 Ang^3
#
#
#
# Elastic Constant Matrix: (Units=GPa)
#
#
# Indices 1 2 3 4 5 6 
#
# 1 165.2818 40.9383 60.7139 0.0000 0.0000 0.0000
# 2 40.9383 95.3610 47.3092 0.0000 0.0000 0.0000
# 3 60.7139 47.3092 126.9991 0.0000 0.0000 0.0000
# 4 0.0000 0.0000 0.0000 32.1130 0.0000 0.0000
# 5 0.0000 0.0000 0.0000 0.0000 363.7895 0.0000
# 6 0.0000 0.0000 0.0000 0.0000 0.0000 26.1891
#
#
#
# Elastic Compliance Matrix: (Units=1/GPa)
#
#
# Indices 1 2 3 4 5 6 
#
# 1 0.007579 -0.001786 -0.002958 0.000000 0.000000 0.000000
# 2 -0.001786 0.013285 -0.004095 0.000000 0.000000 0.000000
# 3 -0.002958 -0.004095 0.010814 0.000000 0.000000 0.000000
# 4 0.000000 0.000000 0.000000 0.031140 0.000000 0.000000
# 5 0.000000 0.000000 0.000000 0.000000 0.002749 0.000000
# 6 0.000000 0.000000 0.000000 0.000000 0.000000 0.038184
#
#
# Mechanical properties :
#
#
# Convention : Reuss Voigt Hill
#
# Bulk Modulus (GPa) = 71.43146 76.17388 73.80267
# Shear Modulus (GPa) = 39.65261 100.33034 69.99147
#
# Velocity S-wave (km/s) = 4.31277 6.86020 5.72985
# Velocity P-wave (km/s) = 7.63587 9.92375 8.85402
#
# Compressibility (1/GPa) = 0.01399943
#
# Stress axis : x y z
#
# Youngs Moduli (GPa) = 131.93850 75.27403 92.47648
#
# Poissons Ratio (x) = 0.13446 0.27354
# Poissons Ratio (y) = 0.23568 0.37868
# Poissons Ratio (z) = 0.39027 0.30823
#
# Static dielectric constant tensor:
#      x y z
#    x 2.234760 0.000000 0.000000 
#    y 0.000000 1.836450 0.000000 
#    z 0.000000 0.000000 1.954530 
# 
# From -- ./inp_files/10638.got.cif
#   From: 2010.05.17/outbox.cif.g08.bks.cpg/sg50_6_cif.got.tgz:10638.got - 2010.06.03 11:33:33.
