data_PCOD9396543
_publ_section_title
;
Structure prediction by ZEFSAII (Michael W. Deem and Ramdas Pophale) SiO2 
 PCOD9396543
Probable space group: P B A N
;
_chemical_formula_sum "Si O2"
_cell_formula_units_Z 48
_cell_length_a 9.840987
_cell_length_b 25.092252
_cell_length_c 8.983931
_cell_angle_alpha 90.000000
_cell_angle_beta 90.000000
_cell_angle_gamma 90.000000
_cell_volume 2218.424773
_symmetry_space_group_name_H-M "P B A N"
_symmetry_group_IT_number 50
_space_group.IT_coordinate_system_code '2'
_symmetry_cell_setting 'orthorhombic'
loop_
_space_group_symop_operation_xyz
x,y,z
1/2-x,1/2-y,z
x,1/2-y,-z
1/2-x,y,-z
-x,-y,-z
1/2+x,1/2+y,-z
-x,1/2+y,z
1/2+x,-y,z
loop_
_atom_site_type_symbol
_atom_site_label
_atom_site_fract_x
_atom_site_fract_y
_atom_site_fract_z
Si Si1 0.943832 0.509812 0.167323
Si Si2 0.483874 0.323439 0.838583
Si Si3 0.471825 0.295842 0.181103
Si Si4 0.732919 0.329882 0.330081
Si Si5 0.289171 0.953994 0.331089
Si Si6 0.730817 0.881650 0.175285
O O1 0.076888 0.516688 0.269674
O O2 0.840395 0.465061 0.225293
O O3 0.847657 0.562511 0.180258
O O4 0.000000 0.500000 0.000000
O O5 0.418973 0.264548 0.816333
O O6 0.627620 0.327362 0.759421
O O7 0.385714 0.370247 0.776887
O O8 0.503367 0.320652 0.017314
O O9 0.615470 0.294872 0.260410
O O10 0.364778 0.337167 0.248202
O O11 0.750000 0.314679 0.500000
O O12 0.682490 0.391178 0.327691
O O13 0.250000 0.969906 0.500000
O O14 0.750000 0.869053 0.000000
#
# Coordination Sequence:
#
# PCOD9396543 Si02
#       6
#     8   8   8   8   8   8
#     4  12  25  43  70 103 130 169 223 281 330 388
#     4  10  22  37  66  93 126 168 214 267 330 389
#     4  10  20  40  63  93 126 168 212 270 329 387
#     4  11  24  41  63  92 130 173 215 263 325 390
#     4  11  26  45  66  94 135 177 214 265 336 408
#     4  10  21  39  62  96 129 162 209 269 327 387
#
# _framework density 21.636973999999999
#
# number of rings (size 3 to 8) (size 9 to 14) (size 15 to 20)
#    0.000    1.333    1.667    3.500    7.000    6.000 
#    0.000    0.833    0.000    2.000    0.000    0.000 
#    0.000    0.000    0.000    0.000    0.000    0.000 
#
# Total GULP energy -267959.263228 kJ/mol
# GULP energy per Si atom -5582.484651 kJ/mol
# Density = 2.158773 g / cm^3
# Si number density = 21.636974 Si / 1000 Ang^3
#
#
#
# Elastic Constant Matrix: (Units=GPa)
#
#
# Indices 1 2 3 4 5 6 
#
# 1 124.3758 16.9923 36.4788 0.0000 0.0000 0.0000
# 2 16.9923 49.0175 14.9197 0.0000 0.0000 0.0000
# 3 36.4788 14.9197 66.7866 0.0000 0.0000 0.0000
# 4 0.0000 0.0000 0.0000 20.2351 0.0000 0.0000
# 5 0.0000 0.0000 0.0000 0.0000 3.1705 0.0000
# 6 0.0000 0.0000 0.0000 0.0000 0.0000 43.0972
#
#
#
# Elastic Compliance Matrix: (Units=1/GPa)
#
#
# Indices 1 2 3 4 5 6 
#
# 1 0.009733 -0.001884 -0.004895 0.000000 0.000000 0.000000
# 2 -0.001884 0.022254 -0.003942 0.000000 0.000000 0.000000
# 3 -0.004895 -0.003942 0.018528 0.000000 0.000000 0.000000
# 4 0.000000 0.000000 0.000000 0.049419 0.000000 0.000000
# 5 0.000000 0.000000 0.000000 0.000000 0.315407 0.000000
# 6 0.000000 0.000000 0.000000 0.000000 0.000000 0.023203
#
#
# Mechanical properties :
#
#
# Convention : Reuss Voigt Hill
#
# Bulk Modulus (GPa) = 34.39824 41.88460 38.14142
# Shear Modulus (GPa) = 10.64558 24.75317 17.69938
#
# Velocity S-wave (km/s) = 2.22053 3.38601 2.86320
# Velocity P-wave (km/s) = 4.74413 5.88954 5.34759
#
# Compressibility (1/GPa) = 0.02907125
#
# Stress axis : x y z
#
# Youngs Moduli (GPa) = 102.73930 44.93588 53.97337
#
# Poissons Ratio (x) = 0.08466 0.26422
# Poissons Ratio (y) = 0.19357 0.21278
# Poissons Ratio (z) = 0.50296 0.17715
#
# Static dielectric constant tensor:
#      x y z
#    x 1.802420 0.000000 0.000000 
#    y 0.000000 1.929690 0.000000 
#    z 0.000000 0.000000 1.765250 
# 
# From -- ./inp_files/10072.got.cif
#   From: 2010.05.17/outbox.cif.g08.bks.cpg/sg50_6_cif.got.tgz:10072.got - 2010.06.03 11:33:33.
