data_PCOD9396731
_publ_section_title
;
Structure prediction by ZEFSAII (Michael W. Deem and Ramdas Pophale) SiO2 
 PCOD9396731
Probable space group: P B A N
;
_chemical_formula_sum "Si O2"
_cell_formula_units_Z 54
_cell_length_a 28.341645
_cell_length_b 12.296637
_cell_length_c 6.598781
_cell_angle_alpha 90.000000
_cell_angle_beta 90.000000
_cell_angle_gamma 90.000000
_cell_volume 2299.720846
_symmetry_space_group_name_H-M "P B A N"
_symmetry_group_IT_number 50
_space_group.IT_coordinate_system_code '2'
_symmetry_cell_setting 'orthorhombic'
loop_
_space_group_symop_operation_xyz
x,y,z
1/2-x,1/2-y,z
x,1/2-y,-z
1/2-x,y,-z
-x,-y,-z
1/2+x,1/2+y,-z
-x,1/2+y,z
1/2+x,-y,z
loop_
_atom_site_type_symbol
_atom_site_label
_atom_site_fract_x
_atom_site_fract_y
_atom_site_fract_z
Si Si1 0.282797 0.562953 0.303805
Si Si2 0.553188 0.408402 0.668559
Si Si3 0.859410 0.363601 0.566353
Si Si4 0.816000 0.857129 0.868890
Si Si5 0.130749 0.250000 0.500000
Si Si6 0.250000 0.750000 0.000000
Si Si7 0.950181 0.594483 0.633516
Si Si8 0.609587 0.472236 0.051739
O O1 0.250000 0.577609 0.500000
O O2 0.333913 0.554979 0.412677
O O3 0.276743 0.447318 0.192158
O O4 0.277016 0.664187 0.149308
O O5 0.586200 0.360282 0.495292
O O6 0.545565 0.531400 0.582272
O O7 0.501430 0.357927 0.684011
O O8 0.584683 0.408499 0.869384
O O9 0.837311 0.250000 0.500000
O O10 0.858126 0.398789 0.798380
O O11 0.837203 0.810519 0.661242
O O12 0.803728 0.750000 0.000000
O O13 0.857008 0.929501 0.977241
O O14 0.094262 0.327725 0.384811
O O15 0.933932 0.516372 0.814898
#
# Coordination Sequence:
#
# PCOD9396731 Si02
#       8
#     8   8   8   8   4   2   8   8
#     4  12  29  52  81 116 149 188 245 317 389 467
#     4  10  21  39  61  97 143 197 244 321 361 435
#     4  11  25  42  70 103 144 183 241 307 386 449
#     4  12  26  46  79 107 151 206 256 301 380 463
#     4  12  22  42  69 104 150 206 251 318 366 450
#     4  12  30  56  94 114 144 184 234 306 400 478
#     4  10  21  36  62  97 143 192 260 305 363 418
#     4  11  21  43  67  99 140 197 248 303 370 448
#
# _framework density 23.481110000000001
#
# number of rings (size 3 to 8) (size 9 to 14) (size 15 to 20)
#    0.000    0.889    4.444    2.444    5.185    0.593 
#    0.000    3.704    0.000    0.000    0.000    0.000 
#    0.000    0.000    0.000    0.000    0.000    0.000 
#
# Total GULP energy -301512.107447 kJ/mol
# GULP energy per Si atom -5583.557545 kJ/mol
# Density = 2.342767 g / cm^3
# Si number density = 23.481110 Si / 1000 Ang^3
#
#
#
# Elastic Constant Matrix: (Units=GPa)
#
#
# Indices 1 2 3 4 5 6 
#
# 1 73.0746 20.3940 42.8073 0.0000 0.0000 0.0000
# 2 20.3940 120.6592 64.6961 0.0000 0.0000 0.0000
# 3 42.8073 64.6961 149.7145 0.0000 0.0000 0.0000
# 4 0.0000 0.0000 0.0000 37.4382 0.0000 0.0000
# 5 0.0000 0.0000 0.0000 0.0000 41.7224 0.0000
# 6 0.0000 0.0000 0.0000 0.0000 0.0000 118.4980
#
#
#
# Elastic Compliance Matrix: (Units=1/GPa)
#
#
# Indices 1 2 3 4 5 6 
#
# 1 0.016448 -0.000336 -0.004558 0.000000 0.000000 0.000000
# 2 -0.000336 0.010794 -0.004568 0.000000 0.000000 0.000000
# 3 -0.004558 -0.004568 0.009957 0.000000 0.000000 0.000000
# 4 0.000000 0.000000 0.000000 0.026711 0.000000 0.000000
# 5 0.000000 0.000000 0.000000 0.000000 0.023968 0.000000
# 6 0.000000 0.000000 0.000000 0.000000 0.000000 0.008439
#
#
# Mechanical properties :
#
#
# Convention : Reuss Voigt Hill
#
# Bulk Modulus (GPa) = 54.72105 66.58259 60.65182
# Shear Modulus (GPa) = 41.20894 53.90180 47.55537
#
# Velocity S-wave (km/s) = 4.19380 4.79638 4.50517
# Velocity P-wave (km/s) = 6.84145 7.68707 7.27655
#
# Compressibility (1/GPa) = 0.01827450
#
# Stress axis : x y z
#
# Youngs Moduli (GPa) = 60.79613 92.64306 100.43554
#
# Poissons Ratio (x) = 0.03116 0.45775
# Poissons Ratio (y) = 0.02045 0.45882
# Poissons Ratio (z) = 0.27709 0.42322
#
# Static dielectric constant tensor:
#      x y z
#    x 1.935340 0.000000 0.000000 
#    y 0.000000 2.021360 0.000000 
#    z 0.000000 0.000000 2.049650 
# 
# From -- ./inp_files/7227.got.cif
#   From: 2010.05.17/outbox.cif.g08.bks.cpg/sg50_4_cif.got.tgz:7227.got - 2010.06.03 11:33:33.
