data_PCOD9396402
_publ_section_title
;
Structure prediction by ZEFSAII (Michael W. Deem and Ramdas Pophale) SiO2 
 PCOD9396402
Probable space group: P B A N
;
_chemical_formula_sum "Si O2"
_cell_formula_units_Z 34
_cell_length_a 11.620284
_cell_length_b 22.351165
_cell_length_c 5.984063
_cell_angle_alpha 90.000000
_cell_angle_beta 90.000000
_cell_angle_gamma 90.000000
_cell_volume 1554.222043
_symmetry_space_group_name_H-M "P B A N"
_symmetry_group_IT_number 50
_space_group.IT_coordinate_system_code '2'
_symmetry_cell_setting 'orthorhombic'
loop_
_space_group_symop_operation_xyz
x,y,z
1/2-x,1/2-y,z
x,1/2-y,-z
1/2-x,y,-z
-x,-y,-z
1/2+x,1/2+y,-z
-x,1/2+y,z
1/2+x,-y,z
loop_
_atom_site_type_symbol
_atom_site_label
_atom_site_fract_x
_atom_site_fract_y
_atom_site_fract_z
Si Si1 0.074141 0.306688 0.159128
Si Si2 0.856706 0.474434 0.165713
Si Si3 0.250000 0.250000 0.500000
Si Si4 0.374255 0.858527 0.544690
Si Si5 0.034471 0.092051 0.158874
O O1 0.169659 0.290687 0.342604
O O2 0.955185 0.322427 0.284846
O O3 0.060012 0.250000 0.000000
O O4 0.103489 0.361911 0.996107
O O5 0.843317 0.423074 0.348571
O O6 0.891169 0.538775 0.267364
O O7 0.750000 0.482936 0.000000
O O8 0.953260 0.444528 0.008981
O O9 0.250000 0.829415 0.500000
O O10 0.453956 0.871839 0.329860
#
# Coordination Sequence:
#
# PCOD9396402 Si02
#       5
#     8   8   2   8   8
#     4  11  26  46  71  97 134 176 231 289 345 408
#     4  10  20  37  64  96 137 178 224 279 333 399
#     4  12  26  52  74  94 128 176 230 302 344 416
#     4  11  22  42  70 100 142 186 227 278 342 409
#     4  10  22  40  63  99 132 178 227 277 337 401
#
# _framework density 21.875896000000001
#
# number of rings (size 3 to 8) (size 9 to 14) (size 15 to 20)
#    0.000    1.412    2.353    2.471    0.000    3.765 
#    0.000    8.824    2.588    0.000    0.000    0.000 
#    0.000    0.000    0.000    0.000    0.000    0.000 
#
# Total GULP energy -189953.932262 kJ/mol
# GULP energy per Si atom -5586.880361 kJ/mol
# Density = 2.182611 g / cm^3
# Si number density = 21.875896 Si / 1000 Ang^3
#
#
#
# Elastic Constant Matrix: (Units=GPa)
#
#
# Indices 1 2 3 4 5 6 
#
# 1 116.6926 58.0650 49.5348 0.0000 0.0000 0.0000
# 2 58.0650 102.6798 39.5133 0.0000 0.0000 0.0000
# 3 49.5348 39.5133 102.0529 0.0000 0.0000 0.0000
# 4 0.0000 0.0000 0.0000 9.1197 0.0000 0.0000
# 5 0.0000 0.0000 0.0000 0.0000 38.1382 0.0000
# 6 0.0000 0.0000 0.0000 0.0000 0.0000 20.0398
#
#
#
# Elastic Compliance Matrix: (Units=1/GPa)
#
#
# Indices 1 2 3 4 5 6 
#
# 1 0.013272 -0.005906 -0.004155 0.000000 0.000000 0.000000
# 2 -0.005906 0.014073 -0.002582 0.000000 0.000000 0.000000
# 3 -0.004155 -0.002582 0.012815 0.000000 0.000000 0.000000
# 4 0.000000 0.000000 0.000000 0.109653 0.000000 0.000000
# 5 0.000000 0.000000 0.000000 0.000000 0.026220 0.000000
# 6 0.000000 0.000000 0.000000 0.000000 0.000000 0.049901
#
#
# Mechanical properties :
#
#
# Convention : Reuss Voigt Hill
#
# Bulk Modulus (GPa) = 67.23469 68.40572 67.82020
# Shear Modulus (GPa) = 19.51756 25.08036 22.29896
#
# Velocity S-wave (km/s) = 2.99020 3.38965 3.19617
# Velocity P-wave (km/s) = 6.53629 6.83062 6.68508
#
# Compressibility (1/GPa) = 0.01487328
#
# Stress axis : x y z
#
# Youngs Moduli (GPa) = 75.34446 71.06010 78.03113
#
# Poissons Ratio (x) = 0.41971 0.32424
# Poissons Ratio (y) = 0.44502 0.20146
# Poissons Ratio (z) = 0.31308 0.18346
#
# Static dielectric constant tensor:
#      x y z
#    x 1.814560 0.000000 0.000000 
#    y 0.000000 1.817770 0.000000 
#    z 0.000000 0.000000 1.858190 
# 
# From -- ./inp_files/2183.got.cif
#   From: 2010.05.17/outbox.cif.g08.bks.cpg/sg50_2_cif.got.tgz:2183.got - 2010.06.03 11:33:33.
