data_PCOD9396264
_publ_section_title
;
Structure prediction by ZEFSAII (Michael W. Deem and Ramdas Pophale) SiO2 
 PCOD9396264
Probable space group: P B A N
;
_chemical_formula_sum "Si O2"
_cell_formula_units_Z 60
_cell_length_a 18.651308
_cell_length_b 12.721104
_cell_length_c 12.564723
_cell_angle_alpha 90.000000
_cell_angle_beta 90.000000
_cell_angle_gamma 90.000000
_cell_volume 2981.171877
_symmetry_space_group_name_H-M "P B A N"
_symmetry_group_IT_number 50
_space_group.IT_coordinate_system_code '2'
_symmetry_cell_setting 'orthorhombic'
loop_
_space_group_symop_operation_xyz
x,y,z
1/2-x,1/2-y,z
x,1/2-y,-z
1/2-x,y,-z
-x,-y,-z
1/2+x,1/2+y,-z
-x,1/2+y,z
1/2+x,-y,z
loop_
_atom_site_type_symbol
_atom_site_label
_atom_site_fract_x
_atom_site_fract_y
_atom_site_fract_z
Si Si1 0.534681 0.776477 0.113767
Si Si2 0.090895 0.053305 0.821953
Si Si3 0.399159 0.490423 0.050257
Si Si4 0.250000 0.584864 0.000000
Si Si5 0.385710 0.557800 0.276155
Si Si6 0.621194 0.223796 0.614084
Si Si7 0.720151 0.087605 0.772359
Si Si8 0.997529 0.407724 0.685758
O O1 0.576621 0.674327 0.154781
O O2 0.588104 0.870544 0.081864
O O3 0.493771 0.826991 0.213736
O O4 0.496445 0.750000 0.000000
O O5 0.170920 0.014750 0.795071
O O6 0.045054 0.010476 0.724577
O O7 0.067369 0.994415 0.933055
O O8 0.316387 0.513474 0.032339
O O9 0.416769 0.559028 0.154362
O O10 0.227687 0.640052 0.110104
O O11 0.401728 0.666076 0.334230
O O12 0.299040 0.556622 0.268450
O O13 0.422875 0.454834 0.328937
O O14 0.654247 0.250000 0.500000
O O15 0.676422 0.162787 0.692062
O O16 0.550600 0.150448 0.598911
#
# Coordination Sequence:
#
# PCOD9396264 Si02
#       8
#     8   8   8   4   8   8   8   8
#     4   9  17  29  49  78 111 150 189 226 279 345
#     4   9  17  32  50  76 115 147 184 226 274 348
#     4   8  16  29  48  76 110 149 182 222 280 337
#     4   8  14  32  52  76 118 146 178 228 278 346
#     4  10  20  36  55  78 110 139 182 235 279 331
#     4  11  24  40  60  82 108 146 193 239 286 341
#     4   9  19  36  57  83 111 147 185 231 288 337
#     4  10  21  35  54  80 108 145 185 232 290 334
#
# _framework density 20.126313
#
# number of rings (size 3 to 8) (size 9 to 14) (size 15 to 20)
#    0.000    2.667    0.000    1.200    0.000    7.467 
#    0.000   34.333    0.000    0.000    0.000    0.000 
#    0.000    0.000    0.000    0.000    0.000    0.000 
#
# Total GULP energy -334105.421738 kJ/mol
# GULP energy per Si atom -5568.423696 kJ/mol
# Density = 2.008050 g / cm^3
# Si number density = 20.126313 Si / 1000 Ang^3
#
#
#
# Elastic Constant Matrix: (Units=GPa)
#
#
# Indices 1 2 3 4 5 6 
#
# 1 81.2765 24.2068 21.6552 0.0000 0.0000 0.0000
# 2 24.2068 86.1335 38.6955 0.0000 0.0000 0.0000
# 3 21.6552 38.6955 77.5566 0.0000 0.0000 0.0000
# 4 0.0000 0.0000 0.0000 14.5464 0.0000 0.0000
# 5 0.0000 0.0000 0.0000 0.0000 18.7764 0.0000
# 6 0.0000 0.0000 0.0000 0.0000 0.0000 21.2096
#
#
#
# Elastic Compliance Matrix: (Units=1/GPa)
#
#
# Indices 1 2 3 4 5 6 
#
# 1 0.013785 -0.002765 -0.002470 0.000000 0.000000 0.000000
# 2 -0.002765 0.015518 -0.006971 0.000000 0.000000 0.000000
# 3 -0.002470 -0.006971 0.017061 0.000000 0.000000 0.000000
# 4 0.000000 0.000000 0.000000 0.068746 0.000000 0.000000
# 5 0.000000 0.000000 0.000000 0.000000 0.053258 0.000000
# 6 0.000000 0.000000 0.000000 0.000000 0.000000 0.047148
#
#
# Mechanical properties :
#
#
# Convention : Reuss Voigt Hill
#
# Bulk Modulus (GPa) = 45.54816 46.00906 45.77861
# Shear Modulus (GPa) = 20.22281 21.60042 20.91162
#
# Velocity S-wave (km/s) = 3.17329 3.27959 3.22688
# Velocity P-wave (km/s) = 6.00888 6.10334 6.05629
#
# Compressibility (1/GPa) = 0.02195478
#
# Stress axis : x y z
#
# Youngs Moduli (GPa) = 72.54205 64.43944 58.61216
#
# Poissons Ratio (x) = 0.17815 0.14475
# Poissons Ratio (y) = 0.20055 0.40857
# Poissons Ratio (z) = 0.17916 0.44919
#
# Static dielectric constant tensor:
#      x y z
#    x 1.767410 0.000000 0.000000 
#    y 0.000000 1.710790 0.000000 
#    z 0.000000 0.000000 1.793270 
# 
# From -- ./inp_files/22453.got.cif
#   From: 2010.05.17/outbox.cif.g08.bks.cpg/sg50_12_cif.got.tgz:22453.got - 2010.06.03 11:33:33.
