data_PCOD9396729
_publ_section_title
;
Structure prediction by ZEFSAII (Michael W. Deem and Ramdas Pophale) SiO2 
 PCOD9396729
Probable space group: P B A N
;
_chemical_formula_sum "Si O2"
_cell_formula_units_Z 58
_cell_length_a 11.316938
_cell_length_b 29.104345
_cell_length_c 9.162385
_cell_angle_alpha 90.000000
_cell_angle_beta 90.000000
_cell_angle_gamma 90.000000
_cell_volume 3017.833694
_symmetry_space_group_name_H-M "P B A N"
_symmetry_group_IT_number 50
_space_group.IT_coordinate_system_code '2'
_symmetry_cell_setting 'orthorhombic'
loop_
_space_group_symop_operation_xyz
x,y,z
1/2-x,1/2-y,z
x,1/2-y,-z
1/2-x,y,-z
-x,-y,-z
1/2+x,1/2+y,-z
-x,1/2+y,z
1/2+x,-y,z
loop_
_atom_site_type_symbol
_atom_site_label
_atom_site_fract_x
_atom_site_fract_y
_atom_site_fract_z
Si Si1 0.436697 0.816938 0.638742
Si Si2 0.250000 0.750000 0.500000
Si Si3 0.270164 0.105057 0.173318
Si Si4 0.980662 0.442303 0.137010
Si Si5 0.705614 0.368750 0.839592
Si Si6 0.365605 0.894566 0.413149
Si Si7 0.203723 0.201482 0.664531
Si Si8 0.465957 0.451379 0.206462
O O1 0.336565 0.781857 0.591425
O O2 0.399135 0.834936 0.796577
O O3 0.430649 0.860029 0.525382
O O4 0.563584 0.795346 0.647757
O O5 0.400141 0.082434 0.195247
O O6 0.264854 0.154991 0.248436
O O7 0.164307 0.071046 0.224198
O O8 0.250000 0.110427 0.000000
O O9 0.857635 0.417914 0.173999
O O10 0.971696 0.493567 0.199671
O O11 0.991121 0.439622 0.959659
O O12 0.808263 0.365482 0.719875
O O13 0.750000 0.361315 0.000000
O O14 0.250000 0.913268 0.500000
O O15 0.450250 0.930610 0.332521
O O16 0.250000 0.250000 0.726677
O O17 0.250000 0.196615 0.500000
#
# Coordination Sequence:
#
# PCOD9396729 Si02
#       8
#     8   2   8   8   8   8   8   8
#     4  11  23  41  64  89 124 163 205 259 319 372
#     4  12  20  40  64  88 120 160 210 254 312 384
#     4  10  22  40  63  92 126 160 205 260 316 365
#     4  10  21  36  62  93 126 164 208 253 306 374
#     4  11  20  38  66  91 122 162 205 255 305 374
#     4  10  21  39  60  91 122 164 206 248 316 370
#     4  11  23  42  66  92 118 164 216 256 310 378
#     4  10  21  36  62  93 126 168 205 255 308 379
#
# _framework density 19.219083999999999
#
# number of rings (size 3 to 8) (size 9 to 14) (size 15 to 20)
#    0.000    1.517    4.828    1.655    1.931    0.828 
#    0.000    3.793    3.034    0.000    0.000    0.000 
#    0.000    0.000    0.000    0.000    0.000    0.000 
#
# Total GULP energy -323533.545640 kJ/mol
# GULP energy per Si atom -5578.164580 kJ/mol
# Density = 1.917534 g / cm^3
# Si number density = 19.219084 Si / 1000 Ang^3
#
#
#
# Elastic Constant Matrix: (Units=GPa)
#
#
# Indices 1 2 3 4 5 6 
#
# 1 118.8256 56.0825 52.2131 0.0000 0.0000 0.0000
# 2 56.0825 128.8472 45.9614 0.0000 0.0000 0.0000
# 3 52.2131 45.9614 83.9137 0.0000 0.0000 0.0000
# 4 0.0000 0.0000 0.0000 -36.5778 0.0000 0.0000
# 5 0.0000 0.0000 0.0000 0.0000 31.7241 0.0000
# 6 0.0000 0.0000 0.0000 0.0000 0.0000 20.2442
#
#
#
# Elastic Compliance Matrix: (Units=1/GPa)
#
#
# Indices 1 2 3 4 5 6 
#
# 1 0.012650 -0.003354 -0.006034 0.000000 0.000000 0.000000
# 2 -0.003354 0.010535 -0.003683 0.000000 0.000000 0.000000
# 3 -0.006034 -0.003683 0.017689 0.000000 0.000000 0.000000
# 4 0.000000 0.000000 0.000000 -0.027339 0.000000 0.000000
# 5 0.000000 0.000000 0.000000 0.000000 0.031522 0.000000
# 6 0.000000 0.000000 0.000000 0.000000 0.000000 0.049397
#
#
# Mechanical properties :
#
#
# Convention : Reuss Voigt Hill
#
# Bulk Modulus (GPa) = 67.88264 71.12229 69.50247
# Shear Modulus (GPa) = 39.83851 14.90007 27.36929
#
# Velocity S-wave (km/s) = 4.55781 2.78740 3.77778
# Velocity P-wave (km/s) = 7.94325 6.88809 7.43442
#
# Compressibility (1/GPa) = 0.01473131
#
# Stress axis : x y z
#
# Youngs Moduli (GPa) = 79.05117 94.92389 56.53157
#
# Poissons Ratio (x) = 0.31833 0.34113
# Poissons Ratio (y) = 0.26510 0.20823
# Poissons Ratio (z) = 0.47702 0.34965
#
# Static dielectric constant tensor:
#      x y z
#    x 1.683290 0.000000 0.000000 
#    y 0.000000 1.732110 0.000000 
#    z 0.000000 0.000000 1.681840 
# 
# From -- ./inp_files/11746.got.cif
#   From: 2010.05.17/outbox.cif.g08.bks.cpg/sg50_6_cif.got.tgz:11746.got - 2010.06.03 11:33:33.
