data_PCOD9396813
_publ_section_title
;
Structure prediction by ZEFSAII (Michael W. Deem and Ramdas Pophale) SiO2 
 PCOD9396813
Probable space group: P B A N
;
_chemical_formula_sum "Si O2"
_cell_formula_units_Z 58
_cell_length_a 7.645897
_cell_length_b 13.982303
_cell_length_c 24.821939
_cell_angle_alpha 90.000000
_cell_angle_beta 90.000000
_cell_angle_gamma 90.000000
_cell_volume 2653.645202
_symmetry_space_group_name_H-M "P B A N"
_symmetry_group_IT_number 50
_space_group.IT_coordinate_system_code '2'
_symmetry_cell_setting 'orthorhombic'
loop_
_space_group_symop_operation_xyz
x,y,z
1/2-x,1/2-y,z
x,1/2-y,-z
1/2-x,y,-z
-x,-y,-z
1/2+x,1/2+y,-z
-x,1/2+y,z
1/2+x,-y,z
loop_
_atom_site_type_symbol
_atom_site_label
_atom_site_fract_x
_atom_site_fract_y
_atom_site_fract_z
Si Si1 0.750000 0.750000 0.500000
Si Si2 0.953515 0.648736 0.331523
Si Si3 0.441066 0.250885 0.144842
Si Si4 0.330677 0.553605 0.335998
Si Si5 0.008531 0.618424 0.950792
Si Si6 0.580271 0.099655 0.930977
Si Si7 0.556345 0.203330 0.423108
Si Si8 0.935153 0.298232 0.254709
O O1 0.603476 0.809559 0.534466
O O2 0.134648 0.590705 0.328709
O O3 0.974171 0.719575 0.381723
O O4 0.936220 0.719062 0.280666
O O5 0.823364 0.560714 0.337770
O O6 0.250000 0.250000 0.169241
O O7 0.426428 0.191602 0.090051
O O8 0.512506 0.352149 0.123572
O O9 0.554693 0.199799 0.190451
O O10 0.402035 0.606715 0.389760
O O11 0.436460 0.601047 0.285657
O O12 0.216613 0.623964 0.939561
O O13 0.942215 0.513773 0.934318
O O14 0.982371 0.633991 0.014352
O O15 0.750000 0.250000 0.438863
O O16 0.750000 0.250000 0.268988
#
# Coordination Sequence:
#
# PCOD9396813 Si02
#       8
#     2   8   8   8   8   8   8   8
#     4  12  22  36  68  90 120 170 198 240 294 330
#     4   9  19  37  63  85 114 152 194 239 287 342
#     4  12  24  36  54  83 117 149 188 237 291 344
#     4   9  19  37  63  85 114 152 194 239 287 342
#     4  10  21  38  59  81 107 146 190 234 288 350
#     4  10  21  38  59  81 107 146 190 234 288 350
#     4   9  21  40  59  89 126 159 198 242 293 343
#     4   9  20  39  56  81 113 152 189 240 298 342
#
# _framework density 21.856725000000001
#
# number of rings (size 3 to 8) (size 9 to 14) (size 15 to 20)
#    0.000    2.207    0.000    4.345    1.931    5.517 
#    2.483    3.448    0.000    0.000    0.000    0.000 
#    0.000    0.000    0.000    0.000    0.000    0.000 
#
# Total GULP energy -323394.375613 kJ/mol
# GULP energy per Si atom -5575.765097 kJ/mol
# Density = 2.180698 g / cm^3
# Si number density = 21.856725 Si / 1000 Ang^3
#
#
#
# Elastic Constant Matrix: (Units=GPa)
#
#
# Indices 1 2 3 4 5 6 
#
# 1 82.9862 -4.2809 17.2427 0.0000 0.0000 0.0000
# 2 -4.2809 43.3806 10.1996 0.0000 0.0000 0.0000
# 3 17.2427 10.1996 70.1214 0.0000 0.0000 0.0000
# 4 0.0000 0.0000 0.0000 -0.0401 0.0000 0.0000
# 5 0.0000 0.0000 0.0000 0.0000 22.7933 0.0000
# 6 0.0000 0.0000 0.0000 0.0000 0.0000 27.0522
#
#
#
# Elastic Compliance Matrix: (Units=1/GPa)
#
#
# Indices 1 2 3 4 5 6 
#
# 1 0.012879 0.002087 -0.003470 0.000000 0.000000 0.000000
# 2 0.002087 0.024206 -0.004034 0.000000 0.000000 0.000000
# 3 -0.003470 -0.004034 0.015701 0.000000 0.000000 0.000000
# 4 0.000000 0.000000 0.000000-24.912181 0.000000 0.000000
# 5 0.000000 0.000000 0.000000 0.000000 0.043873 0.000000
# 6 0.000000 0.000000 0.000000 0.000000 0.000000 0.036966
#
#
# Mechanical properties :
#
#
# Convention : Reuss Voigt Hill
#
# Bulk Modulus (GPa) = 23.83735 26.97899 25.40817
# Shear Modulus (GPa) = -0.20199 21.51619 10.65710
#
# Velocity S-wave (km/s) = -0.30433 3.14095 2.21054
# Velocity P-wave (km/s) = 3.28731 5.05217 4.26209
#
# Compressibility (1/GPa) = 0.04195096
#
# Stress axis : x y z
#
# Youngs Moduli (GPa) = 77.64621 41.31173 63.68962
#
# Poissons Ratio (x) = -0.08621 0.22103
# Poissons Ratio (y) = -0.16204 0.25693
# Poissons Ratio (z) = 0.26947 0.16666
#
# Static dielectric constant tensor:
#      x y z
#    x 2.092180 0.000000 0.000000 
#    y 0.000000 1.806360 0.000000 
#    z 0.000000 0.000000 1.792110 
# 
# From -- ./inp_files/31593.got.cif
#   From: 2010.05.17/outbox.cif.g08.bks.cpg/sg50_16_cif.got.tgz:31593.got - 2010.06.03 11:33:33.
