data_PCOD9396274
_publ_section_title
;
Structure prediction by ZEFSAII (Michael W. Deem and Ramdas Pophale) SiO2 
 PCOD9396274
Probable space group: P B A N
;
_chemical_formula_sum "Si O2"
_cell_formula_units_Z 64
_cell_length_a 12.535720
_cell_length_b 27.850553
_cell_length_c 9.942337
_cell_angle_alpha 90.000000
_cell_angle_beta 90.000000
_cell_angle_gamma 90.000000
_cell_volume 3471.135648
_symmetry_space_group_name_H-M "P B A N"
_symmetry_group_IT_number 50
_space_group.IT_coordinate_system_code '2'
_symmetry_cell_setting 'orthorhombic'
loop_
_space_group_symop_operation_xyz
x,y,z
1/2-x,1/2-y,z
x,1/2-y,-z
1/2-x,y,-z
-x,-y,-z
1/2+x,1/2+y,-z
-x,1/2+y,z
1/2+x,-y,z
loop_
_atom_site_type_symbol
_atom_site_label
_atom_site_fract_x
_atom_site_fract_y
_atom_site_fract_z
Si Si1 0.141857 0.560967 0.855732
Si Si2 0.164591 0.660359 0.740924
Si Si3 0.537536 0.634207 0.444072
Si Si4 0.017083 0.029033 0.637125
Si Si5 0.866133 0.773403 0.363522
Si Si6 0.388249 0.543873 0.853800
Si Si7 0.592401 0.354456 0.285563
Si Si8 0.950178 0.251699 0.841113
O O1 0.151119 0.619033 0.854676
O O2 0.260660 0.541340 0.856455
O O3 0.089368 0.544632 0.716604
O O4 0.080562 0.543048 0.988525
O O5 0.281305 0.651307 0.676681
O O6 0.141516 0.713511 0.797253
O O7 0.067908 0.649864 0.639480
O O8 0.567682 0.579918 0.406002
O O9 0.630565 0.670388 0.399307
O O10 0.493828 0.640692 0.595089
O O11 0.073806 0.995934 0.748308
O O12 0.000000 0.000000 0.500000
O O13 0.750000 0.750000 0.344892
O O14 0.914151 0.750000 0.500000
O O15 0.942907 0.763799 0.238478
O O16 0.417445 0.596488 0.797869
O O17 0.572420 0.305945 0.203467
O O18 0.963621 0.250000 0.000000
#
# Coordination Sequence:
#
# PCOD9396274 Si02
#       8
#     8   8   8   8   8   8   8   8
#     4   9  20  37  56  80 114 156 192 229 289 349
#     4   9  20  33  55  84 120 155 182 227 280 349
#     4  10  20  37  56  86 115 147 196 244 289 345
#     4  11  21  36  58  85 115 147 192 246 290 339
#     4  10  21  41  63  78 105 151 195 238 293 340
#     4  10  20  36  57  81 115 156 191 231 287 353
#     4  11  19  33  56  86 120 153 187 221 289 353
#     4  11  22  35  56  88 118 144 186 236 280 342
#
# _framework density 18.43777
#
# number of rings (size 3 to 8) (size 9 to 14) (size 15 to 20)
#    0.000    1.875    2.500    1.875    0.000    2.750 
#    0.000    5.000    0.000    4.500    0.000    0.000 
#    0.000    0.000    0.000    0.000    0.000    0.000 
#
# Total GULP energy -356556.506463 kJ/mol
# GULP energy per Si atom -5571.195413 kJ/mol
# Density = 1.839580 g / cm^3
# Si number density = 18.437770 Si / 1000 Ang^3
#
#
#
# Elastic Constant Matrix: (Units=GPa)
#
#
# Indices 1 2 3 4 5 6 
#
# 1 50.4770 28.6561 16.1475 0.0000 0.0000 0.0000
# 2 28.6561 153.0520 48.0059 0.0000 0.0000 0.0000
# 3 16.1475 48.0059 99.3783 0.0000 0.0000 0.0000
# 4 0.0000 0.0000 0.0000 17.8988 0.0000 0.0000
# 5 0.0000 0.0000 0.0000 0.0000 18.9152 0.0000
# 6 0.0000 0.0000 0.0000 0.0000 0.0000 23.8111
#
#
#
# Elastic Compliance Matrix: (Units=1/GPa)
#
#
# Indices 1 2 3 4 5 6 
#
# 1 0.022470 -0.003609 -0.001908 0.000000 0.000000 0.000000
# 2 -0.003609 0.008280 -0.003413 0.000000 0.000000 0.000000
# 3 -0.001908 -0.003413 0.012021 0.000000 0.000000 0.000000
# 4 0.000000 0.000000 0.000000 0.055870 0.000000 0.000000
# 5 0.000000 0.000000 0.000000 0.000000 0.052867 0.000000
# 6 0.000000 0.000000 0.000000 0.000000 0.000000 0.041997
#
#
# Mechanical properties :
#
#
# Convention : Reuss Voigt Hill
#
# Bulk Modulus (GPa) = 40.14194 54.28072 47.21133
# Shear Modulus (GPa) = 22.76148 26.13156 24.44652
#
# Velocity S-wave (km/s) = 3.51736 3.76877 3.64523
# Velocity P-wave (km/s) = 6.18988 6.96003 6.58622
#
# Compressibility (1/GPa) = 0.02491160
#
# Stress axis : x y z
#
# Youngs Moduli (GPa) = 44.50385 120.77264 83.18471
#
# Poissons Ratio (x) = 0.43583 0.15870
# Poissons Ratio (y) = 0.16060 0.28394
# Poissons Ratio (z) = 0.08491 0.41225
#
# Static dielectric constant tensor:
#      x y z
#    x 1.634340 0.000000 0.000000 
#    y 0.000000 1.668760 0.000000 
#    z 0.000000 0.000000 1.640040 
# 
# From -- ./inp_files/11867.got.cif
#   From: 2010.05.17/outbox.cif.g08.bks.cpg/sg50_6_cif.got.tgz:11867.got - 2010.06.03 11:33:33.
