data_PCOD9396052
_publ_section_title
;
Structure prediction by ZEFSAII (Michael W. Deem and Ramdas Pophale) SiO2 
 PCOD9396052
Probable space group: P B A N
;
_chemical_formula_sum "Si O2"
_cell_formula_units_Z 44
_cell_length_a 17.063535
_cell_length_b 8.024822
_cell_length_c 13.621374
_cell_angle_alpha 90.000000
_cell_angle_beta 90.000000
_cell_angle_gamma 90.000000
_cell_volume 1865.199683
_symmetry_space_group_name_H-M "P B A N"
_symmetry_group_IT_number 50
_space_group.IT_coordinate_system_code '2'
_symmetry_cell_setting 'orthorhombic'
loop_
_space_group_symop_operation_xyz
x,y,z
1/2-x,1/2-y,z
x,1/2-y,-z
1/2-x,y,-z
-x,-y,-z
1/2+x,1/2+y,-z
-x,1/2+y,z
1/2+x,-y,z
loop_
_atom_site_type_symbol
_atom_site_label
_atom_site_fract_x
_atom_site_fract_y
_atom_site_fract_z
Si Si1 0.750000 0.250000 0.172719
Si Si2 0.400454 0.704192 0.710872
Si Si3 0.058594 0.159992 0.791852
Si Si4 0.340018 0.194539 0.641593
Si Si5 0.750000 0.504085 0.000000
Si Si6 0.892261 0.750000 0.000000
Si Si7 0.592277 0.493780 0.478988
O O1 0.676505 0.218132 0.242326
O O2 0.733603 0.399244 0.097710
O O3 0.413809 0.526168 0.766196
O O4 0.476911 0.809671 0.736781
O O5 0.393075 0.658519 0.595687
O O6 0.121047 0.292598 0.747644
O O7 0.056096 0.196010 0.907228
O O8 0.250000 0.250000 0.643020
O O9 0.384347 0.344331 0.585050
O O10 0.359034 0.029227 0.578916
O O11 0.829422 0.604481 0.021639
O O12 0.500000 0.500000 0.500000
#
# Coordination Sequence:
#
# PCOD9396052 Si02
#       7
#     4   8   8   8   4   4   8
#     4  11  24  48  70 104 147 192 233 308 367 426
#     4  11  25  45  71 105 145 188 237 297 367 427
#     4  11  25  44  68 105 144 188 241 294 358 436
#     4  10  22  41  68 100 136 188 237 296 354 424
#     4  10  24  44  70 100 150 186 238 302 370 414
#     4  11  24  42  70 107 138 192 248 293 350 452
#     4  10  19  40  66  95 135 180 229 284 346 424
#
# _framework density 23.589967999999999
#
# number of rings (size 3 to 8) (size 9 to 14) (size 15 to 20)
#    0.000    1.455    3.636    1.091    5.091    2.182 
#    0.000    1.818    0.000    0.000    0.000    0.000 
#    0.000    0.000    0.000    0.000    0.000    0.000 
#
# Total GULP energy -246197.031078 kJ/mol
# GULP energy per Si atom -5595.387070 kJ/mol
# Density = 2.353628 g / cm^3
# Si number density = 23.589968 Si / 1000 Ang^3
#
#
#
# Elastic Constant Matrix: (Units=GPa)
#
#
# Indices 1 2 3 4 5 6 
#
# 1 148.1179 4.8750 27.8432 0.0000 0.0000 0.0000
# 2 4.8750 43.3298 0.5765 0.0000 0.0000 0.0000
# 3 27.8432 0.5765 113.4931 0.0000 0.0000 0.0000
# 4 0.0000 0.0000 0.0000 90.7062 0.0000 0.0000
# 5 0.0000 0.0000 0.0000 0.0000 299.8999 0.0000
# 6 0.0000 0.0000 0.0000 0.0000 0.0000 92.6980
#
#
#
# Elastic Compliance Matrix: (Units=1/GPa)
#
#
# Indices 1 2 3 4 5 6 
#
# 1 0.007104 -0.000776 -0.001739 0.000000 0.000000 0.000000
# 2 -0.000776 0.023165 0.000073 0.000000 0.000000 0.000000
# 3 -0.001739 0.000073 0.009237 0.000000 0.000000 0.000000
# 4 0.000000 0.000000 0.000000 0.011025 0.000000 0.000000
# 5 0.000000 0.000000 0.000000 0.000000 0.003334 0.000000
# 6 0.000000 0.000000 0.000000 0.000000 0.000000 0.010788
#
#
# Mechanical properties :
#
#
# Convention : Reuss Voigt Hill
#
# Bulk Modulus (GPa) = 28.88348 41.28113 35.08231
# Shear Modulus (GPa) = 61.66896 114.77056 88.21976
#
# Velocity S-wave (km/s) = 5.11847 6.98269 6.12196
# Velocity P-wave (km/s) = 6.87039 9.08559 8.05451
#
# Compressibility (1/GPa) = 0.03462187
#
# Stress axis : x y z
#
# Youngs Moduli (GPa) = 140.76998 43.16828 108.25647
#
# Poissons Ratio (x) = 0.03350 0.18824
# Poissons Ratio (y) = 0.10925 -0.00787
# Poissons Ratio (z) = 0.24477 -0.00314
#
# Static dielectric constant tensor:
#      x y z
#    x 1.803710 0.000000 0.000000 
#    y 0.000000 1.953570 0.000000 
#    z 0.000000 0.000000 1.947170 
# 
# From -- ./inp_files/26820.got.cif
#   From: 2010.05.17/outbox.cif.g08.bks.cpg/sg50_14_cif.got.tgz:26820.got - 2010.06.03 11:33:33.
