data_PCOD9396674
_publ_section_title
;
Structure prediction by ZEFSAII (Michael W. Deem and Ramdas Pophale) SiO2 
 PCOD9396674
Probable space group: P B A N
;
_chemical_formula_sum "Si O2"
_cell_formula_units_Z 48
_cell_length_a 13.769806
_cell_length_b 13.362940
_cell_length_c 13.466174
_cell_angle_alpha 90.000000
_cell_angle_beta 90.000000
_cell_angle_gamma 90.000000
_cell_volume 2477.844578
_symmetry_space_group_name_H-M "P B A N"
_symmetry_group_IT_number 50
_space_group.IT_coordinate_system_code '2'
_symmetry_cell_setting 'orthorhombic'
loop_
_space_group_symop_operation_xyz
x,y,z
1/2-x,1/2-y,z
x,1/2-y,-z
1/2-x,y,-z
-x,-y,-z
1/2+x,1/2+y,-z
-x,1/2+y,z
1/2+x,-y,z
loop_
_atom_site_type_symbol
_atom_site_label
_atom_site_fract_x
_atom_site_fract_y
_atom_site_fract_z
Si Si1 0.866085 0.359051 0.283488
Si Si2 0.368588 0.062549 0.612595
Si Si3 0.634404 0.750000 0.249362
Si Si4 0.866084 0.140949 0.283488
Si Si5 0.868588 0.937451 0.387405
Si Si6 0.461728 0.750000 0.116244
O O1 0.898848 0.454817 0.344634
O O2 0.885223 0.250000 0.332958
O O3 0.750000 0.367353 0.271490
O O4 0.913141 0.343759 0.174872
O O5 0.393895 0.152721 0.686168
O O6 0.250000 0.061956 0.609477
O O7 0.402086 0.078886 0.500000
O O8 0.750000 0.750000 0.234637
O O9 0.606105 0.652721 0.313833
O O10 0.573863 0.750000 0.148436
O O11 0.913141 0.156241 0.174872
O O12 0.898848 0.045183 0.344634
O O13 0.445723 0.750000 0.000000
#
# Coordination Sequence:
#
# PCOD9396674 Si02
#       6
#     8   8   8   8   8   8
#     4   8  17  34  56  82 109 132 169 218 266 322
#     4   9  17  33  57  81 110 146 173 207 262 317
#     4  10  21  36  53  77 110 143 185 220 247 306
#     4   8  17  34  56  82 109 132 169 218 266 322
#     4   9  17  33  57  81 110 146 173 207 262 317
#     4  10  21  38  57  76 104 141 179 226 275 311
#
# _framework density 19.371673999999999
#
# number of rings (size 3 to 8) (size 9 to 14) (size 15 to 20)
#    1.000    2.000    0.000    0.500    0.000    5.667 
#    0.000   11.667    0.000    6.000    0.000    0.000 
#    0.000    0.000    0.000    0.000    0.000    0.000 
#
# Total GULP energy -267483.672499 kJ/mol
# GULP energy per Si atom -5572.576510 kJ/mol
# Density = 1.932758 g / cm^3
# Si number density = 19.371674 Si / 1000 Ang^3
#
#
#
# Elastic Constant Matrix: (Units=GPa)
#
#
# Indices 1 2 3 4 5 6 
#
# 1 61.8945 9.2841 -7.8478 0.0000 0.0000 0.0000
# 2 9.2841 96.3106 11.1719 0.0000 0.0000 0.0000
# 3 -7.8478 11.1719 43.6775 0.0000 0.0000 0.0000
# 4 0.0000 0.0000 0.0000 3.0156 0.0000 0.0000
# 5 0.0000 0.0000 0.0000 0.0000 26.5661 0.0000
# 6 0.0000 0.0000 0.0000 0.0000 0.0000 25.8023
#
#
#
# Elastic Compliance Matrix: (Units=1/GPa)
#
#
# Indices 1 2 3 4 5 6 
#
# 1 0.016915 -0.002044 0.003562 0.000000 0.000000 0.000000
# 2 -0.002044 0.010947 -0.003167 0.000000 0.000000 0.000000
# 3 0.003562 -0.003167 0.024345 0.000000 0.000000 0.000000
# 4 0.000000 0.000000 0.000000 0.331607 0.000000 0.000000
# 5 0.000000 0.000000 0.000000 0.000000 0.037642 0.000000
# 6 0.000000 0.000000 0.000000 0.000000 0.000000 0.038756
#
#
# Mechanical properties :
#
#
# Convention : Reuss Voigt Hill
#
# Bulk Modulus (GPa) = 20.44610 25.23323 22.83967
# Shear Modulus (GPa) = 10.42070 23.69511 17.05791
#
# Velocity S-wave (km/s) = 2.32186 3.50120 2.97064
# Velocity P-wave (km/s) = 4.21492 5.42205 4.85614
#
# Compressibility (1/GPa) = 0.04890908
#
# Stress axis : x y z
#
# Youngs Moduli (GPa) = 59.12020 91.34511 41.07578
#
# Poissons Ratio (x) = 0.18668 -0.14631
# Poissons Ratio (y) = 0.12082 0.13010
# Poissons Ratio (z) = -0.21058 0.28932
#
# Static dielectric constant tensor:
#      x y z
#    x 1.755890 0.000000 0.000000 
#    y 0.000000 1.680030 0.000000 
#    z 0.000000 0.000000 1.607550 
# 
# From -- ./inp_files/26407.got.cif
#   From: 2010.05.17/outbox.cif.g08.bks.cpg/sg50_14_cif.got.tgz:26407.got - 2010.06.03 11:33:33.
