data_PCOD9396473
_publ_section_title
;
Structure prediction by ZEFSAII (Michael W. Deem and Ramdas Pophale) SiO2 
 PCOD9396473
Probable space group: P B A N
;
_chemical_formula_sum "Si O2"
_cell_formula_units_Z 34
_cell_length_a 10.732812
_cell_length_b 13.463381
_cell_length_c 10.851187
_cell_angle_alpha 90.000000
_cell_angle_beta 90.000000
_cell_angle_gamma 90.000000
_cell_volume 1567.995840
_symmetry_space_group_name_H-M "P B A N"
_symmetry_group_IT_number 50
_space_group.IT_coordinate_system_code '2'
_symmetry_cell_setting 'orthorhombic'
loop_
_space_group_symop_operation_xyz
x,y,z
1/2-x,1/2-y,z
x,1/2-y,-z
1/2-x,y,-z
-x,-y,-z
1/2+x,1/2+y,-z
-x,1/2+y,z
1/2+x,-y,z
loop_
_atom_site_type_symbol
_atom_site_label
_atom_site_fract_x
_atom_site_fract_y
_atom_site_fract_z
Si Si1 0.371084 0.475548 0.662847
Si Si2 0.846921 0.660725 0.274045
Si Si3 0.041289 0.853933 0.503597
Si Si4 0.750000 0.250000 0.000000
Si Si5 0.458192 0.588475 0.905875
O O1 0.236359 0.433782 0.691292
O O2 0.378744 0.555826 0.554739
O O3 0.468120 0.390839 0.617627
O O4 0.414054 0.528485 0.786195
O O5 0.750000 0.750000 0.266412
O O6 0.938625 0.668897 0.390287
O O7 0.922123 0.647726 0.147249
O O8 0.111124 0.750000 0.500000
O O9 0.649758 0.169056 0.941661
O O10 0.500000 0.500000 0.000000
#
# Coordination Sequence:
#
# PCOD9396473 Si02
#       5
#     8   8   8   2   8
#     4  10  22  39  65 104 140 184 235 294 358 436
#     4  11  22  40  71 102 137 183 235 294 363 447
#     4  10  20  38  66 102 146 185 232 290 361 439
#     4  12  28  52  74 102 146 196 256 318 372 444
#     4  11  27  48  71 100 144 188 246 310 371 440
#
# _framework density 21.683731000000002
#
# number of rings (size 3 to 8) (size 9 to 14) (size 15 to 20)
#    0.000    1.412    2.353    2.118    3.294    0.000 
#    0.000    4.706    0.000    5.647    0.000    0.000 
#    0.000    0.000    0.000    0.000    0.000    0.000 
#
# Total GULP energy -189605.386192 kJ/mol
# GULP energy per Si atom -5576.629006 kJ/mol
# Density = 2.163438 g / cm^3
# Si number density = 21.683731 Si / 1000 Ang^3
#
#
#
# Elastic Constant Matrix: (Units=GPa)
#
#
# Indices 1 2 3 4 5 6 
#
# 1 141.8572 63.1348 57.6384 0.0000 0.0000 0.0000
# 2 63.1348 137.3808 44.5478 0.0000 0.0000 0.0000
# 3 57.6384 44.5478 101.9659 0.0000 0.0000 0.0000
# 4 0.0000 0.0000 0.0000 15.0746 0.0000 0.0000
# 5 0.0000 0.0000 0.0000 0.0000 35.6198 0.0000
# 6 0.0000 0.0000 0.0000 0.0000 0.0000 40.6533
#
#
#
# Elastic Compliance Matrix: (Units=1/GPa)
#
#
# Indices 1 2 3 4 5 6 
#
# 1 0.010303 -0.003316 -0.004375 0.000000 0.000000 0.000000
# 2 -0.003316 0.009548 -0.002297 0.000000 0.000000 0.000000
# 3 -0.004375 -0.002297 0.013284 0.000000 0.000000 0.000000
# 4 0.000000 0.000000 0.000000 0.066337 0.000000 0.000000
# 5 0.000000 0.000000 0.000000 0.000000 0.028074 0.000000
# 6 0.000000 0.000000 0.000000 0.000000 0.000000 0.024598
#
#
# Mechanical properties :
#
#
# Convention : Reuss Voigt Hill
#
# Bulk Modulus (GPa) = 75.99761 79.09399 77.54580
# Shear Modulus (GPa) = 28.32765 32.66174 30.49470
#
# Velocity S-wave (km/s) = 3.61834 3.88529 3.75419
# Velocity P-wave (km/s) = 7.25126 7.52879 7.39133
#
# Compressibility (1/GPa) = 0.01315831
#
# Stress axis : x y z
#
# Youngs Moduli (GPa) = 97.06027 104.73668 75.27964
#
# Poissons Ratio (x) = 0.34732 0.32936
# Poissons Ratio (y) = 0.32186 0.17290
# Poissons Ratio (z) = 0.42465 0.24056
#
# Static dielectric constant tensor:
#      x y z
#    x 1.858440 0.000000 0.000000 
#    y 0.000000 1.913150 0.000000 
#    z 0.000000 0.000000 1.793500 
# 
# From -- ./inp_files/19847.got.cif
#   From: 2010.05.17/outbox.cif.g08.bks.cpg/sg50_10_cif.got.tgz:19847.got - 2010.06.03 11:33:33.
