data_PCOD9396490
_publ_section_title
;
Structure prediction by ZEFSAII (Michael W. Deem and Ramdas Pophale) SiO2 
 PCOD9396490
Probable space group: P B A N
;
_chemical_formula_sum "Si O2"
_cell_formula_units_Z 48
_cell_length_a 13.305430
_cell_length_b 19.192484
_cell_length_c 10.432523
_cell_angle_alpha 90.000000
_cell_angle_beta 90.000000
_cell_angle_gamma 90.000000
_cell_volume 2664.093436
_symmetry_space_group_name_H-M "P B A N"
_symmetry_group_IT_number 50
_space_group.IT_coordinate_system_code '2'
_symmetry_cell_setting 'orthorhombic'
loop_
_space_group_symop_operation_xyz
x,y,z
1/2-x,1/2-y,z
x,1/2-y,-z
1/2-x,y,-z
-x,-y,-z
1/2+x,1/2+y,-z
-x,1/2+y,z
1/2+x,-y,z
loop_
_atom_site_type_symbol
_atom_site_label
_atom_site_fract_x
_atom_site_fract_y
_atom_site_fract_z
Si Si1 0.637288 0.932425 0.965119
Si Si2 0.014702 0.475693 0.803851
Si Si3 0.139698 0.596796 0.663938
Si Si4 0.136776 0.278079 0.138069
Si Si5 0.867063 0.111670 0.360773
Si Si6 0.528272 0.256582 0.649179
O O1 0.640383 0.861261 0.883930
O O2 0.573432 0.987856 0.885589
O O3 0.750000 0.954003 0.000000
O O4 0.579377 0.927640 0.100642
O O5 0.082356 0.535852 0.739206
O O6 0.958278 0.430181 0.699899
O O7 0.257544 0.597640 0.698745
O O8 0.136534 0.589821 0.509698
O O9 0.085536 0.671399 0.681647
O O10 0.250000 0.250000 0.157243
O O11 0.064227 0.254456 0.252239
O O12 0.100462 0.250000 0.000000
O O13 0.893778 0.192762 0.342025
O O14 0.493682 0.250000 0.500000
#
# Coordination Sequence:
#
# PCOD9396490 Si02
#       6
#     8   8   8   8   8   8
#     4  11  22  38  58  86 114 157 196 235 296 349
#     4  11  22  37  61  85 122 151 195 245 290 360
#     4  10  20  39  60  86 119 153 195 244 295 353
#     4  11  21  37  62  84 117 157 198 243 294 358
#     4  10  21  36  61  88 115 157 195 239 299 353
#     4  10  21  39  62  87 118 154 202 249 296 351
#
# _framework density 18.017385999999998
#
# number of rings (size 3 to 8) (size 9 to 14) (size 15 to 20)
#    0.000    1.500    3.333    3.000    0.000    2.333 
#    0.000    0.000    0.000    1.000    0.000    0.000 
#    0.000    0.000    0.000    0.000    0.000    0.000 
#
# Total GULP energy -267746.242476 kJ/mol
# GULP energy per Si atom -5578.046718 kJ/mol
# Density = 1.797638 g / cm^3
# Si number density = 18.017386 Si / 1000 Ang^3
#
#
#
# Elastic Constant Matrix: (Units=GPa)
#
#
# Indices 1 2 3 4 5 6 
#
# 1 108.2193 9.9170 49.5556 0.0000 0.0000 0.0000
# 2 9.9170 34.7530 14.6148 0.0000 0.0000 0.0000
# 3 49.5556 14.6148 57.6748 0.0000 0.0000 0.0000
# 4 0.0000 0.0000 0.0000 31.0679 0.0000 0.0000
# 5 0.0000 0.0000 0.0000 0.0000 29.0424 0.0000
# 6 0.0000 0.0000 0.0000 0.0000 0.0000 18.4127
#
#
#
# Elastic Compliance Matrix: (Units=1/GPa)
#
#
# Indices 1 2 3 4 5 6 
#
# 1 0.015287 0.001300 -0.013464 0.000000 0.000000 0.000000
# 2 0.001300 0.032317 -0.009306 0.000000 0.000000 0.000000
# 3 -0.013464 -0.009306 0.031266 0.000000 0.000000 0.000000
# 4 0.000000 0.000000 0.000000 0.032188 0.000000 0.000000
# 5 0.000000 0.000000 0.000000 0.000000 0.034432 0.000000
# 6 0.000000 0.000000 0.000000 0.000000 0.000000 0.054310
#
#
# Mechanical properties :
#
#
# Convention : Reuss Voigt Hill
#
# Bulk Modulus (GPa) = 27.83288 38.75798 33.29543
# Shear Modulus (GPa) = 19.62961 24.14191 21.88576
#
# Velocity S-wave (km/s) = 3.30431 3.66447 3.48904
# Velocity P-wave (km/s) = 5.48081 6.28192 5.89499
#
# Compressibility (1/GPa) = 0.03592873
#
# Stress axis : x y z
#
# Youngs Moduli (GPa) = 65.41538 30.94337 31.98396
#
# Poissons Ratio (x) = -0.04023 0.43064
# Poissons Ratio (y) = -0.08504 0.29765
# Poissons Ratio (z) = 0.88077 0.28796
#
# Static dielectric constant tensor:
#      x y z
#    x 1.596430 0.000000 0.000000 
#    y 0.000000 1.621730 0.000000 
#    z 0.000000 0.000000 1.623430 
# 
# From -- ./inp_files/20170.got.cif
#   From: 2010.05.17/outbox.cif.g08.bks.cpg/sg50_11_cif.got.tgz:20170.got - 2010.06.03 11:33:33.
