data_PCOD9396896
_publ_section_title
;
Structure prediction by ZEFSAII (Michael W. Deem and Ramdas Pophale) SiO2 
 PCOD9396896
Probable space group: P B A N
;
_chemical_formula_sum "Si O2"
_cell_formula_units_Z 56
_cell_length_a 20.681466
_cell_length_b 9.676052
_cell_length_c 13.798214
_cell_angle_alpha 90.000000
_cell_angle_beta 90.000000
_cell_angle_gamma 90.000000
_cell_volume 2761.228773
_symmetry_space_group_name_H-M "P B A N"
_symmetry_group_IT_number 50
_space_group.IT_coordinate_system_code '2'
_symmetry_cell_setting 'orthorhombic'
loop_
_space_group_symop_operation_xyz
x,y,z
1/2-x,1/2-y,z
x,1/2-y,-z
1/2-x,y,-z
-x,-y,-z
1/2+x,1/2+y,-z
-x,1/2+y,z
1/2+x,-y,z
loop_
_atom_site_type_symbol
_atom_site_label
_atom_site_fract_x
_atom_site_fract_y
_atom_site_fract_z
Si Si1 0.004000 0.451084 0.782696
Si Si2 0.547505 0.194733 0.109225
Si Si3 0.134434 0.105874 0.331995
Si Si4 0.751732 0.906474 0.826324
Si Si5 0.827499 0.410064 0.509075
Si Si6 0.806806 0.172312 0.896762
Si Si7 0.128261 0.431403 0.302561
O O1 0.017713 0.544674 0.876781
O O2 0.068724 0.445448 0.719118
O O3 0.988016 0.298808 0.819242
O O4 0.942231 0.517955 0.730287
O O5 0.621917 0.185118 0.143288
O O6 0.544190 0.250000 0.000000
O O7 0.197646 0.087343 0.263614
O O8 0.128334 0.272691 0.341143
O O9 0.145092 0.014488 0.427553
O O10 0.750000 0.750000 0.863532
O O11 0.680170 0.939581 0.785818
O O12 0.781918 0.016246 0.900227
O O13 0.849018 0.250000 0.500000
O O14 0.750000 0.412390 0.500000
O O15 0.847413 0.469804 0.612586
O O16 0.750000 0.250000 0.838661
O O17 0.811402 0.250000 0.000000
#
# Coordination Sequence:
#
# PCOD9396896 Si02
#       7
#     8   8   8   8   8   8   8
#     4  12  24  43  65 101 134 179 230 273 336 400
#     4  11  24  43  68  95 135 180 228 285 335 399
#     4  11  23  42  67  94 137 175 219 274 327 397
#     4  10  21  39  66  95 128 179 224 274 329 398
#     4  11  25  42  67 104 134 169 221 274 332 401
#     4  10  21  39  63  96 131 170 220 279 344 390
#     4  11  24  42  68  97 134 179 222 268 336 400
#
# _framework density 20.280826000000001
#
# number of rings (size 3 to 8) (size 9 to 14) (size 15 to 20)
#    0.000    1.143    4.286    1.714    2.000    2.286 
#    0.000    1.429    0.000    0.000    0.000    0.000 
#    0.000    0.000    0.000    0.000    0.000    0.000 
#
# Total GULP energy -312698.458410 kJ/mol
# GULP energy per Si atom -5583.901043 kJ/mol
# Density = 2.023467 g / cm^3
# Si number density = 20.280826 Si / 1000 Ang^3
#
#
#
# Elastic Constant Matrix: (Units=GPa)
#
#
# Indices 1 2 3 4 5 6 
#
# 1 100.8833 8.8057 8.5960 0.0000 0.0000 0.0000
# 2 8.8057 95.6391 20.7766 0.0000 0.0000 0.0000
# 3 8.5960 20.7766 41.3890 0.0000 0.0000 0.0000
# 4 0.0000 0.0000 0.0000 87.3454 0.0000 0.0000
# 5 0.0000 0.0000 0.0000 0.0000 28.8162 0.0000
# 6 0.0000 0.0000 0.0000 0.0000 0.0000 20.6136
#
#
#
# Elastic Compliance Matrix: (Units=1/GPa)
#
#
# Indices 1 2 3 4 5 6 
#
# 1 0.010115 -0.000533 -0.001833 0.000000 0.000000 0.000000
# 2 -0.000533 0.011764 -0.005795 0.000000 0.000000 0.000000
# 3 -0.001833 -0.005795 0.027450 0.000000 0.000000 0.000000
# 4 0.000000 0.000000 0.000000 0.011449 0.000000 0.000000
# 5 0.000000 0.000000 0.000000 0.000000 0.034703 0.000000
# 6 0.000000 0.000000 0.000000 0.000000 0.000000 0.048512
#
#
# Mechanical properties :
#
#
# Convention : Reuss Voigt Hill
#
# Bulk Modulus (GPa) = 30.29582 34.91867 32.60724
# Shear Modulus (GPa) = 29.18568 40.67059 34.92813
#
# Velocity S-wave (km/s) = 3.79763 4.48300 4.15447
# Velocity P-wave (km/s) = 5.84807 6.63711 6.25505
#
# Compressibility (1/GPa) = 0.03300786
#
# Stress axis : x y z
#
# Youngs Moduli (GPa) = 98.86132 85.00607 36.42922
#
# Poissons Ratio (x) = 0.04531 0.06678
# Poissons Ratio (y) = 0.05270 0.21109
# Poissons Ratio (z) = 0.18123 0.49257
#
# Static dielectric constant tensor:
#      x y z
#    x 1.719360 0.000000 0.000000 
#    y 0.000000 1.735800 0.000000 
#    z 0.000000 0.000000 1.712150 
# 
# From -- ./inp_files/25264.got.cif
#   From: 2010.05.17/outbox.cif.g08.bks.cpg/sg50_13_cif.got.tgz:25264.got - 2010.06.03 11:33:33.
