data_PCOD9396631
_publ_section_title
;
Structure prediction by ZEFSAII (Michael W. Deem and Ramdas Pophale) SiO2 
 PCOD9396631
Probable space group: P B A N
;
_chemical_formula_sum "Si O2"
_cell_formula_units_Z 56
_cell_length_a 17.839926
_cell_length_b 24.599459
_cell_length_c 5.778088
_cell_angle_alpha 90.000000
_cell_angle_beta 90.000000
_cell_angle_gamma 90.000000
_cell_volume 2535.728527
_symmetry_space_group_name_H-M "P B A N"
_symmetry_group_IT_number 50
_space_group.IT_coordinate_system_code '2'
_symmetry_cell_setting 'orthorhombic'
loop_
_space_group_symop_operation_xyz
x,y,z
1/2-x,1/2-y,z
x,1/2-y,-z
1/2-x,y,-z
-x,-y,-z
1/2+x,1/2+y,-z
-x,1/2+y,z
1/2+x,-y,z
loop_
_atom_site_type_symbol
_atom_site_label
_atom_site_fract_x
_atom_site_fract_y
_atom_site_fract_z
Si Si1 0.822849 0.888095 0.348596
Si Si2 0.034299 0.385468 0.680334
Si Si3 0.721606 0.313368 0.753718
Si Si4 0.443047 0.808585 0.610905
Si Si5 0.897268 0.507064 0.755718
Si Si6 0.909707 0.808827 0.082246
Si Si7 0.062343 0.512514 0.749398
O O1 0.750000 0.884232 0.500000
O O2 0.893839 0.881116 0.516077
O O3 0.833209 0.947458 0.237253
O O4 0.836917 0.840877 0.167625
O O5 0.037247 0.448534 0.752484
O O6 0.961390 0.359059 0.559625
O O7 0.052065 0.346807 0.892803
O O8 0.750000 0.250000 0.754506
O O9 0.750000 0.334566 0.500000
O O10 0.631605 0.319623 0.756321
O O11 0.750000 0.336806 0.000000
O O12 0.426048 0.750000 0.500000
O O13 0.521689 0.800130 0.740189
O O14 0.895972 0.479834 0.497518
O O15 0.979122 0.538147 0.746752
O O16 0.897689 0.476676 0.004845
O O17 0.887050 0.750000 0.000000
#
# Coordination Sequence:
#
# PCOD9396631 Si02
#       7
#     8   8   8   8   8   8   8
#     4  10  22  39  56  83 118 155 213 272 320 385
#     4  10  21  36  55  84 116 157 203 258 311 364
#     4  10  21  33  52  81 110 137 187 244 294 350
#     4  11  21  34  55  81 112 156 203 258 295 360
#     4   9  17  33  59  87 111 144 180 247 313 373
#     4  11  22  35  57  78 113 160 215 264 315 360
#     4   9  17  33  57  87 118 136 185 242 311 377
#
# _framework density 22.084382000000002
#
# number of rings (size 3 to 8) (size 9 to 14) (size 15 to 20)
#    0.000    2.000    4.286    0.000    4.000    0.571 
#    0.000    2.143    0.000    0.857    0.000    0.000 
#    0.000    0.000    0.000    0.000    0.000    0.000 
#
# Total GULP energy -311997.758804 kJ/mol
# GULP energy per Si atom -5571.388550 kJ/mol
# Density = 2.203412 g / cm^3
# Si number density = 22.084382 Si / 1000 Ang^3
#
#
#
# Elastic Constant Matrix: (Units=GPa)
#
#
# Indices 1 2 3 4 5 6 
#
# 1 90.6990 21.5764 23.9593 0.0000 0.0000 0.0000
# 2 21.5764 60.1533 16.9895 0.0000 0.0000 0.0000
# 3 23.9593 16.9895 142.9635 0.0000 0.0000 0.0000
# 4 0.0000 0.0000 0.0000 -33.5852 0.0000 0.0000
# 5 0.0000 0.0000 0.0000 0.0000 34.0422 0.0000
# 6 0.0000 0.0000 0.0000 0.0000 0.0000 4.0035
#
#
#
# Elastic Compliance Matrix: (Units=1/GPa)
#
#
# Indices 1 2 3 4 5 6 
#
# 1 0.012399 -0.003995 -0.001603 0.000000 0.000000 0.000000
# 2 -0.003995 0.018489 -0.001528 0.000000 0.000000 0.000000
# 3 -0.001603 -0.001528 0.007445 0.000000 0.000000 0.000000
# 4 0.000000 0.000000 0.000000 -0.029775 0.000000 0.000000
# 5 0.000000 0.000000 0.000000 0.000000 0.029375 0.000000
# 6 0.000000 0.000000 0.000000 0.000000 0.000000 0.249781
#
#
# Mechanical properties :
#
#
# Convention : Reuss Voigt Hill
#
# Bulk Modulus (GPa) = 41.52552 46.54069 44.03310
# Shear Modulus (GPa) = 16.12940 16.31149 16.22044
#
# Velocity S-wave (km/s) = 2.70544 2.72066 2.71306
# Velocity P-wave (km/s) = 5.34819 5.56679 5.45858
#
# Compressibility (1/GPa) = 0.02408158
#
# Stress axis : x y z
#
# Youngs Moduli (GPa) = 80.64973 54.08767 134.31779
#
# Poissons Ratio (x) = 0.21606 0.21535
# Poissons Ratio (y) = 0.32217 0.20519
# Poissons Ratio (z) = 0.12930 0.08263
#
# Static dielectric constant tensor:
#      x y z
#    x 1.885480 0.000000 0.000000 
#    y 0.000000 1.919420 0.000000 
#    z 0.000000 0.000000 1.902480 
# 
# From -- ./inp_files/3742.got.cif
#   From: 2010.05.17/outbox.cif.g08.bks.cpg/sg50_2_cif.got.tgz:3742.got - 2010.06.03 11:33:33.
