data_PCOD9396347
_publ_section_title
;
Structure prediction by ZEFSAII (Michael W. Deem and Ramdas Pophale) SiO2 
 PCOD9396347
Probable space group: P B A N
;
_chemical_formula_sum "Si O2"
_cell_formula_units_Z 52
_cell_length_a 21.161459
_cell_length_b 23.457574
_cell_length_c 5.316794
_cell_angle_alpha 90.000000
_cell_angle_beta 90.000000
_cell_angle_gamma 90.000000
_cell_volume 2639.237882
_symmetry_space_group_name_H-M "P B A N"
_symmetry_group_IT_number 50
_space_group.IT_coordinate_system_code '2'
_symmetry_cell_setting 'orthorhombic'
loop_
_space_group_symop_operation_xyz
x,y,z
1/2-x,1/2-y,z
x,1/2-y,-z
1/2-x,y,-z
-x,-y,-z
1/2+x,1/2+y,-z
-x,1/2+y,z
1/2+x,-y,z
loop_
_atom_site_type_symbol
_atom_site_label
_atom_site_fract_x
_atom_site_fract_y
_atom_site_fract_z
Si Si1 0.750000 0.963057 0.000000
Si Si2 0.817087 0.883115 0.384330
Si Si3 0.586034 0.694997 0.140340
Si Si4 0.058331 0.784234 0.258033
Si Si5 0.552703 0.089651 0.419493
Si Si6 0.969398 0.583337 0.072353
Si Si7 0.135259 0.011970 0.294155
O O1 0.703526 0.919988 0.856644
O O2 0.796558 0.999700 0.828045
O O3 0.750000 0.864892 0.500000
O O4 0.863591 0.831729 0.328255
O O5 0.852211 0.930871 0.547564
O O6 0.518524 0.712272 0.257070
O O7 0.612060 0.750000 0.000000
O O8 0.567700 0.643222 0.954150
O O9 0.080167 0.750000 0.500000
O O10 0.078012 0.849523 0.314736
O O11 0.074841 0.750000 0.000000
O O12 0.515750 0.090284 0.686454
O O13 0.606931 0.042124 0.435720
O O14 0.503937 0.074302 0.194568
O O15 0.920088 0.532366 0.107932
#
# Coordination Sequence:
#
# PCOD9396347 Si02
#       7
#     4   8   8   8   8   8   8
#     4  10  22  40  59  76 117 156 196 250 308 342
#     4  10  22  40  59  78 114 159 203 263 306 337
#     4  10  20  37  62  78 112 162 206 243 297 362
#     4  10  20  37  56  85 123 153 184 234 297 356
#     4  11  23  35  61  94 119 155 197 240 301 379
#     4  11  22  37  59  88 124 153 192 257 306 353
#     4  11  22  37  61  83 119 153 198 246 311 364
#
# _framework density 19.702658
#
# number of rings (size 3 to 8) (size 9 to 14) (size 15 to 20)
#    0.000    1.538    1.538    5.538    2.154    0.000 
#    0.000    0.385    3.385    0.000    0.000    0.538 
#    0.000    0.000    0.000    0.000    0.000    0.000 
#
# Total GULP energy -290135.949296 kJ/mol
# GULP energy per Si atom -5579.537486 kJ/mol
# Density = 1.965781 g / cm^3
# Si number density = 19.702658 Si / 1000 Ang^3
#
#
#
# Elastic Constant Matrix: (Units=GPa)
#
#
# Indices 1 2 3 4 5 6 
#
# 1 32.6046 35.4286 12.4752 0.0000 0.0000 0.0000
# 2 35.4286 84.5707 8.9597 0.0000 0.0000 0.0000
# 3 12.4752 8.9597 74.1867 0.0000 0.0000 0.0000
# 4 0.0000 0.0000 0.0000 16.9886 0.0000 0.0000
# 5 0.0000 0.0000 0.0000 0.0000 10.2137 0.0000
# 6 0.0000 0.0000 0.0000 0.0000 0.0000 -79.7588
#
#
#
# Elastic Compliance Matrix: (Units=1/GPa)
#
#
# Indices 1 2 3 4 5 6 
#
# 1 0.059794 -0.024295 -0.007121 0.000000 0.000000 0.000000
# 2 -0.024295 0.021849 0.001447 0.000000 0.000000 0.000000
# 3 -0.007121 0.001447 0.014502 0.000000 0.000000 0.000000
# 4 0.000000 0.000000 0.000000 0.058863 0.000000 0.000000
# 5 0.000000 0.000000 0.000000 0.000000 0.097908 0.000000
# 6 0.000000 0.000000 0.000000 0.000000 0.000000 -0.012538
#
#
# Mechanical properties :
#
#
# Convention : Reuss Voigt Hill
#
# Bulk Modulus (GPa) = 27.61873 33.89879 30.75876
# Shear Modulus (GPa) = 16.00587 -1.54475 7.23056
#
# Velocity S-wave (km/s) = 2.85330 -0.88642 1.91776
# Velocity P-wave (km/s) = 4.99032 4.02429 4.53311
#
# Compressibility (1/GPa) = 0.03620731
#
# Stress axis : x y z
#
# Youngs Moduli (GPa) = 16.72404 45.76908 68.95489
#
# Poissons Ratio (x) = 1.11195 0.49102
# Poissons Ratio (y) = 0.40631 -0.09976
# Poissons Ratio (z) = 0.11909 -0.06621
#
# Static dielectric constant tensor:
#      x y z
#    x 1.737190 0.000000 0.000000 
#    y 0.000000 1.720440 0.000000 
#    z 0.000000 0.000000 1.819550 
# 
# From -- ./inp_files/5347.got.cif
#   From: 2010.05.17/outbox.cif.g08.bks.cpg/sg50_3_cif.got.tgz:5347.got - 2010.06.03 11:33:33.
