data_PCOD9396995
_publ_section_title
;
Structure prediction by ZEFSAII (Michael W. Deem and Ramdas Pophale) SiO2 
 PCOD9396995
Probable space group: P B A N
;
_chemical_formula_sum "Si O2"
_cell_formula_units_Z 48
_cell_length_a 8.782652
_cell_length_b 15.697582
_cell_length_c 16.494450
_cell_angle_alpha 90.000000
_cell_angle_beta 90.000000
_cell_angle_gamma 90.000000
_cell_volume 2274.030441
_symmetry_space_group_name_H-M "P B A N"
_symmetry_group_IT_number 50
_space_group.IT_coordinate_system_code '2'
_symmetry_cell_setting 'orthorhombic'
loop_
_space_group_symop_operation_xyz
x,y,z
1/2-x,1/2-y,z
x,1/2-y,-z
1/2-x,y,-z
-x,-y,-z
1/2+x,1/2+y,-z
-x,1/2+y,z
1/2+x,-y,z
loop_
_atom_site_type_symbol
_atom_site_label
_atom_site_fract_x
_atom_site_fract_y
_atom_site_fract_z
Si Si1 0.890041 0.615395 0.754611
Si Si2 0.040859 0.394889 0.586646
Si Si3 0.439823 0.658786 0.088335
Si Si4 0.750000 0.466811 0.500000
Si Si5 0.936141 0.543384 0.243653
Si Si6 0.750000 0.750000 0.631326
Si Si7 0.088954 0.635425 0.092798
O O1 0.742443 0.556952 0.758127
O O2 0.849672 0.689527 0.691559
O O3 0.932846 0.640921 0.845465
O O4 0.026220 0.552883 0.732024
O O5 0.160588 0.469636 0.561595
O O6 0.002591 0.400952 0.681729
O O7 0.135934 0.308165 0.579710
O O8 0.885494 0.410867 0.538373
O O9 0.270234 0.622386 0.104914
O O10 0.427495 0.761534 0.094654
O O11 0.470257 0.621030 0.998969
O O12 0.003603 0.580097 0.160070
#
# Coordination Sequence:
#
# PCOD9396995 Si02
#       7
#     8   8   8   4   8   4   8
#     4  11  22  37  60  88 122 165 210 258 308 362
#     4  10  21  41  67  96 129 163 204 255 317 387
#     4   9  18  35  56  83 122 161 207 256 310 366
#     4  10  22  41  72  99 126 166 202 252 328 392
#     4  11  22  37  59  86 118 159 207 254 309 369
#     4  10  22  39  66  97 132 168 208 262 314 372
#     4   9  19  35  57  84 118 163 205 258 315 366
#
# _framework density 21.107897000000001
#
# number of rings (size 3 to 8) (size 9 to 14) (size 15 to 20)
#    0.000    2.000    0.000    6.000    0.000    1.667 
#    0.000    1.667    0.000   37.000    0.000    0.000 
#    0.000    0.000    0.000    0.000    0.000    0.000 
#
# Total GULP energy -267658.549303 kJ/mol
# GULP energy per Si atom -5576.219777 kJ/mol
# Density = 2.105985 g / cm^3
# Si number density = 21.107897 Si / 1000 Ang^3
#
#
#
# Elastic Constant Matrix: (Units=GPa)
#
#
# Indices 1 2 3 4 5 6 
#
# 1 112.0800 55.7559 63.7042 0.0000 0.0000 0.0000
# 2 55.7559 94.9947 43.5035 0.0000 0.0000 0.0000
# 3 63.7042 43.5035 92.4815 0.0000 0.0000 0.0000
# 4 0.0000 0.0000 0.0000 26.9146 0.0000 0.0000
# 5 0.0000 0.0000 0.0000 0.0000 -9.7409 0.0000
# 6 0.0000 0.0000 0.0000 0.0000 0.0000 28.1720
#
#
#
# Elastic Compliance Matrix: (Units=1/GPa)
#
#
# Indices 1 2 3 4 5 6 
#
# 1 0.016871 -0.005838 -0.008875 0.000000 0.000000 0.000000
# 2 -0.005838 0.015437 -0.003241 0.000000 0.000000 0.000000
# 3 -0.008875 -0.003241 0.018451 0.000000 0.000000 0.000000
# 4 0.000000 0.000000 0.000000 0.037155 0.000000 0.000000
# 5 0.000000 0.000000 0.000000 0.000000 -0.102660 0.000000
# 6 0.000000 0.000000 0.000000 0.000000 0.000000 0.035496
#
#
# Mechanical properties :
#
#
# Convention : Reuss Voigt Hill
#
# Bulk Modulus (GPa) = 67.33002 69.49817 68.41409
# Shear Modulus (GPa) = 81.16048 18.17533 49.66790
#
# Velocity S-wave (km/s) = 6.20756 2.93758 4.85609
# Velocity P-wave (km/s) = 9.12938 6.67102 7.99525
#
# Compressibility (1/GPa) = 0.01485222
#
# Stress axis : x y z
#
# Youngs Moduli (GPa) = 59.27488 64.77831 54.19854
#
# Poissons Ratio (x) = 0.37815 0.48101
# Poissons Ratio (y) = 0.34602 0.17564
# Poissons Ratio (z) = 0.52606 0.20992
#
# Static dielectric constant tensor:
#      x y z
#    x 1.753540 0.000000 0.000000 
#    y 0.000000 1.827310 0.000000 
#    z 0.000000 0.000000 1.822430 
# 
# From -- ./inp_files/25049.got.cif
#   From: 2010.05.17/outbox.cif.g08.bks.cpg/sg50_13_cif.got.tgz:25049.got - 2010.06.03 11:33:33.
