data_PCOD9396678
_publ_section_title
;
Structure prediction by ZEFSAII (Michael W. Deem and Ramdas Pophale) SiO2 
 PCOD9396678
Probable space group: P B A N
;
_chemical_formula_sum "Si O2"
_cell_formula_units_Z 64
_cell_length_a 19.763186
_cell_length_b 8.758014
_cell_length_c 20.978026
_cell_angle_alpha 90.000000
_cell_angle_beta 90.000000
_cell_angle_gamma 90.000000
_cell_volume 3631.008056
_symmetry_space_group_name_H-M "P B A N"
_symmetry_group_IT_number 50
_space_group.IT_coordinate_system_code '2'
_symmetry_cell_setting 'orthorhombic'
loop_
_space_group_symop_operation_xyz
x,y,z
1/2-x,1/2-y,z
x,1/2-y,-z
1/2-x,y,-z
-x,-y,-z
1/2+x,1/2+y,-z
-x,1/2+y,z
1/2+x,-y,z
loop_
_atom_site_type_symbol
_atom_site_label
_atom_site_fract_x
_atom_site_fract_y
_atom_site_fract_z
Si Si1 0.573575 0.932308 0.745233
Si Si2 0.574219 0.933075 0.893391
Si Si3 0.329168 0.565105 0.360814
Si Si4 0.829168 0.065105 0.360814
Si Si5 0.829080 0.433362 1.000000
Si Si6 0.667739 0.428219 0.500000
Si Si7 0.925781 0.933075 0.893391
Si Si8 0.426425 0.067692 0.745233
O O1 0.588323 0.971189 0.819241
O O2 0.571533 0.750000 0.740297
O O3 0.627500 0.998847 0.696323
O O4 0.500000 0.000000 0.730198
O O5 0.572137 0.750000 0.900286
O O6 0.500000 1.000000 0.909393
O O7 0.630918 0.002066 0.939049
O O8 0.250000 0.525692 0.353595
O O9 0.333595 0.750000 0.360877
O O10 0.352947 0.508159 0.431093
O O11 0.372500 0.498847 0.303677
O O12 0.852947 0.008159 0.431093
O O13 0.869082 0.497934 0.060951
O O14 0.832920 0.250000 0.000000
O O15 0.750000 0.477811 0.000000
O O16 0.647698 0.250000 0.500000
O O17 0.750000 0.430750 0.500000
O O18 0.911677 0.971189 0.819241
#
# Coordination Sequence:
#
# PCOD9396678 Si02
#       8
#     8   8   8   8   8   8   8   8
#     4  10  21  36  54  77 105 137 174 215 258 306
#     4  10  21  38  59  79 103 138 176 213 255 307
#     4   9  17  31  53  78 104 136 173 214 260 310
#     4   9  17  31  53  78 104 136 173 214 260 310
#     4  11  24  39  56  81 111 139 170 211 254 299
#     4   7  12  26  48  73 100 133 173 211 252 307
#     4  10  21  38  59  79 103 138 176 213 255 307
#     4  10  21  36  54  77 105 137 174 215 258 306
#
# _framework density 17.625958000000001
#
# number of rings (size 3 to 8) (size 9 to 14) (size 15 to 20)
#    0.000    2.500    0.000    3.750    0.000    5.500 
#    0.000    6.250    0.000    2.250    0.000    0.000 
#    0.000    0.000    0.000    0.000    0.000    0.000 
#
# Total GULP energy -356928.012815 kJ/mol
# GULP energy per Si atom -5577.000200 kJ/mol
# Density = 1.758584 g / cm^3
# Si number density = 17.625958 Si / 1000 Ang^3
#
#
#
# Elastic Constant Matrix: (Units=GPa)
#
#
# Indices 1 2 3 4 5 6 
#
# 1 126.3731 49.8464 112.6318 0.0000 0.0000 0.0000
# 2 49.8464 40.0184 52.6374 0.0000 0.0000 0.0000
# 3 112.6318 52.6374 147.8446 0.0000 0.0000 0.0000
# 4 0.0000 0.0000 0.0000 15.5956 0.0000 0.0000
# 5 0.0000 0.0000 0.0000 0.0000 40.8807 0.0000
# 6 0.0000 0.0000 0.0000 0.0000 0.0000 31.0693
#
#
#
# Elastic Compliance Matrix: (Units=1/GPa)
#
#
# Indices 1 2 3 4 5 6 
#
# 1 0.027698 -0.012687 -0.016584 0.000000 0.000000 0.000000
# 2 -0.012687 0.052808 -0.009136 0.000000 0.000000 0.000000
# 3 -0.016584 -0.009136 0.022651 0.000000 0.000000 0.000000
# 4 0.000000 0.000000 0.000000 0.064121 0.000000 0.000000
# 5 0.000000 0.000000 0.000000 0.000000 0.024461 0.000000
# 6 0.000000 0.000000 0.000000 0.000000 0.000000 0.032186
#
#
# Mechanical properties :
#
#
# Convention : Reuss Voigt Hill
#
# Bulk Modulus (GPa) = 37.96118 82.71859 60.33989
# Shear Modulus (GPa) = 16.15397 24.11716 20.13556
#
# Velocity S-wave (km/s) = 3.03064 3.70303 3.38358
# Velocity P-wave (km/s) = 5.81637 8.08178 7.04079
#
# Compressibility (1/GPa) = 0.02634270
#
# Stress axis : x y z
#
# Youngs Moduli (GPa) = 36.10339 18.93649 44.14781
#
# Poissons Ratio (x) = 0.24024 0.73217
# Poissons Ratio (y) = 0.45803 0.40336
# Poissons Ratio (z) = 0.59875 0.17301
#
# Static dielectric constant tensor:
#      x y z
#    x 1.562440 0.000000 0.000000 
#    y 0.000000 1.593330 0.000000 
#    z 0.000000 0.000000 1.622570 
# 
# From -- ./inp_files/31116.got.cif
#   From: 2010.05.17/outbox.cif.g08.bks.cpg/sg50_16_cif.got.tgz:31116.got - 2010.06.03 11:33:33.
