data_PCOD9396233
_publ_section_title
;
Structure prediction by ZEFSAII (Michael W. Deem and Ramdas Pophale) SiO2 
 PCOD9396233
Probable space group: P B A N
;
_chemical_formula_sum "Si O2"
_cell_formula_units_Z 32
_cell_length_a 19.064639
_cell_length_b 7.691146
_cell_length_c 8.617538
_cell_angle_alpha 90.000000
_cell_angle_beta 90.000000
_cell_angle_gamma 90.000000
_cell_volume 1263.580307
_symmetry_space_group_name_H-M "P B A N"
_symmetry_group_IT_number 50
_space_group.IT_coordinate_system_code '2'
_symmetry_cell_setting 'orthorhombic'
loop_
_space_group_symop_operation_xyz
x,y,z
1/2-x,1/2-y,z
x,1/2-y,-z
1/2-x,y,-z
-x,-y,-z
1/2+x,1/2+y,-z
-x,1/2+y,z
1/2+x,-y,z
loop_
_atom_site_type_symbol
_atom_site_label
_atom_site_fract_x
_atom_site_fract_y
_atom_site_fract_z
Si Si1 0.622777 0.919372 0.397430
Si Si2 0.603097 0.108437 0.705591
Si Si3 0.750489 0.537478 0.817838
Si Si4 0.516546 0.790329 0.819724
O O1 0.649125 0.750000 0.500000
O O2 0.596226 0.053598 0.526904
O O3 0.684786 0.998419 0.293644
O O4 0.563450 0.835022 0.289113
O O5 0.682356 0.063479 0.750757
O O6 0.555654 0.971797 0.800565
O O7 0.563145 0.281869 0.758340
O O8 0.750000 0.750000 0.815124
O O9 0.750000 0.490330 0.000000
O O10 0.519488 0.750000 0.000000
#
# Coordination Sequence:
#
# PCOD9396233 Si02
#       4
#     8   8   8   8
#     4  10  20  35  59  91 121 158 209 267 310 367
#     4  11  23  37  62  91 121 162 204 260 319 372
#     4  11  20  35  61  90 117 153 216 266 304 365
#     4  11  22  38  58  89 126 161 201 252 316 380
#
# _framework density 25.324864000000002
#
# number of rings (size 3 to 8) (size 9 to 14) (size 15 to 20)
#    0.000    1.250    5.000    3.750    0.000    0.000 
#    0.000    0.000    0.000    5.250    0.000   14.000 
#    0.000    0.000    0.000    0.000    0.000    0.000 
#
# Total GULP energy -179195.592192 kJ/mol
# GULP energy per Si atom -5599.862256 kJ/mol
# Density = 2.526722 g / cm^3
# Si number density = 25.324864 Si / 1000 Ang^3
#
#
#
# Elastic Constant Matrix: (Units=GPa)
#
#
# Indices 1 2 3 4 5 6 
#
# 1 189.8190 17.9310 60.8026 0.0000 0.0000 0.0000
# 2 17.9310 63.1653 2.0548 0.0000 0.0000 0.0000
# 3 60.8026 2.0548 215.5888 0.0000 0.0000 0.0000
# 4 0.0000 0.0000 0.0000 17.4575 0.0000 0.0000
# 5 0.0000 0.0000 0.0000 0.0000 70.3617 0.0000
# 6 0.0000 0.0000 0.0000 0.0000 0.0000 8.5917
#
#
#
# Elastic Compliance Matrix: (Units=1/GPa)
#
#
# Indices 1 2 3 4 5 6 
#
# 1 0.005956 -0.001637 -0.001664 0.000000 0.000000 0.000000
# 2 -0.001637 0.016286 0.000306 0.000000 0.000000 0.000000
# 3 -0.001664 0.000306 0.005105 0.000000 0.000000 0.000000
# 4 0.000000 0.000000 0.000000 0.057282 0.000000 0.000000
# 5 0.000000 0.000000 0.000000 0.000000 0.014212 0.000000
# 6 0.000000 0.000000 0.000000 0.000000 0.000000 0.116391
#
#
# Mechanical properties :
#
#
# Convention : Reuss Voigt Hill
#
# Bulk Modulus (GPa) = 46.82071 70.01665 58.41868
# Shear Modulus (GPa) = 21.89712 45.13449 33.51581
#
# Velocity S-wave (km/s) = 2.94368 4.22622 3.64185
# Velocity P-wave (km/s) = 5.48469 7.17788 6.38764
#
# Compressibility (1/GPa) = 0.02135807
#
# Stress axis : x y z
#
# Youngs Moduli (GPa) = 167.90287 61.40214 195.89118
#
# Poissons Ratio (x) = 0.10049 0.32599
# Poissons Ratio (y) = 0.27478 -0.06001
# Poissons Ratio (z) = 0.27941 -0.01881
#
# Static dielectric constant tensor:
#      x y z
#    x 1.942130 0.000000 0.000000 
#    y 0.000000 2.367010 0.000000 
#    z 0.000000 0.000000 1.917740 
# 
# From -- ./inp_files/9119.got.cif
#   From: 2010.05.17/outbox.cif.g08.bks.cpg/sg50_5_cif.got.tgz:9119.got - 2010.06.03 11:33:33.
