data_PCOD9396114
_publ_section_title
;
Structure prediction by ZEFSAII (Michael W. Deem and Ramdas Pophale) SiO2 
 PCOD9396114
Probable space group: P B A N
;
_chemical_formula_sum "Si O2"
_cell_formula_units_Z 38
_cell_length_a 8.263634
_cell_length_b 17.251320
_cell_length_c 14.524610
_cell_angle_alpha 90.000000
_cell_angle_beta 90.000000
_cell_angle_gamma 90.000000
_cell_volume 2070.607987
_symmetry_space_group_name_H-M "P B A N"
_symmetry_group_IT_number 50
_space_group.IT_coordinate_system_code '2'
_symmetry_cell_setting 'orthorhombic'
loop_
_space_group_symop_operation_xyz
x,y,z
1/2-x,1/2-y,z
x,1/2-y,-z
1/2-x,y,-z
-x,-y,-z
1/2+x,1/2+y,-z
-x,1/2+y,z
1/2+x,-y,z
loop_
_atom_site_type_symbol
_atom_site_label
_atom_site_fract_x
_atom_site_fract_y
_atom_site_fract_z
Si Si1 0.850603 0.955292 0.911923
Si Si2 0.250000 0.250000 0.500000
Si Si3 0.437994 0.668096 0.022678
Si Si4 0.038408 0.408804 0.191553
Si Si5 0.750000 0.029006 0.500000
Si Si6 0.940013 0.893905 0.407287
O O1 0.721827 0.915140 0.844836
O O2 0.969038 0.896095 0.963336
O O3 0.948405 0.015083 0.848937
O O4 0.750000 0.989712 0.000000
O O5 0.139201 0.187740 0.558007
O O6 0.514021 0.750000 0.000000
O O7 0.250000 0.667420 0.000000
O O8 0.456110 0.657143 0.131224
O O9 0.026199 0.394445 0.298871
O O10 0.603601 0.081802 0.461997
O O11 0.819883 0.967299 0.425637
#
# Coordination Sequence:
#
# PCOD9396114 Si02
#       6
#     8   2   8   8   4   8
#     4  10  20  33  54  81 112 145 180 228 273 317
#     4  10  24  42  56  82 122 148 180 246 312 338
#     4  10  21  36  50  74 116 152 181 226 276 319
#     4  11  20  34  58  82 106 143 191 223 266 337
#     4   9  20  40  62  85 114 144 184 241 300 342
#     4  10  21  39  62  86 113 148 189 240 293 355
#
# _framework density 18.352098000000002
#
# number of rings (size 3 to 8) (size 9 to 14) (size 15 to 20)
#    0.000    1.895    0.000    5.684    0.000    5.895 
#    0.000    4.211    0.000    0.000    0.000    0.000 
#    0.000    0.000    0.000    0.000    0.000    0.000 
#
# Total GULP energy -211724.660853 kJ/mol
# GULP energy per Si atom -5571.701601 kJ/mol
# Density = 1.831033 g / cm^3
# Si number density = 18.352098 Si / 1000 Ang^3
#
#
#
# Elastic Constant Matrix: (Units=GPa)
#
#
# Indices 1 2 3 4 5 6 
#
# 1 93.5367 48.7737 39.8913 0.0000 0.0000 0.0000
# 2 48.7737 125.5909 74.0319 0.0000 0.0000 0.0000
# 3 39.8913 74.0319 157.6157 0.0000 0.0000 0.0000
# 4 0.0000 0.0000 0.0000 -16.8649 0.0000 0.0000
# 5 0.0000 0.0000 0.0000 0.0000 3.0193 0.0000
# 6 0.0000 0.0000 0.0000 0.0000 0.0000 23.1034
#
#
#
# Elastic Compliance Matrix: (Units=1/GPa)
#
#
# Indices 1 2 3 4 5 6 
#
# 1 0.013604 -0.004499 -0.001330 0.000000 0.000000 0.000000
# 2 -0.004499 0.012499 -0.004732 0.000000 0.000000 0.000000
# 3 -0.001330 -0.004732 0.008904 0.000000 0.000000 0.000000
# 4 0.000000 0.000000 0.000000 -0.059295 0.000000 0.000000
# 5 0.000000 0.000000 0.000000 0.000000 0.331200 0.000000
# 6 0.000000 0.000000 0.000000 0.000000 0.000000 0.043284
#
#
# Mechanical properties :
#
#
# Convention : Reuss Voigt Hill
#
# Bulk Modulus (GPa) = 72.02189 78.01521 75.01855
# Shear Modulus (GPa) = 13.29976 16.12131 14.71054
#
# Velocity S-wave (km/s) = 2.69494 2.96707 2.83428
# Velocity P-wave (km/s) = 7.00095 7.37160 7.18867
#
# Compressibility (1/GPa) = 0.01388467
#
# Stress axis : x y z
#
# Youngs Moduli (GPa) = 73.50622 80.00557 112.31236
#
# Poissons Ratio (x) = 0.35998 0.14935
# Poissons Ratio (y) = 0.33074 0.53147
# Poissons Ratio (z) = 0.09775 0.37859
#
# Static dielectric constant tensor:
#      x y z
#    x 1.653130 0.000000 0.000000 
#    y 0.000000 1.677170 0.000000 
#    z 0.000000 0.000000 1.601280 
# 
# From -- ./inp_files/18798.got.cif
#   From: 2010.05.17/outbox.cif.g08.bks.cpg/sg50_10_cif.got.tgz:18798.got - 2010.06.03 11:33:33.
