data_PCOD9396508
_publ_section_title
;
Structure prediction by ZEFSAII (Michael W. Deem and Ramdas Pophale) SiO2 
 PCOD9396508
Probable space group: P B A N
;
_chemical_formula_sum "Si O2"
_cell_formula_units_Z 20
_cell_length_a 9.610719
_cell_length_b 9.862103
_cell_length_c 9.199587
_cell_angle_alpha 90.000000
_cell_angle_beta 90.000000
_cell_angle_gamma 90.000000
_cell_volume 871.954341
_symmetry_space_group_name_H-M "P B A N"
_symmetry_group_IT_number 50
_space_group.IT_coordinate_system_code '2'
_symmetry_cell_setting 'orthorhombic'
loop_
_space_group_symop_operation_xyz
x,y,z
1/2-x,1/2-y,z
x,1/2-y,-z
1/2-x,y,-z
-x,-y,-z
1/2+x,1/2+y,-z
-x,1/2+y,z
1/2+x,-y,z
loop_
_atom_site_type_symbol
_atom_site_label
_atom_site_fract_x
_atom_site_fract_y
_atom_site_fract_z
Si Si1 0.250000 0.750000 0.749791
Si Si2 0.254057 0.042597 0.163053
Si Si3 0.017571 0.933743 0.343371
O O1 0.292702 0.618557 0.841152
O O2 0.378591 0.805882 0.656661
O O3 0.104552 0.038073 0.240696
O O4 0.372351 0.102849 0.267040
O O5 0.250000 0.095329 0.000000
O O6 0.000000 0.000000 0.500000
#
# Coordination Sequence:
#
# PCOD9396508 Si02
#       3
#     4   8   8
#     4   8  23  35  66  90 136 166 224 266 336 374
#     4  10  20  39  63  94 133 174 219 271 330 389
#     4  10  21  37  63  96 131 174 219 271 333 391
#
# _framework density 22.936979999999998
#
# number of rings (size 3 to 8) (size 9 to 14) (size 15 to 20)
#    2.400    0.000    0.000    3.000    0.000    3.200 
#    0.000    2.000    0.000    7.200    0.000    0.000 
#    0.000    0.000    0.000    0.000    0.000    0.000 
#
# Total GULP energy -111493.878492 kJ/mol
# GULP energy per Si atom -5574.693925 kJ/mol
# Density = 2.288477 g / cm^3
# Si number density = 22.936980 Si / 1000 Ang^3
#
#
#
# Elastic Constant Matrix: (Units=GPa)
#
#
# Indices 1 2 3 4 5 6 
#
# 1 110.7766 -5.9449 39.9117 0.0000 0.0000 0.0000
# 2 -5.9449 85.6280 3.8305 0.0000 0.0000 0.0000
# 3 39.9117 3.8305 177.6932 0.0000 0.0000 0.0000
# 4 0.0000 0.0000 0.0000 15.3841 0.0000 0.0000
# 5 0.0000 0.0000 0.0000 0.0000 332.1536 0.0000
# 6 0.0000 0.0000 0.0000 0.0000 0.0000 50.2913
#
#
#
# Elastic Compliance Matrix: (Units=1/GPa)
#
#
# Indices 1 2 3 4 5 6 
#
# 1 0.009875 0.000786 -0.002235 0.000000 0.000000 0.000000
# 2 0.000786 0.011752 -0.000430 0.000000 0.000000 0.000000
# 3 -0.002235 -0.000430 0.006139 0.000000 0.000000 0.000000
# 4 0.000000 0.000000 0.000000 0.065002 0.000000 0.000000
# 5 0.000000 0.000000 0.000000 0.000000 0.003011 0.000000
# 6 0.000000 0.000000 0.000000 0.000000 0.000000 0.019884
#
#
# Mechanical properties :
#
#
# Convention : Reuss Voigt Hill
#
# Bulk Modulus (GPa) = 41.65376 49.96581 45.80979
# Shear Modulus (GPa) = 39.23925 101.98583 70.61254
#
# Velocity S-wave (km/s) = 4.14060 6.67533 5.55448
# Velocity P-wave (km/s) = 6.40772 9.01358 7.81996
#
# Compressibility (1/GPa) = 0.02400744
#
# Stress axis : x y z
#
# Youngs Moduli (GPa) = 101.27066 85.09053 162.89524
#
# Poissons Ratio (x) = -0.06684 0.36405
# Poissons Ratio (y) = -0.07955 0.07001
# Poissons Ratio (z) = 0.22633 0.03657
#
# Static dielectric constant tensor:
#      x y z
#    x 1.824260 0.000000 0.000000 
#    y 0.000000 1.957710 0.000000 
#    z 0.000000 0.000000 1.845000 
# 
# From -- ./inp_files/8249.got.cif
#   From: 2010.05.17/outbox.cif.g08.bks.cpg/sg50_5_cif.got.tgz:8249.got - 2010.06.03 11:33:33.
