data_PCOD9396287
_publ_section_title
;
Structure prediction by ZEFSAII (Michael W. Deem and Ramdas Pophale) SiO2 
 PCOD9396287
Probable space group: P B A N
;
_chemical_formula_sum "Si O2"
_cell_formula_units_Z 56
_cell_length_a 9.038079
_cell_length_b 18.881933
_cell_length_c 16.801879
_cell_angle_alpha 90.000000
_cell_angle_beta 90.000000
_cell_angle_gamma 90.000000
_cell_volume 2867.348219
_symmetry_space_group_name_H-M "P B A N"
_symmetry_group_IT_number 50
_space_group.IT_coordinate_system_code '2'
_symmetry_cell_setting 'orthorhombic'
loop_
_space_group_symop_operation_xyz
x,y,z
1/2-x,1/2-y,z
x,1/2-y,-z
1/2-x,y,-z
-x,-y,-z
1/2+x,1/2+y,-z
-x,1/2+y,z
1/2+x,-y,z
loop_
_atom_site_type_symbol
_atom_site_label
_atom_site_fract_x
_atom_site_fract_y
_atom_site_fract_z
Si Si1 0.047430 0.037241 0.690705
Si Si2 0.428500 0.435149 0.175379
Si Si3 0.326015 0.679781 0.648635
Si Si4 0.905434 0.785622 0.752809
Si Si5 0.760375 0.055106 0.094255
Si Si6 0.727068 0.032817 0.411395
Si Si7 0.907157 0.156823 0.791609
O O1 0.205490 0.019220 0.655161
O O2 0.993900 0.972707 0.745786
O O3 0.940949 0.044304 0.614506
O O4 0.021511 0.105156 0.745649
O O5 0.379127 0.356894 0.197961
O O6 0.569696 0.432920 0.117427
O O7 0.301966 0.484542 0.137752
O O8 0.250000 0.750000 0.612282
O O9 0.492105 0.696043 0.676588
O O10 0.309449 0.608575 0.598073
O O11 0.229075 0.665796 0.729335
O O12 0.750000 0.750000 0.732215
O O13 0.008201 0.730375 0.802081
O O14 0.659502 0.117774 0.131852
O O15 0.750000 0.049488 0.000000
O O16 0.750000 0.006097 0.500000
#
# Coordination Sequence:
#
# PCOD9396287 Si02
#       7
#     8   8   8   8   8   8   8
#     4  10  20  36  59  84 115 158 202 246 297 361
#     4  11  22  40  63  90 119 159 210 250 298 370
#     4   9  18  38  57  81 115 156 201 246 296 365
#     4  11  22  35  62  92 117 153 211 265 295 351
#     4  11  23  40  65  90 123 161 200 253 314 368
#     4  11  21  34  56  89 120 155 195 253 306 358
#     4   9  20  37  61  83 116 159 206 246 303 369
#
# _framework density 19.530241
#
# number of rings (size 3 to 8) (size 9 to 14) (size 15 to 20)
#    0.000    1.714    2.857    2.571    6.000    0.286 
#    0.000    1.429    0.000    0.000    0.000   10.000 
#    0.000    0.000    0.000    0.000    0.000    0.000 
#
# Total GULP energy -312772.794914 kJ/mol
# GULP energy per Si atom -5585.228481 kJ/mol
# Density = 1.948579 g / cm^3
# Si number density = 19.530241 Si / 1000 Ang^3
#
#
#
# Elastic Constant Matrix: (Units=GPa)
#
#
# Indices 1 2 3 4 5 6 
#
# 1 84.8922 4.9782 3.0929 0.0000 0.0000 0.0000
# 2 4.9782 72.5712 1.7087 0.0000 0.0000 0.0000
# 3 3.0929 1.7087 67.0765 0.0000 0.0000 0.0000
# 4 0.0000 0.0000 0.0000 14.1311 0.0000 0.0000
# 5 0.0000 0.0000 0.0000 0.0000 20.4632 0.0000
# 6 0.0000 0.0000 0.0000 0.0000 0.0000 33.0323
#
#
#
# Elastic Compliance Matrix: (Units=1/GPa)
#
#
# Indices 1 2 3 4 5 6 
#
# 1 0.011846 -0.000800 -0.000526 0.000000 0.000000 0.000000
# 2 -0.000800 0.013842 -0.000316 0.000000 0.000000 0.000000
# 3 -0.000526 -0.000316 0.014941 0.000000 0.000000 0.000000
# 4 0.000000 0.000000 0.000000 0.070766 0.000000 0.000000
# 5 0.000000 0.000000 0.000000 0.000000 0.048868 0.000000
# 6 0.000000 0.000000 0.000000 0.000000 0.000000 0.030273
#
#
# Mechanical properties :
#
#
# Convention : Reuss Voigt Hill
#
# Bulk Modulus (GPa) = 26.77751 27.12217 26.94984
# Shear Modulus (GPa) = 24.24038 27.84267 26.04152
#
# Velocity S-wave (km/s) = 3.52685 3.77983 3.65553
# Velocity P-wave (km/s) = 5.50685 5.74168 5.62549
#
# Compressibility (1/GPa) = 0.03734478
#
# Stress axis : x y z
#
# Youngs Moduli (GPa) = 84.41863 72.24445 66.93155
#
# Poissons Ratio (x) = 0.05781 0.03519
# Poissons Ratio (y) = 0.06755 0.02113
# Poissons Ratio (z) = 0.04439 0.02281
#
# Static dielectric constant tensor:
#      x y z
#    x 1.701820 0.000000 0.000000 
#    y 0.000000 1.726280 0.000000 
#    z 0.000000 0.000000 1.647010 
# 
# From -- ./inp_files/28936.got.cif
#   From: 2010.05.17/outbox.cif.g08.bks.cpg/sg50_15_cif.got.tgz:28936.got - 2010.06.03 11:33:33.
