data_PCOD9396932
_publ_section_title
;
Structure prediction by ZEFSAII (Michael W. Deem and Ramdas Pophale) SiO2 
 PCOD9396932
Probable space group: P B A N
;
_chemical_formula_sum "Si O2"
_cell_formula_units_Z 56
_cell_length_a 12.408124
_cell_length_b 14.463440
_cell_length_c 16.161457
_cell_angle_alpha 90.000000
_cell_angle_beta 90.000000
_cell_angle_gamma 90.000000
_cell_volume 2900.402256
_symmetry_space_group_name_H-M "P B A N"
_symmetry_group_IT_number 50
_space_group.IT_coordinate_system_code '2'
_symmetry_cell_setting 'orthorhombic'
loop_
_space_group_symop_operation_xyz
x,y,z
1/2-x,1/2-y,z
x,1/2-y,-z
1/2-x,y,-z
-x,-y,-z
1/2+x,1/2+y,-z
-x,1/2+y,z
1/2+x,-y,z
loop_
_atom_site_type_symbol
_atom_site_label
_atom_site_fract_x
_atom_site_fract_y
_atom_site_fract_z
Si Si1 0.805386 0.152247 0.636707
Si Si2 0.379055 0.751000 0.096761
Si Si3 0.042554 0.597506 0.782679
Si Si4 0.015523 0.891502 0.777550
Si Si5 0.594930 0.063703 0.601280
Si Si6 0.375652 0.231730 0.307554
Si Si7 0.973060 0.859480 0.455360
O O1 0.750000 0.250000 0.657121
O O2 0.858650 0.106992 0.717596
O O3 0.718338 0.091788 0.588012
O O4 0.909828 0.167112 0.580530
O O5 0.250000 0.750000 0.104677
O O6 0.428106 0.660739 0.140030
O O7 0.425201 0.837274 0.149225
O O8 0.406807 0.750000 0.000000
O O9 0.029542 0.490551 0.804772
O O10 0.937434 0.645420 0.738542
O O11 0.088055 0.918639 0.698951
O O12 0.933136 0.820105 0.734248
O O13 0.505901 0.123328 0.550950
O O14 0.567603 0.959736 0.575497
O O15 0.250000 0.250000 0.294091
O O16 0.395036 0.210357 0.405705
#
# Coordination Sequence:
#
# PCOD9396932 Si02
#       7
#     8   8   8   8   8   8   8
#     4  11  21  37  62  86 117 166 213 265 310 359
#     4  10  22  41  66  98 126 153 202 265 324 385
#     4  10  21  40  61  96 125 157 219 249 317 392
#     4  11  22  38  65  88 121 171 203 259 317 388
#     4  11  21  37  60  80 124 164 210 261 319 357
#     4  10  22  38  58  88 126 168 211 265 312 368
#     4  10  23  38  52  90 123 162 219 271 302 372
#
# _framework density 19.307666999999999
#
# number of rings (size 3 to 8) (size 9 to 14) (size 15 to 20)
#    0.000    1.571    2.857    4.286    2.000    4.571 
#    0.000    1.429    0.000    6.857    0.000    0.000 
#    0.000    0.000    0.000    0.000    0.000    0.000 
#
# Total GULP energy -312140.170656 kJ/mol
# GULP energy per Si atom -5573.931619 kJ/mol
# Density = 1.926372 g / cm^3
# Si number density = 19.307667 Si / 1000 Ang^3
#
#
#
# Elastic Constant Matrix: (Units=GPa)
#
#
# Indices 1 2 3 4 5 6 
#
# 1 103.8585 51.4464 33.8606 0.0000 0.0000 0.0000
# 2 51.4464 169.3907 60.0389 0.0000 0.0000 0.0000
# 3 33.8606 60.0389 139.7243 0.0000 0.0000 0.0000
# 4 0.0000 0.0000 0.0000 22.4521 0.0000 0.0000
# 5 0.0000 0.0000 0.0000 0.0000 19.1051 0.0000
# 6 0.0000 0.0000 0.0000 0.0000 0.0000 42.5798
#
#
#
# Elastic Compliance Matrix: (Units=1/GPa)
#
#
# Indices 1 2 3 4 5 6 
#
# 1 0.011605 -0.002982 -0.001531 0.000000 0.000000 0.000000
# 2 -0.002982 0.007730 -0.002599 0.000000 0.000000 0.000000
# 3 -0.001531 -0.002599 0.008645 0.000000 0.000000 0.000000
# 4 0.000000 0.000000 0.000000 0.044539 0.000000 0.000000
# 5 0.000000 0.000000 0.000000 0.000000 0.052342 0.000000
# 6 0.000000 0.000000 0.000000 0.000000 0.000000 0.023485
#
#
# Mechanical properties :
#
#
# Convention : Reuss Voigt Hill
#
# Bulk Modulus (GPa) = 72.69562 78.18506 75.44034
# Shear Modulus (GPa) = 29.91224 34.66924 32.29074
#
# Velocity S-wave (km/s) = 3.94031 4.24207 4.09397
# Velocity P-wave (km/s) = 7.64423 8.03591 7.84252
#
# Compressibility (1/GPa) = 0.01375599
#
# Stress axis : x y z
#
# Youngs Moduli (GPa) = 86.17201 129.35995 115.67673
#
# Poissons Ratio (x) = 0.38574 0.17710
# Poissons Ratio (y) = 0.25695 0.30065
# Poissons Ratio (z) = 0.13193 0.33622
#
# Static dielectric constant tensor:
#      x y z
#    x 1.700580 0.000000 0.000000 
#    y 0.000000 1.714880 0.000000 
#    z 0.000000 0.000000 1.727350 
# 
# From -- ./inp_files/25932.got.cif
#   From: 2010.05.17/outbox.cif.g08.bks.cpg/sg50_13_cif.got.tgz:25932.got - 2010.06.03 11:33:33.
