data_PCOD9396038
_publ_section_title
;
Structure prediction by ZEFSAII (Michael W. Deem and Ramdas Pophale) SiO2 
 PCOD9396038
Probable space group: P B A N
;
_chemical_formula_sum "Si O2"
_cell_formula_units_Z 40
_cell_length_a 12.985908
_cell_length_b 14.818406
_cell_length_c 8.977772
_cell_angle_alpha 90.000000
_cell_angle_beta 90.000000
_cell_angle_gamma 90.000000
_cell_volume 1727.596769
_symmetry_space_group_name_H-M "P B A N"
_symmetry_group_IT_number 50
_space_group.IT_coordinate_system_code '2'
_symmetry_cell_setting 'orthorhombic'
loop_
_space_group_symop_operation_xyz
x,y,z
1/2-x,1/2-y,z
x,1/2-y,-z
1/2-x,y,-z
-x,-y,-z
1/2+x,1/2+y,-z
-x,1/2+y,z
1/2+x,-y,z
loop_
_atom_site_type_symbol
_atom_site_label
_atom_site_fract_x
_atom_site_fract_y
_atom_site_fract_z
Si Si1 0.177226 0.834026 0.729429
Si Si2 0.476923 0.378834 0.744924
Si Si3 0.939157 0.250000 0.000000
Si Si4 0.532800 0.250000 0.500000
Si Si5 0.756178 0.857269 0.177686
Si Si6 0.179041 0.509615 0.653149
O O1 0.250000 0.750000 0.694496
O O2 0.099171 0.825290 0.590835
O O3 0.249896 0.919220 0.741695
O O4 0.124222 0.809689 0.883612
O O5 0.504917 0.323731 0.895826
O O6 0.469117 0.302214 0.620634
O O7 0.361002 0.408171 0.772033
O O8 0.564001 0.446814 0.680524
O O9 0.750000 0.750000 0.207676
O O10 0.671901 0.911999 0.270644
O O11 0.750000 0.867557 0.000000
O O12 0.250000 0.503510 0.500000
#
# Coordination Sequence:
#
# PCOD9396038 Si02
#       6
#     8   8   4   4   8   8
#     4  11  18  34  61 107 153 181 218 306 363 429
#     4  11  24  44  73 110 139 201 241 298 379 444
#     4  10  21  32  67 102 148 180 243 278 377 436
#     4  10  19  38  71 100 156 186 225 286 371 446
#     4  11  29  55  71  94 145 198 251 311 365 441
#     4  12  25  43  72 108 147 182 248 306 367 447
#
# _framework density 23.153549999999999
#
# number of rings (size 3 to 8) (size 9 to 14) (size 15 to 20)
#    0.000    1.000    6.000    1.800    2.800    3.600 
#    7.200    0.000    0.000    0.000    0.000    0.000 
#    0.000    0.000    0.000    0.000    0.000    0.000 
#
# Total GULP energy -223018.409613 kJ/mol
# GULP energy per Si atom -5575.460240 kJ/mol
# Density = 2.310085 g / cm^3
# Si number density = 23.153550 Si / 1000 Ang^3
#
#
#
# Elastic Constant Matrix: (Units=GPa)
#
#
# Indices 1 2 3 4 5 6 
#
# 1 86.9490 34.4158 36.3462 0.0000 0.0000 0.0000
# 2 34.4158 112.3608 19.1054 0.0000 0.0000 0.0000
# 3 36.3462 19.1054 98.1076 0.0000 0.0000 0.0000
# 4 0.0000 0.0000 0.0000 17.4502 0.0000 0.0000
# 5 0.0000 0.0000 0.0000 0.0000 8.9703 0.0000
# 6 0.0000 0.0000 0.0000 0.0000 0.0000 -12.8182
#
#
#
# Elastic Compliance Matrix: (Units=1/GPa)
#
#
# Indices 1 2 3 4 5 6 
#
# 1 0.015014 -0.003778 -0.004827 0.000000 0.000000 0.000000
# 2 -0.003778 0.010155 -0.000578 0.000000 0.000000 0.000000
# 3 -0.004827 -0.000578 0.012094 0.000000 0.000000 0.000000
# 4 0.000000 0.000000 0.000000 0.057306 0.000000 0.000000
# 5 0.000000 0.000000 0.000000 0.000000 0.111479 0.000000
# 6 0.000000 0.000000 0.000000 0.000000 0.000000 -0.078014
#
#
# Mechanical properties :
#
#
# Convention : Reuss Voigt Hill
#
# Bulk Modulus (GPa) = 52.91634 53.01693 52.96663
# Shear Modulus (GPa) = 32.74421 16.55711 24.65066
#
# Velocity S-wave (km/s) = 3.76469 2.67704 3.26645
# Velocity P-wave (km/s) = 6.46540 5.70114 6.09526
#
# Compressibility (1/GPa) = 0.01889776
#
# Stress axis : x y z
#
# Youngs Moduli (GPa) = 66.60457 98.46985 82.68872
#
# Poissons Ratio (x) = 0.37203 0.39910
# Poissons Ratio (y) = 0.25164 0.04779
# Poissons Ratio (z) = 0.32147 0.05691
#
# Static dielectric constant tensor:
#      x y z
#    x 2.048650 0.000000 0.000000 
#    y 0.000000 2.058310 0.000000 
#    z 0.000000 0.000000 1.917210 
# 
# From -- ./inp_files/12603.got.cif
#   From: 2010.05.17/outbox.cif.g08.bks.cpg/sg50_7_cif.got.tgz:12603.got - 2010.06.03 11:33:33.
