data_PCOD9396832
_publ_section_title
;
Structure prediction by ZEFSAII (Michael W. Deem and Ramdas Pophale) SiO2 
 PCOD9396832
Probable space group: P B A N
;
_chemical_formula_sum "Si O2"
_cell_formula_units_Z 34
_cell_length_a 4.963864
_cell_length_b 12.932684
_cell_length_c 26.164273
_cell_angle_alpha 90.000000
_cell_angle_beta 90.000000
_cell_angle_gamma 90.000000
_cell_volume 1679.643881
_symmetry_space_group_name_H-M "P B A N"
_symmetry_group_IT_number 50
_space_group.IT_coordinate_system_code '2'
_symmetry_cell_setting 'orthorhombic'
loop_
_space_group_symop_operation_xyz
x,y,z
1/2-x,1/2-y,z
x,1/2-y,-z
1/2-x,y,-z
-x,-y,-z
1/2+x,1/2+y,-z
-x,1/2+y,z
1/2+x,-y,z
loop_
_atom_site_type_symbol
_atom_site_label
_atom_site_fract_x
_atom_site_fract_y
_atom_site_fract_z
Si Si1 0.750000 0.750000 0.569899
Si Si2 0.750000 0.750000 0.840612
Si Si3 0.250000 0.923711 0.000000
Si Si4 0.313939 0.071490 0.647701
Si Si5 0.750000 0.250000 0.500000
Si Si6 0.405305 0.070339 0.762945
Si Si7 0.250000 0.750000 0.085784
O O1 0.642114 0.658185 0.605495
O O2 0.486516 0.793357 0.538506
O O3 0.672987 0.654207 0.804565
O O4 0.501181 0.770613 0.877736
O O5 0.278589 0.848526 0.048725
O O6 0.500000 0.000000 0.000000
O O7 0.358966 0.111862 0.705394
O O8 0.517287 0.975625 0.642490
O O9 0.708335 0.028784 0.767934
#
# Coordination Sequence:
#
# PCOD9396832 Si02
#       7
#     4   4   4   8   2   8   4
#     4  11  21  42  59  80 119 150 187 247 296 336
#     4  12  23  39  61  90 127 157 183 240 298 338
#     4  11  24  45  66  84 116 157 198 253 294 328
#     4  10  21  38  62  87 112 154 200 232 279 349
#     4  10  24  38  58  86 114 148 192 242 300 356
#     4  10  22  38  58  89 122 153 194 233 280 349
#     4  11  26  40  61  94 115 150 210 235 282 368
#
# _framework density 20.242384999999999
#
# number of rings (size 3 to 8) (size 9 to 14) (size 15 to 20)
#    0.000    1.412    0.000    4.941    0.000    7.529 
#    0.000   21.176    0.000    0.000    0.000    0.000 
#    0.000    0.000    0.000    0.000    0.000    0.000 
#
# Total GULP energy -189689.003599 kJ/mol
# GULP energy per Si atom -5579.088341 kJ/mol
# Density = 2.019631 g / cm^3
# Si number density = 20.242385 Si / 1000 Ang^3
#
#
#
# Elastic Constant Matrix: (Units=GPa)
#
#
# Indices 1 2 3 4 5 6 
#
# 1 88.0911 -5.1120 10.7203 0.0000 0.0000 0.0000
# 2 -5.1120 61.4002 39.9573 0.0000 0.0000 0.0000
# 3 10.7203 39.9573 110.7458 0.0000 0.0000 0.0000
# 4 0.0000 0.0000 0.0000 -59.8996 0.0000 0.0000
# 5 0.0000 0.0000 0.0000 0.0000 30.4637 0.0000
# 6 0.0000 0.0000 0.0000 0.0000 0.0000 17.5781
#
#
#
# Elastic Compliance Matrix: (Units=1/GPa)
#
#
# Indices 1 2 3 4 5 6 
#
# 1 0.011718 0.002240 -0.001942 0.000000 0.000000 0.000000
# 2 0.002240 0.021712 -0.008051 0.000000 0.000000 0.000000
# 3 -0.001942 -0.008051 0.012122 0.000000 0.000000 0.000000
# 4 0.000000 0.000000 0.000000 -0.016695 0.000000 0.000000
# 5 0.000000 0.000000 0.000000 0.000000 0.032826 0.000000
# 6 0.000000 0.000000 0.000000 0.000000 0.000000 0.056889
#
#
# Mechanical properties :
#
#
# Convention : Reuss Voigt Hill
#
# Bulk Modulus (GPa) = 33.28216 39.04091 36.16153
# Shear Modulus (GPa) = 34.69932 11.93987 23.31959
#
# Velocity S-wave (km/s) = 4.14477 2.43131 3.39782
# Velocity P-wave (km/s) = 6.27559 5.21635 5.77032
#
# Compressibility (1/GPa) = 0.03004613
#
# Stress axis : x y z
#
# Youngs Moduli (GPa) = 85.33703 46.05727 82.49213
#
# Poissons Ratio (x) = -0.10315 0.16023
# Poissons Ratio (y) = -0.19113 0.66411
# Poissons Ratio (z) = 0.16576 0.37079
#
# Static dielectric constant tensor:
#      x y z
#    x 1.673430 0.000000 0.000000 
#    y 0.000000 1.683130 0.000000 
#    z 0.000000 0.000000 1.732560 
# 
# From -- ./inp_files/31377.got.cif
#   From: 2010.05.17/outbox.cif.g08.bks.cpg/sg50_16_cif.got.tgz:31377.got - 2010.06.03 11:33:33.
