data_PCOD9396455
_publ_section_title
;
Structure prediction by ZEFSAII (Michael W. Deem and Ramdas Pophale) SiO2 
 PCOD9396455
Probable space group: P B A N
;
_chemical_formula_sum "Si O2"
_cell_formula_units_Z 60
_cell_length_a 11.686431
_cell_length_b 20.891719
_cell_length_c 11.470543
_cell_angle_alpha 90.000000
_cell_angle_beta 90.000000
_cell_angle_gamma 90.000000
_cell_volume 2800.528859
_symmetry_space_group_name_H-M "P B A N"
_symmetry_group_IT_number 50
_space_group.IT_coordinate_system_code '2'
_symmetry_cell_setting 'orthorhombic'
loop_
_space_group_symop_operation_xyz
x,y,z
1/2-x,1/2-y,z
x,1/2-y,-z
1/2-x,y,-z
-x,-y,-z
1/2+x,1/2+y,-z
-x,1/2+y,z
1/2+x,-y,z
loop_
_atom_site_type_symbol
_atom_site_label
_atom_site_fract_x
_atom_site_fract_y
_atom_site_fract_z
Si Si1 0.505560 0.096926 0.537637
Si Si2 0.611155 0.302978 0.286706
Si Si3 0.070427 0.187318 0.078421
Si Si4 0.949025 0.708032 0.613419
Si Si5 0.250000 0.250000 0.785138
Si Si6 0.941746 0.068876 0.003189
Si Si7 0.166040 0.499052 0.598796
Si Si8 0.244948 0.909584 0.193670
O O1 0.574560 0.148040 0.612391
O O2 0.447962 0.136088 0.432439
O O3 0.590573 0.049102 0.474386
O O4 0.420059 0.059398 0.624376
O O5 0.523629 0.308150 0.180011
O O6 0.573360 0.234388 0.342310
O O7 0.727121 0.336893 0.238989
O O8 0.194478 0.194641 0.136076
O O9 0.040042 0.122283 0.014042
O O10 0.055664 0.250000 0.000000
O O11 0.919043 0.750000 0.500000
O O12 0.852383 0.721916 0.708168
O O13 0.854229 0.072110 0.113274
O O14 0.864948 0.085795 0.890243
O O15 0.000000 0.000000 0.000000
O O16 0.250000 0.472500 0.500000
O O17 0.224640 0.538560 0.703085
#
# Coordination Sequence:
#
# PCOD9396455 Si02
#       8
#     8   8   8   8   4   8   8   8
#     4  10  22  39  60  97 130 174 213 269 341 410
#     4   9  19  40  66  85 133 168 218 284 332 408
#     4  10  22  41  63  92 129 165 228 291 345 398
#     4   9  19  37  62  92 132 170 216 265 337 415
#     4  10  20  38  62  98 128 172 214 274 348 410
#     4  10  24  46  67  93 135 182 240 289 342 414
#     4  11  23  38  62  93 137 169 219 276 332 410
#     4  10  22  42  66  97 127 179 238 273 352 402
#
# _framework density 21.424524000000002
#
# number of rings (size 3 to 8) (size 9 to 14) (size 15 to 20)
#    0.000    2.133    1.333    0.400    3.733    5.333 
#    4.800    8.667    0.000    0.000    0.000    0.000 
#    0.000    0.000    0.000    0.000    0.000    0.000 
#
# Total GULP energy -334553.200580 kJ/mol
# GULP energy per Si atom -5575.886676 kJ/mol
# Density = 2.137576 g / cm^3
# Si number density = 21.424524 Si / 1000 Ang^3
#
#
#
# Elastic Constant Matrix: (Units=GPa)
#
#
# Indices 1 2 3 4 5 6 
#
# 1 102.2463 57.7724 46.3564 0.0000 0.0000 0.0000
# 2 57.7724 91.4586 30.1167 0.0000 0.0000 0.0000
# 3 46.3564 30.1167 89.1571 0.0000 0.0000 0.0000
# 4 0.0000 0.0000 0.0000 13.7809 0.0000 0.0000
# 5 0.0000 0.0000 0.0000 0.0000 28.9955 0.0000
# 6 0.0000 0.0000 0.0000 0.0000 0.0000 -21.7083
#
#
#
# Elastic Compliance Matrix: (Units=1/GPa)
#
#
# Indices 1 2 3 4 5 6 
#
# 1 0.017754 -0.009198 -0.006124 0.000000 0.000000 0.000000
# 2 -0.009198 0.017068 -0.000983 0.000000 0.000000 0.000000
# 3 -0.006124 -0.000983 0.014732 0.000000 0.000000 0.000000
# 4 0.000000 0.000000 0.000000 0.072564 0.000000 0.000000
# 5 0.000000 0.000000 0.000000 0.000000 0.034488 0.000000
# 6 0.000000 0.000000 0.000000 0.000000 0.000000 -0.046065
#
#
# Mechanical properties :
#
#
# Convention : Reuss Voigt Hill
#
# Bulk Modulus (GPa) = 59.01780 61.26144 60.13962
# Shear Modulus (GPa) = 33.60226 14.12138 23.86182
#
# Velocity S-wave (km/s) = 3.96460 2.57012 3.34093
# Velocity P-wave (km/s) = 6.96879 6.12075 6.55849
#
# Compressibility (1/GPa) = 0.01694404
#
# Stress axis : x y z
#
# Youngs Moduli (GPa) = 56.32499 58.58941 67.87830
#
# Poissons Ratio (x) = 0.53892 0.41568
# Poissons Ratio (y) = 0.51809 0.06672
# Poissons Ratio (z) = 0.34493 0.05759
#
# Static dielectric constant tensor:
#      x y z
#    x 1.825490 0.000000 0.000000 
#    y 0.000000 1.802640 0.000000 
#    z 0.000000 0.000000 1.812160 
# 
# From -- ./inp_files/20437.got.cif
#   From: 2010.05.17/outbox.cif.g08.bks.cpg/sg50_11_cif.got.tgz:20437.got - 2010.06.03 11:33:33.
