data_PCOD9396301
_publ_section_title
;
Structure prediction by ZEFSAII (Michael W. Deem and Ramdas Pophale) SiO2 
 PCOD9396301
Probable space group: P B A N
;
_chemical_formula_sum "Si O2"
_cell_formula_units_Z 40
_cell_length_a 11.228860
_cell_length_b 20.842109
_cell_length_c 8.149932
_cell_angle_alpha 90.000000
_cell_angle_beta 90.000000
_cell_angle_gamma 90.000000
_cell_volume 1907.354047
_symmetry_space_group_name_H-M "P B A N"
_symmetry_group_IT_number 50
_space_group.IT_coordinate_system_code '2'
_symmetry_cell_setting 'orthorhombic'
loop_
_space_group_symop_operation_xyz
x,y,z
1/2-x,1/2-y,z
x,1/2-y,-z
1/2-x,y,-z
-x,-y,-z
1/2+x,1/2+y,-z
-x,1/2+y,z
1/2+x,-y,z
loop_
_atom_site_type_symbol
_atom_site_label
_atom_site_fract_x
_atom_site_fract_y
_atom_site_fract_z
Si Si1 0.250000 0.431555 0.000000
Si Si2 0.427303 0.373106 0.240635
Si Si3 0.495616 0.389071 0.607296
Si Si4 0.902362 0.486525 0.773014
Si Si5 0.750000 0.079090 0.500000
Si Si6 0.389457 0.238361 0.303803
O O1 0.307469 0.390232 0.144922
O O2 0.150965 0.477953 0.072772
O O3 0.421308 0.386524 0.436516
O O4 0.527241 0.422438 0.182859
O O5 0.455484 0.298104 0.219439
O O6 0.481736 0.459652 0.682656
O O7 0.634508 0.380931 0.559536
O O8 0.443528 0.332249 0.720854
O O9 0.799039 0.464899 0.647297
O O10 0.250000 0.250000 0.265357
O O11 0.401315 0.250000 0.500000
#
# Coordination Sequence:
#
# PCOD9396301 Si02
#       6
#     4   8   8   8   4   8
#     4  12  22  34  57  84 119 160 194 242 292 350
#     4  10  21  36  55  83 113 147 192 239 293 351
#     4  10  20  37  60  86 116 151 195 248 299 350
#     4  11  21  36  56  83 116 154 199 244 292 349
#     4  10  20  36  61  88 117 154 200 250 298 356
#     4   9  18  34  56  81 109 141 182 238 296 347
#
# _framework density 20.971461000000001
#
# number of rings (size 3 to 8) (size 9 to 14) (size 15 to 20)
#    0.000    1.800    0.000    6.600    0.000    3.200 
#    0.000   17.000    0.000    0.000    0.000    5.600 
#    0.000    0.000    0.000    0.000    0.000    0.000 
#
# Total GULP energy -223335.932676 kJ/mol
# GULP energy per Si atom -5583.398317 kJ/mol
# Density = 2.092373 g / cm^3
# Si number density = 20.971461 Si / 1000 Ang^3
#
#
#
# Elastic Constant Matrix: (Units=GPa)
#
#
# Indices 1 2 3 4 5 6 
#
# 1 100.2091 68.3633 38.2139 0.0000 0.0000 0.0000
# 2 68.3633 143.2064 29.1231 0.0000 0.0000 0.0000
# 3 38.2139 29.1231 32.6681 0.0000 0.0000 0.0000
# 4 0.0000 0.0000 0.0000 3.0343 0.0000 0.0000
# 5 0.0000 0.0000 0.0000 0.0000 20.8290 0.0000
# 6 0.0000 0.0000 0.0000 0.0000 0.0000 20.8753
#
#
#
# Elastic Compliance Matrix: (Units=1/GPa)
#
#
# Indices 1 2 3 4 5 6 
#
# 1 0.021990 -0.006432 -0.019988 0.000000 0.000000 0.000000
# 2 -0.006432 0.010411 -0.001757 0.000000 0.000000 0.000000
# 3 -0.019988 -0.001757 0.055558 0.000000 0.000000 0.000000
# 4 0.000000 0.000000 0.000000 0.329568 0.000000 0.000000
# 5 0.000000 0.000000 0.000000 0.000000 0.048010 0.000000
# 6 0.000000 0.000000 0.000000 0.000000 0.000000 0.047903
#
#
# Mechanical properties :
#
#
# Convention : Reuss Voigt Hill
#
# Bulk Modulus (GPa) = 31.64137 60.83157 46.23647
# Shear Modulus (GPa) = 8.61578 18.30662 13.46120
#
# Velocity S-wave (km/s) = 2.02910 2.95774 2.53629
# Velocity P-wave (km/s) = 4.53985 6.38233 5.53825
#
# Compressibility (1/GPa) = 0.03160420
#
# Stress axis : x y z
#
# Youngs Moduli (GPa) = 45.47571 96.05339 17.99905
#
# Poissons Ratio (x) = 0.61786 0.35977
# Poissons Ratio (y) = 0.29252 0.03162
# Poissons Ratio (z) = 0.90898 0.16874
#
# Static dielectric constant tensor:
#      x y z
#    x 1.772390 0.000000 0.000000 
#    y 0.000000 1.762460 0.000000 
#    z 0.000000 0.000000 1.816160 
# 
# From -- ./inp_files/11344.got.cif
#   From: 2010.05.17/outbox.cif.g08.bks.cpg/sg50_6_cif.got.tgz:11344.got - 2010.06.03 11:33:33.
