data_PCOD9396341
_publ_section_title
;
Structure prediction by ZEFSAII (Michael W. Deem and Ramdas Pophale) SiO2 
 PCOD9396341
Probable space group: P B A N
;
_chemical_formula_sum "Si O2"
_cell_formula_units_Z 52
_cell_length_a 17.181301
_cell_length_b 14.499347
_cell_length_c 11.249195
_cell_angle_alpha 90.000000
_cell_angle_beta 90.000000
_cell_angle_gamma 90.000000
_cell_volume 2802.372968
_symmetry_space_group_name_H-M "P B A N"
_symmetry_group_IT_number 50
_space_group.IT_coordinate_system_code '2'
_symmetry_cell_setting 'orthorhombic'
loop_
_space_group_symop_operation_xyz
x,y,z
1/2-x,1/2-y,z
x,1/2-y,-z
1/2-x,y,-z
-x,-y,-z
1/2+x,1/2+y,-z
-x,1/2+y,z
1/2+x,-y,z
loop_
_atom_site_type_symbol
_atom_site_label
_atom_site_fract_x
_atom_site_fract_y
_atom_site_fract_z
Si Si1 0.333501 0.936347 0.476824
Si Si2 0.891945 0.590232 0.682331
Si Si3 0.534404 0.750000 0.000000
Si Si4 0.110376 0.046098 0.294820
Si Si5 0.510647 0.064701 0.112216
Si Si6 0.334805 0.273475 0.197293
Si Si7 0.998691 0.355398 0.529478
O O1 0.250000 0.892040 0.500000
O O2 0.407068 0.870692 0.458086
O O3 0.334869 0.013095 0.371569
O O4 0.353418 0.990118 0.597623
O O5 0.933816 0.562979 0.804738
O O6 0.855571 0.691290 0.708835
O O7 0.961060 0.593945 0.583119
O O8 0.484417 0.831978 0.941194
O O9 0.594369 0.719489 0.896291
O O10 0.168869 0.125024 0.252356
O O11 0.039444 0.105287 0.352803
O O12 0.079117 0.977230 0.193672
O O13 0.500000 0.000000 0.000000
O O14 0.250000 0.250000 0.145794
O O15 0.015422 0.250000 0.500000
#
# Coordination Sequence:
#
# PCOD9396341 Si02
#       7
#     8   8   4   8   8   8   8
#     4  11  22  36  56  83 116 149 189 243 304 359
#     4  10  20  37  55  84 113 148 190 238 288 362
#     4  10  23  34  56  82 122 153 200 246 283 356
#     4  11  20  37  58  84 118 155 195 244 295 367
#     4  11  20  37  60  85 114 156 205 241 289 339
#     4  11  21  34  54  85 122 151 185 238 304 360
#     4  11  20  36  58  80 113 150 197 242 293 350
#
# _framework density 18.555703000000001
#
# number of rings (size 3 to 8) (size 9 to 14) (size 15 to 20)
#    0.000    1.231    6.154    2.077    0.000    0.308 
#    0.000    2.308    0.000    0.000    0.000    0.000 
#    0.000    0.000    0.000    0.000    0.000    0.000 
#
# Total GULP energy -289932.822570 kJ/mol
# GULP energy per Si atom -5575.631203 kJ/mol
# Density = 1.851347 g / cm^3
# Si number density = 18.555703 Si / 1000 Ang^3
#
#
#
# Elastic Constant Matrix: (Units=GPa)
#
#
# Indices 1 2 3 4 5 6 
#
# 1 80.3737 15.1602 8.4256 0.0000 0.0000 0.0000
# 2 15.1602 68.8829 33.3060 0.0000 0.0000 0.0000
# 3 8.4256 33.3060 90.5153 0.0000 0.0000 0.0000
# 4 0.0000 0.0000 0.0000 29.4286 0.0000 0.0000
# 5 0.0000 0.0000 0.0000 0.0000 11.1873 0.0000
# 6 0.0000 0.0000 0.0000 0.0000 0.0000 25.4872
#
#
#
# Elastic Compliance Matrix: (Units=1/GPa)
#
#
# Indices 1 2 3 4 5 6 
#
# 1 0.012983 -0.002765 -0.000191 0.000000 0.000000 0.000000
# 2 -0.002765 0.018248 -0.006457 0.000000 0.000000 0.000000
# 3 -0.000191 -0.006457 0.013442 0.000000 0.000000 0.000000
# 4 0.000000 0.000000 0.000000 0.033981 0.000000 0.000000
# 5 0.000000 0.000000 0.000000 0.000000 0.089387 0.000000
# 6 0.000000 0.000000 0.000000 0.000000 0.000000 0.039235
#
#
# Mechanical properties :
#
#
# Convention : Reuss Voigt Hill
#
# Bulk Modulus (GPa) = 38.69006 39.28395 38.98700
# Shear Modulus (GPa) = 21.30216 25.41265 23.35741
#
# Velocity S-wave (km/s) = 3.39191 3.70474 3.55177
# Velocity P-wave (km/s) = 6.01964 6.28624 6.15439
#
# Compressibility (1/GPa) = 0.02584643
#
# Stress axis : x y z
#
# Youngs Moduli (GPa) = 77.02098 54.80023 74.39570
#
# Poissons Ratio (x) = 0.15153 0.01422
# Poissons Ratio (y) = 0.21297 0.48039
# Poissons Ratio (z) = 0.01472 0.35386
#
# Static dielectric constant tensor:
#      x y z
#    x 1.654290 0.000000 0.000000 
#    y 0.000000 1.698010 0.000000 
#    z 0.000000 0.000000 1.651460 
# 
# From -- ./inp_files/21888.got.cif
#   From: 2010.05.17/outbox.cif.g08.bks.cpg/sg50_11_cif.got.tgz:21888.got - 2010.06.03 11:33:33.
