data_PCOD9396329
_publ_section_title
;
Structure prediction by ZEFSAII (Michael W. Deem and Ramdas Pophale) SiO2 
 PCOD9396329
Probable space group: P B A N
;
_chemical_formula_sum "Si O2"
_cell_formula_units_Z 48
_cell_length_a 4.938866
_cell_length_b 18.931469
_cell_length_c 23.349786
_cell_angle_alpha 90.000000
_cell_angle_beta 90.000000
_cell_angle_gamma 90.000000
_cell_volume 2183.204724
_symmetry_space_group_name_H-M "P B A N"
_symmetry_group_IT_number 50
_space_group.IT_coordinate_system_code '2'
_symmetry_cell_setting 'orthorhombic'
loop_
_space_group_symop_operation_xyz
x,y,z
1/2-x,1/2-y,z
x,1/2-y,-z
1/2-x,y,-z
-x,-y,-z
1/2+x,1/2+y,-z
-x,1/2+y,z
1/2+x,-y,z
loop_
_atom_site_type_symbol
_atom_site_label
_atom_site_fract_x
_atom_site_fract_y
_atom_site_fract_z
Si Si1 0.250000 0.750000 0.500000
Si Si2 0.750000 0.342086 0.000000
Si Si3 0.989887 0.452046 0.782674
Si Si4 0.482489 0.798584 0.271621
Si Si5 0.682120 0.544203 0.433220
Si Si6 0.520506 0.544569 0.919751
Si Si7 0.250000 0.250000 0.000000
Si Si8 0.554041 0.683264 0.603264
O O1 0.398059 0.697278 0.544115
O O2 0.898209 0.389294 0.952616
O O3 0.488014 0.299969 0.972217
O O4 0.712402 0.489965 0.765820
O O5 0.026575 0.374336 0.757191
O O6 0.000818 0.444644 0.851643
O O7 0.250000 0.750000 0.244334
O O8 0.394467 0.815825 0.337290
O O9 0.750000 0.750000 0.271544
O O10 0.750000 0.558849 0.500000
O O11 0.375034 0.522980 0.421448
O O12 0.775946 0.611994 0.399286
O O13 0.825390 0.522015 0.934122
O O14 0.750000 0.750000 0.605295
#
# Coordination Sequence:
#
# PCOD9396329 Si02
#       8
#     2   4   8   8   8   8   2   8
#     4  12  22  40  64  86 120 160 204 266 298 380
#     4  11  20  39  56  89 134 177 214 272 310 395
#     4  10  22  42  68  96 128 167 218 272 324 386
#     4  11  24  44  64  94 127 163 213 266 320 392
#     4  10  23  38  57  84 119 150 189 240 297 364
#     4  10  20  36  64  94 121 164 219 271 321 373
#     4  10  24  36  52  80 140 182 216 248 324 380
#     4  11  25  40  64  89 120 161 208 247 314 381
#
# _framework density 21.986028999999998
#
# number of rings (size 3 to 8) (size 9 to 14) (size 15 to 20)
#    0.000    1.500    0.833    3.750    5.833    1.333 
#    4.500    0.000    0.000    0.000    0.000    0.000 
#    0.000    0.000    0.000    0.000    0.000    0.000 
#
# Total GULP energy -267927.674352 kJ/mol
# GULP energy per Si atom -5581.826549 kJ/mol
# Density = 2.193599 g / cm^3
# Si number density = 21.986029 Si / 1000 Ang^3
#
#
#
# Elastic Constant Matrix: (Units=GPa)
#
#
# Indices 1 2 3 4 5 6 
#
# 1 82.0696 9.5625 13.0426 0.0000 0.0000 0.0000
# 2 9.5625 118.3473 36.3892 0.0000 0.0000 0.0000
# 3 13.0426 36.3892 56.2874 0.0000 0.0000 0.0000
# 4 0.0000 0.0000 0.0000 1.7663 0.0000 0.0000
# 5 0.0000 0.0000 0.0000 0.0000 20.8165 0.0000
# 6 0.0000 0.0000 0.0000 0.0000 0.0000 34.6330
#
#
#
# Elastic Compliance Matrix: (Units=1/GPa)
#
#
# Indices 1 2 3 4 5 6 
#
# 1 0.012653 -0.000151 -0.002834 0.000000 0.000000 0.000000
# 2 -0.000151 0.010548 -0.006784 0.000000 0.000000 0.000000
# 3 -0.002834 -0.006784 0.022809 0.000000 0.000000 0.000000
# 4 0.000000 0.000000 0.000000 0.566149 0.000000 0.000000
# 5 0.000000 0.000000 0.000000 0.000000 0.048039 0.000000
# 6 0.000000 0.000000 0.000000 0.000000 0.000000 0.028874
#
#
# Mechanical properties :
#
#
# Convention : Reuss Voigt Hill
#
# Bulk Modulus (GPa) = 37.77769 41.63255 39.70512
# Shear Modulus (GPa) = 6.96929 24.62382 15.79655
#
# Velocity S-wave (km/s) = 1.78234 3.35023 2.68336
# Velocity P-wave (km/s) = 4.63201 5.82601 5.26298
#
# Compressibility (1/GPa) = 0.02647065
#
# Stress axis : x y z
#
# Youngs Moduli (GPa) = 79.03399 94.80584 43.84311
#
# Poissons Ratio (x) = 0.01430 0.12426
# Poissons Ratio (y) = 0.01192 0.29744
# Poissons Ratio (z) = 0.22401 0.64318
#
# Static dielectric constant tensor:
#      x y z
#    x 1.831480 0.000000 0.000000 
#    y 0.000000 1.811690 0.000000 
#    z 0.000000 0.000000 1.822220 
# 
# From -- ./inp_files/32067.got.cif
#   From: 2010.05.17/outbox.cif.g08.bks.cpg/sg50_17_cif.got.tgz:32067.got - 2010.06.03 11:33:33.
