data_PCOD9396375
_publ_section_title
;
Structure prediction by ZEFSAII (Michael W. Deem and Ramdas Pophale) SiO2 
 PCOD9396375
Probable space group: P B A N
;
_chemical_formula_sum "Si O2"
_cell_formula_units_Z 36
_cell_length_a 8.642307
_cell_length_b 12.547265
_cell_length_c 16.000374
_cell_angle_alpha 90.000000
_cell_angle_beta 90.000000
_cell_angle_gamma 90.000000
_cell_volume 1735.037614
_symmetry_space_group_name_H-M "P B A N"
_symmetry_group_IT_number 50
_space_group.IT_coordinate_system_code '2'
_symmetry_cell_setting 'orthorhombic'
loop_
_space_group_symop_operation_xyz
x,y,z
1/2-x,1/2-y,z
x,1/2-y,-z
1/2-x,y,-z
-x,-y,-z
1/2+x,1/2+y,-z
-x,1/2+y,z
1/2+x,-y,z
loop_
_atom_site_type_symbol
_atom_site_label
_atom_site_fract_x
_atom_site_fract_y
_atom_site_fract_z
Si Si1 0.201587 0.356186 0.734580
Si Si2 0.785368 0.130557 0.901483
Si Si3 0.954337 0.981094 0.192179
Si Si4 0.750000 0.460708 0.500000
Si Si5 0.961534 0.848357 0.564671
O O1 0.250000 0.250000 0.784337
O O2 0.362058 0.422709 0.732543
O O3 0.111553 0.314809 0.652600
O O4 0.078622 0.435384 0.774473
O O5 0.750000 0.250000 0.872269
O O6 0.670290 0.047493 0.859063
O O7 0.750000 0.126191 0.000000
O O8 0.955640 0.098577 0.869786
O O9 0.635964 0.543610 0.545946
O O10 0.640306 0.386220 0.442616
O O11 0.939856 0.750000 0.500000
#
# Coordination Sequence:
#
# PCOD9396375 Si02
#       5
#     8   8   8   4   8
#     4  11  22  38  59  84 117 155 196 246 298 355
#     4  10  20  37  61  89 122 158 196 240 288 350
#     4  10  22  38  58  88 121 157 199 240 296 357
#     4  10  22  38  58  82 110 142 190 246 306 366
#     4  11  22  39  59  83 112 149 195 248 306 362
#
# _framework density 20.748830999999999
#
# number of rings (size 3 to 8) (size 9 to 14) (size 15 to 20)
#    0.000    1.556    0.000    5.333    0.000    1.778 
#    0.000    6.667    0.000   10.667    0.000    0.000 
#    0.000    0.000    0.000    0.000    0.000    0.000 
#
# Total GULP energy -200654.349083 kJ/mol
# GULP energy per Si atom -5573.731919 kJ/mol
# Density = 2.070161 g / cm^3
# Si number density = 20.748831 Si / 1000 Ang^3
#
#
#
# Elastic Constant Matrix: (Units=GPa)
#
#
# Indices 1 2 3 4 5 6 
#
# 1 143.5445 56.7815 30.8408 0.0000 0.0000 0.0000
# 2 56.7815 122.2877 30.4374 0.0000 0.0000 0.0000
# 3 30.8408 30.4374 60.0669 0.0000 0.0000 0.0000
# 4 0.0000 0.0000 0.0000 30.6916 0.0000 0.0000
# 5 0.0000 0.0000 0.0000 0.0000 27.4221 0.0000
# 6 0.0000 0.0000 0.0000 0.0000 0.0000 35.3573
#
#
#
# Elastic Compliance Matrix: (Units=1/GPa)
#
#
# Indices 1 2 3 4 5 6 
#
# 1 0.008940 -0.003443 -0.002845 0.000000 0.000000 0.000000
# 2 -0.003443 0.010683 -0.003646 0.000000 0.000000 0.000000
# 3 -0.002845 -0.003646 0.019957 0.000000 0.000000 0.000000
# 4 0.000000 0.000000 0.000000 0.032582 0.000000 0.000000
# 5 0.000000 0.000000 0.000000 0.000000 0.036467 0.000000
# 6 0.000000 0.000000 0.000000 0.000000 0.000000 0.028283
#
#
# Mechanical properties :
#
#
# Convention : Reuss Voigt Hill
#
# Bulk Modulus (GPa) = 50.73199 62.44649 56.58924
# Shear Modulus (GPa) = 30.60908 32.55017 31.57963
#
# Velocity S-wave (km/s) = 3.84503 3.96507 3.90551
# Velocity P-wave (km/s) = 6.64950 7.15011 6.90435
#
# Compressibility (1/GPa) = 0.01971143
#
# Stress axis : x y z
#
# Youngs Moduli (GPa) = 111.86127 93.60279 50.10881
#
# Poissons Ratio (x) = 0.32224 0.14258
# Poissons Ratio (y) = 0.38510 0.18269
# Poissons Ratio (z) = 0.31830 0.34127
#
# Static dielectric constant tensor:
#      x y z
#    x 1.775180 0.000000 0.000000 
#    y 0.000000 1.745910 0.000000 
#    z 0.000000 0.000000 1.763540 
# 
# From -- ./inp_files/28507.got.cif
#   From: 2010.05.17/outbox.cif.g08.bks.cpg/sg50_15_cif.got.tgz:28507.got - 2010.06.03 11:33:33.
