data_PCOD9396659
_publ_section_title
;
Structure prediction by ZEFSAII (Michael W. Deem and Ramdas Pophale) SiO2 
 PCOD9396659
Probable space group: P B A N
;
_chemical_formula_sum "Si O2"
_cell_formula_units_Z 64
_cell_length_a 8.627762
_cell_length_b 18.823210
_cell_length_c 21.148626
_cell_angle_alpha 90.000000
_cell_angle_beta 90.000000
_cell_angle_gamma 90.000000
_cell_volume 3434.582881
_symmetry_space_group_name_H-M "P B A N"
_symmetry_group_IT_number 50
_space_group.IT_coordinate_system_code '2'
_symmetry_cell_setting 'orthorhombic'
loop_
_space_group_symop_operation_xyz
x,y,z
1/2-x,1/2-y,z
x,1/2-y,-z
1/2-x,y,-z
-x,-y,-z
1/2+x,1/2+y,-z
-x,1/2+y,z
1/2+x,-y,z
loop_
_atom_site_type_symbol
_atom_site_label
_atom_site_fract_x
_atom_site_fract_y
_atom_site_fract_z
Si Si1 0.937532 0.420741 0.500000
Si Si2 0.564662 0.832810 0.759686
Si Si3 0.438922 0.831773 0.000000
Si Si4 0.563337 0.332862 0.377105
Si Si5 0.563337 0.332862 0.622895
Si Si6 0.435891 0.579555 0.123161
Si Si7 0.564662 0.832810 0.240314
Si Si8 0.435891 0.579555 0.876839
O O1 0.750000 0.421251 0.500000
O O2 0.987420 0.379329 0.563262
O O3 0.987420 0.379329 0.436738
O O4 0.000000 0.500000 0.500000
O O5 0.510162 0.854439 0.689608
O O6 0.492032 0.881550 0.813508
O O7 0.517001 0.750000 0.768738
O O8 0.750000 0.836356 0.763317
O O9 0.487980 0.874044 0.062644
O O10 0.491743 0.750000 0.000000
O O11 0.250000 0.830586 0.000000
O O12 0.487980 0.874044 0.937356
O O13 0.524552 0.250000 0.388286
O O14 0.750000 0.337739 0.371699
O O15 0.489838 0.354439 0.310392
O O16 0.250000 0.576953 0.122781
O O17 0.500000 0.500000 0.119230
O O18 0.492032 0.881550 0.186492
#
# Coordination Sequence:
#
# PCOD9396659 Si02
#       8
#     8   8   8   8   8   8   8   8
#     4  10  21  35  53  79 109 140 176 222 274 328
#     4  10  21  37  57  83 113 144 183 229 274 325
#     4   9  19  36  59  85 110 141 184 229 272 324
#     4   9  18  35  58  80 104 140 185 227 268 319
#     4   9  18  35  58  80 104 140 185 227 268 319
#     4  11  22  37  58  83 114 149 184 225 274 327
#     4  10  21  37  57  83 113 144 183 229 274 325
#     4  11  22  37  58  83 114 149 184 225 274 327
#
# _framework density 18.633994999999999
#
# number of rings (size 3 to 8) (size 9 to 14) (size 15 to 20)
#    0.000    2.125    0.000    3.000    0.000    6.000 
#    0.000    4.375    0.000    8.250    0.000    0.000 
#    0.000    0.000    0.000    0.000    0.000    0.000 
#
# Total GULP energy -357487.406517 kJ/mol
# GULP energy per Si atom -5585.740727 kJ/mol
# Density = 1.859158 g / cm^3
# Si number density = 18.633995 Si / 1000 Ang^3
#
#
#
# Elastic Constant Matrix: (Units=GPa)
#
#
# Indices 1 2 3 4 5 6 
#
# 1 30.9080 39.6218 46.8962 0.0000 0.0000 0.0000
# 2 39.6218 153.0060 133.3786 0.0000 0.0000 0.0000
# 3 46.8962 133.3786 203.5933 0.0000 0.0000 0.0000
# 4 0.0000 0.0000 0.0000 -13.0777 0.0000 0.0000
# 5 0.0000 0.0000 0.0000 0.0000 12.2825 0.0000
# 6 0.0000 0.0000 0.0000 0.0000 0.0000 26.5333
#
#
#
# Elastic Compliance Matrix: (Units=1/GPa)
#
#
# Indices 1 2 3 4 5 6 
#
# 1 0.052912 -0.007175 -0.007487 0.000000 0.000000 0.000000
# 2 -0.007175 0.016211 -0.008967 0.000000 0.000000 0.000000
# 3 -0.007487 -0.008967 0.012511 0.000000 0.000000 0.000000
# 4 0.000000 0.000000 0.000000 -0.076466 0.000000 0.000000
# 5 0.000000 0.000000 0.000000 0.000000 0.081417 0.000000
# 6 0.000000 0.000000 0.000000 0.000000 0.000000 0.037688
#
#
# Mechanical properties :
#
#
# Convention : Reuss Voigt Hill
#
# Bulk Modulus (GPa) = 29.09112 91.92227 60.50669
# Shear Modulus (GPa) = 27.32366 16.32165 21.82265
#
# Velocity S-wave (km/s) = 3.83343 2.96278 3.42588
# Velocity P-wave (km/s) = 5.93627 7.81931 6.94194
#
# Compressibility (1/GPa) = 0.03437475
#
# Stress axis : x y z
#
# Youngs Moduli (GPa) = 18.89913 61.68780 79.92902
#
# Poissons Ratio (x) = 0.44261 0.59847
# Poissons Ratio (y) = 0.13560 0.71674
# Poissons Ratio (z) = 0.14151 0.55317
#
# Static dielectric constant tensor:
#      x y z
#    x 1.632460 0.000000 0.000000 
#    y 0.000000 1.616700 0.000000 
#    z 0.000000 0.000000 1.618440 
# 
# From -- ./inp_files/30727.got.cif
#   From: 2010.05.17/outbox.cif.g08.bks.cpg/sg50_16_cif.got.tgz:30727.got - 2010.06.03 11:33:33.
