data_PCOD9396958
_publ_section_title
;
Structure prediction by ZEFSAII (Michael W. Deem and Ramdas Pophale) SiO2 
 PCOD9396958
Probable space group: P B A N
;
_chemical_formula_sum "Si O2"
_cell_formula_units_Z 26
_cell_length_a 4.866130
_cell_length_b 12.841228
_cell_length_c 16.588014
_cell_angle_alpha 90.000000
_cell_angle_beta 90.000000
_cell_angle_gamma 90.000000
_cell_volume 1036.536638
_symmetry_space_group_name_H-M "P B A N"
_symmetry_group_IT_number 50
_space_group.IT_coordinate_system_code '2'
_symmetry_cell_setting 'orthorhombic'
loop_
_space_group_symop_operation_xyz
x,y,z
1/2-x,1/2-y,z
x,1/2-y,-z
1/2-x,y,-z
-x,-y,-z
1/2+x,1/2+y,-z
-x,1/2+y,z
1/2+x,-y,z
loop_
_atom_site_type_symbol
_atom_site_label
_atom_site_fract_x
_atom_site_fract_y
_atom_site_fract_z
Si Si1 0.794569 0.568911 0.409233
Si Si2 0.011612 0.068439 0.895944
Si Si3 0.482136 0.181529 0.261254
Si Si4 0.250000 0.750000 0.000000
O O1 0.750000 0.609011 0.500000
O O2 0.611549 0.463162 0.401661
O O3 0.672052 0.640575 0.340443
O O4 0.954725 0.090781 0.801353
O O5 0.818080 0.969228 0.913443
O O6 0.923073 0.171464 0.943613
O O7 0.250000 0.250000 0.217043
O O8 0.750000 0.250000 0.278223
#
# Coordination Sequence:
#
# PCOD9396958 Si02
#       4
#     8   8   8   2
#     4  10  21  40  65  95 134 182 235 293 356 429
#     4  12  27  48  75 106 147 198 240 303 375 432
#     4  12  24  43  69 102 144 187 244 305 355 435
#     4  12  28  50  76 112 152 184 256 310 352 464
#
# _framework density 25.08353
#
# number of rings (size 3 to 8) (size 9 to 14) (size 15 to 20)
#    0.000    0.615    1.538    6.462    0.000    1.846 
#    0.000    1.538    0.000    0.000    0.000    0.000 
#    0.000    0.000    0.000    0.000    0.000    0.000 
#
# Total GULP energy -145765.146701 kJ/mol
# GULP energy per Si atom -5606.351796 kJ/mol
# Density = 2.502644 g / cm^3
# Si number density = 25.083530 Si / 1000 Ang^3
#
#
#
# Elastic Constant Matrix: (Units=GPa)
#
#
# Indices 1 2 3 4 5 6 
#
# 1 98.4642 12.8703 4.4739 0.0000 0.0000 0.0000
# 2 12.8703 88.9948 38.2123 0.0000 0.0000 0.0000
# 3 4.4739 38.2123 148.0131 0.0000 0.0000 0.0000
# 4 0.0000 0.0000 0.0000 19.2904 0.0000 0.0000
# 5 0.0000 0.0000 0.0000 0.0000 35.6880 0.0000
# 6 0.0000 0.0000 0.0000 0.0000 0.0000 37.3420
#
#
#
# Elastic Compliance Matrix: (Units=1/GPa)
#
#
# Indices 1 2 3 4 5 6 
#
# 1 0.010353 -0.001533 0.000083 0.000000 0.000000 0.000000
# 2 -0.001533 0.012864 -0.003275 0.000000 0.000000 0.000000
# 3 0.000083 -0.003275 0.007599 0.000000 0.000000 0.000000
# 4 0.000000 0.000000 0.000000 0.051839 0.000000 0.000000
# 5 0.000000 0.000000 0.000000 0.000000 0.028021 0.000000
# 6 0.000000 0.000000 0.000000 0.000000 0.000000 0.026780
#
#
# Mechanical properties :
#
#
# Convention : Reuss Voigt Hill
#
# Bulk Modulus (GPa) = 46.80221 49.62055 48.21138
# Shear Modulus (GPa) = 32.46177 37.12510 34.79343
#
# Velocity S-wave (km/s) = 3.60133 3.85133 3.72842
# Velocity P-wave (km/s) = 5.99932 6.29301 6.14792
#
# Compressibility (1/GPa) = 0.02136651
#
# Stress axis : x y z
#
# Youngs Moduli (GPa) = 96.59451 77.73383 131.59413
#
# Poissons Ratio (x) = 0.11914 -0.01089
# Poissons Ratio (y) = 0.14805 0.43095
# Poissons Ratio (z) = -0.00800 0.25457
#
# Static dielectric constant tensor:
#      x y z
#    x 1.938200 0.000000 0.000000 
#    y 0.000000 2.023910 0.000000 
#    z 0.000000 0.000000 1.977790 
# 
# From -- ./inp_files/27838.got.cif
#   From: 2010.05.17/outbox.cif.g08.bks.cpg/sg50_14_cif.got.tgz:27838.got - 2010.06.03 11:33:33.
