data_PCOD9396521
_publ_section_title
;
Structure prediction by ZEFSAII (Michael W. Deem and Ramdas Pophale) SiO2 
 PCOD9396521
Probable space group: P B A N
;
_chemical_formula_sum "Si O2"
_cell_formula_units_Z 64
_cell_length_a 21.984703
_cell_length_b 9.203973
_cell_length_c 15.464248
_cell_angle_alpha 90.000000
_cell_angle_beta 90.000000
_cell_angle_gamma 90.000000
_cell_volume 3129.138203
_symmetry_space_group_name_H-M "P B A N"
_symmetry_group_IT_number 50
_space_group.IT_coordinate_system_code '2'
_symmetry_cell_setting 'orthorhombic'
loop_
_space_group_symop_operation_xyz
x,y,z
1/2-x,1/2-y,z
x,1/2-y,-z
1/2-x,y,-z
-x,-y,-z
1/2+x,1/2+y,-z
-x,1/2+y,z
1/2+x,-y,z
loop_
_atom_site_type_symbol
_atom_site_label
_atom_site_fract_x
_atom_site_fract_y
_atom_site_fract_z
Si Si1 0.372033 0.109283 0.573047
Si Si2 0.509680 0.993079 0.794809
Si Si3 0.185690 0.669845 0.812603
Si Si4 0.774872 0.602073 0.279554
Si Si5 0.886752 0.220014 0.634843
Si Si6 0.803892 0.472311 0.568157
Si Si7 0.527794 0.737906 0.675447
Si Si8 0.567295 0.253105 0.899555
O O1 0.325346 0.146082 0.649833
O O2 0.339884 0.102325 0.479750
O O3 0.431909 0.200100 0.593258
O O4 0.385629 0.938044 0.591551
O O5 0.542680 0.889133 0.724120
O O6 0.471334 0.879541 0.851826
O O7 0.465929 0.102994 0.742064
O O8 0.551078 0.100276 0.852283
O O9 0.250000 0.750000 0.820223
O O10 0.200253 0.501976 0.794427
O O11 0.149101 0.712482 0.725470
O O12 0.138060 0.707685 0.887020
O O13 0.750000 0.750000 0.241827
O O14 0.726337 0.517433 0.340880
O O15 0.849722 0.341086 0.583448
O O16 0.956683 0.258718 0.651419
O O17 0.750000 0.434592 0.500000
O O18 0.550948 0.250000 0.000000
#
# Coordination Sequence:
#
# PCOD9396521 Si02
#       8
#     8   8   8   8   8   8   8   8
#     4  10  22  35  57  90 125 162 209 283 324 367
#     4  10  20  39  66  90 131 171 213 255 317 403
#     4  11  21  38  66  95 125 168 217 262 322 402
#     4  10  22  39  62  89 119 162 219 266 319 378
#     4  11  20  37  60  86 121 165 221 260 319 389
#     4  10  22  38  60  87 123 167 222 282 329 385
#     4  11  20  38  61  92 127 169 214 261 319 388
#     4  11  23  41  67 105 135 166 212 271 333 400
#
# _framework density 20.452916999999999
#
# number of rings (size 3 to 8) (size 9 to 14) (size 15 to 20)
#    0.000    1.500    5.000    1.500    0.000    7.500 
#    0.000    0.000    0.000    0.000    0.000    0.875 
#    0.000    0.000    0.000    0.000    0.000    0.000 
#
# Total GULP energy -357688.227897 kJ/mol
# GULP energy per Si atom -5588.878561 kJ/mol
# Density = 2.040637 g / cm^3
# Si number density = 20.452917 Si / 1000 Ang^3
#
#
#
# Elastic Constant Matrix: (Units=GPa)
#
#
# Indices 1 2 3 4 5 6 
#
# 1 117.9263 48.0023 22.2996 0.0000 0.0000 0.0000
# 2 48.0023 124.2065 35.1227 0.0000 0.0000 0.0000
# 3 22.2996 35.1227 66.8130 0.0000 0.0000 0.0000
# 4 0.0000 0.0000 0.0000 20.8284 0.0000 0.0000
# 5 0.0000 0.0000 0.0000 0.0000 23.5080 0.0000
# 6 0.0000 0.0000 0.0000 0.0000 0.0000 27.5090
#
#
#
# Elastic Compliance Matrix: (Units=1/GPa)
#
#
# Indices 1 2 3 4 5 6 
#
# 1 0.010200 -0.003500 -0.001565 0.000000 0.000000 0.000000
# 2 -0.003500 0.010658 -0.004435 0.000000 0.000000 0.000000
# 3 -0.001565 -0.004435 0.017821 0.000000 0.000000 0.000000
# 4 0.000000 0.000000 0.000000 0.048011 0.000000 0.000000
# 5 0.000000 0.000000 0.000000 0.000000 0.042539 0.000000
# 6 0.000000 0.000000 0.000000 0.000000 0.000000 0.036352
#
#
# Mechanical properties :
#
#
# Convention : Reuss Voigt Hill
#
# Bulk Modulus (GPa) = 50.81135 57.75500 54.28318
# Shear Modulus (GPa) = 26.15905 27.93715 27.04810
#
# Velocity S-wave (km/s) = 3.58018 3.69985 3.64051
# Velocity P-wave (km/s) = 6.47975 6.82284 6.65351
#
# Compressibility (1/GPa) = 0.01968064
#
# Stress axis : x y z
#
# Youngs Moduli (GPa) = 98.03622 93.82978 56.11499
#
# Poissons Ratio (x) = 0.32837 0.08781
# Poissons Ratio (y) = 0.34309 0.24884
# Poissons Ratio (z) = 0.15340 0.41609
#
# Static dielectric constant tensor:
#      x y z
#    x 1.750980 0.000000 0.000000 
#    y 0.000000 1.762990 0.000000 
#    z 0.000000 0.000000 1.733640 
# 
# From -- ./inp_files/29856.got.cif
#   From: 2010.05.17/outbox.cif.g08.bks.cpg/sg50_15_cif.got.tgz:29856.got - 2010.06.03 11:33:33.
