data_PCOD9396623
_publ_section_title
;
Structure prediction by ZEFSAII (Michael W. Deem and Ramdas Pophale) SiO2 
 PCOD9396623
Probable space group: P B A N
;
_chemical_formula_sum "Si O2"
_cell_formula_units_Z 28
_cell_length_a 21.433351
_cell_length_b 9.596222
_cell_length_c 5.099863
_cell_angle_alpha 90.000000
_cell_angle_beta 90.000000
_cell_angle_gamma 90.000000
_cell_volume 1048.935713
_symmetry_space_group_name_H-M "P B A N"
_symmetry_group_IT_number 50
_space_group.IT_coordinate_system_code '2'
_symmetry_cell_setting 'orthorhombic'
loop_
_space_group_symop_operation_xyz
x,y,z
1/2-x,1/2-y,z
x,1/2-y,-z
1/2-x,y,-z
-x,-y,-z
1/2+x,1/2+y,-z
-x,1/2+y,z
1/2+x,-y,z
loop_
_atom_site_type_symbol
_atom_site_label
_atom_site_fract_x
_atom_site_fract_y
_atom_site_fract_z
Si Si1 0.928553 0.582864 0.692320
Si Si2 0.440781 0.597447 0.191140
Si Si3 0.162570 0.750000 0.500000
Si Si4 0.290753 0.458003 0.736608
O O1 0.934177 0.532400 0.393578
O O2 0.857179 0.622368 0.749424
O O3 0.991866 0.665823 0.752648
O O4 0.937371 0.454976 0.896125
O O5 0.381868 0.685115 0.278817
O O6 0.195245 0.880760 0.645670
O O7 0.250000 0.401032 0.500000
O O8 0.250000 0.455484 0.000000
#
# Coordination Sequence:
#
# PCOD9396623 Si02
#       4
#     8   8   4   8
#     4   9  18  33  46  64  91 129 164 190 233 284
#     4   9  18  31  49  65  91 123 160 205 235 276
#     4  10  21  32  48  74  99 124 162 206 254 290
#     4  11  22  32  46  69 102 133 155 187 237 302
#
# _framework density 26.693721
#
# number of rings (size 3 to 8) (size 9 to 14) (size 15 to 20)
#    0.000    2.286    0.000    3.857    0.000   13.714 
#    0.000    0.000    0.000    0.000    0.000    1.000 
#    0.000    2.286    0.000    0.000    0.000    0.286 
#
# Total GULP energy -156575.321115 kJ/mol
# GULP energy per Si atom -5591.975754 kJ/mol
# Density = 2.663297 g / cm^3
# Si number density = 26.693721 Si / 1000 Ang^3
#
#
#
# Elastic Constant Matrix: (Units=GPa)
#
#
# Indices 1 2 3 4 5 6 
#
# 1 229.3466 10.9576 60.5895 0.0000 0.0000 0.0000
# 2 10.9576 64.1204 39.4060 0.0000 0.0000 0.0000
# 3 60.5895 39.4060 165.1147 0.0000 0.0000 0.0000
# 4 0.0000 0.0000 0.0000 -12.5621 0.0000 0.0000
# 5 0.0000 0.0000 0.0000 0.0000 46.6892 0.0000
# 6 0.0000 0.0000 0.0000 0.0000 0.0000 -180.1024
#
#
#
# Elastic Compliance Matrix: (Units=1/GPa)
#
#
# Indices 1 2 3 4 5 6 
#
# 1 0.004834 0.000309 -0.001848 0.000000 0.000000 0.000000
# 2 0.000309 0.018296 -0.004480 0.000000 0.000000 0.000000
# 3 -0.001848 -0.004480 0.007804 0.000000 0.000000 0.000000
# 4 0.000000 0.000000 0.000000 -0.079604 0.000000 0.000000
# 5 0.000000 0.000000 0.000000 0.000000 0.021418 0.000000
# 6 0.000000 0.000000 0.000000 0.000000 0.000000 -0.005552
#
#
# Mechanical properties :
#
#
# Convention : Reuss Voigt Hill
#
# Bulk Modulus (GPa) = 52.91898 75.60975 64.26436
# Shear Modulus (GPa) = -345.53835 -6.01982 -175.77909
#
# Velocity S-wave (km/s) = -11.38976 -1.50334 -8.12363
# Velocity P-wave (km/s) = 12.37341 5.03716 7.99150
#
# Compressibility (1/GPa) = 0.01889681
#
# Stress axis : x y z
#
# Youngs Moduli (GPa) = 206.88887 54.65662 128.14684
#
# Poissons Ratio (x) = -0.01691 0.23675
# Poissons Ratio (y) = -0.06401 0.57410
# Poissons Ratio (z) = 0.38223 0.24486
#
# Static dielectric constant tensor:
#      x y z
#    x 2.186250 0.000000 0.000000 
#    y 0.000000 2.192030 0.000000 
#    z 0.000000 0.000000 1.988410 
# 
# From -- ./inp_files/3125.got.cif
#   From: 2010.05.17/outbox.cif.g08.bks.cpg/sg50_2_cif.got.tgz:3125.got - 2010.06.03 11:33:33.
