data_PCOD9396565
_publ_section_title
;
Structure prediction by ZEFSAII (Michael W. Deem and Ramdas Pophale) SiO2 
 PCOD9396565
Probable space group: P B A N
;
_chemical_formula_sum "Si O2"
_cell_formula_units_Z 48
_cell_length_a 10.152782
_cell_length_b 15.255216
_cell_length_c 15.492247
_cell_angle_alpha 90.000000
_cell_angle_beta 90.000000
_cell_angle_gamma 90.000000
_cell_volume 2399.483870
_symmetry_space_group_name_H-M "P B A N"
_symmetry_group_IT_number 50
_space_group.IT_coordinate_system_code '2'
_symmetry_cell_setting 'orthorhombic'
loop_
_space_group_symop_operation_xyz
x,y,z
1/2-x,1/2-y,z
x,1/2-y,-z
1/2-x,y,-z
-x,-y,-z
1/2+x,1/2+y,-z
-x,1/2+y,z
1/2+x,-y,z
loop_
_atom_site_type_symbol
_atom_site_label
_atom_site_fract_x
_atom_site_fract_y
_atom_site_fract_z
Si Si1 0.750000 0.597957 0.500000
Si Si2 0.958410 0.750000 0.500000
Si Si3 0.388265 0.707505 0.337574
Si Si4 0.441665 0.494754 0.801086
Si Si5 0.557800 0.186820 0.158109
Si Si6 0.331267 0.643662 0.910563
Si Si7 0.814038 0.494453 0.322860
O O1 0.870883 0.664238 0.515858
O O2 0.785637 0.544034 0.413347
O O3 0.048842 0.743365 0.417136
O O4 0.250000 0.750000 0.319921
O O5 0.476093 0.721267 0.253010
O O6 0.359733 0.604249 0.348773
O O7 0.471017 0.400710 0.847064
O O8 0.413534 0.561785 0.878533
O O9 0.565804 0.522257 0.740896
O O10 0.317216 0.495775 0.735771
O O11 0.574771 0.270647 0.095919
O O12 0.709745 0.153197 0.156637
O O13 0.250000 0.635952 0.000000
#
# Coordination Sequence:
#
# PCOD9396565 Si02
#       7
#     4   4   8   8   8   8   8
#     4  11  26  42  59  92 140 176 221 302 344 393
#     4  11  27  40  56  98 133 181 234 280 352 403
#     4  11  21  39  64  89 128 178 233 277 326 423
#     4  11  22  44  68 103 138 184 230 292 354 424
#     4  10  20  40  67  97 136 177 231 278 349 421
#     4  11  22  42  71 104 134 180 228 283 344 437
#     4  11  25  42  67  98 139 182 237 283 356 412
#
# _framework density 20.004303
#
# number of rings (size 3 to 8) (size 9 to 14) (size 15 to 20)
#    0.000    1.167    5.000    3.250    7.000    2.000 
#    0.000    0.000    0.000    0.000    0.000    0.000 
#    0.000    0.000    0.000    0.000    0.000    0.000 
#
# Total GULP energy -267330.409318 kJ/mol
# GULP energy per Si atom -5569.383527 kJ/mol
# Density = 1.995877 g / cm^3
# Si number density = 20.004303 Si / 1000 Ang^3
#
#
#
# Elastic Constant Matrix: (Units=GPa)
#
#
# Indices 1 2 3 4 5 6 
#
# 1 81.4702 26.3598 32.9417 0.0000 0.0000 0.0000
# 2 26.3598 65.7909 60.3667 0.0000 0.0000 0.0000
# 3 32.9417 60.3667 133.1318 0.0000 0.0000 0.0000
# 4 0.0000 0.0000 0.0000 26.5154 0.0000 0.0000
# 5 0.0000 0.0000 0.0000 0.0000 47.6709 0.0000
# 6 0.0000 0.0000 0.0000 0.0000 0.0000 44.1659
#
#
#
# Elastic Compliance Matrix: (Units=1/GPa)
#
#
# Indices 1 2 3 4 5 6 
#
# 1 0.014301 -0.004252 -0.001611 0.000000 0.000000 0.000000
# 2 -0.004252 0.027293 -0.011324 0.000000 0.000000 0.000000
# 3 -0.001611 -0.011324 0.013044 0.000000 0.000000 0.000000
# 4 0.000000 0.000000 0.000000 0.037714 0.000000 0.000000
# 5 0.000000 0.000000 0.000000 0.000000 0.020977 0.000000
# 6 0.000000 0.000000 0.000000 0.000000 0.000000 0.022642
#
#
# Mechanical properties :
#
#
# Convention : Reuss Voigt Hill
#
# Bulk Modulus (GPa) = 49.34283 57.74770 53.54526
# Shear Modulus (GPa) = 28.23253 34.38540 31.30897
#
# Velocity S-wave (km/s) = 3.76083 4.15046 3.96044
# Velocity P-wave (km/s) = 6.60137 7.20408 6.90930
#
# Compressibility (1/GPa) = 0.02026637
#
# Stress axis : x y z
#
# Youngs Moduli (GPa) = 69.92290 36.63893 76.66117
#
# Poissons Ratio (x) = 0.15580 0.12347
# Poissons Ratio (y) = 0.29733 0.86808
# Poissons Ratio (z) = 0.11262 0.41489
#
# Static dielectric constant tensor:
#      x y z
#    x 1.695630 0.000000 0.000000 
#    y 0.000000 1.755090 0.000000 
#    z 0.000000 0.000000 1.876170 
# 
# From -- ./inp_files/28754.got.cif
#   From: 2010.05.17/outbox.cif.g08.bks.cpg/sg50_15_cif.got.tgz:28754.got - 2010.06.03 11:33:33.
