data_PCOD9396682
_publ_section_title
;
Structure prediction by ZEFSAII (Michael W. Deem and Ramdas Pophale) SiO2 
 PCOD9396682
Probable space group: P B A N
;
_chemical_formula_sum "Si O2"
_cell_formula_units_Z 48
_cell_length_a 18.082698
_cell_length_b 5.342196
_cell_length_c 21.797706
_cell_angle_alpha 90.000000
_cell_angle_beta 90.000000
_cell_angle_gamma 90.000000
_cell_volume 2105.687106
_symmetry_space_group_name_H-M "P B A N"
_symmetry_group_IT_number 50
_space_group.IT_coordinate_system_code '2'
_symmetry_cell_setting 'orthorhombic'
loop_
_space_group_symop_operation_xyz
x,y,z
1/2-x,1/2-y,z
x,1/2-y,-z
1/2-x,y,-z
-x,-y,-z
1/2+x,1/2+y,-z
-x,1/2+y,z
1/2+x,-y,z
loop_
_atom_site_type_symbol
_atom_site_label
_atom_site_fract_x
_atom_site_fract_y
_atom_site_fract_z
Si Si1 0.458791 0.095945 0.422088
Si Si2 0.335916 0.225121 0.822822
Si Si3 0.480568 0.632245 0.286327
Si Si4 0.452149 0.244085 0.929198
Si Si5 0.716037 0.504885 0.431150
Si Si6 0.334112 0.726316 0.746902
O O1 0.486603 0.370883 0.442706
O O2 0.472025 0.114462 0.348345
O O3 0.372995 0.030758 0.434245
O O4 0.250000 0.250000 0.839865
O O5 0.387526 0.270144 0.880293
O O6 0.347782 0.445943 0.771906
O O7 0.345278 0.941731 0.798147
O O8 0.491483 0.375126 0.251098
O O9 0.395456 0.687039 0.301815
O O10 0.506930 0.478937 0.920617
O O11 0.425896 0.250000 0.000000
O O12 0.750000 0.750000 0.398787
O O13 0.750000 0.507774 0.500000
O O14 0.750000 0.250000 0.405006
O O15 0.250000 0.750000 0.727340
#
# Coordination Sequence:
#
# PCOD9396682 Si02
#       6
#     8   8   8   8   8   8
#     4  10  21  40  62  89 122 157 201 249 295 355
#     4  10  21  36  56  82 111 148 190 237 290 346
#     4  10  21  37  57  84 113 149 191 237 287 345
#     4  10  21  36  54  80 112 147 189 236 289 347
#     4  10  21  40  63  92 125 162 201 244 301 356
#     4  10  21  37  56  81 113 145 188 239 290 346
#
# _framework density 22.79541
#
# number of rings (size 3 to 8) (size 9 to 14) (size 15 to 20)
#    0.000    2.000    0.000    3.000    0.000    4.333 
#    0.000   20.000    0.000    6.000    0.000    0.000 
#    0.000    0.000    0.000    0.000    0.000    0.000 
#
# Total GULP energy -268204.464637 kJ/mol
# GULP energy per Si atom -5587.593013 kJ/mol
# Density = 2.274353 g / cm^3
# Si number density = 22.795410 Si / 1000 Ang^3
#
#
#
# Elastic Constant Matrix: (Units=GPa)
#
#
# Indices 1 2 3 4 5 6 
#
# 1 172.1745 42.3250 31.7392 0.0000 0.0000 0.0000
# 2 42.3250 198.6123 3.9350 0.0000 0.0000 0.0000
# 3 31.7392 3.9350 65.6415 0.0000 0.0000 0.0000
# 4 0.0000 0.0000 0.0000 9.3325 0.0000 0.0000
# 5 0.0000 0.0000 0.0000 0.0000 15.7086 0.0000
# 6 0.0000 0.0000 0.0000 0.0000 0.0000 40.2036
#
#
#
# Elastic Compliance Matrix: (Units=1/GPa)
#
#
# Indices 1 2 3 4 5 6 
#
# 1 0.006730 -0.001371 -0.003172 0.000000 0.000000 0.000000
# 2 -0.001371 0.005320 0.000344 0.000000 0.000000 0.000000
# 3 -0.003172 0.000344 0.016747 0.000000 0.000000 0.000000
# 4 0.000000 0.000000 0.000000 0.107152 0.000000 0.000000
# 5 0.000000 0.000000 0.000000 0.000000 0.063659 0.000000
# 6 0.000000 0.000000 0.000000 0.000000 0.000000 0.024873
#
#
# Mechanical properties :
#
#
# Convention : Reuss Voigt Hill
#
# Bulk Modulus (GPa) = 49.02097 65.82521 57.42309
# Shear Modulus (GPa) = 20.86112 36.94422 28.90267
#
# Velocity S-wave (km/s) = 3.02842 4.03014 3.56464
# Velocity P-wave (km/s) = 5.81205 7.11304 6.49520
#
# Compressibility (1/GPa) = 0.02039943
#
# Stress axis : x y z
#
# Youngs Moduli (GPa) = 148.59111 187.95757 59.71116
#
# Poissons Ratio (x) = 0.25775 0.18939
# Poissons Ratio (y) = 0.20377 -0.02055
# Poissons Ratio (z) = 0.47131 -0.06468
#
# Static dielectric constant tensor:
#      x y z
#    x 1.854190 0.000000 0.000000 
#    y 0.000000 2.022470 0.000000 
#    z 0.000000 0.000000 1.922580 
# 
# From -- ./inp_files/32246.got.cif
#   From: 2010.05.17/outbox.cif.g08.bks.cpg/sg50_17_cif.got.tgz:32246.got - 2010.06.03 11:33:33.
