data_PCOD9396638
_publ_section_title
;
Structure prediction by ZEFSAII (Michael W. Deem and Ramdas Pophale) SiO2 
 PCOD9396638
Probable space group: P B A N
;
_chemical_formula_sum "Si O2"
_cell_formula_units_Z 64
_cell_length_a 25.354091
_cell_length_b 14.736076
_cell_length_c 7.646919
_cell_angle_alpha 90.000000
_cell_angle_beta 90.000000
_cell_angle_gamma 90.000000
_cell_volume 2857.040438
_symmetry_space_group_name_H-M "P B A N"
_symmetry_group_IT_number 50
_space_group.IT_coordinate_system_code '2'
_symmetry_cell_setting 'orthorhombic'
loop_
_space_group_symop_operation_xyz
x,y,z
1/2-x,1/2-y,z
x,1/2-y,-z
1/2-x,y,-z
-x,-y,-z
1/2+x,1/2+y,-z
-x,1/2+y,z
1/2+x,-y,z
loop_
_atom_site_type_symbol
_atom_site_label
_atom_site_fract_x
_atom_site_fract_y
_atom_site_fract_z
Si Si1 0.306642 0.277061 0.703036
Si Si2 0.355777 0.917991 0.273374
Si Si3 0.164439 0.534088 0.674480
Si Si4 0.548977 0.952007 0.721895
Si Si5 0.809704 0.265290 0.205974
Si Si6 0.055027 0.447305 0.704736
Si Si7 0.578857 0.748894 0.714596
Si Si8 0.269842 0.041376 0.187352
O O1 0.250000 0.250000 0.778685
O O2 0.305613 0.250000 0.500000
O O3 0.360509 0.237374 0.775814
O O4 0.307405 0.384835 0.724326
O O5 0.344494 0.949172 0.470522
O O6 0.351654 0.809374 0.273728
O O7 0.407746 0.973419 0.217718
O O8 0.305144 0.952097 0.163835
O O9 0.172826 0.632879 0.755930
O O10 0.113204 0.483579 0.749461
O O11 0.217752 0.477453 0.701582
O O12 0.551861 0.949711 0.508404
O O13 0.559486 0.847710 0.775660
O O14 0.491363 0.988315 0.771247
O O15 0.750000 0.250000 0.278283
O O16 0.807354 0.250000 0.000000
O O17 0.048436 0.342789 0.762551
O O18 0.579485 0.750000 0.500000
O O19 0.250000 0.072682 0.000000
#
# Coordination Sequence:
#
# PCOD9396638 Si02
#       8
#     8   8   8   8   8   8   8   8
#     4  10  21  33  58  84 117 161 213 247 300 362
#     4  11  22  37  63  92 120 161 213 257 309 369
#     4  11  23  37  62  93 123 159 213 261 305 372
#     4   9  18  34  56  89 124 161 203 257 313 357
#     4  11  23  40  59  86 126 168 203 255 320 374
#     4   9  19  33  56  90 124 160 202 261 310 356
#     4   9  16  31  51  81 120 158 199 247 305 358
#     4  12  24  38  58  90 130 165 198 253 318 378
#
# _framework density 22.400803
#
# number of rings (size 3 to 8) (size 9 to 14) (size 15 to 20)
#    0.000    1.750    2.500    2.250    5.250    1.750 
#    0.000    3.750    0.000    3.000    0.000    0.000 
#    0.000    0.000    0.000    0.000    0.000    0.000 
#
# Total GULP energy -357634.230812 kJ/mol
# GULP energy per Si atom -5588.034856 kJ/mol
# Density = 2.234982 g / cm^3
# Si number density = 22.400803 Si / 1000 Ang^3
#
#
#
# Elastic Constant Matrix: (Units=GPa)
#
#
# Indices 1 2 3 4 5 6 
#
# 1 115.5520 49.7078 -7.0168 0.0000 0.0000 0.0000
# 2 49.7078 132.9263 11.3301 0.0000 0.0000 0.0000
# 3 -7.0168 11.3301 48.9517 0.0000 0.0000 0.0000
# 4 0.0000 0.0000 0.0000 14.3030 0.0000 0.0000
# 5 0.0000 0.0000 0.0000 0.0000 -2.3108 0.0000
# 6 0.0000 0.0000 0.0000 0.0000 0.0000 118.6287
#
#
#
# Elastic Compliance Matrix: (Units=1/GPa)
#
#
# Indices 1 2 3 4 5 6 
#
# 1 0.010602 -0.004176 0.002486 0.000000 0.000000 0.000000
# 2 -0.004176 0.009320 -0.002756 0.000000 0.000000 0.000000
# 3 0.002486 -0.002756 0.021422 0.000000 0.000000 0.000000
# 4 0.000000 0.000000 0.000000 0.069915 0.000000 0.000000
# 5 0.000000 0.000000 0.000000 0.000000 -0.432750 0.000000
# 6 0.000000 0.000000 0.000000 0.000000 0.000000 0.008430
#
#
# Mechanical properties :
#
#
# Convention : Reuss Voigt Hill
#
# Bulk Modulus (GPa) = 30.81460 45.05245 37.93352
# Shear Modulus (GPa) = -17.04436 42.35145 12.65355
#
# Velocity S-wave (km/s) = -2.76140 4.35285 2.37928
# Velocity P-wave (km/s) = 1.90231 6.73934 4.95164
#
# Compressibility (1/GPa) = 0.03245215
#
# Stress axis : x y z
#
# Youngs Moduli (GPa) = 94.32460 107.30043 46.67990
#
# Poissons Ratio (x) = 0.44813 -0.11606
# Poissons Ratio (y) = 0.39394 0.12864
# Poissons Ratio (z) = -0.23452 0.29569
#
# Static dielectric constant tensor:
#      x y z
#    x 1.831580 0.000000 0.000000 
#    y 0.000000 1.907120 0.000000 
#    z 0.000000 0.000000 1.828190 
# 
# From -- ./inp_files/16132.got.cif
#   From: 2010.05.17/outbox.cif.g08.bks.cpg/sg50_9_cif.got.tgz:16132.got - 2010.06.03 11:33:33.
