data_PCOD9396599
_publ_section_title
;
Structure prediction by ZEFSAII (Michael W. Deem and Ramdas Pophale) SiO2 
 PCOD9396599
Probable space group: P B A N
;
_chemical_formula_sum "Si O2"
_cell_formula_units_Z 52
_cell_length_a 8.594382
_cell_length_b 13.664692
_cell_length_c 19.717464
_cell_angle_alpha 90.000000
_cell_angle_beta 90.000000
_cell_angle_gamma 90.000000
_cell_volume 2315.610749
_symmetry_space_group_name_H-M "P B A N"
_symmetry_group_IT_number 50
_space_group.IT_coordinate_system_code '2'
_symmetry_cell_setting 'orthorhombic'
loop_
_space_group_symop_operation_xyz
x,y,z
1/2-x,1/2-y,z
x,1/2-y,-z
1/2-x,y,-z
-x,-y,-z
1/2+x,1/2+y,-z
-x,1/2+y,z
1/2+x,-y,z
loop_
_atom_site_type_symbol
_atom_site_label
_atom_site_fract_x
_atom_site_fract_y
_atom_site_fract_z
Si Si1 0.504899 0.702453 0.598563
Si Si2 0.788484 0.552062 0.320030
Si Si3 0.250000 0.750000 0.500000
Si Si4 0.750000 0.750000 0.500000
Si Si5 0.651315 0.899870 0.167380
Si Si6 0.112474 0.940908 0.049571
Si Si7 0.489959 0.300108 0.846459
Si Si8 0.060794 0.863227 0.298871
O O1 0.611790 0.612952 0.624571
O O2 0.361560 0.685076 0.547993
O O3 0.618760 0.777078 0.556561
O O4 0.445135 0.760572 0.663152
O O5 0.864608 0.568629 0.245438
O O6 0.610250 0.587472 0.312685
O O7 0.811281 0.436448 0.329067
O O8 0.524163 0.816521 0.152774
O O9 0.818106 0.846800 0.162374
O O10 0.648125 0.986430 0.112869
O O11 0.049535 0.843636 0.083981
O O12 0.250000 0.915455 0.000000
O O13 0.000000 0.000000 0.000000
O O14 0.580474 0.339501 0.780493
#
# Coordination Sequence:
#
# PCOD9396599 Si02
#       8
#     8   8   2   2   8   8   8   8
#     4  11  22  46  66  97 132 180 216 267 337 399
#     4  11  22  39  70 100 129 170 224 281 331 383
#     4  10  28  42  70  94 144 176 214 270 342 406
#     4  10  20  42  70  86 136 176 210 258 322 414
#     4  10  21  41  68  96 127 173 226 273 330 394
#     4  12  24  42  64  94 141 178 212 272 337 396
#     4  10  21  41  68  97 127 173 227 272 325 401
#     4  11  22  39  70 100 129 171 225 281 328 384
#
# _framework density 22.456277
#
# number of rings (size 3 to 8) (size 9 to 14) (size 15 to 20)
#    0.000    1.231    6.154    0.000    2.154    0.615 
#    0.000    6.154    0.000    0.000    0.000    0.000 
#    0.000    0.000    0.000    0.000    0.000    0.000 
#
# Total GULP energy -290115.776373 kJ/mol
# GULP energy per Si atom -5579.149546 kJ/mol
# Density = 2.240517 g / cm^3
# Si number density = 22.456277 Si / 1000 Ang^3
#
#
#
# Elastic Constant Matrix: (Units=GPa)
#
#
# Indices 1 2 3 4 5 6 
#
# 1 53.4610 -1.7480 30.0518 0.0000 0.0000 0.0000
# 2 -1.7480 55.7777 7.3207 0.0000 0.0000 0.0000
# 3 30.0518 7.3207 114.3452 0.0000 0.0000 0.0000
# 4 0.0000 0.0000 0.0000 12.7317 0.0000 0.0000
# 5 0.0000 0.0000 0.0000 0.0000 42.4178 0.0000
# 6 0.0000 0.0000 0.0000 0.0000 0.0000 27.4245
#
#
#
# Elastic Compliance Matrix: (Units=1/GPa)
#
#
# Indices 1 2 3 4 5 6 
#
# 1 0.022066 0.001465 -0.005893 0.000000 0.000000 0.000000
# 2 0.001465 0.018177 -0.001549 0.000000 0.000000 0.000000
# 3 -0.005893 -0.001549 0.010393 0.000000 0.000000 0.000000
# 4 0.000000 0.000000 0.000000 0.078544 0.000000 0.000000
# 5 0.000000 0.000000 0.000000 0.000000 0.023575 0.000000
# 6 0.000000 0.000000 0.000000 0.000000 0.000000 0.036464
#
#
# Mechanical properties :
#
#
# Convention : Reuss Voigt Hill
#
# Bulk Modulus (GPa) = 25.85123 32.75923 29.30523
# Shear Modulus (GPa) = 23.35713 29.04542 26.20128
#
# Velocity S-wave (km/s) = 3.22858 3.60032 3.41951
# Velocity P-wave (km/s) = 5.04332 5.64825 5.35434
#
# Compressibility (1/GPa) = 0.03868288
#
# Stress axis : x y z
#
# Youngs Moduli (GPa) = 45.31913 55.01309 96.21504
#
# Poissons Ratio (x) = -0.08059 0.56700
# Poissons Ratio (y) = -0.06639 0.14902
# Poissons Ratio (z) = 0.26707 0.08520
#
# Static dielectric constant tensor:
#      x y z
#    x 1.764700 0.000000 0.000000 
#    y 0.000000 1.845810 0.000000 
#    z 0.000000 0.000000 1.838150 
# 
# From -- ./inp_files/30611.got.cif
#   From: 2010.05.17/outbox.cif.g08.bks.cpg/sg50_16_cif.got.tgz:30611.got - 2010.06.03 11:33:33.
