data_PCOD9396560
_publ_section_title
;
Structure prediction by ZEFSAII (Michael W. Deem and Ramdas Pophale) SiO2 
 PCOD9396560
Probable space group: P B A N
;
_chemical_formula_sum "Si O2"
_cell_formula_units_Z 58
_cell_length_a 16.039916
_cell_length_b 19.567148
_cell_length_c 9.293240
_cell_angle_alpha 90.000000
_cell_angle_beta 90.000000
_cell_angle_gamma 90.000000
_cell_volume 2916.733653
_symmetry_space_group_name_H-M "P B A N"
_symmetry_group_IT_number 50
_space_group.IT_coordinate_system_code '2'
_symmetry_cell_setting 'orthorhombic'
loop_
_space_group_symop_operation_xyz
x,y,z
1/2-x,1/2-y,z
x,1/2-y,-z
1/2-x,y,-z
-x,-y,-z
1/2+x,1/2+y,-z
-x,1/2+y,z
1/2+x,-y,z
loop_
_atom_site_type_symbol
_atom_site_label
_atom_site_fract_x
_atom_site_fract_y
_atom_site_fract_z
Si Si1 0.662571 0.217325 0.840885
Si Si2 0.641163 0.440653 0.213307
Si Si3 0.750000 0.750000 0.000000
Si Si4 0.167251 0.052186 0.579874
Si Si5 0.620567 0.841222 0.828408
Si Si6 0.993728 0.766728 0.668377
Si Si7 0.911695 0.536576 0.021735
Si Si8 0.051070 0.077318 0.318280
O O1 0.750000 0.250000 0.792871
O O2 0.667843 0.134763 0.834449
O O3 0.585674 0.232619 0.736320
O O4 0.646556 0.250000 0.000000
O O5 0.685453 0.479242 0.344924
O O6 0.647971 0.489929 0.074598
O O7 0.544858 0.439593 0.273846
O O8 0.694244 0.798247 0.899495
O O9 0.250000 0.075675 0.500000
O O10 0.147549 0.105820 0.705456
O O11 0.089665 0.051793 0.468222
O O12 0.557081 0.789129 0.756675
O O13 0.581989 0.888284 0.953463
O O14 0.996839 0.750000 0.500000
O O15 0.949550 0.840447 0.683701
O O16 0.894109 0.545446 0.189398
O O17 0.000000 0.500000 0.000000
#
# Coordination Sequence:
#
# PCOD9396560 Si02
#       8
#     8   8   2   8   8   8   8   8
#     4  10  24  47  69  97 130 165 219 280 334 399
#     4   9  21  44  64  96 123 168 217 268 330 399
#     4  12  28  40  66 100 134 196 228 288 320 400
#     4  11  24  42  61  93 135 171 215 270 332 397
#     4  11  25  41  64  95 136 172 231 269 333 393
#     4  11  23  41  68  96 132 177 218 267 335 401
#     4   9  20  39  67  96 122 163 224 273 324 387
#     4  10  20  40  66  93 127 168 216 269 324 392
#
# _framework density 19.885258
#
# number of rings (size 3 to 8) (size 9 to 14) (size 15 to 20)
#    0.000    1.793    1.379    1.241   10.621    0.276 
#    9.931    0.000    0.000    0.000    0.000    0.000 
#    0.000    0.000    0.000    0.000    0.000    0.000 
#
# Total GULP energy -323668.376610 kJ/mol
# GULP energy per Si atom -5580.489252 kJ/mol
# Density = 1.984000 g / cm^3
# Si number density = 19.885258 Si / 1000 Ang^3
#
#
#
# Elastic Constant Matrix: (Units=GPa)
#
#
# Indices 1 2 3 4 5 6 
#
# 1 58.2167 31.2214 33.9182 0.0000 0.0000 0.0000
# 2 31.2214 120.1919 65.3315 0.0000 0.0000 0.0000
# 3 33.9182 65.3315 128.3644 0.0000 0.0000 0.0000
# 4 0.0000 0.0000 0.0000 27.7148 0.0000 0.0000
# 5 0.0000 0.0000 0.0000 0.0000 16.7028 0.0000
# 6 0.0000 0.0000 0.0000 0.0000 0.0000 13.4328
#
#
#
# Elastic Compliance Matrix: (Units=1/GPa)
#
#
# Indices 1 2 3 4 5 6 
#
# 1 0.021271 -0.003415 -0.003882 0.000000 0.000000 0.000000
# 2 -0.003415 0.012050 -0.005231 0.000000 0.000000 0.000000
# 3 -0.003882 -0.005231 0.011478 0.000000 0.000000 0.000000
# 4 0.000000 0.000000 0.000000 0.036082 0.000000 0.000000
# 5 0.000000 0.000000 0.000000 0.000000 0.059870 0.000000
# 6 0.000000 0.000000 0.000000 0.000000 0.000000 0.074444
#
#
# Mechanical properties :
#
#
# Convention : Reuss Voigt Hill
#
# Bulk Modulus (GPa) = 50.65040 63.07944 56.86492
# Shear Modulus (GPa) = 20.25664 23.32355 21.79010
#
# Velocity S-wave (km/s) = 3.19513 3.42849 3.31387
# Velocity P-wave (km/s) = 6.25607 6.88936 6.58034
#
# Compressibility (1/GPa) = 0.01974318
#
# Stress axis : x y z
#
# Youngs Moduli (GPa) = 47.01326 82.98533 87.12072
#
# Poissons Ratio (x) = 0.28340 0.33823
# Poissons Ratio (y) = 0.16055 0.45570
# Poissons Ratio (z) = 0.18252 0.43407
#
# Static dielectric constant tensor:
#      x y z
#    x 1.701370 0.000000 0.000000 
#    y 0.000000 1.690200 0.000000 
#    z 0.000000 0.000000 0.765450 
# 
# From -- ./inp_files/14491.got.cif
#   From: 2010.05.17/outbox.cif.g08.bks.cpg/sg50_8_cif.got.tgz:14491.got - 2010.06.03 11:33:33.
