data_PCOD9396403
_publ_section_title
;
Structure prediction by ZEFSAII (Michael W. Deem and Ramdas Pophale) SiO2 
 PCOD9396403
Probable space group: P B A N
;
_chemical_formula_sum "Si O2"
_cell_formula_units_Z 44
_cell_length_a 15.270354
_cell_length_b 8.083153
_cell_length_c 17.113953
_cell_angle_alpha 90.000000
_cell_angle_beta 90.000000
_cell_angle_gamma 90.000000
_cell_volume 2112.419848
_symmetry_space_group_name_H-M "P B A N"
_symmetry_group_IT_number 50
_space_group.IT_coordinate_system_code '2'
_symmetry_cell_setting 'orthorhombic'
loop_
_space_group_symop_operation_xyz
x,y,z
1/2-x,1/2-y,z
x,1/2-y,-z
1/2-x,y,-z
-x,-y,-z
1/2+x,1/2+y,-z
-x,1/2+y,z
1/2+x,-y,z
loop_
_atom_site_type_symbol
_atom_site_label
_atom_site_fract_x
_atom_site_fract_y
_atom_site_fract_z
Si Si1 0.712452 0.426831 0.913134
Si Si2 0.250000 0.250000 0.813077
Si Si3 0.250000 0.750000 0.322924
Si Si4 0.397649 0.768684 0.807736
Si Si5 0.101760 0.948632 0.594194
Si Si6 0.962448 0.750000 0.500000
Si Si7 0.419041 0.091658 0.239571
O O1 0.750000 0.250000 0.883129
O O2 0.733143 0.592286 0.867530
O O3 0.614886 0.377128 0.887082
O O4 0.750000 0.442201 0.000000
O O5 0.334978 0.290540 0.762841
O O6 0.326842 0.686460 0.262282
O O7 0.196221 0.626438 0.380217
O O8 0.396930 0.569056 0.814030
O O9 0.494925 0.812689 0.782730
O O10 0.031183 0.814177 0.565288
O O11 0.095706 0.097256 0.531259
O O12 0.067592 0.021131 0.674959
#
# Coordination Sequence:
#
# PCOD9396403 Si02
#       7
#     8   4   4   8   8   4   8
#     4  11  22  41  67  92 141 175 214 271 344 401
#     4  12  23  44  68 103 126 178 226 288 328 415
#     4  10  20  37  65  94 134 170 226 266 340 386
#     4  11  21  41  65 101 129 177 218 288 329 405
#     4  10  21  41  64  96 128 183 215 290 334 404
#     4  10  22  41  66  91 138 172 234 267 348 407
#     4  11  23  40  72  96 133 167 237 283 344 391
#
# _framework density 20.829191999999999
#
# number of rings (size 3 to 8) (size 9 to 14) (size 15 to 20)
#    0.000    1.273    2.727    4.636    0.000    0.364 
#    0.000   10.000    4.000    4.364    0.000    0.000 
#    0.000    0.000    0.000    0.000    0.000    0.000 
#
# Total GULP energy -244969.440935 kJ/mol
# GULP energy per Si atom -5567.487294 kJ/mol
# Density = 2.078178 g / cm^3
# Si number density = 20.829192 Si / 1000 Ang^3
#
#
#
# Elastic Constant Matrix: (Units=GPa)
#
#
# Indices 1 2 3 4 5 6 
#
# 1 137.2285 41.2153 38.9354 0.0000 0.0000 0.0000
# 2 41.2153 105.4693 27.5926 0.0000 0.0000 0.0000
# 3 38.9354 27.5926 84.1149 0.0000 0.0000 0.0000
# 4 0.0000 0.0000 0.0000 -177.5179 0.0000 0.0000
# 5 0.0000 0.0000 0.0000 0.0000 14.6149 0.0000
# 6 0.0000 0.0000 0.0000 0.0000 0.0000 49.6078
#
#
#
# Elastic Compliance Matrix: (Units=1/GPa)
#
#
# Indices 1 2 3 4 5 6 
#
# 1 0.009024 -0.002662 -0.003304 0.000000 0.000000 0.000000
# 2 -0.002662 0.011157 -0.002428 0.000000 0.000000 0.000000
# 3 -0.003304 -0.002428 0.014214 0.000000 0.000000 0.000000
# 4 0.000000 0.000000 0.000000 -0.005633 0.000000 0.000000
# 5 0.000000 0.000000 0.000000 0.000000 0.068423 0.000000
# 6 0.000000 0.000000 0.000000 0.000000 0.000000 0.020158
#
#
# Mechanical properties :
#
#
# Convention : Reuss Voigt Hill
#
# Bulk Modulus (GPa) = 56.79240 60.25548 58.52394
# Shear Modulus (GPa) = 35.71445 -8.05442 13.83001
#
# Velocity S-wave (km/s) = 4.14531 -1.96857 2.57956
# Velocity P-wave (km/s) = 7.08776 4.88100 6.08525
#
# Compressibility (1/GPa) = 0.01760799
#
# Stress axis : x y z
#
# Youngs Moduli (GPa) = 110.81526 89.63123 70.35255
#
# Poissons Ratio (x) = 0.23861 0.23243
# Poissons Ratio (y) = 0.29500 0.17079
# Poissons Ratio (z) = 0.36611 0.21759
#
# Static dielectric constant tensor:
#      x y z
#    x 2.088010 0.000000 0.000000 
#    y 0.000000 1.787470 0.000000 
#    z 0.000000 0.000000 1.775530 
# 
# From -- ./inp_files/29424.got.cif
#   From: 2010.05.17/outbox.cif.g08.bks.cpg/sg50_15_cif.got.tgz:29424.got - 2010.06.03 11:33:33.
