data_PCOD9396712
_publ_section_title
;
Structure prediction by ZEFSAII (Michael W. Deem and Ramdas Pophale) SiO2 
 PCOD9396712
Probable space group: P B A N
;
_chemical_formula_sum "Si O2"
_cell_formula_units_Z 40
_cell_length_a 14.121057
_cell_length_b 5.201662
_cell_length_c 26.158133
_cell_angle_alpha 90.000000
_cell_angle_beta 90.000000
_cell_angle_gamma 90.000000
_cell_volume 1921.392443
_symmetry_space_group_name_H-M "P B A N"
_symmetry_group_IT_number 50
_space_group.IT_coordinate_system_code '2'
_symmetry_cell_setting 'orthorhombic'
loop_
_space_group_symop_operation_xyz
x,y,z
1/2-x,1/2-y,z
x,1/2-y,-z
1/2-x,y,-z
-x,-y,-z
1/2+x,1/2+y,-z
-x,1/2+y,z
1/2+x,-y,z
loop_
_atom_site_type_symbol
_atom_site_label
_atom_site_fract_x
_atom_site_fract_y
_atom_site_fract_z
Si Si1 0.065129 0.172094 0.947752
Si Si2 0.435721 0.269398 0.837185
Si Si3 0.394680 0.998115 0.476440
Si Si4 0.566899 0.593257 0.270118
Si Si5 0.686658 0.507356 0.370491
O O1 0.113060 0.199226 0.892326
O O2 0.980166 0.386781 0.948554
O O3 0.118496 0.250000 0.000000
O O4 0.522292 0.479871 0.836298
O O5 0.384088 0.350465 0.784929
O O6 0.350317 0.250000 0.500000
O O7 0.390431 0.979837 0.415557
O O8 0.347899 0.750000 0.500000
O O9 0.500000 0.000000 0.500000
O O10 0.508073 0.327690 0.272855
O O11 0.638229 0.579467 0.317019
O O12 0.750000 0.750000 0.385748
O O13 0.750000 0.250000 0.366737
#
# Coordination Sequence:
#
# PCOD9396712 Si02
#       5
#     8   8   8   8   8
#     4   8  12  18  31  53  88 126 160 205 259 302
#     4   8  14  25  40  66  92 128 177 212 249 306
#     4  10  23  40  63  85 109 143 177 213 262 337
#     4  10  21  36  60  79 107 149 186 220 263 328
#     4  12  26  41  61  89 116 139 176 229 276 320
#
# _framework density 20.818235999999999
#
# number of rings (size 3 to 8) (size 9 to 14) (size 15 to 20)
#    0.000    2.400    0.000    2.400    5.600    2.400 
#    0.000    0.000    0.000    0.000    0.000    0.000 
#    0.000    0.800    0.000    7.600    0.000    5.600 
#
# Total GULP energy -222691.180757 kJ/mol
# GULP energy per Si atom -5567.279519 kJ/mol
# Density = 2.077085 g / cm^3
# Si number density = 20.818236 Si / 1000 Ang^3
#
#
#
# Elastic Constant Matrix: (Units=GPa)
#
#
# Indices 1 2 3 4 5 6 
#
# 1 54.7503 9.2801 38.1767 0.0000 0.0000 0.0000
# 2 9.2801 152.6676 4.4392 0.0000 0.0000 0.0000
# 3 38.1767 4.4392 220.7907 0.0000 0.0000 0.0000
# 4 0.0000 0.0000 0.0000 7.5599 0.0000 0.0000
# 5 0.0000 0.0000 0.0000 0.0000 51.8560 0.0000
# 6 0.0000 0.0000 0.0000 0.0000 0.0000 -7.7050
#
#
#
# Elastic Compliance Matrix: (Units=1/GPa)
#
#
# Indices 1 2 3 4 5 6 
#
# 1 0.020976 -0.001170 -0.003603 0.000000 0.000000 0.000000
# 2 -0.001170 0.006619 0.000069 0.000000 0.000000 0.000000
# 3 -0.003603 0.000069 0.005151 0.000000 0.000000 0.000000
# 4 0.000000 0.000000 0.000000 0.132277 0.000000 0.000000
# 5 0.000000 0.000000 0.000000 0.000000 0.019284 0.000000
# 6 0.000000 0.000000 0.000000 0.000000 0.000000 -0.129786
#
#
# Mechanical properties :
#
#
# Convention : Reuss Voigt Hill
#
# Bulk Modulus (GPa) = 42.85024 59.11118 50.98071
# Shear Modulus (GPa) = 69.72651 35.42969 52.57810
#
# Velocity S-wave (km/s) = 5.79359 4.12983 5.03097
# Velocity P-wave (km/s) = 8.08591 7.15516 7.63473
#
# Compressibility (1/GPa) = 0.02333709
#
# Stress axis : x y z
#
# Youngs Moduli (GPa) = 47.67432 151.07340 194.14324
#
# Poissons Ratio (x) = 0.17680 0.69957
# Poissons Ratio (y) = 0.05579 -0.01345
# Poissons Ratio (z) = 0.17179 -0.01046
#
# Static dielectric constant tensor:
#      x y z
#    x 1.738390 0.000000 0.000000 
#    y 0.000000 1.760820 0.000000 
#    z 0.000000 0.000000 1.865640 
# 
# From -- ./inp_files/31714.got.cif
#   From: 2010.05.17/outbox.cif.g08.bks.cpg/sg50_16_cif.got.tgz:31714.got - 2010.06.03 11:33:33.
