data_PCOD9396017
_publ_section_title
;
Structure prediction by ZEFSAII (Michael W. Deem and Ramdas Pophale) SiO2 
 PCOD9396017
Probable space group: P B A N
;
_chemical_formula_sum "Si O2"
_cell_formula_units_Z 36
_cell_length_a 13.641672
_cell_length_b 13.573815
_cell_length_c 7.917415
_cell_angle_alpha 90.000000
_cell_angle_beta 90.000000
_cell_angle_gamma 90.000000
_cell_volume 1466.064030
_symmetry_space_group_name_H-M "P B A N"
_symmetry_group_IT_number 50
_space_group.IT_coordinate_system_code '2'
_symmetry_cell_setting 'orthorhombic'
loop_
_space_group_symop_operation_xyz
x,y,z
1/2-x,1/2-y,z
x,1/2-y,-z
1/2-x,y,-z
-x,-y,-z
1/2+x,1/2+y,-z
-x,1/2+y,z
1/2+x,-y,z
loop_
_atom_site_type_symbol
_atom_site_label
_atom_site_fract_x
_atom_site_fract_y
_atom_site_fract_z
Si Si1 0.138013 0.150157 0.543254
Si Si2 0.436949 0.083476 0.139770
Si Si3 0.339456 0.614752 0.754724
Si Si4 0.946827 0.250000 0.000000
Si Si5 0.123237 0.938987 0.381031
O O1 0.082443 0.250000 0.500000
O O2 0.250000 0.157276 0.500000
O O3 0.137843 0.140873 0.743540
O O4 0.109723 0.051694 0.444226
O O5 0.533269 0.078461 0.258461
O O6 0.387577 0.975644 0.134855
O O7 0.476755 0.157371 0.000080
O O8 0.378109 0.617059 0.561056
O O9 0.274853 0.914628 0.717401
O O10 0.372234 0.714216 0.850713
#
# Coordination Sequence:
#
# PCOD9396017 Si02
#       5
#     8   8   8   4   8
#     4  10  19  37  70 103 128 167 232 294 334 391
#     4  11  24  41  67  99 139 182 229 283 345 411
#     4  10  22  46  65 100 136 179 233 289 343 408
#     4  12  28  41  66  99 152 192 220 277 364 439
#     4  10  21  42  72  95 132 179 236 296 331 393
#
# _framework density 24.555541999999999
#
# number of rings (size 3 to 8) (size 9 to 14) (size 15 to 20)
#    0.000    1.556    4.444    3.333    6.222    2.667 
#    0.000    2.222    0.000    4.000    0.000    0.000 
#    0.000    0.000    0.000    0.000    0.000    0.000 
#
# Total GULP energy -200450.223460 kJ/mol
# GULP energy per Si atom -5568.061763 kJ/mol
# Density = 2.449965 g / cm^3
# Si number density = 24.555542 Si / 1000 Ang^3
#
#
#
# Elastic Constant Matrix: (Units=GPa)
#
#
# Indices 1 2 3 4 5 6 
#
# 1 119.2392 9.9203 21.9828 0.0000 0.0000 0.0000
# 2 9.9203 99.7627 36.1570 0.0000 0.0000 0.0000
# 3 21.9828 36.1570 37.5102 0.0000 0.0000 0.0000
# 4 0.0000 0.0000 0.0000 40.8910 0.0000 0.0000
# 5 0.0000 0.0000 0.0000 0.0000 31.6087 0.0000
# 6 0.0000 0.0000 0.0000 0.0000 0.0000 29.1594
#
#
#
# Elastic Compliance Matrix: (Units=1/GPa)
#
#
# Indices 1 2 3 4 5 6 
#
# 1 0.009579 0.001663 -0.007217 0.000000 0.000000 0.000000
# 2 0.001663 0.015695 -0.016103 0.000000 0.000000 0.000000
# 3 -0.007217 -0.016103 0.046411 0.000000 0.000000 0.000000
# 4 0.000000 0.000000 0.000000 0.024455 0.000000 0.000000
# 5 0.000000 0.000000 0.000000 0.000000 0.031637 0.000000
# 6 0.000000 0.000000 0.000000 0.000000 0.000000 0.034294
#
#
# Mechanical properties :
#
#
# Convention : Reuss Voigt Hill
#
# Bulk Modulus (GPa) = 35.24742 43.62581 39.43661
# Shear Modulus (GPa) = 23.27306 32.89528 28.08417
#
# Velocity S-wave (km/s) = 3.08193 3.66406 3.38553
# Velocity P-wave (km/s) = 5.20093 5.97538 5.60156
#
# Compressibility (1/GPa) = 0.02837087
#
# Stress axis : x y z
#
# Youngs Moduli (GPa) = 104.39955 63.71594 21.54668
#
# Poissons Ratio (x) = -0.10596 0.15549
# Poissons Ratio (y) = -0.17362 0.34697
# Poissons Ratio (z) = 0.75340 1.02602
#
# Static dielectric constant tensor:
#      x y z
#    x 1.968490 0.000000 0.000000 
#    y 0.000000 2.042250 0.000000 
#    z 0.000000 0.000000 2.113270 
# 
# From -- ./inp_files/15070.got.cif
#   From: 2010.05.17/outbox.cif.g08.bks.cpg/sg50_8_cif.got.tgz:15070.got - 2010.06.03 11:33:33.
