data_PCOD9396286
_publ_section_title
;
Structure prediction by ZEFSAII (Michael W. Deem and Ramdas Pophale) SiO2 
 PCOD9396286
Probable space group: P B A N
;
_chemical_formula_sum "Si O2"
_cell_formula_units_Z 64
_cell_length_a 9.819701
_cell_length_b 25.578545
_cell_length_c 13.970520
_cell_angle_alpha 90.000000
_cell_angle_beta 90.000000
_cell_angle_gamma 90.000000
_cell_volume 3509.026695
_symmetry_space_group_name_H-M "P B A N"
_symmetry_group_IT_number 50
_space_group.IT_coordinate_system_code '2'
_symmetry_cell_setting 'orthorhombic'
loop_
_space_group_symop_operation_xyz
x,y,z
1/2-x,1/2-y,z
x,1/2-y,-z
1/2-x,y,-z
-x,-y,-z
1/2+x,1/2+y,-z
-x,1/2+y,z
1/2+x,-y,z
loop_
_atom_site_type_symbol
_atom_site_label
_atom_site_fract_x
_atom_site_fract_y
_atom_site_fract_z
Si Si1 0.059538 0.191662 0.455484
Si Si2 0.331885 0.158580 0.355555
Si Si3 0.731373 0.474706 0.107950
Si Si4 0.777885 0.582925 0.810468
Si Si5 0.643963 0.320885 0.289454
Si Si6 0.430859 0.793760 0.761057
Si Si7 0.019467 0.893445 0.868961
Si Si8 0.447180 0.880763 0.913394
O O1 0.053328 0.250000 0.500000
O O2 0.190450 0.185282 0.386418
O O3 0.086583 0.153480 0.544937
O O4 0.930113 0.179127 0.391197
O O5 0.305706 0.106435 0.294559
O O6 0.425277 0.194502 0.287902
O O7 0.749563 0.521216 0.182254
O O8 0.579858 0.451870 0.121261
O O9 0.834883 0.425342 0.111790
O O10 0.750000 0.496422 0.000000
O O11 0.640430 0.609101 0.849853
O O12 0.907882 0.597121 0.876248
O O13 0.596275 0.267595 0.236009
O O14 0.805959 0.317215 0.300891
O O15 0.595903 0.366710 0.219705
O O16 0.421960 0.826777 0.858044
O O17 0.053046 0.870749 0.973447
#
# Coordination Sequence:
#
# PCOD9396286 Si02
#       8
#     8   8   8   8   8   8   8   8
#     4  11  21  38  63  87 109 147 191 239 289 353
#     4  10  21  36  58  85 114 142 183 242 298 340
#     4  10  20  36  59  84 114 157 200 236 281 337
#     4  11  21  35  58  86 114 149 191 248 287 340
#     4  11  22  37  58  85 116 150 196 236 288 347
#     4  10  22  37  54  86 119 152 188 235 289 344
#     4  11  21  36  57  86 117 156 195 237 280 345
#     4  10  21  37  55  84 123 153 193 236 284 339
#
# _framework density 18.238676999999999
#
# number of rings (size 3 to 8) (size 9 to 14) (size 15 to 20)
#    0.000    1.500    3.750    2.625    0.000    3.000 
#    0.000    1.250    0.000    2.250    3.250    0.000 
#    0.000    0.000    0.000    0.000    0.000    0.000 
#
# Total GULP energy -357046.531920 kJ/mol
# GULP energy per Si atom -5578.852061 kJ/mol
# Density = 1.819716 g / cm^3
# Si number density = 18.238677 Si / 1000 Ang^3
#
#
#
# Elastic Constant Matrix: (Units=GPa)
#
#
# Indices 1 2 3 4 5 6 
#
# 1 62.7083 -1.4657 15.8711 0.0000 0.0000 0.0000
# 2 -1.4657 47.7885 40.5770 0.0000 0.0000 0.0000
# 3 15.8711 40.5770 99.8801 0.0000 0.0000 0.0000
# 4 0.0000 0.0000 0.0000 31.5834 0.0000 0.0000
# 5 0.0000 0.0000 0.0000 0.0000 27.4984 0.0000
# 6 0.0000 0.0000 0.0000 0.0000 0.0000 16.3967
#
#
#
# Elastic Compliance Matrix: (Units=1/GPa)
#
#
# Indices 1 2 3 4 5 6 
#
# 1 0.017186 0.004345 -0.004496 0.000000 0.000000 0.000000
# 2 0.004345 0.033043 -0.014114 0.000000 0.000000 0.000000
# 3 -0.004496 -0.014114 0.016461 0.000000 0.000000 0.000000
# 4 0.000000 0.000000 0.000000 0.031662 0.000000 0.000000
# 5 0.000000 0.000000 0.000000 0.000000 0.036366 0.000000
# 6 0.000000 0.000000 0.000000 0.000000 0.000000 0.060988
#
#
# Mechanical properties :
#
#
# Convention : Reuss Voigt Hill
#
# Bulk Modulus (GPa) = 26.20648 35.59353 30.90001
# Shear Modulus (GPa) = 21.10087 25.45533 23.27810
#
# Velocity S-wave (km/s) = 3.40506 3.73993 3.57642
# Velocity P-wave (km/s) = 5.46434 6.18120 5.83379
#
# Compressibility (1/GPa) = 0.03815851
#
# Stress axis : x y z
#
# Youngs Moduli (GPa) = 58.18590 30.26337 60.75148
#
# Poissons Ratio (x) = -0.13148 0.27314
# Poissons Ratio (y) = -0.25280 0.85747
# Poissons Ratio (z) = 0.26160 0.42715
#
# Static dielectric constant tensor:
#      x y z
#    x 1.659200 0.000000 0.000000 
#    y 0.000000 1.618320 0.000000 
#    z 0.000000 0.000000 1.615660 
# 
# From -- ./inp_files/25422.got.cif
#   From: 2010.05.17/outbox.cif.g08.bks.cpg/sg50_13_cif.got.tgz:25422.got - 2010.06.03 11:33:33.
