data_PCOD9396575
_publ_section_title
;
Structure prediction by ZEFSAII (Michael W. Deem and Ramdas Pophale) SiO2 
 PCOD9396575
Probable space group: P B A N
;
_chemical_formula_sum "Si O2"
_cell_formula_units_Z 48
_cell_length_a 7.802855
_cell_length_b 34.469549
_cell_length_c 8.764602
_cell_angle_alpha 90.000000
_cell_angle_beta 90.000000
_cell_angle_gamma 90.000000
_cell_volume 2357.335179
_symmetry_space_group_name_H-M "P B A N"
_symmetry_group_IT_number 50
_space_group.IT_coordinate_system_code '2'
_symmetry_cell_setting 'orthorhombic'
loop_
_space_group_symop_operation_xyz
x,y,z
1/2-x,1/2-y,z
x,1/2-y,-z
1/2-x,y,-z
-x,-y,-z
1/2+x,1/2+y,-z
-x,1/2+y,z
1/2+x,-y,z
loop_
_atom_site_type_symbol
_atom_site_label
_atom_site_fract_x
_atom_site_fract_y
_atom_site_fract_z
Si Si1 0.250000 0.750000 0.500000
Si Si2 0.665979 0.101630 0.647047
Si Si3 0.250000 0.999245 0.000000
Si Si4 0.250000 0.250000 0.000000
Si Si5 0.646449 0.689737 0.245843
Si Si6 0.494257 0.813870 0.411487
Si Si7 0.535948 0.941573 0.129973
Si Si8 0.583535 0.375197 0.908623
O O1 0.363692 0.778276 0.394117
O O2 0.750000 0.083777 0.500000
O O3 0.600716 0.145088 0.608765
O O4 0.510568 0.076582 0.709470
O O5 0.813873 0.103156 0.774524
O O6 0.301919 0.030532 0.871150
O O7 0.108236 0.970886 0.933143
O O8 0.357789 0.276477 0.881357
O O9 0.846471 0.685848 0.294700
O O10 0.559052 0.692975 0.413588
O O11 0.550132 0.654318 0.164394
O O12 0.520430 0.904870 0.015768
O O13 0.750000 0.357704 0.000000
#
# Coordination Sequence:
#
# PCOD9396575 Si02
#       8
#     2   8   4   2   8   8   8   8
#     4  12  20  42  68  94 116 190 216 274 344 426
#     4  11  20  40  64  98 125 174 219 278 328 414
#     4  10  20  41  64  94 136 178 216 276 342 395
#     4  12  28  40  62  92 136 162 218 288 328 394
#     4  11  25  45  61  99 128 177 222 289 333 407
#     4  11  24  41  70  90 136 173 227 271 358 408
#     4  10  22  38  66  95 131 178 223 273 333 410
#     4  10  21  40  65  96 130 171 226 276 326 406
#
# _framework density 20.361977
#
# number of rings (size 3 to 8) (size 9 to 14) (size 15 to 20)
#    0.000    1.333    5.000    1.000    7.000    1.333 
#    3.000    0.833    0.000    0.000    0.000    0.000 
#    0.000    0.000    0.000    0.000    0.000    0.000 
#
# Total GULP energy -267555.157779 kJ/mol
# GULP energy per Si atom -5574.065787 kJ/mol
# Density = 2.031563 g / cm^3
# Si number density = 20.361977 Si / 1000 Ang^3
#
#
#
# Elastic Constant Matrix: (Units=GPa)
#
#
# Indices 1 2 3 4 5 6 
#
# 1 54.9168 32.1394 13.3201 0.0000 0.0000 0.0000
# 2 32.1394 99.2430 25.2412 0.0000 0.0000 0.0000
# 3 13.3201 25.2412 100.2784 0.0000 0.0000 0.0000
# 4 0.0000 0.0000 0.0000 -27.1484 0.0000 0.0000
# 5 0.0000 0.0000 0.0000 0.0000 18.5988 0.0000
# 6 0.0000 0.0000 0.0000 0.0000 0.0000 -168.2742
#
#
#
# Elastic Compliance Matrix: (Units=1/GPa)
#
#
# Indices 1 2 3 4 5 6 
#
# 1 0.022611 -0.007007 -0.001240 0.000000 0.000000 0.000000
# 2 -0.007007 0.012937 -0.002326 0.000000 0.000000 0.000000
# 3 -0.001240 -0.002326 0.010722 0.000000 0.000000 0.000000
# 4 0.000000 0.000000 0.000000 -0.036835 0.000000 0.000000
# 5 0.000000 0.000000 0.000000 0.000000 0.053767 0.000000
# 6 0.000000 0.000000 0.000000 0.000000 0.000000 -0.005943
#
#
# Mechanical properties :
#
#
# Convention : Reuss Voigt Hill
#
# Bulk Modulus (GPa) = 39.80048 43.98221 41.89134
# Shear Modulus (GPa) = 57.61711 -23.11560 17.25076
#
# Velocity S-wave (km/s) = 5.32521 -3.37298 2.91384
# Velocity P-wave (km/s) = 7.57624 2.54514 5.65142
#
# Compressibility (1/GPa) = 0.02512532
#
# Stress axis : x y z
#
# Youngs Moduli (GPa) = 44.22647 77.29765 93.26368
#
# Poissons Ratio (x) = 0.54164 0.11561
# Poissons Ratio (y) = 0.30990 0.21690
# Poissons Ratio (z) = 0.05483 0.17977
#
# Static dielectric constant tensor:
#      x y z
#    x 1.837610 0.000000 0.000000 
#    y 0.000000 1.717020 0.000000 
#    z 0.000000 0.000000 1.836320 
# 
# From -- ./inp_files/10163.got.cif
#   From: 2010.05.17/outbox.cif.g08.bks.cpg/sg50_6_cif.got.tgz:10163.got - 2010.06.03 11:33:33.
