data_PCOD9396309
_publ_section_title
;
Structure prediction by ZEFSAII (Michael W. Deem and Ramdas Pophale) SiO2 
 PCOD9396309
Probable space group: P B A N
;
_chemical_formula_sum "Si O2"
_cell_formula_units_Z 64
_cell_length_a 18.447140
_cell_length_b 15.528336
_cell_length_c 10.048853
_cell_angle_alpha 90.000000
_cell_angle_beta 90.000000
_cell_angle_gamma 90.000000
_cell_volume 2878.527989
_symmetry_space_group_name_H-M "P B A N"
_symmetry_group_IT_number 50
_space_group.IT_coordinate_system_code '2'
_symmetry_cell_setting 'orthorhombic'
loop_
_space_group_symop_operation_xyz
x,y,z
1/2-x,1/2-y,z
x,1/2-y,-z
1/2-x,y,-z
-x,-y,-z
1/2+x,1/2+y,-z
-x,1/2+y,z
1/2+x,-y,z
loop_
_atom_site_type_symbol
_atom_site_label
_atom_site_fract_x
_atom_site_fract_y
_atom_site_fract_z
Si Si1 0.561370 0.394430 0.680867
Si Si2 0.171910 0.637218 0.470837
Si Si3 0.410956 0.450889 0.133509
Si Si4 0.925235 0.054085 0.107087
Si Si5 0.557720 0.649779 0.532654
Si Si6 0.347318 0.043229 0.337861
Si Si7 0.558970 0.206668 0.732169
Si Si8 0.265811 0.350978 0.157270
O O1 0.638044 0.383010 0.612789
O O2 0.566696 0.485629 0.748961
O O3 0.505096 0.390284 0.559947
O O4 0.545195 0.306721 0.762755
O O5 0.250000 0.669807 0.500000
O O6 0.179533 0.547755 0.391385
O O7 0.116271 0.695944 0.387728
O O8 0.489642 0.426573 0.073243
O O9 0.349538 0.382360 0.172079
O O10 0.382600 0.514598 0.016683
O O11 0.904713 0.149096 0.154874
O O12 0.909248 0.986829 0.229235
O O13 0.572103 0.750000 0.500000
O O14 0.624609 0.596244 0.468512
O O15 0.515383 0.660905 0.675264
O O16 0.287240 0.095109 0.253746
O O17 0.250000 0.250000 0.184749
O O18 0.250000 0.364140 0.000000
#
# Coordination Sequence:
#
# PCOD9396309 Si02
#       8
#     8   8   8   8   8   8   8   8
#     4  10  20  36  61  93 125 165 209 264 337 388
#     4  10  21  36  58  86 123 162 211 259 322 407
#     4  11  22  41  65  93 132 172 227 279 331 404
#     4  10  22  38  65  96 125 169 225 282 330 398
#     4   9  19  36  60  90 129 167 210 275 335 394
#     4  11  21  41  64  92 126 172 223 271 334 400
#     4   9  21  37  60  93 126 164 209 271 337 396
#     4  11  25  45  67  92 132 182 227 274 341 407
#
# _framework density 22.233585000000001
#
# number of rings (size 3 to 8) (size 9 to 14) (size 15 to 20)
#    0.000    1.875    2.500    1.875    1.750    5.000 
#    2.250    0.000    0.000    0.000    0.000    0.000 
#    0.000    0.000    0.000    0.000    0.000    0.000 
#
# Total GULP energy -356354.946138 kJ/mol
# GULP energy per Si atom -5568.046033 kJ/mol
# Density = 2.218298 g / cm^3
# Si number density = 22.233585 Si / 1000 Ang^3
#
#
#
# Elastic Constant Matrix: (Units=GPa)
#
#
# Indices 1 2 3 4 5 6 
#
# 1 120.6578 48.8903 15.9846 0.0000 0.0000 0.0000
# 2 48.8903 141.3827 22.1268 0.0000 0.0000 0.0000
# 3 15.9846 22.1268 22.8777 0.0000 0.0000 0.0000
# 4 0.0000 0.0000 0.0000 31.0834 0.0000 0.0000
# 5 0.0000 0.0000 0.0000 0.0000 23.4784 0.0000
# 6 0.0000 0.0000 0.0000 0.0000 0.0000 5.9757
#
#
#
# Elastic Compliance Matrix: (Units=1/GPa)
#
#
# Indices 1 2 3 4 5 6 
#
# 1 0.009983 -0.002781 -0.004285 0.000000 0.000000 0.000000
# 2 -0.002781 0.009110 -0.006867 0.000000 0.000000 0.000000
# 3 -0.004285 -0.006867 0.053346 0.000000 0.000000 0.000000
# 4 0.000000 0.000000 0.000000 0.032171 0.000000 0.000000
# 5 0.000000 0.000000 0.000000 0.000000 0.042592 0.000000
# 6 0.000000 0.000000 0.000000 0.000000 0.000000 0.167343
#
#
# Mechanical properties :
#
#
# Convention : Reuss Voigt Hill
#
# Bulk Modulus (GPa) = 22.43574 50.99128 36.71351
# Shear Modulus (GPa) = 13.99505 25.30195 19.64850
#
# Velocity S-wave (km/s) = 2.51162 3.37709 2.97599
# Velocity P-wave (km/s) = 4.30393 6.17985 5.32514
#
# Compressibility (1/GPa) = 0.04457174
#
# Stress axis : x y z
#
# Youngs Moduli (GPa) = 100.17479 109.77493 18.74549
#
# Poissons Ratio (x) = 0.30533 0.08032
# Poissons Ratio (y) = 0.27863 0.12873
# Poissons Ratio (z) = 0.42922 0.75384
#
# Static dielectric constant tensor:
#      x y z
#    x 1.914780 0.000000 0.000000 
#    y 0.000000 1.868590 0.000000 
#    z 0.000000 0.000000 1.933220 
# 
# From -- ./inp_files/21948.got.cif
#   From: 2010.05.17/outbox.cif.g08.bks.cpg/sg50_11_cif.got.tgz:21948.got - 2010.06.03 11:33:33.
