data_PCOD9396086
_publ_section_title
;
Structure prediction by ZEFSAII (Michael W. Deem and Ramdas Pophale) SiO2 
 PCOD9396086
Probable space group: P B A N
;
_chemical_formula_sum "Si O2"
_cell_formula_units_Z 48
_cell_length_a 28.406355
_cell_length_b 13.948613
_cell_length_c 6.339269
_cell_angle_alpha 90.000000
_cell_angle_beta 90.000000
_cell_angle_gamma 90.000000
_cell_volume 2511.803818
_symmetry_space_group_name_H-M "P B A N"
_symmetry_group_IT_number 50
_space_group.IT_coordinate_system_code '2'
_symmetry_cell_setting 'orthorhombic'
loop_
_space_group_symop_operation_xyz
x,y,z
1/2-x,1/2-y,z
x,1/2-y,-z
1/2-x,y,-z
-x,-y,-z
1/2+x,1/2+y,-z
-x,1/2+y,z
1/2+x,-y,z
loop_
_atom_site_type_symbol
_atom_site_label
_atom_site_fract_x
_atom_site_fract_y
_atom_site_fract_z
Si Si1 0.493137 0.651341 0.894311
Si Si2 0.307905 0.655487 0.127010
Si Si3 0.923714 0.520102 0.989018
Si Si4 0.977991 0.250000 0.500000
Si Si5 0.161708 0.520784 0.255214
Si Si6 0.896388 0.389731 0.366268
Si Si7 0.750000 0.445918 0.500000
O O1 0.451766 0.572601 0.895259
O O2 0.507005 0.687167 0.662850
O O3 0.477149 0.750000 0.000000
O O4 0.537912 0.603309 0.002932
O O5 0.358263 0.671228 0.236872
O O6 0.273101 0.619070 0.312690
O O7 0.295674 0.750000 0.000000
O O8 0.316820 0.576323 0.946420
O O9 0.877892 0.545795 0.852030
O O10 0.908315 0.482559 0.221816
O O11 0.942814 0.328163 0.399067
O O12 0.130116 0.583424 0.417576
O O13 0.207243 0.494206 0.395671
#
# Coordination Sequence:
#
# PCOD9396086 Si02
#       7
#     8   8   8   4   8   8   4
#     4  11  23  37  56  82 113 151 202 245 289 346
#     4  10  21  33  49  72 110 147 189 235 284 346
#     4  10  22  38  55  79 114 153 193 245 294 345
#     4  12  20  32  54  79 106 150 202 243 280 344
#     4  10  20  36  53  75 109 148 188 240 293 350
#     4  10  20  32  53  77 105 147 197 233 286 336
#     4  10  22  35  50  78 108 151 194 238 292 363
#
# _framework density 19.109772
#
# number of rings (size 3 to 8) (size 9 to 14) (size 15 to 20)
#    0.000    1.667    3.333    1.500    2.333    6.000 
#    0.000    1.667    0.000    0.000    0.000    0.000 
#    0.000   38.667    0.000    0.000    0.000    0.917 
#
# Total GULP energy -267420.491218 kJ/mol
# GULP energy per Si atom -5571.260234 kJ/mol
# Density = 1.906628 g / cm^3
# Si number density = 19.109772 Si / 1000 Ang^3
#
#
#
# Elastic Constant Matrix: (Units=GPa)
#
#
# Indices 1 2 3 4 5 6 
#
# 1 77.3445 3.1922 15.4135 0.0000 0.0000 0.0000
# 2 3.1922 25.9382 5.7218 0.0000 0.0000 0.0000
# 3 15.4135 5.7218 88.6855 0.0000 0.0000 0.0000
# 4 0.0000 0.0000 0.0000 5.6881 0.0000 0.0000
# 5 0.0000 0.0000 0.0000 0.0000 33.9185 0.0000
# 6 0.0000 0.0000 0.0000 0.0000 0.0000 7.2373
#
#
#
# Elastic Compliance Matrix: (Units=1/GPa)
#
#
# Indices 1 2 3 4 5 6 
#
# 1 0.013427 -0.001154 -0.002259 0.000000 0.000000 0.000000
# 2 -0.001154 0.039209 -0.002329 0.000000 0.000000 0.000000
# 3 -0.002259 -0.002329 0.011819 0.000000 0.000000 0.000000
# 4 0.000000 0.000000 0.000000 0.175806 0.000000 0.000000
# 5 0.000000 0.000000 0.000000 0.000000 0.029482 0.000000
# 6 0.000000 0.000000 0.000000 0.000000 0.000000 0.138173
#
#
# Mechanical properties :
#
#
# Convention : Reuss Voigt Hill
#
# Bulk Modulus (GPa) = 18.87862 26.73591 22.80726
# Shear Modulus (GPa) = 11.44015 20.54483 15.99249
#
# Velocity S-wave (km/s) = 2.44940 3.28242 2.89602
# Velocity P-wave (km/s) = 4.23082 5.32793 4.81075
#
# Compressibility (1/GPa) = 0.05296998
#
# Stress axis : x y z
#
# Youngs Moduli (GPa) = 74.47678 25.50437 84.61163
#
# Poissons Ratio (x) = 0.02944 0.19115
# Poissons Ratio (y) = 0.08596 0.19707
# Poissons Ratio (z) = 0.16825 0.05940
#
# Static dielectric constant tensor:
#      x y z
#    x 1.701910 0.000000 0.000000 
#    y 0.000000 1.650140 0.000000 
#    z 0.000000 0.000000 1.784360 
# 
# From -- ./inp_files/3719.got.cif
#   From: 2010.05.17/outbox.cif.g08.bks.cpg/sg50_2_cif.got.tgz:3719.got - 2010.06.03 11:33:33.
