data_PCOD9396934
_publ_section_title
;
Structure prediction by ZEFSAII (Michael W. Deem and Ramdas Pophale) SiO2 
 PCOD9396934
Probable space group: P B A N
;
_chemical_formula_sum "Si O2"
_cell_formula_units_Z 30
_cell_length_a 4.744940
_cell_length_b 13.106877
_cell_length_c 20.235445
_cell_angle_alpha 90.000000
_cell_angle_beta 90.000000
_cell_angle_gamma 90.000000
_cell_volume 1258.469540
_symmetry_space_group_name_H-M "P B A N"
_symmetry_group_IT_number 50
_space_group.IT_coordinate_system_code '2'
_symmetry_cell_setting 'orthorhombic'
loop_
_space_group_symop_operation_xyz
x,y,z
1/2-x,1/2-y,z
x,1/2-y,-z
1/2-x,y,-z
-x,-y,-z
1/2+x,1/2+y,-z
-x,1/2+y,z
1/2+x,-y,z
loop_
_atom_site_type_symbol
_atom_site_label
_atom_site_fract_x
_atom_site_fract_y
_atom_site_fract_z
Si Si1 0.447473 0.432719 0.168953
Si Si2 0.250000 0.250000 0.000000
Si Si3 0.645867 0.427478 0.431395
Si Si4 0.750000 0.250000 0.909347
Si Si5 0.481011 0.820266 0.299760
O O1 0.133251 0.467653 0.154193
O O2 0.580772 0.336857 0.130910
O O3 0.447587 0.406979 0.247282
O O4 0.490331 0.200012 0.047677
O O5 0.750000 0.377543 0.500000
O O6 0.327586 0.468379 0.429854
O O7 0.667011 0.362616 0.365622
O O8 0.750000 0.750000 0.315127
O O9 0.250000 0.750000 0.265191
#
# Coordination Sequence:
#
# PCOD9396934 Si02
#       5
#     8   2   8   4   8
#     4  12  25  43  72 104 142 188 234 291 351 417
#     4  10  24  46  76  98 148 188 222 298 348 398
#     4  10  21  40  62  87 126 175 228 283 346 416
#     4  11  24  48  70 106 143 186 236 286 349 422
#     4  12  24  40  64  99 137 176 232 295 348 417
#
# _framework density 23.838477999999999
#
# number of rings (size 3 to 8) (size 9 to 14) (size 15 to 20)
#    0.000    0.800    1.333    6.400    1.867    0.533 
#    0.000   14.667    0.000    0.000    0.000    0.000 
#    0.000    0.000    0.000    0.000    0.000    0.000 
#
# Total GULP energy -167345.727344 kJ/mol
# GULP energy per Si atom -5578.190911 kJ/mol
# Density = 2.378422 g / cm^3
# Si number density = 23.838478 Si / 1000 Ang^3
#
#
#
# Elastic Constant Matrix: (Units=GPa)
#
#
# Indices 1 2 3 4 5 6 
#
# 1 102.8545 6.2238 25.5329 0.0000 0.0000 0.0000
# 2 6.2238 66.9816 42.3022 0.0000 0.0000 0.0000
# 3 25.5329 42.3022 117.6415 0.0000 0.0000 0.0000
# 4 0.0000 0.0000 0.0000 15.4908 0.0000 0.0000
# 5 0.0000 0.0000 0.0000 0.0000 11.7325 0.0000
# 6 0.0000 0.0000 0.0000 0.0000 0.0000 33.1603
#
#
#
# Elastic Compliance Matrix: (Units=1/GPa)
#
#
# Indices 1 2 3 4 5 6 
#
# 1 0.010294 0.000588 -0.002446 0.000000 0.000000 0.000000
# 2 0.000588 0.019350 -0.007085 0.000000 0.000000 0.000000
# 3 -0.002446 -0.007085 0.011579 0.000000 0.000000 0.000000
# 4 0.000000 0.000000 0.000000 0.064554 0.000000 0.000000
# 5 0.000000 0.000000 0.000000 0.000000 0.085233 0.000000
# 6 0.000000 0.000000 0.000000 0.000000 0.000000 0.030157
#
#
# Mechanical properties :
#
#
# Convention : Reuss Voigt Hill
#
# Bulk Modulus (GPa) = 42.85127 48.39947 45.62537
# Shear Modulus (GPa) = 20.25672 26.30466 23.28069
#
# Velocity S-wave (km/s) = 2.91821 3.32543 3.12845
# Velocity P-wave (km/s) = 5.41934 5.92383 5.67720
#
# Compressibility (1/GPa) = 0.02333653
#
# Stress axis : x y z
#
# Youngs Moduli (GPa) = 97.14391 51.68046 86.36293
#
# Poissons Ratio (x) = -0.03039 0.21121
# Poissons Ratio (y) = -0.05713 0.61192
# Poissons Ratio (z) = 0.23758 0.36618
#
# Static dielectric constant tensor:
#      x y z
#    x 1.837290 0.000000 0.000000 
#    y 0.000000 1.957920 0.000000 
#    z 0.000000 0.000000 2.006220 
# 
# From -- ./inp_files/30173.got.cif
#   From: 2010.05.17/outbox.cif.g08.bks.cpg/sg50_16_cif.got.tgz:30173.got - 2010.06.03 11:33:33.
