data_PCOD9396230
_publ_section_title
;
Structure prediction by ZEFSAII (Michael W. Deem and Ramdas Pophale) SiO2 
 PCOD9396230
Probable space group: P B A N
;
_chemical_formula_sum "Si O2"
_cell_formula_units_Z 64
_cell_length_a 20.707704
_cell_length_b 8.430530
_cell_length_c 18.373187
_cell_angle_alpha 90.000000
_cell_angle_beta 90.000000
_cell_angle_gamma 90.000000
_cell_volume 3207.534393
_symmetry_space_group_name_H-M "P B A N"
_symmetry_group_IT_number 50
_space_group.IT_coordinate_system_code '2'
_symmetry_cell_setting 'orthorhombic'
loop_
_space_group_symop_operation_xyz
x,y,z
1/2-x,1/2-y,z
x,1/2-y,-z
1/2-x,y,-z
-x,-y,-z
1/2+x,1/2+y,-z
-x,1/2+y,z
1/2+x,-y,z
loop_
_atom_site_type_symbol
_atom_site_label
_atom_site_fract_x
_atom_site_fract_y
_atom_site_fract_z
Si Si1 0.068787 0.931057 0.980353
Si Si2 0.749506 0.934152 0.206730
Si Si3 0.387980 0.410443 0.842091
Si Si4 0.615608 0.954397 0.124112
Si Si5 0.932822 0.715550 0.695270
Si Si6 0.298788 0.619497 0.342265
Si Si7 0.176342 0.203450 0.416244
Si Si8 0.070603 0.909976 0.265104
O O1 0.079796 0.968430 0.896471
O O2 0.070392 0.750000 0.000000
O O3 0.116617 0.009621 0.038964
O O4 0.000000 0.000000 0.000000
O O5 0.750000 0.750000 0.229459
O O6 0.812687 0.952576 0.158693
O O7 0.685943 0.964842 0.159899
O O8 0.743985 0.038312 0.278543
O O9 0.403450 0.231008 0.868486
O O10 0.407265 0.401728 0.758101
O O11 0.573404 0.074075 0.176093
O O12 0.881157 0.711813 0.629365
O O13 0.008590 0.669482 0.696597
O O14 0.928407 0.901637 0.716519
O O15 0.250000 0.750000 0.374342
O O16 0.322802 0.484994 0.398631
O O17 0.364530 0.667779 0.299012
O O18 0.250000 0.250000 0.396567
O O19 0.167257 0.250000 0.500000
#
# Coordination Sequence:
#
# PCOD9396230 Si02
#       8
#     8   8   8   8   8   8   8   8
#     4  12  25  38  52  74 108 148 190 242 300 351
#     4   9  18  35  60  86 112 149 191 232 284 349
#     4  10  20  35  59  82 107 151 197 237 287 345
#     4   9  19  37  55  79 114 146 192 243 283 342
#     4  10  20  36  58  87 117 151 200 241 285 351
#     4  10  20  36  60  92 125 152 191 244 293 346
#     4  10  21  40  64  87 117 160 200 239 294 361
#     4   9  20  35  57  87 118 154 193 240 291 343
#
# _framework density 19.953019999999999
#
# number of rings (size 3 to 8) (size 9 to 14) (size 15 to 20)
#    0.000    2.125    0.000    5.250    0.000    7.500 
#    0.000    6.250    0.000    0.000    0.000    0.000 
#    0.000    0.000    0.000    0.000    0.000    0.000 
#
# Total GULP energy -356621.678358 kJ/mol
# GULP energy per Si atom -5572.213724 kJ/mol
# Density = 1.990761 g / cm^3
# Si number density = 19.953020 Si / 1000 Ang^3
#
#
#
# Elastic Constant Matrix: (Units=GPa)
#
#
# Indices 1 2 3 4 5 6 
#
# 1 100.3083 38.3864 38.8626 0.0000 0.0000 0.0000
# 2 38.3864 48.7664 38.1228 0.0000 0.0000 0.0000
# 3 38.8626 38.1228 93.6073 0.0000 0.0000 0.0000
# 4 0.0000 0.0000 0.0000 15.3992 0.0000 0.0000
# 5 0.0000 0.0000 0.0000 0.0000 71.5321 0.0000
# 6 0.0000 0.0000 0.0000 0.0000 0.0000 27.1387
#
#
#
# Elastic Compliance Matrix: (Units=1/GPa)
#
#
# Indices 1 2 3 4 5 6 
#
# 1 0.014521 -0.009855 -0.002015 0.000000 0.000000 0.000000
# 2 -0.009855 0.036772 -0.010884 0.000000 0.000000 0.000000
# 3 -0.002015 -0.010884 0.015952 0.000000 0.000000 0.000000
# 4 0.000000 0.000000 0.000000 0.064939 0.000000 0.000000
# 5 0.000000 0.000000 0.000000 0.000000 0.013980 0.000000
# 6 0.000000 0.000000 0.000000 0.000000 0.000000 0.036848
#
#
# Mechanical properties :
#
#
# Convention : Reuss Voigt Hill
#
# Bulk Modulus (GPa) = 46.00554 52.60283 49.30419
# Shear Modulus (GPa) = 21.20737 31.30134 26.25436
#
# Velocity S-wave (km/s) = 3.26370 3.96504 3.63134
# Velocity P-wave (km/s) = 6.10813 6.88351 6.50738
#
# Compressibility (1/GPa) = 0.02173651
#
# Stress axis : x y z
#
# Youngs Moduli (GPa) = 68.86379 27.19443 62.68664
#
# Poissons Ratio (x) = 0.26801 0.12632
# Poissons Ratio (y) = 0.67867 0.68231
# Poissons Ratio (z) = 0.13877 0.29600
#
# Static dielectric constant tensor:
#      x y z
#    x 1.735380 0.000000 0.000000 
#    y 0.000000 1.733770 0.000000 
#    z 0.000000 0.000000 1.618720 
# 
# From -- ./inp_files/29869.got.cif
#   From: 2010.05.17/outbox.cif.g08.bks.cpg/sg50_15_cif.got.tgz:29869.got - 2010.06.03 11:33:33.
