data_PCOD9396520
_publ_section_title
;
Structure prediction by ZEFSAII (Michael W. Deem and Ramdas Pophale) SiO2 
 PCOD9396520
Probable space group: P B A N
;
_chemical_formula_sum "Si O2"
_cell_formula_units_Z 58
_cell_length_a 11.633959
_cell_length_b 29.796537
_cell_length_c 8.690139
_cell_angle_alpha 90.000000
_cell_angle_beta 90.000000
_cell_angle_gamma 90.000000
_cell_volume 3012.451369
_symmetry_space_group_name_H-M "P B A N"
_symmetry_group_IT_number 50
_space_group.IT_coordinate_system_code '2'
_symmetry_cell_setting 'orthorhombic'
loop_
_space_group_symop_operation_xyz
x,y,z
1/2-x,1/2-y,z
x,1/2-y,-z
1/2-x,y,-z
-x,-y,-z
1/2+x,1/2+y,-z
-x,1/2+y,z
1/2+x,-y,z
loop_
_atom_site_type_symbol
_atom_site_label
_atom_site_fract_x
_atom_site_fract_y
_atom_site_fract_z
Si Si1 0.353273 0.524325 0.616573
Si Si2 0.612323 0.653770 0.508391
Si Si3 0.750000 0.750000 0.000000
Si Si4 0.444248 0.307172 0.167754
Si Si5 0.699189 0.429639 0.846236
Si Si6 0.948658 0.226248 0.643855
Si Si7 0.861096 0.327552 0.080999
Si Si8 0.019040 0.061058 0.633123
O O1 0.250000 0.514945 0.500000
O O2 0.302627 0.561874 0.728420
O O3 0.387347 0.475854 0.682421
O O4 0.460807 0.544377 0.525570
O O5 0.750000 0.655498 0.500000
O O6 0.578462 0.657950 0.691076
O O7 0.553269 0.696911 0.427267
O O8 0.567451 0.610112 0.412733
O O9 0.670133 0.716251 0.900632
O O10 0.508556 0.265615 0.246574
O O11 0.526765 0.323920 0.028936
O O12 0.670222 0.378887 0.888140
O O13 0.582052 0.443271 0.759707
O O14 0.750000 0.452491 0.000000
O O15 0.888623 0.250000 0.500000
O O16 0.877925 0.194042 0.752911
O O17 0.750000 0.306304 0.000000
#
# Coordination Sequence:
#
# PCOD9396520 Si02
#       8
#     8   8   2   8   8   8   8   8
#     4   9  20  39  64  94 120 162 204 265 341 392
#     4  11  23  38  63  93 124 165 223 278 318 395
#     4  12  20  40  64  88 140 180 218 270 332 400
#     4  11  24  38  64  91 128 179 218 266 337 389
#     4  10  22  38  64  94 127 169 210 267 334 396
#     4  10  21  42  61  92 128 168 228 268 325 380
#     4  11  23  42  64  91 137 178 218 272 327 403
#     4  10  20  39  66  88 125 159 215 267 323 408
#
# _framework density 19.253423000000002
#
# number of rings (size 3 to 8) (size 9 to 14) (size 15 to 20)
#    0.000    1.655    2.759    1.241    3.862    3.586 
#    0.000    4.828    3.034    0.000    0.000    0.000 
#    0.000    0.000    0.000    0.000    0.000    0.000 
#
# Total GULP energy -322984.013340 kJ/mol
# GULP energy per Si atom -5568.689885 kJ/mol
# Density = 1.920960 g / cm^3
# Si number density = 19.253423 Si / 1000 Ang^3
#
#
#
# Elastic Constant Matrix: (Units=GPa)
#
#
# Indices 1 2 3 4 5 6 
#
# 1 72.6375 17.8988 33.7496 0.0000 0.0000 0.0000
# 2 17.8988 66.3891 16.2908 0.0000 0.0000 0.0000
# 3 33.7496 16.2908 94.7608 0.0000 0.0000 0.0000
# 4 0.0000 0.0000 0.0000 11.6686 0.0000 0.0000
# 5 0.0000 0.0000 0.0000 0.0000 48.2651 0.0000
# 6 0.0000 0.0000 0.0000 0.0000 0.0000 71.6088
#
#
#
# Elastic Compliance Matrix: (Units=1/GPa)
#
#
# Indices 1 2 3 4 5 6 
#
# 1 0.017148 -0.003262 -0.005547 0.000000 0.000000 0.000000
# 2 -0.003262 0.016347 -0.001648 0.000000 0.000000 0.000000
# 3 -0.005547 -0.001648 0.012812 0.000000 0.000000 0.000000
# 4 0.000000 0.000000 0.000000 0.085700 0.000000 0.000000
# 5 0.000000 0.000000 0.000000 0.000000 0.020719 0.000000
# 6 0.000000 0.000000 0.000000 0.000000 0.000000 0.013965
#
#
# Mechanical properties :
#
#
# Convention : Reuss Voigt Hill
#
# Bulk Modulus (GPa) = 39.38222 41.07399 40.22811
# Shear Modulus (GPa) = 25.50129 37.36504 31.43316
#
# Velocity S-wave (km/s) = 3.64333 4.41011 4.04493
# Velocity P-wave (km/s) = 6.18041 6.87836 6.53870
#
# Compressibility (1/GPa) = 0.02539217
#
# Stress axis : x y z
#
# Youngs Moduli (GPa) = 58.31616 61.17445 78.05368
#
# Poissons Ratio (x) = 0.19956 0.43293
# Poissons Ratio (y) = 0.19023 0.12867
# Poissons Ratio (z) = 0.32345 0.10084
#
# Static dielectric constant tensor:
#      x y z
#    x 1.687530 0.000000 0.000000 
#    y 0.000000 1.689520 0.000000 
#    z 0.000000 0.000000 1.750050 
# 
# From -- ./inp_files/11772.got.cif
#   From: 2010.05.17/outbox.cif.g08.bks.cpg/sg50_6_cif.got.tgz:11772.got - 2010.06.03 11:33:33.
