data_PCOD9396587
_publ_section_title
;
Structure prediction by ZEFSAII (Michael W. Deem and Ramdas Pophale) SiO2 
 PCOD9396587
Probable space group: P B A N
;
_chemical_formula_sum "Si O2"
_cell_formula_units_Z 24
_cell_length_a 9.072550
_cell_length_b 10.020683
_cell_length_c 9.149816
_cell_angle_alpha 90.000000
_cell_angle_beta 90.000000
_cell_angle_gamma 90.000000
_cell_volume 831.838572
_symmetry_space_group_name_H-M "P B A N"
_symmetry_group_IT_number 50
_space_group.IT_coordinate_system_code '2'
_symmetry_cell_setting 'orthorhombic'
loop_
_space_group_symop_operation_xyz
x,y,z
1/2-x,1/2-y,z
x,1/2-y,-z
1/2-x,y,-z
-x,-y,-z
1/2+x,1/2+y,-z
-x,1/2+y,z
1/2+x,-y,z
loop_
_atom_site_type_symbol
_atom_site_label
_atom_site_fract_x
_atom_site_fract_y
_atom_site_fract_z
Si Si1 0.606700 0.586862 0.900759
Si Si2 0.077247 0.779008 0.323127
Si Si3 0.296737 0.091653 0.345497
O O1 0.706075 0.517511 0.776717
O O2 0.504159 0.692186 0.809172
O O3 0.750000 0.627775 0.000000
O O4 0.500000 0.500000 0.000000
O O5 0.250000 0.750000 0.304682
O O6 0.052253 0.750000 0.500000
O O7 0.968362 0.907965 0.318253
O O8 0.250000 0.250000 0.344036
O O9 0.250000 0.035106 0.500000
#
# Coordination Sequence:
#
# PCOD9396587 Si02
#       3
#     8   8   8
#     4  11  25  44  68 107 157 193 238 319 396 438
#     4  10  20  41  81 116 139 193 265 307 359 463
#     4   9  16  38  70 102 136 187 252 296 354 442
#
# _framework density 28.851755000000001
#
# number of rings (size 3 to 8) (size 9 to 14) (size 15 to 20)
#    0.000    2.000    6.667    0.000    0.000    8.667 
#    0.000    3.333    7.333    0.000    0.000    0.000 
#    0.000    0.000    0.000    0.000    0.000    0.000 
#
# Total GULP energy -133751.994176 kJ/mol
# GULP energy per Si atom -5572.999757 kJ/mol
# Density = 2.878609 g / cm^3
# Si number density = 28.851755 Si / 1000 Ang^3
#
#
#
# Elastic Constant Matrix: (Units=GPa)
#
#
# Indices 1 2 3 4 5 6 
#
# 1 384.4291 64.4076 157.1544 0.0000 0.0000 0.0000
# 2 64.4076 57.2465 42.1030 0.0000 0.0000 0.0000
# 3 157.1544 42.1030 255.6597 0.0000 0.0000 0.0000
# 4 0.0000 0.0000 0.0000 4.5179 0.0000 0.0000
# 5 0.0000 0.0000 0.0000 0.0000 80.4442 0.0000
# 6 0.0000 0.0000 0.0000 0.0000 0.0000 36.1638
#
#
#
# Elastic Compliance Matrix: (Units=1/GPa)
#
#
# Indices 1 2 3 4 5 6 
#
# 1 0.003871 -0.002964 -0.001891 0.000000 0.000000 0.000000
# 2 -0.002964 0.022146 -0.001825 0.000000 0.000000 0.000000
# 3 -0.001891 -0.001825 0.005375 0.000000 0.000000 0.000000
# 4 0.000000 0.000000 0.000000 0.221344 0.000000 0.000000
# 5 0.000000 0.000000 0.000000 0.000000 0.012431 0.000000
# 6 0.000000 0.000000 0.000000 0.000000 0.000000 0.027652
#
#
# Mechanical properties :
#
#
# Convention : Reuss Voigt Hill
#
# Bulk Modulus (GPa) = 55.46259 136.07393 95.76826
# Shear Modulus (GPa) = 16.01593 53.13652 34.57622
#
# Velocity S-wave (km/s) = 2.35864 4.29617 3.46556
# Velocity P-wave (km/s) = 5.16552 8.47791 7.01988
#
# Compressibility (1/GPa) = 0.01803017
#
# Stress axis : x y z
#
# Youngs Moduli (GPa) = 258.32418 45.15580 186.05948
#
# Poissons Ratio (x) = 0.13385 0.35191
# Poissons Ratio (y) = 0.76575 0.33953
# Poissons Ratio (z) = 0.48860 0.08240
#
# Static dielectric constant tensor:
#      x y z
#    x 2.409790 0.000000 0.000000 
#    y 0.000000 2.478210 0.000000 
#    z 0.000000 0.000000 1.594010 
# 
# From -- ./inp_files/8498.got.cif
#   From: 2010.05.17/outbox.cif.g08.bks.cpg/sg50_5_cif.got.tgz:8498.got - 2010.06.03 11:33:33.
