data_PCOD9396707
_publ_section_title
;
Structure prediction by ZEFSAII (Michael W. Deem and Ramdas Pophale) SiO2 
 PCOD9396707
Probable space group: P B A N
;
_chemical_formula_sum "Si O2"
_cell_formula_units_Z 48
_cell_length_a 17.654213
_cell_length_b 26.858945
_cell_length_c 5.148976
_cell_angle_alpha 90.000000
_cell_angle_beta 90.000000
_cell_angle_gamma 90.000000
_cell_volume 2441.508157
_symmetry_space_group_name_H-M "P B A N"
_symmetry_group_IT_number 50
_space_group.IT_coordinate_system_code '2'
_symmetry_cell_setting 'orthorhombic'
loop_
_space_group_symop_operation_xyz
x,y,z
1/2-x,1/2-y,z
x,1/2-y,-z
1/2-x,y,-z
-x,-y,-z
1/2+x,1/2+y,-z
-x,1/2+y,z
1/2+x,-y,z
loop_
_atom_site_type_symbol
_atom_site_label
_atom_site_fract_x
_atom_site_fract_y
_atom_site_fract_z
Si Si1 0.297524 0.415732 0.752487
Si Si2 0.665198 0.310185 0.528298
Si Si3 0.027808 0.946997 0.617985
Si Si4 0.429778 0.809166 0.027475
Si Si5 0.201348 0.963669 0.750296
Si Si6 0.532666 0.894692 0.878910
O O1 0.250000 0.401552 0.500000
O O2 0.303219 0.475955 0.757173
O O3 0.382016 0.395682 0.776958
O O4 0.250000 0.399591 0.000000
O O5 0.669902 0.250000 0.500000
O O6 0.750000 0.329985 0.500000
O O7 0.607281 0.323895 0.300810
O O8 0.631821 0.321859 0.807799
O O9 0.114465 0.947157 0.717620
O O10 0.017052 0.911835 0.367975
O O11 0.000000 0.000000 0.500000
O O12 0.978486 0.930806 0.869928
O O13 0.443432 0.750000 0.000000
O O14 0.503648 0.841315 0.973118
O O15 0.250000 0.949638 0.500000
O O16 0.250000 0.947325 0.000000
#
# Coordination Sequence:
#
# PCOD9396707 Si02
#       6
#     8   8   8   8   8   8
#     4  10  21  36  59  86 114 148 200 244 286 356
#     4   9  17  33  58  84 112 153 202 244 286 342
#     4  12  24  39  61  89 122 158 196 249 293 356
#     4  10  21  38  59  88 119 155 201 249 296 346
#     4  10  21  37  57  81 118 160 195 234 293 347
#     4  12  24  39  62  91 120 158 203 244 302 359
#
# _framework density 19.659980000000001
#
# number of rings (size 3 to 8) (size 9 to 14) (size 15 to 20)
#    0.000    1.500    1.667    4.000    4.667    2.000 
#    0.000    8.333    0.000    0.500    0.000    1.167 
#    0.000    0.000    0.000    0.000    0.000    0.000 
#
# Total GULP energy -268278.100298 kJ/mol
# GULP energy per Si atom -5589.127090 kJ/mol
# Density = 1.961523 g / cm^3
# Si number density = 19.659980 Si / 1000 Ang^3
#
#
#
# Elastic Constant Matrix: (Units=GPa)
#
#
# Indices 1 2 3 4 5 6 
#
# 1 142.6875 49.7884 56.2680 0.0000 0.0000 0.0000
# 2 49.7884 66.6496 34.5246 0.0000 0.0000 0.0000
# 3 56.2680 34.5246 148.4015 0.0000 0.0000 0.0000
# 4 0.0000 0.0000 0.0000 17.5258 0.0000 0.0000
# 5 0.0000 0.0000 0.0000 0.0000 34.0531 0.0000
# 6 0.0000 0.0000 0.0000 0.0000 0.0000 9.9144
#
#
#
# Elastic Compliance Matrix: (Units=1/GPa)
#
#
# Indices 1 2 3 4 5 6 
#
# 1 0.010165 -0.006364 -0.002374 0.000000 0.000000 0.000000
# 2 -0.006364 0.021044 -0.002483 0.000000 0.000000 0.000000
# 3 -0.002374 -0.002483 0.008216 0.000000 0.000000 0.000000
# 4 0.000000 0.000000 0.000000 0.057059 0.000000 0.000000
# 5 0.000000 0.000000 0.000000 0.000000 0.029366 0.000000
# 6 0.000000 0.000000 0.000000 0.000000 0.000000 0.100864
#
#
# Mechanical properties :
#
#
# Convention : Reuss Voigt Hill
#
# Bulk Modulus (GPa) = 58.87788 70.98896 64.93342
# Shear Modulus (GPa) = 19.62207 26.77581 23.19894
#
# Velocity S-wave (km/s) = 3.16265 3.69446 3.43885
# Velocity P-wave (km/s) = 6.58404 7.37465 6.99053
#
# Compressibility (1/GPa) = 0.01698431
#
# Stress axis : x y z
#
# Youngs Moduli (GPa) = 98.37785 47.51991 121.71264
#
# Poissons Ratio (x) = 0.30241 0.28890
# Poissons Ratio (y) = 0.62606 0.30219
# Poissons Ratio (z) = 0.23351 0.11798
#
# Static dielectric constant tensor:
#      x y z
#    x 1.674970 0.000000 0.000000 
#    y 0.000000 1.727750 0.000000 
#    z 0.000000 0.000000 1.649020 
# 
# From -- ./inp_files/3547.got.cif
#   From: 2010.05.17/outbox.cif.g08.bks.cpg/sg50_2_cif.got.tgz:3547.got - 2010.06.03 11:33:33.
