data_PCOD9396303
_publ_section_title
;
Structure prediction by ZEFSAII (Michael W. Deem and Ramdas Pophale) SiO2 
 PCOD9396303
Probable space group: P B A N
;
_chemical_formula_sum "Si O2"
_cell_formula_units_Z 32
_cell_length_a 4.914584
_cell_length_b 11.578346
_cell_length_c 23.681685
_cell_angle_alpha 90.000000
_cell_angle_beta 90.000000
_cell_angle_gamma 90.000000
_cell_volume 1347.553096
_symmetry_space_group_name_H-M "P B A N"
_symmetry_group_IT_number 50
_space_group.IT_coordinate_system_code '2'
_symmetry_cell_setting 'orthorhombic'
loop_
_space_group_symop_operation_xyz
x,y,z
1/2-x,1/2-y,z
x,1/2-y,-z
1/2-x,y,-z
-x,-y,-z
1/2+x,1/2+y,-z
-x,1/2+y,z
1/2+x,-y,z
loop_
_atom_site_type_symbol
_atom_site_label
_atom_site_fract_x
_atom_site_fract_y
_atom_site_fract_z
Si Si1 0.051382 0.082182 0.287457
Si Si2 0.750000 0.750000 0.000000
Si Si3 0.250000 0.750000 0.500000
Si Si4 0.549840 0.414213 0.167986
Si Si5 0.750000 0.250000 0.073050
Si Si6 0.929139 0.416062 0.591959
O O1 0.981539 0.146664 0.229238
O O2 0.984920 0.141239 0.346888
O O3 0.856558 0.967757 0.287137
O O4 0.508025 0.691083 0.038747
O O5 0.065574 0.672389 0.459012
O O6 0.300741 0.500093 0.166205
O O7 0.586602 0.333853 0.114514
O O8 0.639059 0.478495 0.588794
#
# Coordination Sequence:
#
# PCOD9396303 Si02
#       6
#     8   2   2   8   4   8
#     4   8  16  33  55  80 112 141 176 231 287 333
#     4  10  24  42  56  82 120 156 188 224 272 326
#     4  12  24  36  60  82 108 154 204 228 268 344
#     4  10  20  36  61  89 111 143 189 233 282 336
#     4  11  22  41  60  79 118 153 186 234 272 321
#     4  10  22  39  56  80 115 149 184 236 286 330
#
# _framework density 23.746745000000001
#
# number of rings (size 3 to 8) (size 9 to 14) (size 15 to 20)
#    0.000    2.250    0.000    2.250    0.000    3.000 
#    0.000   12.500    0.000   18.000    0.000    0.000 
#    0.000    0.000    0.000    0.000    0.000    0.000 
#
# Total GULP energy -178391.680642 kJ/mol
# GULP energy per Si atom -5574.740020 kJ/mol
# Density = 2.369270 g / cm^3
# Si number density = 23.746745 Si / 1000 Ang^3
#
#
#
# Elastic Constant Matrix: (Units=GPa)
#
#
# Indices 1 2 3 4 5 6 
#
# 1 129.4051 2.2124 22.0139 0.0000 0.0000 0.0000
# 2 2.2124 17.1051 22.5012 0.0000 0.0000 0.0000
# 3 22.0139 22.5012 142.7092 0.0000 0.0000 0.0000
# 4 0.0000 0.0000 0.0000 5.0884 0.0000 0.0000
# 5 0.0000 0.0000 0.0000 0.0000 61.2535 0.0000
# 6 0.0000 0.0000 0.0000 0.0000 0.0000 14.3985
#
#
#
# Elastic Compliance Matrix: (Units=1/GPa)
#
#
# Indices 1 2 3 4 5 6 
#
# 1 0.007943 0.000737 -0.001342 0.000000 0.000000 0.000000
# 2 0.000737 0.073829 -0.011755 0.000000 0.000000 0.000000
# 3 -0.001342 -0.011755 0.009068 0.000000 0.000000 0.000000
# 4 0.000000 0.000000 0.000000 0.196527 0.000000 0.000000
# 5 0.000000 0.000000 0.000000 0.000000 0.016326 0.000000
# 6 0.000000 0.000000 0.000000 0.000000 0.000000 0.069452
#
#
# Mechanical properties :
#
#
# Convention : Reuss Voigt Hill
#
# Bulk Modulus (GPa) = 15.12336 42.51936 28.82136
# Shear Modulus (GPa) = 11.90752 32.31421 22.11087
#
# Velocity S-wave (km/s) = 2.24171 3.69288 3.05472
# Velocity P-wave (km/s) = 3.61701 6.01061 4.96035
#
# Compressibility (1/GPa) = 0.06612289
#
# Stress axis : x y z
#
# Youngs Moduli (GPa) = 125.89247 13.54473 110.28322
#
# Poissons Ratio (x) = -0.00999 0.14795
# Poissons Ratio (y) = -0.09284 1.29633
# Poissons Ratio (z) = 0.16889 0.15921
#
# Static dielectric constant tensor:
#      x y z
#    x 1.852930 0.000000 0.000000 
#    y 0.000000 1.834800 0.000000 
#    z 0.000000 0.000000 2.088350 
# 
# From -- ./inp_files/30901.got.cif
#   From: 2010.05.17/outbox.cif.g08.bks.cpg/sg50_16_cif.got.tgz:30901.got - 2010.06.03 11:33:33.
