data_PCOD9396700
_publ_section_title
;
Structure prediction by ZEFSAII (Michael W. Deem and Ramdas Pophale) SiO2 
 PCOD9396700
Probable space group: P B A N
;
_chemical_formula_sum "Si O2"
_cell_formula_units_Z 64
_cell_length_a 9.750429
_cell_length_b 30.207238
_cell_length_c 12.494612
_cell_angle_alpha 90.000000
_cell_angle_beta 90.000000
_cell_angle_gamma 90.000000
_cell_volume 3680.082171
_symmetry_space_group_name_H-M "P B A N"
_symmetry_group_IT_number 50
_space_group.IT_coordinate_system_code '2'
_symmetry_cell_setting 'orthorhombic'
loop_
_space_group_symop_operation_xyz
x,y,z
1/2-x,1/2-y,z
x,1/2-y,-z
1/2-x,y,-z
-x,-y,-z
1/2+x,1/2+y,-z
-x,1/2+y,z
1/2+x,-y,z
loop_
_atom_site_type_symbol
_atom_site_label
_atom_site_fract_x
_atom_site_fract_y
_atom_site_fract_z
Si Si1 0.277074 0.558210 0.626449
Si Si2 0.621962 0.499899 0.918613
Si Si3 0.912426 0.837304 0.128811
Si Si4 0.714948 0.544682 0.375129
Si Si5 0.411136 0.332933 0.128377
Si Si6 0.946509 0.578460 0.246844
Si Si7 0.408546 0.751977 0.870073
Si Si8 0.960027 0.077263 0.758304
O O1 0.250000 0.563436 0.500000
O O2 0.246607 0.506282 0.651370
O O3 0.427380 0.565735 0.676043
O O4 0.171200 0.589677 0.687674
O O5 0.596832 0.541566 0.840734
O O6 0.602466 0.456155 0.846728
O O7 0.750000 0.501951 0.000000
O O8 0.500000 0.500000 0.000000
O O9 0.751644 0.828348 0.152190
O O10 0.011093 0.796651 0.161105
O O11 0.964017 0.882338 0.183968
O O12 0.922677 0.840502 0.999598
O O13 0.750000 0.548492 0.500000
O O14 0.565171 0.553181 0.324518
O O15 0.812457 0.580036 0.319579
O O16 0.469879 0.375810 0.187211
O O17 0.498649 0.290086 0.160677
O O18 0.250000 0.750000 0.833329
O O19 0.404888 0.750000 0.000000
#
# Coordination Sequence:
#
# PCOD9396700 Si02
#       8
#     8   8   8   8   8   8   8   8
#     4  11  23  39  58  81 112 152 201 255 297 332
#     4  12  24  36  51  78 123 163 192 227 278 347
#     4  10  21  36  58  84 119 155 192 230 278 349
#     4  11  21  39  60  79 109 151 201 253 292 330
#     4  10  21  36  58  84 118 156 192 230 280 345
#     4  12  22  37  56  84 114 155 196 240 288 348
#     4   9  19  37  57  85 116 149 191 238 280 331
#     4  12  22  38  55  86 113 156 197 240 289 345
#
# _framework density 17.390916000000001
#
# number of rings (size 3 to 8) (size 9 to 14) (size 15 to 20)
#    0.000    1.125    3.750    3.375    3.500    3.500 
#    2.250    0.000    0.000    0.000    0.000    5.250 
#    0.000    0.000    0.000    0.000    0.000    0.000 
#
# Total GULP energy -356763.350537 kJ/mol
# GULP energy per Si atom -5574.427352 kJ/mol
# Density = 1.735133 g / cm^3
# Si number density = 17.390916 Si / 1000 Ang^3
#
#
#
# Elastic Constant Matrix: (Units=GPa)
#
#
# Indices 1 2 3 4 5 6 
#
# 1 120.6226 36.2413 41.6875 0.0000 0.0000 0.0000
# 2 36.2413 102.7757 35.3088 0.0000 0.0000 0.0000
# 3 41.6875 35.3088 64.9731 0.0000 0.0000 0.0000
# 4 0.0000 0.0000 0.0000 12.9993 0.0000 0.0000
# 5 0.0000 0.0000 0.0000 0.0000 27.2295 0.0000
# 6 0.0000 0.0000 0.0000 0.0000 0.0000 27.6356
#
#
#
# Elastic Compliance Matrix: (Units=1/GPa)
#
#
# Indices 1 2 3 4 5 6 
#
# 1 0.010909 -0.001773 -0.006036 0.000000 0.000000 0.000000
# 2 -0.001773 0.012252 -0.005520 0.000000 0.000000 0.000000
# 3 -0.006036 -0.005520 0.022264 0.000000 0.000000 0.000000
# 4 0.000000 0.000000 0.000000 0.076927 0.000000 0.000000
# 5 0.000000 0.000000 0.000000 0.000000 0.036725 0.000000
# 6 0.000000 0.000000 0.000000 0.000000 0.000000 0.036185
#
#
# Mechanical properties :
#
#
# Convention : Reuss Voigt Hill
#
# Bulk Modulus (GPa) = 53.28858 57.20518 55.24688
# Shear Modulus (GPa) = 21.91295 25.24846 23.58071
#
# Velocity S-wave (km/s) = 3.55353 3.81441 3.68628
# Velocity P-wave (km/s) = 6.89528 7.23635 7.06787
#
# Compressibility (1/GPa) = 0.01876575
#
# Stress axis : x y z
#
# Youngs Moduli (GPa) = 91.66696 81.62113 44.91640
#
# Poissons Ratio (x) = 0.14473 0.27110
# Poissons Ratio (y) = 0.16254 0.24795
# Poissons Ratio (z) = 0.55328 0.45058
#
# Static dielectric constant tensor:
#      x y z
#    x 1.637720 0.000000 0.000000 
#    y 0.000000 1.562290 0.000000 
#    z 0.000000 0.000000 1.613390 
# 
# From -- ./inp_files/19557.got.cif
#   From: 2010.05.17/outbox.cif.g08.bks.cpg/sg50_10_cif.got.tgz:19557.got - 2010.06.03 11:33:33.
