data_PCOD9396601
_publ_section_title
;
Structure prediction by ZEFSAII (Michael W. Deem and Ramdas Pophale) SiO2 
 PCOD9396601
Probable space group: P B A N
;
_chemical_formula_sum "Si O2"
_cell_formula_units_Z 34
_cell_length_a 21.290676
_cell_length_b 8.216394
_cell_length_c 8.711568
_cell_angle_alpha 90.000000
_cell_angle_beta 90.000000
_cell_angle_gamma 90.000000
_cell_volume 1523.937088
_symmetry_space_group_name_H-M "P B A N"
_symmetry_group_IT_number 50
_space_group.IT_coordinate_system_code '2'
_symmetry_cell_setting 'orthorhombic'
loop_
_space_group_symop_operation_xyz
x,y,z
1/2-x,1/2-y,z
x,1/2-y,-z
1/2-x,y,-z
-x,-y,-z
1/2+x,1/2+y,-z
-x,1/2+y,z
1/2+x,-y,z
loop_
_atom_site_type_symbol
_atom_site_label
_atom_site_fract_x
_atom_site_fract_y
_atom_site_fract_z
Si Si1 0.167242 0.750000 0.000000
Si Si2 0.568956 0.433391 0.225634
Si Si3 0.432234 0.199782 0.830260
Si Si4 0.624224 0.250000 0.500000
Si Si5 0.316637 0.988042 0.728018
Si Si6 0.750000 0.750000 0.500000
O O1 0.121902 0.638489 0.109632
O O2 0.200785 0.882403 0.116908
O O3 0.501173 0.377485 0.165138
O O4 0.569337 0.626382 0.251734
O O5 0.581134 0.354832 0.389437
O O6 0.382847 0.072585 0.767572
O O7 0.412151 0.250000 0.000000
O O8 0.669332 0.147425 0.394863
O O9 0.279828 0.124890 0.628404
#
# Coordination Sequence:
#
# PCOD9396601 Si02
#       6
#     4   8   8   4   8   2
#     4  10  20  42  72 109 134 187 222 290 338 446
#     4  11  21  36  65 106 149 181 225 266 358 424
#     4  12  22  38  68 104 143 186 229 284 336 433
#     4  10  24  42  68 102 140 182 222 290 356 430
#     4  11  25  46  76  97 142 180 242 294 356 412
#     4  12  28  52  78 104 136 190 240 324 372 402
#
# _framework density 22.310631999999998
#
# number of rings (size 3 to 8) (size 9 to 14) (size 15 to 20)
#    0.000    0.941    3.529    4.941    0.000    5.176 
#    0.000    0.588    5.176    0.000    0.000    0.000 
#    0.000    0.000    0.000    0.000    0.000    0.000 
#
# Total GULP energy -189644.728462 kJ/mol
# GULP energy per Si atom -5577.786131 kJ/mol
# Density = 2.225985 g / cm^3
# Si number density = 22.310632 Si / 1000 Ang^3
#
#
#
# Elastic Constant Matrix: (Units=GPa)
#
#
# Indices 1 2 3 4 5 6 
#
# 1 51.0234 37.5904 45.2076 0.0000 0.0000 0.0000
# 2 37.5904 147.8999 71.0720 0.0000 0.0000 0.0000
# 3 45.2076 71.0720 151.4287 0.0000 0.0000 0.0000
# 4 0.0000 0.0000 0.0000-1410.4519 0.0000 0.0000
# 5 0.0000 0.0000 0.0000 0.0000 24.3843 0.0000
# 6 0.0000 0.0000 0.0000 0.0000 0.0000 42.3912
#
#
#
# Elastic Compliance Matrix: (Units=1/GPa)
#
#
# Indices 1 2 3 4 5 6 
#
# 1 0.028420 -0.004062 -0.006578 0.000000 0.000000 0.000000
# 2 -0.004062 0.009311 -0.003157 0.000000 0.000000 0.000000
# 3 -0.006578 -0.003157 0.010049 0.000000 0.000000 0.000000
# 4 0.000000 0.000000 0.000000 -0.000709 0.000000 0.000000
# 5 0.000000 0.000000 0.000000 0.000000 0.041010 0.000000
# 6 0.000000 0.000000 0.000000 0.000000 0.000000 0.023590
#
#
# Mechanical properties :
#
#
# Convention : Reuss Voigt Hill
#
# Bulk Modulus (GPa) = 49.54102 73.12133 61.33117
# Shear Modulus (GPa) = 34.24795 -255.63648 -110.69426
#
# Velocity S-wave (km/s) = 3.92222 -10.71584 -7.05144
# Velocity P-wave (km/s) = 6.53950 10.96633 6.22476
#
# Compressibility (1/GPa) = 0.02018529
#
# Stress axis : x y z
#
# Youngs Moduli (GPa) = 35.18682 107.39965 99.50864
#
# Poissons Ratio (x) = 0.43629 0.65455
# Poissons Ratio (y) = 0.14294 0.31418
# Poissons Ratio (z) = 0.23145 0.33909
#
# Static dielectric constant tensor:
#      x y z
#    x 1.795120 0.000000 0.000000 
#    y 0.000000 2.015160 0.000000 
#    z 0.000000 0.000000 1.915940 
# 
# From -- ./inp_files/9289.got.cif
#   From: 2010.05.17/outbox.cif.g08.bks.cpg/sg50_5_cif.got.tgz:9289.got - 2010.06.03 11:33:33.
