data_PCOD9396753
_publ_section_title
;
Structure prediction by ZEFSAII (Michael W. Deem and Ramdas Pophale) SiO2 
 PCOD9396753
Probable space group: P B A N
;
_chemical_formula_sum "Si O2"
_cell_formula_units_Z 64
_cell_length_a 21.323293
_cell_length_b 8.929229
_cell_length_c 17.587376
_cell_angle_alpha 90.000000
_cell_angle_beta 90.000000
_cell_angle_gamma 90.000000
_cell_volume 3348.646349
_symmetry_space_group_name_H-M "P B A N"
_symmetry_group_IT_number 50
_space_group.IT_coordinate_system_code '2'
_symmetry_cell_setting 'orthorhombic'
loop_
_space_group_symop_operation_xyz
x,y,z
1/2-x,1/2-y,z
x,1/2-y,-z
1/2-x,y,-z
-x,-y,-z
1/2+x,1/2+y,-z
-x,1/2+y,z
1/2+x,-y,z
loop_
_atom_site_type_symbol
_atom_site_label
_atom_site_fract_x
_atom_site_fract_y
_atom_site_fract_z
Si Si1 0.677818 0.069655 0.659534
Si Si2 0.881623 0.928802 0.088994
Si Si3 0.825797 0.579950 0.500000
Si Si4 0.063478 0.929229 0.232001
Si Si5 0.118377 0.071198 0.088994
Si Si6 0.177818 0.930345 0.340466
Si Si7 0.063478 0.570771 0.232001
Si Si8 0.250000 0.580706 0.091658
O O1 0.750000 0.021656 0.676864
O O2 0.678530 0.250000 0.655512
O O3 0.625575 0.025816 0.720897
O O4 0.658183 0.004828 0.577647
O O5 0.883791 0.750000 0.097459
O O6 0.927810 0.008840 0.146924
O O7 0.812725 0.991379 0.110155
O O8 0.893057 0.964506 1.000000
O O9 0.849644 0.750000 0.500000
O O10 0.750000 0.585358 0.500000
O O11 0.841817 0.495172 0.422353
O O12 0.125575 0.974184 0.279103
O O13 0.059282 0.750000 0.231419
O O14 0.072190 0.991160 0.146924
O O15 0.000000 0.000000 0.264733
O O16 0.187275 0.008621 0.110155
O O17 0.250000 0.750000 0.124104
O O18 0.250000 0.593432 0.000000
#
# Coordination Sequence:
#
# PCOD9396753 Si02
#       8
#     8   8   8   8   8   8   8   8
#     4   9  19  37  61  87 115 150 190 233 283 342
#     4  10  21  37  57  82 113 150 194 244 297 349
#     4   9  17  31  56  91 122 147 181 229 282 337
#     4  11  24  40  59  83 116 155 196 243 295 351
#     4  10  21  37  57  82 113 150 194 244 297 349
#     4   9  19  37  61  87 115 150 190 233 283 342
#     4  11  24  40  59  83 116 155 196 243 295 351
#     4   9  17  31  53  81 111 142 181 232 287 343
#
# _framework density 19.112200000000001
#
# number of rings (size 3 to 8) (size 9 to 14) (size 15 to 20)
#    0.000    2.250    0.000    2.250    1.750    7.000 
#    0.000    0.625    0.000    0.000    0.000    0.000 
#    0.000    0.000    0.000    0.000    0.000    0.000 
#
# Total GULP energy -357191.459039 kJ/mol
# GULP energy per Si atom -5581.116547 kJ/mol
# Density = 1.906870 g / cm^3
# Si number density = 19.112200 Si / 1000 Ang^3
#
#
#
# Elastic Constant Matrix: (Units=GPa)
#
#
# Indices 1 2 3 4 5 6 
#
# 1 115.8739 39.7588 63.8549 0.0000 0.0000 0.0000
# 2 39.7588 52.0915 43.1792 0.0000 0.0000 0.0000
# 3 63.8549 43.1792 104.7871 0.0000 0.0000 0.0000
# 4 0.0000 0.0000 0.0000 17.9908 0.0000 0.0000
# 5 0.0000 0.0000 0.0000 0.0000 9.7498 0.0000
# 6 0.0000 0.0000 0.0000 0.0000 0.0000 29.6864
#
#
#
# Elastic Compliance Matrix: (Units=1/GPa)
#
#
# Indices 1 2 3 4 5 6 
#
# 1 0.013949 -0.005468 -0.006247 0.000000 0.000000 0.000000
# 2 -0.005468 0.031299 -0.009565 0.000000 0.000000 0.000000
# 3 -0.006247 -0.009565 0.017291 0.000000 0.000000 0.000000
# 4 0.000000 0.000000 0.000000 0.055584 0.000000 0.000000
# 5 0.000000 0.000000 0.000000 0.000000 0.102566 0.000000
# 6 0.000000 0.000000 0.000000 0.000000 0.000000 0.033685
#
#
# Mechanical properties :
#
#
# Convention : Reuss Voigt Hill
#
# Bulk Modulus (GPa) = 50.05275 62.92647 56.48961
# Shear Modulus (GPa) = 16.46930 19.88270 18.17600
#
# Velocity S-wave (km/s) = 2.93869 3.22889 3.08720
# Velocity P-wave (km/s) = 6.14494 6.84815 6.50605
#
# Compressibility (1/GPa) = 0.01997892
#
# Stress axis : x y z
#
# Youngs Moduli (GPa) = 71.69076 31.94955 57.83276
#
# Poissons Ratio (x) = 0.17471 0.36127
# Poissons Ratio (y) = 0.39203 0.55318
# Poissons Ratio (z) = 0.44783 0.30560
#
# Static dielectric constant tensor:
#      x y z
#    x 1.693790 0.000000 0.000000 
#    y 0.000000 1.642440 0.000000 
#    z 0.000000 0.000000 1.668420 
# 
# From -- ./inp_files/29880.got.cif
#   From: 2010.05.17/outbox.cif.g08.bks.cpg/sg50_15_cif.got.tgz:29880.got - 2010.06.03 11:33:33.
