data_PCOD9396470
_publ_section_title
;
Structure prediction by ZEFSAII (Michael W. Deem and Ramdas Pophale) SiO2 
 PCOD9396470
Probable space group: P B A N
;
_chemical_formula_sum "Si O2"
_cell_formula_units_Z 64
_cell_length_a 23.212156
_cell_length_b 9.041457
_cell_length_c 14.427490
_cell_angle_alpha 90.000000
_cell_angle_beta 90.000000
_cell_angle_gamma 90.000000
_cell_volume 3027.922002
_symmetry_space_group_name_H-M "P B A N"
_symmetry_group_IT_number 50
_space_group.IT_coordinate_system_code '2'
_symmetry_cell_setting 'orthorhombic'
loop_
_space_group_symop_operation_xyz
x,y,z
1/2-x,1/2-y,z
x,1/2-y,-z
1/2-x,y,-z
-x,-y,-z
1/2+x,1/2+y,-z
-x,1/2+y,z
1/2+x,-y,z
loop_
_atom_site_type_symbol
_atom_site_label
_atom_site_fract_x
_atom_site_fract_y
_atom_site_fract_z
Si Si1 0.061534 0.132650 0.668232
Si Si2 0.035296 0.554534 0.145656
Si Si3 0.424900 0.090804 0.963103
Si Si4 0.322705 0.440019 0.161027
Si Si5 0.718325 0.104124 0.781384
Si Si6 0.955410 0.184899 0.398544
Si Si7 0.308394 0.307190 0.683059
Si Si8 0.890113 0.219834 0.773938
O O1 0.125921 0.190838 0.648014
O O2 0.014794 0.258071 0.647812
O O3 0.054349 0.058357 0.771698
O O4 0.047706 0.991836 0.603694
O O5 0.053310 0.720427 0.174503
O O6 0.967911 0.550310 0.120740
O O7 0.066049 0.516581 0.049170
O O8 0.359581 0.097516 0.928603
O O9 0.443573 0.250000 0.000000
O O10 0.262420 0.525930 0.147778
O O11 0.312488 0.297753 0.225352
O O12 0.363575 0.558956 0.213900
O O13 0.750000 0.250000 0.742401
O O14 0.658072 0.168160 0.814793
O O15 0.704761 0.976550 0.708634
O O16 0.951088 0.250000 0.500000
O O17 0.904175 0.245358 0.332721
O O18 0.250000 0.250000 0.632561
#
# Coordination Sequence:
#
# PCOD9396470 Si02
#       8
#     8   8   8   8   8   8   8   8
#     4  11  23  41  66  93 136 172 215 267 337 414
#     4  10  23  37  59  84 133 167 221 259 334 386
#     4  11  24  35  54  92 127 171 217 280 318 379
#     4  10  22  36  64  90 124 165 224 257 328 369
#     4   9  18  39  65  91 113 164 215 265 312 388
#     4  11  24  40  66 102 133 166 212 269 338 397
#     4  10  20  38  64  96 125 169 223 266 317 397
#     4  10  21  39  66  89 124 167 215 261 330 402
#
# _framework density 21.136607000000001
#
# number of rings (size 3 to 8) (size 9 to 14) (size 15 to 20)
#    0.000    1.750    2.500    1.875   12.250    0.000 
#    0.000    0.625    0.000    6.000    0.000    0.000 
#    0.000    0.000    0.000    0.000    0.000    0.000 
#
# Total GULP energy -356876.424173 kJ/mol
# GULP energy per Si atom -5576.194128 kJ/mol
# Density = 2.108850 g / cm^3
# Si number density = 21.136607 Si / 1000 Ang^3
#
#
#
# Elastic Constant Matrix: (Units=GPa)
#
#
# Indices 1 2 3 4 5 6 
#
# 1 135.1307 33.4204 38.7697 0.0000 0.0000 0.0000
# 2 33.4204 98.6842 7.6400 0.0000 0.0000 0.0000
# 3 38.7697 7.6400 51.4119 0.0000 0.0000 0.0000
# 4 0.0000 0.0000 0.0000 14.9698 0.0000 0.0000
# 5 0.0000 0.0000 0.0000 0.0000 11.6680 0.0000
# 6 0.0000 0.0000 0.0000 0.0000 0.0000 38.1164
#
#
#
# Elastic Compliance Matrix: (Units=1/GPa)
#
#
# Indices 1 2 3 4 5 6 
#
# 1 0.010199 -0.002892 -0.007261 0.000000 0.000000 0.000000
# 2 -0.002892 0.011071 0.000535 0.000000 0.000000 0.000000
# 3 -0.007261 0.000535 0.024847 0.000000 0.000000 0.000000
# 4 0.000000 0.000000 0.000000 0.066801 0.000000 0.000000
# 5 0.000000 0.000000 0.000000 0.000000 0.085704 0.000000
# 6 0.000000 0.000000 0.000000 0.000000 0.000000 0.026235
#
#
# Mechanical properties :
#
#
# Convention : Reuss Voigt Hill
#
# Bulk Modulus (GPa) = 37.19983 49.43190 43.31586
# Shear Modulus (GPa) = 19.75870 26.64394 23.20132
#
# Velocity S-wave (km/s) = 3.06078 3.55429 3.31673
# Velocity P-wave (km/s) = 5.48900 6.34678 5.93341
#
# Compressibility (1/GPa) = 0.02688185
#
# Stress axis : x y z
#
# Youngs Moduli (GPa) = 98.05191 90.32441 40.24670
#
# Poissons Ratio (x) = 0.26120 0.29224
# Poissons Ratio (y) = 0.28354 -0.02155
# Poissons Ratio (z) = 0.71196 -0.04836
#
# Static dielectric constant tensor:
#      x y z
#    x 1.837420 0.000000 0.000000 
#    y 0.000000 1.773430 0.000000 
#    z 0.000000 0.000000 1.768700 
# 
# From -- ./inp_files/27489.got.cif
#   From: 2010.05.17/outbox.cif.g08.bks.cpg/sg50_14_cif.got.tgz:27489.got - 2010.06.03 11:33:33.
