data_PCOD9396636
_publ_section_title
;
Structure prediction by ZEFSAII (Michael W. Deem and Ramdas Pophale) SiO2 
 PCOD9396636
Probable space group: P B A N
;
_chemical_formula_sum "Si O2"
_cell_formula_units_Z 34
_cell_length_a 16.472329
_cell_length_b 16.788807
_cell_length_c 5.222504
_cell_angle_alpha 90.000000
_cell_angle_beta 90.000000
_cell_angle_gamma 90.000000
_cell_volume 1444.287411
_symmetry_space_group_name_H-M "P B A N"
_symmetry_group_IT_number 50
_space_group.IT_coordinate_system_code '2'
_symmetry_cell_setting 'orthorhombic'
loop_
_space_group_symop_operation_xyz
x,y,z
1/2-x,1/2-y,z
x,1/2-y,-z
1/2-x,y,-z
-x,-y,-z
1/2+x,1/2+y,-z
-x,1/2+y,z
1/2+x,-y,z
loop_
_atom_site_type_symbol
_atom_site_label
_atom_site_fract_x
_atom_site_fract_y
_atom_site_fract_z
Si Si1 0.062346 0.570700 0.089299
Si Si2 0.651172 0.657504 0.506357
Si Si3 0.844692 0.571215 0.993350
Si Si4 0.750000 0.250000 0.500000
Si Si5 0.412167 0.667373 0.394700
O O1 0.144931 0.522509 0.027520
O O2 0.069356 0.602528 0.380591
O O3 0.000000 0.500000 0.000000
O O4 0.879475 0.611949 0.741161
O O5 0.632085 0.750000 0.500000
O O6 0.750000 0.652339 0.500000
O O7 0.619421 0.612121 0.755236
O O8 0.442672 0.640563 0.118174
O O9 0.750000 0.591078 0.000000
O O10 0.684131 0.309056 0.632872
O O11 0.448703 0.750000 0.500000
#
# Coordination Sequence:
#
# PCOD9396636 Si02
#       5
#     8   8   8   2   8
#     4  12  25  43  63  95 144 176 212 277 359 435
#     4   9  17  33  52  79 112 146 196 257 303 358
#     4  10  21  33  57  84 111 158 212 261 324 387
#     4   8  24  42  80 110 128 174 244 310 360 378
#     4  10  24  43  71 100 133 173 233 286 350 407
#
# _framework density 23.541022999999999
#
# number of rings (size 3 to 8) (size 9 to 14) (size 15 to 20)
#    0.706    1.176    0.000    3.529    3.294    3.765 
#    0.000    7.059    0.000    0.000    0.000    0.000 
#    0.000    0.000    0.000    0.000    0.000    0.000 
#
# Total GULP energy -189650.633099 kJ/mol
# GULP energy per Si atom -5577.959797 kJ/mol
# Density = 2.348744 g / cm^3
# Si number density = 23.541023 Si / 1000 Ang^3
#
#
#
# Elastic Constant Matrix: (Units=GPa)
#
#
# Indices 1 2 3 4 5 6 
#
# 1 86.5027 -18.6612 -2.7333 0.0000 0.0000 0.0000
# 2 -18.6612 87.8957 29.6294 0.0000 0.0000 0.0000
# 3 -2.7333 29.6294 138.6045 0.0000 0.0000 0.0000
# 4 0.0000 0.0000 0.0000 51.4601 0.0000 0.0000
# 5 0.0000 0.0000 0.0000 0.0000 1.3792 0.0000
# 6 0.0000 0.0000 0.0000 0.0000 0.0000 20.5209
#
#
#
# Elastic Compliance Matrix: (Units=1/GPa)
#
#
# Indices 1 2 3 4 5 6 
#
# 1 0.012130 0.002688 -0.000335 0.000000 0.000000 0.000000
# 2 0.002688 0.012856 -0.002695 0.000000 0.000000 0.000000
# 3 -0.000335 -0.002695 0.007784 0.000000 0.000000 0.000000
# 4 0.000000 0.000000 0.000000 0.019433 0.000000 0.000000
# 5 0.000000 0.000000 0.000000 0.000000 0.725068 0.000000
# 6 0.000000 0.000000 0.000000 0.000000 0.000000 0.048731
#
#
# Mechanical properties :
#
#
# Convention : Reuss Voigt Hill
#
# Bulk Modulus (GPa) = 31.16661 36.60807 33.88734
# Shear Modulus (GPa) = 5.97099 34.98991 20.48045
#
# Velocity S-wave (km/s) = 1.59434 3.85949 2.95276
# Velocity P-wave (km/s) = 4.08133 5.95360 5.10405
#
# Compressibility (1/GPa) = 0.03208562
#
# Stress axis : x y z
#
# Youngs Moduli (GPa) = 82.44229 77.78189 128.46317
#
# Poissons Ratio (x) = -0.20911 0.04310
# Poissons Ratio (y) = -0.22163 0.34625
# Poissons Ratio (z) = 0.02766 0.20965
#
# Static dielectric constant tensor:
#      x y z
#    x 2.040900 0.000000 0.000000 
#    y 0.000000 -1.752330 0.000000 
#    z 0.000000 0.000000 1.836030 
# 
# From -- ./inp_files/3232.got.cif
#   From: 2010.05.17/outbox.cif.g08.bks.cpg/sg50_2_cif.got.tgz:3232.got - 2010.06.03 11:33:33.
