data_PCOD9396352
_publ_section_title
;
Structure prediction by ZEFSAII (Michael W. Deem and Ramdas Pophale) SiO2 
 PCOD9396352
Probable space group: P B A N
;
_chemical_formula_sum "Si O2"
_cell_formula_units_Z 56
_cell_length_a 16.397441
_cell_length_b 12.654254
_cell_length_c 13.826501
_cell_angle_alpha 90.000000
_cell_angle_beta 90.000000
_cell_angle_gamma 90.000000
_cell_volume 2868.962779
_symmetry_space_group_name_H-M "P B A N"
_symmetry_group_IT_number 50
_space_group.IT_coordinate_system_code '2'
_symmetry_cell_setting 'orthorhombic'
loop_
_space_group_symop_operation_xyz
x,y,z
1/2-x,1/2-y,z
x,1/2-y,-z
1/2-x,y,-z
-x,-y,-z
1/2+x,1/2+y,-z
-x,1/2+y,z
1/2+x,-y,z
loop_
_atom_site_type_symbol
_atom_site_label
_atom_site_fract_x
_atom_site_fract_y
_atom_site_fract_z
Si Si1 0.605300 0.031577 0.146748
Si Si2 0.591888 0.450767 0.354605
Si Si3 0.932393 0.648566 0.304083
Si Si4 0.153342 0.126836 0.980878
Si Si5 0.765074 0.374821 0.282579
Si Si6 0.664829 0.516906 0.551628
Si Si7 0.442154 0.128477 0.206787
O O1 0.584693 0.940549 0.224158
O O2 0.687104 0.088694 0.186157
O O3 0.529168 0.112712 0.152556
O O4 0.615900 0.965069 0.048571
O O5 0.524997 0.360468 0.340979
O O6 0.676441 0.424290 0.301574
O O7 0.607359 0.476101 0.466133
O O8 0.557548 0.551598 0.298410
O O9 0.872974 0.615798 0.391435
O O10 0.922564 0.758119 0.250442
O O11 0.127033 0.102252 0.871645
O O12 0.126312 0.250000 0.000000
O O13 0.250000 0.125056 0.000000
O O14 0.750000 0.250000 0.285918
O O15 0.818120 0.422502 0.371774
O O16 0.750000 0.544357 0.500000
#
# Coordination Sequence:
#
# PCOD9396352 Si02
#       7
#     8   8   8   8   8   8   8
#     4  10  21  39  61  89 124 153 203 262 305 377
#     4  10  21  36  56  87 119 158 204 255 305 365
#     4  10  20  37  58  85 120 162 207 250 309 370
#     4  11  22  39  63  90 117 159 202 251 316 379
#     4  10  20  38  62  88 118 160 203 249 312 369
#     4   9  20  37  55  85 122 160 205 258 301 360
#     4  11  22  38  61  86 119 162 198 252 314 366
#
# _framework density 19.519248999999999
#
# number of rings (size 3 to 8) (size 9 to 14) (size 15 to 20)
#    0.000    1.857    1.429    2.571    0.000    3.143 
#    0.000    3.571    0.000    0.857    0.000    0.000 
#    0.000    0.000    0.000    0.000    0.000    0.000 
#
# Total GULP energy -312344.064010 kJ/mol
# GULP energy per Si atom -5577.572572 kJ/mol
# Density = 1.947482 g / cm^3
# Si number density = 19.519249 Si / 1000 Ang^3
#
#
#
# Elastic Constant Matrix: (Units=GPa)
#
#
# Indices 1 2 3 4 5 6 
#
# 1 62.2740 33.9495 36.5347 0.0000 0.0000 0.0000
# 2 33.9495 99.2901 43.8475 0.0000 0.0000 0.0000
# 3 36.5347 43.8475 106.6795 0.0000 0.0000 0.0000
# 4 0.0000 0.0000 0.0000 24.2815 0.0000 0.0000
# 5 0.0000 0.0000 0.0000 0.0000 17.0413 0.0000
# 6 0.0000 0.0000 0.0000 0.0000 0.0000 14.7610
#
#
#
# Elastic Compliance Matrix: (Units=1/GPa)
#
#
# Indices 1 2 3 4 5 6 
#
# 1 0.022050 -0.005137 -0.005440 0.000000 0.000000 0.000000
# 2 -0.005137 0.013502 -0.003790 0.000000 0.000000 0.000000
# 3 -0.005440 -0.003790 0.012795 0.000000 0.000000 0.000000
# 4 0.000000 0.000000 0.000000 0.041184 0.000000 0.000000
# 5 0.000000 0.000000 0.000000 0.000000 0.058681 0.000000
# 6 0.000000 0.000000 0.000000 0.000000 0.000000 0.067746
#
#
# Mechanical properties :
#
#
# Convention : Reuss Voigt Hill
#
# Bulk Modulus (GPa) = 50.98920 55.21189 53.10055
# Shear Modulus (GPa) = 19.90212 21.47756 20.68984
#
# Velocity S-wave (km/s) = 3.19661 3.32072 3.25925
# Velocity P-wave (km/s) = 6.30901 6.56126 6.43637
#
# Compressibility (1/GPa) = 0.01961200
#
# Stress axis : x y z
#
# Youngs Moduli (GPa) = 45.35110 74.06435 78.15666
#
# Poissons Ratio (x) = 0.38047 0.42518
# Poissons Ratio (y) = 0.23297 0.29623
# Poissons Ratio (z) = 0.24672 0.28072
#
# Static dielectric constant tensor:
#      x y z
#    x 1.721470 0.000000 0.000000 
#    y 0.000000 1.666920 0.000000 
#    z 0.000000 0.000000 1.679440 
# 
# From -- ./inp_files/25924.got.cif
#   From: 2010.05.17/outbox.cif.g08.bks.cpg/sg50_13_cif.got.tgz:25924.got - 2010.06.03 11:33:33.
