data_PCOD9396499
_publ_section_title
;
Structure prediction by ZEFSAII (Michael W. Deem and Ramdas Pophale) SiO2 
 PCOD9396499
Probable space group: P B A N
;
_chemical_formula_sum "Si O2"
_cell_formula_units_Z 32
_cell_length_a 15.781688
_cell_length_b 7.888608
_cell_length_c 12.573060
_cell_angle_alpha 90.000000
_cell_angle_beta 90.000000
_cell_angle_gamma 90.000000
_cell_volume 1565.290023
_symmetry_space_group_name_H-M "P B A N"
_symmetry_group_IT_number 50
_space_group.IT_coordinate_system_code '2'
_symmetry_cell_setting 'orthorhombic'
loop_
_space_group_symop_operation_xyz
x,y,z
1/2-x,1/2-y,z
x,1/2-y,-z
1/2-x,y,-z
-x,-y,-z
1/2+x,1/2+y,-z
-x,1/2+y,z
1/2+x,-y,z
loop_
_atom_site_type_symbol
_atom_site_label
_atom_site_fract_x
_atom_site_fract_y
_atom_site_fract_z
Si Si1 0.539601 0.250000 0.500000
Si Si2 0.893345 0.549771 0.623043
Si Si3 0.250000 0.750000 0.000000
Si Si4 0.250000 0.250000 0.500000
Si Si5 0.431052 0.356783 0.856650
Si Si6 0.890612 0.480887 0.083501
O O1 0.597212 0.365120 0.425890
O O2 0.476430 0.146062 0.423403
O O3 0.811166 0.639649 0.574889
O O4 0.899811 0.558184 0.749148
O O5 0.306762 0.630244 0.075797
O O6 0.532999 0.366189 0.870661
O O7 0.396697 0.163424 0.858445
O O8 0.403386 0.460808 0.960764
#
# Coordination Sequence:
#
# PCOD9396499 Si02
#       6
#     4   8   2   2   8   8
#     4   9  20  36  60  87 118 162 210 249 312 396
#     4  10  20  39  62  89 122 161 207 265 320 377
#     4  12  24  38  52  88 136 158 208 284 316 350
#     4  10  24  38  56  92 128 152 212 278 312 360
#     4  10  20  40  64  84 120 173 212 250 321 399
#     4  10  22  37  59  91 123 162 215 263 314 394
#
# _framework density 20.443496
#
# number of rings (size 3 to 8) (size 9 to 14) (size 15 to 20)
#    0.000    2.000    0.000    4.500    0.000    4.500 
#    0.000    2.500    0.000    0.000    0.000    0.000 
#    0.000    0.000    0.000    0.000    0.000    0.000 
#
# Total GULP energy -178685.494473 kJ/mol
# GULP energy per Si atom -5583.921702 kJ/mol
# Density = 2.039697 g / cm^3
# Si number density = 20.443496 Si / 1000 Ang^3
#
#
#
# Elastic Constant Matrix: (Units=GPa)
#
#
# Indices 1 2 3 4 5 6 
#
# 1 121.3414 61.7625 31.3576 0.0000 0.0000 0.0000
# 2 61.7625 128.2429 47.2844 0.0000 0.0000 0.0000
# 3 31.3576 47.2844 114.4473 0.0000 0.0000 0.0000
# 4 0.0000 0.0000 0.0000 20.1837 0.0000 0.0000
# 5 0.0000 0.0000 0.0000 0.0000 -3.1457 0.0000
# 6 0.0000 0.0000 0.0000 0.0000 0.0000 33.4220
#
#
#
# Elastic Compliance Matrix: (Units=1/GPa)
#
#
# Indices 1 2 3 4 5 6 
#
# 1 0.011009 -0.004943 -0.000974 0.000000 0.000000 0.000000
# 2 -0.004943 0.011418 -0.003363 0.000000 0.000000 0.000000
# 3 -0.000974 -0.003363 0.010394 0.000000 0.000000 0.000000
# 4 0.000000 0.000000 0.000000 0.049545 0.000000 0.000000
# 5 0.000000 0.000000 0.000000 0.000000 -0.317889 0.000000
# 6 0.000000 0.000000 0.000000 0.000000 0.000000 0.029920
#
#
# Mechanical properties :
#
#
# Convention : Reuss Voigt Hill
#
# Bulk Modulus (GPa) = 70.12223 71.64897 70.88560
# Shear Modulus (GPa) = -27.42895 25.00046 -1.21424
#
# Velocity S-wave (km/s) = -3.66689 3.50080 -0.77152
# Velocity P-wave (km/s) = 4.05547 7.17386 5.82714
#
# Compressibility (1/GPa) = 0.01426081
#
# Stress axis : x y z
#
# Youngs Moduli (GPa) = 90.83652 87.57957 96.20840
#
# Poissons Ratio (x) = 0.43288 0.09373
# Poissons Ratio (y) = 0.44898 0.32357
# Poissons Ratio (z) = 0.08849 0.29455
#
# Static dielectric constant tensor:
#      x y z
#    x 1.729240 0.000000 0.000000 
#    y 0.000000 1.778930 0.000000 
#    z 0.000000 0.000000 1.688470 
# 
# From -- ./inp_files/20815.got.cif
#   From: 2010.05.17/outbox.cif.g08.bks.cpg/sg50_11_cif.got.tgz:20815.got - 2010.06.03 11:33:33.
