data_PCOD9396247
_publ_section_title
;
Structure prediction by ZEFSAII (Michael W. Deem and Ramdas Pophale) SiO2 
 PCOD9396247
Probable space group: P B A N
;
_chemical_formula_sum "Si O2"
_cell_formula_units_Z 58
_cell_length_a 30.402451
_cell_length_b 13.825804
_cell_length_c 5.509754
_cell_angle_alpha 90.000000
_cell_angle_beta 90.000000
_cell_angle_gamma 90.000000
_cell_volume 2315.960788
_symmetry_space_group_name_H-M "P B A N"
_symmetry_group_IT_number 50
_space_group.IT_coordinate_system_code '2'
_symmetry_cell_setting 'orthorhombic'
loop_
_space_group_symop_operation_xyz
x,y,z
1/2-x,1/2-y,z
x,1/2-y,-z
1/2-x,y,-z
-x,-y,-z
1/2+x,1/2+y,-z
-x,1/2+y,z
1/2+x,-y,z
loop_
_atom_site_type_symbol
_atom_site_label
_atom_site_fract_x
_atom_site_fract_y
_atom_site_fract_z
Si Si1 0.894713 0.391092 0.148684
Si Si2 0.272366 0.382220 0.246043
Si Si3 0.416101 0.114210 0.354132
Si Si4 0.370345 0.588375 0.645158
Si Si5 0.874127 0.620743 0.147992
Si Si6 0.774461 0.082523 0.283989
Si Si7 0.750000 0.250000 0.000000
Si Si8 0.511733 0.310643 0.749851
O O1 0.870501 0.356041 0.391241
O O2 0.880455 0.504024 0.132141
O O3 0.946086 0.377216 0.200235
O O4 0.883378 0.352124 0.882529
O O5 0.250000 0.351938 0.500000
O O6 0.323722 0.361508 0.222135
O O7 0.260713 0.497597 0.238108
O O8 0.250000 0.346746 0.000000
O O9 0.403718 0.152821 0.622596
O O10 0.466629 0.132437 0.295246
O O11 0.404987 0.999818 0.369126
O O12 0.387729 0.153477 0.123390
O O13 0.322195 0.539275 0.668737
O O14 0.750000 0.137205 0.500000
O O15 0.782859 0.169175 0.102878
O O16 0.519720 0.250000 0.500000
O O17 0.506293 0.250000 0.000000
#
# Coordination Sequence:
#
# PCOD9396247 Si02
#       8
#     8   8   8   8   8   8   2   8
#     4  10  21  40  59  88 115 155 200 253 309 347
#     4  11  19  33  58  84 126 158 194 252 289 331
#     4  10  21  38  63  89 116 152 201 260 314 356
#     4  10  22  39  66  89 118 153 213 266 288 336
#     4  10  20  35  61  93 118 151 206 255 298 338
#     4  11  23  39  55  83 124 165 211 241 290 340
#     4  12  26  36  52  78 120 184 192 232 294 340
#     4  12  26  44  61  87 124 158 195 245 320 398
#
# _framework density 25.043603000000001
#
# number of rings (size 3 to 8) (size 9 to 14) (size 15 to 20)
#    0.000    1.379    0.690    7.655    1.931    4.414 
#    3.724    0.000    0.000    0.000    0.000    0.000 
#    0.000  114.207    0.000    0.000    0.000    0.000 
#
# Total GULP energy -323982.452756 kJ/mol
# GULP energy per Si atom -5585.904358 kJ/mol
# Density = 2.498660 g / cm^3
# Si number density = 25.043603 Si / 1000 Ang^3
#
#
#
# Elastic Constant Matrix: (Units=GPa)
#
#
# Indices 1 2 3 4 5 6 
#
# 1 154.4642 -8.4813 26.7907 0.0000 0.0000 0.0000
# 2 -8.4813 82.0401 13.4664 0.0000 0.0000 0.0000
# 3 26.7907 13.4664 211.9106 0.0000 0.0000 0.0000
# 4 0.0000 0.0000 0.0000 10.0508 0.0000 0.0000
# 5 0.0000 0.0000 0.0000 0.0000 -52.1160 0.0000
# 6 0.0000 0.0000 0.0000 0.0000 0.0000 -10.6667
#
#
#
# Elastic Compliance Matrix: (Units=1/GPa)
#
#
# Indices 1 2 3 4 5 6 
#
# 1 0.006676 0.000837 -0.000897 0.000000 0.000000 0.000000
# 2 0.000837 0.012423 -0.000895 0.000000 0.000000 0.000000
# 3 -0.000897 -0.000895 0.004889 0.000000 0.000000 0.000000
# 4 0.000000 0.000000 0.000000 0.099494 0.000000 0.000000
# 5 0.000000 0.000000 0.000000 0.000000 -0.019188 0.000000
# 6 0.000000 0.000000 0.000000 0.000000 0.000000 -0.093750
#
#
# Mechanical properties :
#
#
# Convention : Reuss Voigt Hill
#
# Bulk Modulus (GPa) = 45.29520 56.88516 51.09018
# Shear Modulus (GPa) = 252.35798 17.22958 134.79378
#
# Velocity S-wave (km/s) = 10.04919 2.62579 7.34442
# Velocity P-wave (km/s) = 12.36018 5.65303 9.61069
#
# Compressibility (1/GPa) = 0.02207740
#
# Stress axis : x y z
#
# Youngs Moduli (GPa) = 149.79970 80.49788 204.52874
#
# Poissons Ratio (x) = -0.06741 0.18350
# Poissons Ratio (y) = -0.12544 0.18311
# Poissons Ratio (z) = 0.13440 0.07207
#
# Static dielectric constant tensor:
#      x y z
#    x 2.027110 0.000000 0.000000 
#    y 0.000000 1.712010 0.000000 
#    z 0.000000 0.000000 2.854790 
# 
# From -- ./inp_files/6762.got.cif
#   From: 2010.05.17/outbox.cif.g08.bks.cpg/sg50_4_cif.got.tgz:6762.got - 2010.06.03 11:33:33.
