data_PCOD9396969
_publ_section_title
;
Structure prediction by ZEFSAII (Michael W. Deem and Ramdas Pophale) SiO2 
 PCOD9396969
Probable space group: P B A N
;
_chemical_formula_sum "Si O2"
_cell_formula_units_Z 48
_cell_length_a 28.895735
_cell_length_b 9.264018
_cell_length_c 7.851681
_cell_angle_alpha 90.000000
_cell_angle_beta 90.000000
_cell_angle_gamma 90.000000
_cell_volume 2101.821270
_symmetry_space_group_name_H-M "P B A N"
_symmetry_group_IT_number 50
_space_group.IT_coordinate_system_code '2'
_symmetry_cell_setting 'orthorhombic'
loop_
_space_group_symop_operation_xyz
x,y,z
1/2-x,1/2-y,z
x,1/2-y,-z
1/2-x,y,-z
-x,-y,-z
1/2+x,1/2+y,-z
-x,1/2+y,z
1/2+x,-y,z
loop_
_atom_site_type_symbol
_atom_site_label
_atom_site_fract_x
_atom_site_fract_y
_atom_site_fract_z
Si Si1 0.665026 0.416322 0.283898
Si Si2 0.412253 0.122558 0.126839
Si Si3 0.256085 0.086070 0.707165
Si Si4 0.449225 0.551400 0.171634
Si Si5 0.846540 0.085271 0.694555
Si Si6 0.992272 0.718675 0.310292
O O1 0.626982 0.520575 0.201503
O O2 0.714880 0.481043 0.236857
O O3 0.657212 0.418443 0.488823
O O4 0.661714 0.247881 0.239112
O O5 0.443749 0.201484 0.267367
O O6 0.395152 0.250000 0.000000
O O7 0.445353 0.022727 0.011304
O O8 0.250000 0.250000 0.767171
O O9 0.250000 0.088821 0.500000
O O10 0.305883 0.021375 0.753799
O O11 0.397594 0.544035 0.246841
O O12 0.469587 0.710643 0.187938
O O13 0.482301 0.448232 0.282050
O O14 0.007929 0.750000 0.500000
#
# Coordination Sequence:
#
# PCOD9396969 Si02
#       6
#     8   8   8   8   8   8
#     4  10  21  40  68  94 137 172 220 273 330 398
#     4  10  24  43  64  97 133 180 218 270 338 404
#     4   9  19  36  65 101 133 168 216 277 335 388
#     4  11  25  42  64  95 136 170 222 272 336 403
#     4  10  22  39  66 102 129 172 226 276 329 390
#     4  11  24  42  67  92 129 170 228 278 331 389
#
# _framework density 22.837334999999999
#
# number of rings (size 3 to 8) (size 9 to 14) (size 15 to 20)
#    0.000    1.833    0.000    2.500    9.333    2.667 
#    0.000    0.833    0.000    2.000    0.000    0.000 
#    0.000    0.000    0.000    0.000    0.000    0.000 
#
# Total GULP energy -268645.594624 kJ/mol
# GULP energy per Si atom -5596.783221 kJ/mol
# Density = 2.278536 g / cm^3
# Si number density = 22.837335 Si / 1000 Ang^3
#
#
#
# Elastic Constant Matrix: (Units=GPa)
#
#
# Indices 1 2 3 4 5 6 
#
# 1 111.6587 63.3048 11.6518 0.0000 0.0000 0.0000
# 2 63.3048 162.6659 30.6720 0.0000 0.0000 0.0000
# 3 11.6518 30.6720 50.6910 0.0000 0.0000 0.0000
# 4 0.0000 0.0000 0.0000 21.8889 0.0000 0.0000
# 5 0.0000 0.0000 0.0000 0.0000 0.6186 0.0000
# 6 0.0000 0.0000 0.0000 0.0000 0.0000 44.8007
#
#
#
# Elastic Compliance Matrix: (Units=1/GPa)
#
#
# Indices 1 2 3 4 5 6 
#
# 1 0.011492 -0.004486 0.000073 0.000000 0.000000 0.000000
# 2 -0.004486 0.008690 -0.004227 0.000000 0.000000 0.000000
# 3 0.000073 -0.004227 0.022268 0.000000 0.000000 0.000000
# 4 0.000000 0.000000 0.000000 0.045685 0.000000 0.000000
# 5 0.000000 0.000000 0.000000 0.000000 1.616513 0.000000
# 6 0.000000 0.000000 0.000000 0.000000 0.000000 0.022321
#
#
# Mechanical properties :
#
#
# Convention : Reuss Voigt Hill
#
# Bulk Modulus (GPa) = 39.73007 59.58584 49.65795
# Shear Modulus (GPa) = 2.85284 28.08746 15.47015
#
# Velocity S-wave (km/s) = 1.11889 3.51079 2.60553
# Velocity P-wave (km/s) = 4.37081 6.52551 5.55366
#
# Compressibility (1/GPa) = 0.02516985
#
# Stress axis : x y z
#
# Youngs Moduli (GPa) = 87.02054 115.06899 44.90660
#
# Poissons Ratio (x) = 0.51619 -0.00327
# Poissons Ratio (y) = 0.39037 0.18983
# Poissons Ratio (z) = -0.00634 0.48643
#
# Static dielectric constant tensor:
#      x y z
#    x 1.811920 0.000000 0.000000 
#    y 0.000000 1.831730 0.000000 
#    z 0.000000 0.000000 1.859510 
# 
# From -- ./inp_files/16942.got.cif
#   From: 2010.05.17/outbox.cif.g08.bks.cpg/sg50_9_cif.got.tgz:16942.got - 2010.06.03 11:33:33.
