data_PCOD9396275
_publ_section_title
;
Structure prediction by ZEFSAII (Michael W. Deem and Ramdas Pophale) SiO2 
 PCOD9396275
Probable space group: P B A N
;
_chemical_formula_sum "Si O2"
_cell_formula_units_Z 54
_cell_length_a 21.410207
_cell_length_b 10.511092
_cell_length_c 11.927628
_cell_angle_alpha 90.000000
_cell_angle_beta 90.000000
_cell_angle_gamma 90.000000
_cell_volume 2684.248934
_symmetry_space_group_name_H-M "P B A N"
_symmetry_group_IT_number 50
_space_group.IT_coordinate_system_code '2'
_symmetry_cell_setting 'orthorhombic'
loop_
_space_group_symop_operation_xyz
x,y,z
1/2-x,1/2-y,z
x,1/2-y,-z
1/2-x,y,-z
-x,-y,-z
1/2+x,1/2+y,-z
-x,1/2+y,z
1/2+x,-y,z
loop_
_atom_site_type_symbol
_atom_site_label
_atom_site_fract_x
_atom_site_fract_y
_atom_site_fract_z
Si Si1 0.750000 0.250000 0.000000
Si Si2 0.565872 0.926555 0.816082
Si Si3 0.427337 0.250000 0.000000
Si Si4 0.465133 0.230706 0.629241
Si Si5 0.442037 0.050558 0.823192
Si Si6 0.396594 0.821701 0.298328
Si Si7 0.320372 0.591670 0.186476
Si Si8 0.770525 0.398520 0.617318
O O1 0.710037 0.159501 0.080477
O O2 0.565251 0.843333 0.703027
O O3 0.491926 0.939929 0.844782
O O4 0.587022 0.069969 0.792686
O O5 0.602053 0.854225 0.915252
O O6 0.461428 0.163489 0.907487
O O7 0.448750 0.250000 0.500000
O O8 0.445879 0.101659 0.695403
O O9 0.540480 0.224747 0.642009
O O10 0.370691 0.014462 0.844983
O O11 0.362048 0.700440 0.246751
O O12 0.345029 0.892164 0.374394
O O13 0.266141 0.549441 0.273830
O O14 0.750000 0.250000 0.615956
O O15 0.750000 0.458159 0.500000
#
# Coordination Sequence:
#
# PCOD9396275 Si02
#       8
#     2   8   4   8   8   8   8   8
#     4  12  24  38  62  90 124 154 200 254 312 356
#     4  10  21  37  56  84 118 160 197 239 302 357
#     4  10  22  37  54  81 110 160 200 236 286 360
#     4  10  22  37  59  90 124 162 200 238 300 369
#     4  10  22  38  59  84 123 156 201 248 294 363
#     4  10  20  36  57  87 121 148 193 249 299 364
#     4  11  22  38  59  92 118 153 194 252 313 352
#     4   9  19  34  55  84 115 149 191 239 300 353
#
# _framework density 20.117357999999999
#
# number of rings (size 3 to 8) (size 9 to 14) (size 15 to 20)
#    0.000    1.926    3.704    0.444    6.222    4.148 
#    0.000    0.000    0.000    8.444    0.000    5.185 
#    0.000    0.000    0.000    0.000    0.000    0.000 
#
# Total GULP energy -300748.030064 kJ/mol
# GULP energy per Si atom -5569.407964 kJ/mol
# Density = 2.007157 g / cm^3
# Si number density = 20.117358 Si / 1000 Ang^3
#
#
#
# Elastic Constant Matrix: (Units=GPa)
#
#
# Indices 1 2 3 4 5 6 
#
# 1 64.3722 -0.4303 22.0437 0.0000 0.0000 0.0000
# 2 -0.4303 47.6623 21.9938 0.0000 0.0000 0.0000
# 3 22.0437 21.9938 134.7080 0.0000 0.0000 0.0000
# 4 0.0000 0.0000 0.0000 4.3332 0.0000 0.0000
# 5 0.0000 0.0000 0.0000 0.0000 14.3395 0.0000
# 6 0.0000 0.0000 0.0000 0.0000 0.0000 15.6148
#
#
#
# Elastic Compliance Matrix: (Units=1/GPa)
#
#
# Indices 1 2 3 4 5 6 
#
# 1 0.016557 0.001514 -0.002957 0.000000 0.000000 0.000000
# 2 0.001514 0.022829 -0.003975 0.000000 0.000000 0.000000
# 3 -0.002957 -0.003975 0.008556 0.000000 0.000000 0.000000
# 4 0.000000 0.000000 0.000000 0.230776 0.000000 0.000000
# 5 0.000000 0.000000 0.000000 0.000000 0.069737 0.000000
# 6 0.000000 0.000000 0.000000 0.000000 0.000000 0.064042
#
#
# Mechanical properties :
#
#
# Convention : Reuss Voigt Hill
#
# Bulk Modulus (GPa) = 26.94924 37.10633 32.02778
# Shear Modulus (GPa) = 11.47572 20.39986 15.93779
#
# Velocity S-wave (km/s) = 2.39098 3.18786 2.81773
# Velocity P-wave (km/s) = 4.58775 5.65994 5.15181
#
# Compressibility (1/GPa) = 0.03710680
#
# Stress axis : x y z
#
# Youngs Moduli (GPa) = 60.39659 43.80420 116.87326
#
# Poissons Ratio (x) = -0.06631 0.34555
# Poissons Ratio (y) = -0.09143 0.46457
# Poissons Ratio (z) = 0.17857 0.17412
#
# Static dielectric constant tensor:
#      x y z
#    x 1.750470 0.000000 0.000000 
#    y 0.000000 1.743830 0.000000 
#    z 0.000000 0.000000 1.756460 
# 
# From -- ./inp_files/22418.got.cif
#   From: 2010.05.17/outbox.cif.g08.bks.cpg/sg50_12_cif.got.tgz:22418.got - 2010.06.03 11:33:33.
