data_PCOD9396175
_publ_section_title
;
Structure prediction by ZEFSAII (Michael W. Deem and Ramdas Pophale) SiO2 
 PCOD9396175
Probable space group: P B A N
;
_chemical_formula_sum "Si O2"
_cell_formula_units_Z 40
_cell_length_a 9.643133
_cell_length_b 13.819743
_cell_length_c 13.744933
_cell_angle_alpha 90.000000
_cell_angle_beta 90.000000
_cell_angle_gamma 90.000000
_cell_volume 1831.727015
_symmetry_space_group_name_H-M "P B A N"
_symmetry_group_IT_number 50
_space_group.IT_coordinate_system_code '2'
_symmetry_cell_setting 'orthorhombic'
loop_
_space_group_symop_operation_xyz
x,y,z
1/2-x,1/2-y,z
x,1/2-y,-z
1/2-x,y,-z
-x,-y,-z
1/2+x,1/2+y,-z
-x,1/2+y,z
1/2+x,-y,z
loop_
_atom_site_type_symbol
_atom_site_label
_atom_site_fract_x
_atom_site_fract_y
_atom_site_fract_z
Si Si1 0.361566 0.396920 0.578453
Si Si2 0.530046 0.127787 0.762922
Si Si3 0.281057 0.052398 0.210679
Si Si4 0.595321 0.715743 0.110168
Si Si5 0.104636 0.872270 0.544493
O O1 0.250000 0.363687 0.500000
O O2 0.323134 0.390359 0.690313
O O3 0.381020 0.511716 0.560773
O O4 0.502170 0.350605 0.543754
O O5 0.386732 0.067284 0.788452
O O6 0.514242 0.225947 0.824919
O O7 0.544627 0.156458 0.649545
O O8 0.661846 0.057478 0.783022
O O9 0.376475 0.102361 0.127126
O O10 0.750000 0.750000 0.139883
O O11 0.573591 0.750000 0.000000
O O12 0.250000 0.843688 0.500000
#
# Coordination Sequence:
#
# PCOD9396175 Si02
#       5
#     8   8   8   8   8
#     4   9  15  27  47  79 111 146 181 225 277 336
#     4  10  20  35  58  87 115 150 197 237 288 350
#     4  10  20  34  59  87 113 152 193 240 289 350
#     4   9  20  40  61  82 114 153 197 250 300 349
#     4   9  17  27  49  81 115 150 184 225 277 342
#
# _framework density 21.837316000000001
#
# number of rings (size 3 to 8) (size 9 to 14) (size 15 to 20)
#    0.000    2.600    2.000    0.000    8.400    0.800 
#    0.000    2.000    0.000    2.400    0.000    0.000 
#    0.000    0.000    0.000    0.000    0.000    0.000 
#
# Total GULP energy -222691.478880 kJ/mol
# GULP energy per Si atom -5567.286972 kJ/mol
# Density = 2.178761 g / cm^3
# Si number density = 21.837316 Si / 1000 Ang^3
#
#
#
# Elastic Constant Matrix: (Units=GPa)
#
#
# Indices 1 2 3 4 5 6 
#
# 1 85.5533 -0.8986 13.9064 0.0000 0.0000 0.0000
# 2 -0.8986 69.6034 10.7562 0.0000 0.0000 0.0000
# 3 13.9064 10.7562 66.7351 0.0000 0.0000 0.0000
# 4 0.0000 0.0000 0.0000 25.9048 0.0000 0.0000
# 5 0.0000 0.0000 0.0000 0.0000 23.4799 0.0000
# 6 0.0000 0.0000 0.0000 0.0000 0.0000 549.4962
#
#
#
# Elastic Compliance Matrix: (Units=1/GPa)
#
#
# Indices 1 2 3 4 5 6 
#
# 1 0.012120 0.000561 -0.002616 0.000000 0.000000 0.000000
# 2 0.000561 0.014760 -0.002496 0.000000 0.000000 0.000000
# 3 -0.002616 -0.002496 0.015932 0.000000 0.000000 0.000000
# 4 0.000000 0.000000 0.000000 0.038603 0.000000 0.000000
# 5 0.000000 0.000000 0.000000 0.000000 0.042590 0.000000
# 6 0.000000 0.000000 0.000000 0.000000 0.000000 0.001820
#
#
# Mechanical properties :
#
#
# Convention : Reuss Voigt Hill
#
# Bulk Modulus (GPa) = 29.66503 29.93553 29.80028
# Shear Modulus (GPa) = 34.20842 132.98469 83.59656
#
# Velocity S-wave (km/s) = 3.96221 7.81218 6.19392
# Velocity P-wave (km/s) = 5.87760 9.75252 8.05164
#
# Compressibility (1/GPa) = 0.03370973
#
# Stress axis : x y z
#
# Youngs Moduli (GPa) = 82.51018 67.75043 62.76675
#
# Poissons Ratio (x) = -0.03799 0.16419
# Poissons Ratio (y) = -0.04627 0.15666
# Poissons Ratio (z) = 0.21584 0.16909
#
# Static dielectric constant tensor:
#      x y z
#    x 1.732920 0.000000 0.000000 
#    y 0.000000 1.946980 0.000000 
#    z 0.000000 0.000000 1.786490 
# 
# From -- ./inp_files/21613.got.cif
#   From: 2010.05.17/outbox.cif.g08.bks.cpg/sg50_11_cif.got.tgz:21613.got - 2010.06.03 11:33:33.
