data_PCOD9396642
_publ_section_title
;
Structure prediction by ZEFSAII (Michael W. Deem and Ramdas Pophale) SiO2 
 PCOD9396642
Probable space group: P B A N
;
_chemical_formula_sum "Si O2"
_cell_formula_units_Z 24
_cell_length_a 4.932732
_cell_length_b 21.718062
_cell_length_c 10.017235
_cell_angle_alpha 90.000000
_cell_angle_beta 90.000000
_cell_angle_gamma 90.000000
_cell_volume 1073.140169
_symmetry_space_group_name_H-M "P B A N"
_symmetry_group_IT_number 50
_space_group.IT_coordinate_system_code '2'
_symmetry_cell_setting 'orthorhombic'
loop_
_space_group_symop_operation_xyz
x,y,z
1/2-x,1/2-y,z
x,1/2-y,-z
1/2-x,y,-z
-x,-y,-z
1/2+x,1/2+y,-z
-x,1/2+y,z
1/2+x,-y,z
loop_
_atom_site_type_symbol
_atom_site_label
_atom_site_fract_x
_atom_site_fract_y
_atom_site_fract_z
Si Si1 0.270498 0.464687 0.338280
Si Si2 0.250000 0.250000 0.000000
Si Si3 0.250000 0.750000 0.813573
Si Si4 0.617218 0.350280 0.362143
Si Si5 0.750000 0.750000 0.500000
O O1 0.250000 0.463672 0.500000
O O2 0.467448 0.520518 0.293570
O O3 0.425742 0.402491 0.301280
O O4 0.484106 0.227265 0.895561
O O5 0.177424 0.687166 0.732228
O O6 0.750000 0.375257 0.500000
O O7 0.433584 0.294270 0.412769
#
# Coordination Sequence:
#
# PCOD9396642 Si02
#       5
#     8   2   4   8   2
#     4  10  21  34  50  79 124 165 191 221 277 361
#     4  10  26  42  58  82 116 160 204 236 304 348
#     4  11  23  42  60  86 117 155 198 250 292 361
#     4  12  22  34  59  91 124 155 188 240 303 357
#     4  12  20  32  48  96 124 152 188 224 306 354
#
# _framework density 22.364273000000001
#
# number of rings (size 3 to 8) (size 9 to 14) (size 15 to 20)
#    0.000    1.000    5.000    4.000    0.000    0.000 
#    0.000    0.000    0.000    0.000    0.000   23.333 
#    0.000    0.000    0.000    0.000    0.000    0.000 
#
# Total GULP energy -133605.301916 kJ/mol
# GULP energy per Si atom -5566.887580 kJ/mol
# Density = 2.231337 g / cm^3
# Si number density = 22.364273 Si / 1000 Ang^3
#
#
#
# Elastic Constant Matrix: (Units=GPa)
#
#
# Indices 1 2 3 4 5 6 
#
# 1 122.1773 26.1317 3.8425 0.0000 0.0000 0.0000
# 2 26.1317 111.2402 8.5637 0.0000 0.0000 0.0000
# 3 3.8425 8.5637 37.9929 0.0000 0.0000 0.0000
# 4 0.0000 0.0000 0.0000 14.4169 0.0000 0.0000
# 5 0.0000 0.0000 0.0000 0.0000 25.5266 0.0000
# 6 0.0000 0.0000 0.0000 0.0000 0.0000 23.9491
#
#
#
# Elastic Compliance Matrix: (Units=1/GPa)
#
#
# Indices 1 2 3 4 5 6 
#
# 1 0.008624 -0.001993 -0.000423 0.000000 0.000000 0.000000
# 2 -0.001993 0.009609 -0.001964 0.000000 0.000000 0.000000
# 3 -0.000423 -0.001964 0.026806 0.000000 0.000000 0.000000
# 4 0.000000 0.000000 0.000000 0.069363 0.000000 0.000000
# 5 0.000000 0.000000 0.000000 0.000000 0.039175 0.000000
# 6 0.000000 0.000000 0.000000 0.000000 0.000000 0.041755
#
#
# Mechanical properties :
#
#
# Convention : Reuss Voigt Hill
#
# Bulk Modulus (GPa) = 27.56455 38.72069 33.14262
# Shear Modulus (GPa) = 23.12810 28.30334 25.71572
#
# Velocity S-wave (km/s) = 3.21931 3.56133 3.39463
# Velocity P-wave (km/s) = 5.11573 5.85337 5.49694
#
# Compressibility (1/GPa) = 0.03627848
#
# Stress axis : x y z
#
# Youngs Moduli (GPa) = 115.94890 104.06845 37.30471
#
# Poissons Ratio (x) = 0.20745 0.01578
# Poissons Ratio (y) = 0.23114 0.07328
# Poissons Ratio (z) = 0.04904 0.20442
#
# Static dielectric constant tensor:
#      x y z
#    x 1.879040 0.000000 0.000000 
#    y 0.000000 1.844380 0.000000 
#    z 0.000000 0.000000 2.067790 
# 
# From -- ./inp_files/17460.got.cif
#   From: 2010.05.17/outbox.cif.g08.bks.cpg/sg50_9_cif.got.tgz:17460.got - 2010.06.03 11:33:33.
