data_PCOD9396515
_publ_section_title
;
Structure prediction by ZEFSAII (Michael W. Deem and Ramdas Pophale) SiO2 
 PCOD9396515
Probable space group: P B A N
;
_chemical_formula_sum "Si O2"
_cell_formula_units_Z 46
_cell_length_a 16.511816
_cell_length_b 8.403181
_cell_length_c 17.385953
_cell_angle_alpha 90.000000
_cell_angle_beta 90.000000
_cell_angle_gamma 90.000000
_cell_volume 2412.331899
_symmetry_space_group_name_H-M "P B A N"
_symmetry_group_IT_number 50
_space_group.IT_coordinate_system_code '2'
_symmetry_cell_setting 'orthorhombic'
loop_
_space_group_symop_operation_xyz
x,y,z
1/2-x,1/2-y,z
x,1/2-y,-z
1/2-x,y,-z
-x,-y,-z
1/2+x,1/2+y,-z
-x,1/2+y,z
1/2+x,-y,z
loop_
_atom_site_type_symbol
_atom_site_label
_atom_site_fract_x
_atom_site_fract_y
_atom_site_fract_z
Si Si1 0.895311 0.943676 0.918817
Si Si2 0.609724 0.250000 0.500000
Si Si3 0.250000 0.250000 0.000000
Si Si4 0.987875 0.335888 0.352872
Si Si5 0.145727 0.087046 0.550531
Si Si6 0.593342 0.893759 0.260652
Si Si7 0.750000 0.750000 0.665076
Si Si8 0.037092 0.750000 0.000000
O O1 0.899123 0.946880 0.826912
O O2 0.974245 0.840956 0.943959
O O3 0.812813 0.858909 0.949962
O O4 0.909440 0.116807 0.956986
O O5 0.556568 0.250102 0.422825
O O6 0.651658 0.422987 0.495944
O O7 0.926575 0.461031 0.316798
O O8 0.065784 0.409984 0.395893
O O9 0.021522 0.228474 0.283231
O O10 0.141372 0.250000 0.500000
O O11 0.219585 0.110850 0.608793
O O12 0.675906 0.808941 0.284728
#
# Coordination Sequence:
#
# PCOD9396515 Si02
#       8
#     8   4   2   8   8   8   4   4
#     4  10  20  39  64  96 124 163 198 256 307 384
#     4  12  20  38  65  85 116 164 224 272 302 383
#     4  10  22  38  68  92 124 174 208 218 318 394
#     4  11  21  36  61  91 113 159 215 263 312 368
#     4  11  22  39  61  84 120 161 219 275 319 365
#     4  11  22  39  63  87 128 156 204 258 324 364
#     4  10  24  40  54  86 128 164 202 264 325 381
#     4   9  20  38  66  97 124 148 212 249 306 376
#
# _framework density 19.068686
#
# number of rings (size 3 to 8) (size 9 to 14) (size 15 to 20)
#    0.000    1.391    2.609    4.435    0.000    0.348 
#    0.000    6.957    3.826    0.000    0.000    0.000 
#    0.000    0.000    0.000    0.000    0.000    0.000 
#
# Total GULP energy -256551.114615 kJ/mol
# GULP energy per Si atom -5577.198144 kJ/mol
# Density = 1.902528 g / cm^3
# Si number density = 19.068686 Si / 1000 Ang^3
#
#
#
# Elastic Constant Matrix: (Units=GPa)
#
#
# Indices 1 2 3 4 5 6 
#
# 1 83.7643 40.9517 41.1705 0.0000 0.0000 0.0000
# 2 40.9517 125.7478 47.6461 0.0000 0.0000 0.0000
# 3 41.1705 47.6461 105.5910 0.0000 0.0000 0.0000
# 4 0.0000 0.0000 0.0000 22.5470 0.0000 0.0000
# 5 0.0000 0.0000 0.0000 0.0000 15.7931 0.0000
# 6 0.0000 0.0000 0.0000 0.0000 0.0000 33.7451
#
#
#
# Elastic Compliance Matrix: (Units=1/GPa)
#
#
# Indices 1 2 3 4 5 6 
#
# 1 0.015896 -0.003412 -0.004658 0.000000 0.000000 0.000000
# 2 -0.003412 0.010325 -0.003329 0.000000 0.000000 0.000000
# 3 -0.004658 -0.003329 0.012789 0.000000 0.000000 0.000000
# 4 0.000000 0.000000 0.000000 0.044352 0.000000 0.000000
# 5 0.000000 0.000000 0.000000 0.000000 0.063319 0.000000
# 6 0.000000 0.000000 0.000000 0.000000 0.000000 0.029634
#
#
# Mechanical properties :
#
#
# Convention : Reuss Voigt Hill
#
# Bulk Modulus (GPa) = 61.68277 63.84886 62.76581
# Shear Modulus (GPa) = 24.44803 26.77267 25.61035
#
# Velocity S-wave (km/s) = 3.58453 3.75108 3.66875
# Velocity P-wave (km/s) = 7.03916 7.23306 7.13677
#
# Compressibility (1/GPa) = 0.01621198
#
# Stress axis : x y z
#
# Youngs Moduli (GPa) = 62.90965 96.85502 78.19318
#
# Poissons Ratio (x) = 0.33043 0.36426
# Poissons Ratio (y) = 0.21462 0.26028
# Poissons Ratio (z) = 0.29306 0.32240
#
# Static dielectric constant tensor:
#      x y z
#    x 1.667760 0.000000 0.000000 
#    y 0.000000 1.712400 0.000000 
#    z 0.000000 0.000000 1.629190 
# 
# From -- ./inp_files/29666.got.cif
#   From: 2010.05.17/outbox.cif.g08.bks.cpg/sg50_15_cif.got.tgz:29666.got - 2010.06.03 11:33:33.
