data_PCOD9396727
_publ_section_title
;
Structure prediction by ZEFSAII (Michael W. Deem and Ramdas Pophale) SiO2 
 PCOD9396727
Probable space group: P B A N
;
_chemical_formula_sum "Si O2"
_cell_formula_units_Z 38
_cell_length_a 16.189787
_cell_length_b 5.230148
_cell_length_c 20.839638
_cell_angle_alpha 90.000000
_cell_angle_beta 90.000000
_cell_angle_gamma 90.000000
_cell_volume 1764.595975
_symmetry_space_group_name_H-M "P B A N"
_symmetry_group_IT_number 50
_space_group.IT_coordinate_system_code '2'
_symmetry_cell_setting 'orthorhombic'
loop_
_space_group_symop_operation_xyz
x,y,z
1/2-x,1/2-y,z
x,1/2-y,-z
1/2-x,y,-z
-x,-y,-z
1/2+x,1/2+y,-z
-x,1/2+y,z
1/2+x,-y,z
loop_
_atom_site_type_symbol
_atom_site_label
_atom_site_fract_x
_atom_site_fract_y
_atom_site_fract_z
Si Si1 0.668418 0.594163 0.105640
Si Si2 0.250000 0.750000 0.000000
Si Si3 0.849460 0.741158 0.298528
Si Si4 0.850195 0.264921 0.773389
Si Si5 0.057284 0.228956 0.428588
Si Si6 0.445006 0.250000 0.000000
O O1 0.750000 0.750000 0.130131
O O2 0.697975 0.424049 0.046523
O O3 0.632531 0.401186 0.158515
O O4 0.605509 0.772206 0.067399
O O5 0.750000 0.750000 0.296628
O O6 0.878167 0.516038 0.249421
O O7 0.879703 0.697342 0.370359
O O8 0.879449 0.020307 0.276588
O O9 0.750000 0.250000 0.772264
O O10 0.095694 0.250000 0.500000
O O11 0.003752 0.487256 0.423600
O O12 0.500000 0.500000 0.000000
#
# Coordination Sequence:
#
# PCOD9396727 Si02
#       6
#     8   2   8   8   8   4
#     4  12  23  41  67  94 116 166 227 266 313 393
#     4  12  20  36  72  96 112 150 236 278 306 366
#     4  10  21  38  59  92 124 160 195 252 319 363
#     4  10  21  36  62  91 123 152 203 263 305 368
#     4  10  21  39  63  90 123 166 213 254 294 360
#     4  12  28  44  59  89 134 162 196 272 350 388
#
# _framework density 21.534676000000001
#
# number of rings (size 3 to 8) (size 9 to 14) (size 15 to 20)
#    0.000    1.263    3.158    3.789    0.000    0.421 
#    0.000    6.316    0.000    7.579    0.000    0.000 
#    0.000    0.000    0.000    0.000    0.000    0.000 
#
# Total GULP energy -212176.748771 kJ/mol
# GULP energy per Si atom -5583.598652 kJ/mol
# Density = 2.148566 g / cm^3
# Si number density = 21.534676 Si / 1000 Ang^3
#
#
#
# Elastic Constant Matrix: (Units=GPa)
#
#
# Indices 1 2 3 4 5 6 
#
# 1 33.0921 26.9573 31.1706 0.0000 0.0000 0.0000
# 2 26.9573 142.4324 35.2393 0.0000 0.0000 0.0000
# 3 31.1706 35.2393 152.3590 0.0000 0.0000 0.0000
# 4 0.0000 0.0000 0.0000 70.5580 0.0000 0.0000
# 5 0.0000 0.0000 0.0000 0.0000 -16.3922 0.0000
# 6 0.0000 0.0000 0.0000 0.0000 0.0000 20.3053
#
#
#
# Elastic Compliance Matrix: (Units=1/GPa)
#
#
# Indices 1 2 3 4 5 6 
#
# 1 0.041998 -0.006176 -0.007164 0.000000 0.000000 0.000000
# 2 -0.006176 0.008355 -0.000669 0.000000 0.000000 0.000000
# 3 -0.007164 -0.000669 0.008184 0.000000 0.000000 0.000000
# 4 0.000000 0.000000 0.000000 0.014173 0.000000 0.000000
# 5 0.000000 0.000000 0.000000 0.000000 -0.061005 0.000000
# 6 0.000000 0.000000 0.000000 0.000000 0.000000 0.049248
#
#
# Mechanical properties :
#
#
# Convention : Reuss Voigt Hill
#
# Bulk Modulus (GPa) = 32.76645 57.17977 44.97311
# Shear Modulus (GPa) = 50.43185 30.52864 40.48024
#
# Velocity S-wave (km/s) = 4.84456 3.76925 4.34034
# Velocity P-wave (km/s) = 6.82215 6.74930 6.78582
#
# Compressibility (1/GPa) = 0.03051902
#
# Stress axis : x y z
#
# Youngs Moduli (GPa) = 23.81089 119.68428 122.19345
#
# Poissons Ratio (x) = 0.73920 0.87535
# Poissons Ratio (y) = 0.14706 0.08174
# Poissons Ratio (z) = 0.17057 0.08006
#
# Static dielectric constant tensor:
#      x y z
#    x 1.659940 0.000000 0.000000 
#    y 0.000000 1.780020 0.000000 
#    z 0.000000 0.000000 1.720480 
# 
# From -- ./inp_files/29618.got.cif
#   From: 2010.05.17/outbox.cif.g08.bks.cpg/sg50_15_cif.got.tgz:29618.got - 2010.06.03 11:33:33.
