data_PCOD9396968
_publ_section_title
;
Structure prediction by ZEFSAII (Michael W. Deem and Ramdas Pophale) SiO2 
 PCOD9396968
Probable space group: P B A N
;
_chemical_formula_sum "Si O2"
_cell_formula_units_Z 64
_cell_length_a 22.324454
_cell_length_b 8.768966
_cell_length_c 15.949962
_cell_angle_alpha 90.000000
_cell_angle_beta 90.000000
_cell_angle_gamma 90.000000
_cell_volume 3122.402492
_symmetry_space_group_name_H-M "P B A N"
_symmetry_group_IT_number 50
_space_group.IT_coordinate_system_code '2'
_symmetry_cell_setting 'orthorhombic'
loop_
_space_group_symop_operation_xyz
x,y,z
1/2-x,1/2-y,z
x,1/2-y,-z
1/2-x,y,-z
-x,-y,-z
1/2+x,1/2+y,-z
-x,1/2+y,z
1/2+x,-y,z
loop_
_atom_site_type_symbol
_atom_site_label
_atom_site_fract_x
_atom_site_fract_y
_atom_site_fract_z
Si Si1 0.672253 0.384335 0.566595
Si Si2 0.566008 0.927952 0.519860
Si Si3 0.921877 0.350912 0.293825
Si Si4 0.243714 0.932528 0.714790
Si Si5 0.349738 0.456101 0.170543
Si Si6 0.635440 0.906152 0.805167
Si Si7 0.182359 0.433515 0.011370
Si Si8 0.536718 0.480306 0.301609
O O1 0.685425 0.250000 0.500000
O O2 0.624878 0.501135 0.524682
O O3 0.630960 0.317376 0.641137
O O4 0.728722 0.453331 0.619584
O O5 0.562123 0.750000 0.500000
O O6 0.500000 0.000000 0.500000
O O7 0.573164 0.961377 0.618116
O O8 0.893898 0.423160 0.212005
O O9 0.958684 0.198035 0.287262
O O10 0.968876 0.477349 0.322045
O O11 0.250000 0.750000 0.727426
O O12 0.286947 0.009448 0.783616
O O13 0.179900 0.008032 0.738717
O O14 0.360011 0.277700 0.191877
O O15 0.351518 0.484308 0.071745
O O16 0.567912 0.945013 0.778748
O O17 0.654726 0.964090 0.897727
O O18 0.185255 0.250000 0.000000
O O19 0.250000 0.492378 0.000000
#
# Coordination Sequence:
#
# PCOD9396968 Si02
#       8
#     8   8   8   8   8   8   8   8
#     4  11  23  43  62  87 122 167 209 265 312 377
#     4  12  24  40  64  93 123 159 213 261 319 376
#     4  11  23  40  64  94 126 164 217 263 334 374
#     4  11  24  40  60  89 127 167 213 255 322 377
#     4  10  21  40  68  92 128 166 216 267 317 387
#     4  11  22  40  65  97 129 169 210 267 324 388
#     4   9  17  36  63  95 126 166 215 261 318 383
#     4  12  24  40  64  94 129 162 211 269 323 391
#
# _framework density 20.497036000000001
#
# number of rings (size 3 to 8) (size 9 to 14) (size 15 to 20)
#    0.000    1.125    3.750    3.750    3.500    0.250 
#    0.000    3.750    0.000    0.750    0.000    0.000 
#    0.000    0.000    0.000    0.000    0.000    0.000 
#
# Total GULP energy -356941.049784 kJ/mol
# GULP energy per Si atom -5577.203903 kJ/mol
# Density = 2.045038 g / cm^3
# Si number density = 20.497036 Si / 1000 Ang^3
#
#
#
# Elastic Constant Matrix: (Units=GPa)
#
#
# Indices 1 2 3 4 5 6 
#
# 1 52.2610 12.9664 36.9190 0.0000 0.0000 0.0000
# 2 12.9664 90.5634 25.2881 0.0000 0.0000 0.0000
# 3 36.9190 25.2881 141.4865 0.0000 0.0000 0.0000
# 4 0.0000 0.0000 0.0000 22.6781 0.0000 0.0000
# 5 0.0000 0.0000 0.0000 0.0000 19.2370 0.0000
# 6 0.0000 0.0000 0.0000 0.0000 0.0000 35.3955
#
#
#
# Elastic Compliance Matrix: (Units=1/GPa)
#
#
# Indices 1 2 3 4 5 6 
#
# 1 0.023721 -0.001756 -0.005876 0.000000 0.000000 0.000000
# 2 -0.001756 0.011752 -0.001642 0.000000 0.000000 0.000000
# 3 -0.005876 -0.001642 0.008895 0.000000 0.000000 0.000000
# 4 0.000000 0.000000 0.000000 0.044095 0.000000 0.000000
# 5 0.000000 0.000000 0.000000 0.000000 0.051983 0.000000
# 6 0.000000 0.000000 0.000000 0.000000 0.000000 0.028252
#
#
# Mechanical properties :
#
#
# Convention : Reuss Voigt Hill
#
# Bulk Modulus (GPa) = 38.72953 48.29531 43.51242
# Shear Modulus (GPa) = 25.52933 29.40460 27.46697
#
# Velocity S-wave (km/s) = 3.53301 3.79169 3.66464
# Velocity P-wave (km/s) = 5.96482 6.54083 6.25946
#
# Compressibility (1/GPa) = 0.02582009
#
# Stress axis : x y z
#
# Youngs Moduli (GPa) = 42.15618 85.09234 112.42761
#
# Poissons Ratio (x) = 0.14938 0.66062
# Poissons Ratio (y) = 0.07401 0.18465
# Poissons Ratio (z) = 0.24771 0.13975
#
# Static dielectric constant tensor:
#      x y z
#    x 1.757440 0.000000 0.000000 
#    y 0.000000 1.710070 0.000000 
#    z 0.000000 0.000000 1.923880 
# 
# From -- ./inp_files/27482.got.cif
#   From: 2010.05.17/outbox.cif.g08.bks.cpg/sg50_14_cif.got.tgz:27482.got - 2010.06.03 11:33:33.
