data_PCOD9396784
_publ_section_title
;
Structure prediction by ZEFSAII (Michael W. Deem and Ramdas Pophale) SiO2 
 PCOD9396784
Probable space group: P B A N
;
_chemical_formula_sum "Si O2"
_cell_formula_units_Z 38
_cell_length_a 8.689060
_cell_length_b 11.976874
_cell_length_c 18.091498
_cell_angle_alpha 90.000000
_cell_angle_beta 90.000000
_cell_angle_gamma 90.000000
_cell_volume 1882.741976
_symmetry_space_group_name_H-M "P B A N"
_symmetry_group_IT_number 50
_space_group.IT_coordinate_system_code '2'
_symmetry_cell_setting 'orthorhombic'
loop_
_space_group_symop_operation_xyz
x,y,z
1/2-x,1/2-y,z
x,1/2-y,-z
1/2-x,y,-z
-x,-y,-z
1/2+x,1/2+y,-z
-x,1/2+y,z
1/2+x,-y,z
loop_
_atom_site_type_symbol
_atom_site_label
_atom_site_fract_x
_atom_site_fract_y
_atom_site_fract_z
Si Si1 0.594821 0.007876 0.215217
Si Si2 0.250000 0.042448 0.500000
Si Si3 0.250000 0.250000 0.000000
Si Si4 0.162652 0.646231 0.281628
Si Si5 0.832527 0.859306 0.142389
Si Si6 0.538502 0.347152 0.440074
O O1 0.702149 0.052542 0.281905
O O2 0.487615 0.104389 0.181933
O O3 0.478837 0.911119 0.240250
O O4 0.711600 0.959116 0.154609
O O5 0.139722 0.117798 0.449029
O O6 0.362955 0.958780 0.456605
O O7 0.152140 0.174535 0.943406
O O8 0.250000 0.750000 0.244799
O O9 0.094471 0.687679 0.359333
O O10 0.750000 0.750000 0.176890
O O11 0.568537 0.250000 0.500000
#
# Coordination Sequence:
#
# PCOD9396784 Si02
#       6
#     8   4   2   8   8   8
#     4  10  21  37  62  83 124 156 196 246 284 357
#     4  10  22  38  58  80 112 148 186 250 294 368
#     4   8  20  36  64  86 130 160 182 238 284 352
#     4  11  22  37  59  88 112 159 199 244 303 343
#     4   9  19  38  57  90 121 158 195 236 287 339
#     4  11  22  39  58  82 116 149 195 252 299 357
#
# _framework density 20.183327999999999
#
# number of rings (size 3 to 8) (size 9 to 14) (size 15 to 20)
#    0.632    1.263    0.000    4.421    0.000    2.526 
#    0.000    6.316    0.000    2.526    0.000    0.000 
#    0.000    0.000    0.000    0.000    0.000    0.000 
#
# Total GULP energy -211708.025242 kJ/mol
# GULP energy per Si atom -5571.263822 kJ/mol
# Density = 2.013739 g / cm^3
# Si number density = 20.183328 Si / 1000 Ang^3
#
#
#
# Elastic Constant Matrix: (Units=GPa)
#
#
# Indices 1 2 3 4 5 6 
#
# 1 139.3967 41.7218 42.5591 0.0000 0.0000 0.0000
# 2 41.7218 74.8317 28.0742 0.0000 0.0000 0.0000
# 3 42.5591 28.0742 90.8136 0.0000 0.0000 0.0000
# 4 0.0000 0.0000 0.0000 32.2424 0.0000 0.0000
# 5 0.0000 0.0000 0.0000 0.0000 15.5297 0.0000
# 6 0.0000 0.0000 0.0000 0.0000 0.0000 45.1547
#
#
#
# Elastic Compliance Matrix: (Units=1/GPa)
#
#
# Indices 1 2 3 4 5 6 
#
# 1 0.009336 -0.004031 -0.003129 0.000000 0.000000 0.000000
# 2 -0.004031 0.016857 -0.003322 0.000000 0.000000 0.000000
# 3 -0.003129 -0.003322 0.013505 0.000000 0.000000 0.000000
# 4 0.000000 0.000000 0.000000 0.031015 0.000000 0.000000
# 5 0.000000 0.000000 0.000000 0.000000 0.064393 0.000000
# 6 0.000000 0.000000 0.000000 0.000000 0.000000 0.022146
#
#
# Mechanical properties :
#
#
# Convention : Reuss Voigt Hill
#
# Bulk Modulus (GPa) = 53.38038 58.86136 56.12087
# Shear Modulus (GPa) = 27.10613 31.43114 29.26864
#
# Velocity S-wave (km/s) = 3.66867 3.95052 3.81220
# Velocity P-wave (km/s) = 6.66713 7.07358 6.87336
#
# Compressibility (1/GPa) = 0.01873348
#
# Stress axis : x y z
#
# Youngs Moduli (GPa) = 107.11712 59.32188 74.04741
#
# Poissons Ratio (x) = 0.23914 0.23168
# Poissons Ratio (y) = 0.43180 0.24599
# Poissons Ratio (z) = 0.33515 0.19707
#
# Static dielectric constant tensor:
#      x y z
#    x 1.731140 0.000000 0.000000 
#    y 0.000000 1.758880 0.000000 
#    z 0.000000 0.000000 1.700740 
# 
# From -- ./inp_files/28521.got.cif
#   From: 2010.05.17/outbox.cif.g08.bks.cpg/sg50_15_cif.got.tgz:28521.got - 2010.06.03 11:33:33.
