data_PCOD9396732
_publ_section_title
;
Structure prediction by ZEFSAII (Michael W. Deem and Ramdas Pophale) SiO2 
 PCOD9396732
Probable space group: P B A N
;
_chemical_formula_sum "Si O2"
_cell_formula_units_Z 64
_cell_length_a 17.343557
_cell_length_b 22.060348
_cell_length_c 8.493730
_cell_angle_alpha 90.000000
_cell_angle_beta 90.000000
_cell_angle_gamma 90.000000
_cell_volume 3249.742743
_symmetry_space_group_name_H-M "P B A N"
_symmetry_group_IT_number 50
_space_group.IT_coordinate_system_code '2'
_symmetry_cell_setting 'orthorhombic'
loop_
_space_group_symop_operation_xyz
x,y,z
1/2-x,1/2-y,z
x,1/2-y,-z
1/2-x,y,-z
-x,-y,-z
1/2+x,1/2+y,-z
-x,1/2+y,z
1/2+x,-y,z
loop_
_atom_site_type_symbol
_atom_site_label
_atom_site_fract_x
_atom_site_fract_y
_atom_site_fract_z
Si Si1 0.935913 0.813880 0.051577
Si Si2 0.416900 0.932483 0.603584
Si Si3 0.336531 0.764006 0.187902
Si Si4 0.472348 0.699380 0.371241
Si Si5 0.936221 0.002506 0.283475
Si Si6 0.825736 0.056697 0.884537
Si Si7 0.925187 0.128014 0.115731
Si Si8 0.839493 0.565150 0.969177
O O1 0.883680 0.872165 0.024349
O O2 0.965405 0.810335 0.231711
O O3 0.900529 0.750000 0.000000
O O4 0.008386 0.826065 0.935488
O O5 0.448100 0.865759 0.558250
O O6 0.410519 0.977071 0.456185
O O7 0.336528 0.930064 0.700380
O O8 0.487711 0.961039 0.706500
O O9 0.250000 0.750000 0.236661
O O10 0.396790 0.724855 0.284273
O O11 0.361652 0.833823 0.210040
O O12 0.341665 0.750000 0.000000
O O13 0.495806 0.750000 0.500000
O O14 0.952882 0.066359 0.196500
O O15 0.868099 0.967671 0.191467
O O16 0.750000 0.060025 0.000000
O O17 0.883375 0.105059 0.959204
O O18 0.856723 0.988246 0.906392
O O19 0.750000 0.577202 0.000000
#
# Coordination Sequence:
#
# PCOD9396732 Si02
#       8
#     8   8   8   8   8   8   8   8
#     4  12  22  39  65  93 123 162 216 275 320 383
#     4  11  21  38  63  97 130 166 212 261 324 394
#     4  11  22  36  58  85 124 171 210 254 302 371
#     4  12  23  39  59  90 130 170 210 257 313 383
#     4  10  22  38  65  94 130 165 208 268 331 388
#     4  10  21  36  63  93 124 170 208 264 319 381
#     4  11  19  36  59  91 121 163 219 259 315 375
#     4  10  22  43  64  93 123 162 216 274 335 389
#
# _framework density 19.693866
#
# number of rings (size 3 to 8) (size 9 to 14) (size 15 to 20)
#    0.000    1.125    5.000    1.500    3.500    2.500 
#    0.000    5.625    0.000    0.000    0.000    0.875 
#    0.000    0.000    0.000    0.000    0.000    0.000 
#
# Total GULP energy -356972.626219 kJ/mol
# GULP energy per Si atom -5577.697285 kJ/mol
# Density = 1.964904 g / cm^3
# Si number density = 19.693866 Si / 1000 Ang^3
#
#
#
# Elastic Constant Matrix: (Units=GPa)
#
#
# Indices 1 2 3 4 5 6 
#
# 1 59.0735 26.1613 22.9085 0.0000 0.0000 0.0000
# 2 26.1613 135.8336 5.1766 0.0000 0.0000 0.0000
# 3 22.9085 5.1766 47.9319 0.0000 0.0000 0.0000
# 4 0.0000 0.0000 0.0000 29.2105 0.0000 0.0000
# 5 0.0000 0.0000 0.0000 0.0000 21.3727 0.0000
# 6 0.0000 0.0000 0.0000 0.0000 0.0000 24.7821
#
#
#
# Elastic Compliance Matrix: (Units=1/GPa)
#
#
# Indices 1 2 3 4 5 6 
#
# 1 0.022739 -0.003982 -0.010438 0.000000 0.000000 0.000000
# 2 -0.003982 0.008090 0.001029 0.000000 0.000000 0.000000
# 3 -0.010438 0.001029 0.025740 0.000000 0.000000 0.000000
# 4 0.000000 0.000000 0.000000 0.034234 0.000000 0.000000
# 5 0.000000 0.000000 0.000000 0.000000 0.046789 0.000000
# 6 0.000000 0.000000 0.000000 0.000000 0.000000 0.040352
#
#
# Mechanical properties :
#
#
# Convention : Reuss Voigt Hill
#
# Bulk Modulus (GPa) = 33.56984 39.03686 36.30335
# Shear Modulus (GPa) = 23.29330 27.64592 25.46961
#
# Velocity S-wave (km/s) = 3.44287 3.75077 3.60012
# Velocity P-wave (km/s) = 5.73475 6.21471 5.97955
#
# Compressibility (1/GPa) = 0.02978865
#
# Stress axis : x y z
#
# Youngs Moduli (GPa) = 43.97688 123.61554 38.84931
#
# Poissons Ratio (x) = 0.49221 0.40551
# Poissons Ratio (y) = 0.17510 -0.03999
# Poissons Ratio (z) = 0.45903 -0.12725
#
# Static dielectric constant tensor:
#      x y z
#    x 1.717410 0.000000 0.000000 
#    y 0.000000 1.714020 0.000000 
#    z 0.000000 0.000000 1.756220 
# 
# From -- ./inp_files/14622.got.cif
#   From: 2010.05.17/outbox.cif.g08.bks.cpg/sg50_8_cif.got.tgz:14622.got - 2010.06.03 11:33:33.
