data_PCOD9396914
_publ_section_title
;
Structure prediction by ZEFSAII (Michael W. Deem and Ramdas Pophale) SiO2 
 PCOD9396914
Probable space group: P B A N
;
_chemical_formula_sum "Si O2"
_cell_formula_units_Z 60
_cell_length_a 13.032707
_cell_length_b 11.081763
_cell_length_c 20.126934
_cell_angle_alpha 90.000000
_cell_angle_beta 90.000000
_cell_angle_gamma 90.000000
_cell_volume 2906.839894
_symmetry_space_group_name_H-M "P B A N"
_symmetry_group_IT_number 50
_space_group.IT_coordinate_system_code '2'
_symmetry_cell_setting 'orthorhombic'
loop_
_space_group_symop_operation_xyz
x,y,z
1/2-x,1/2-y,z
x,1/2-y,-z
1/2-x,y,-z
-x,-y,-z
1/2+x,1/2+y,-z
-x,1/2+y,z
1/2+x,-y,z
loop_
_atom_site_type_symbol
_atom_site_label
_atom_site_fract_x
_atom_site_fract_y
_atom_site_fract_z
Si Si1 0.575544 0.093898 0.747533
Si Si2 0.250000 0.250000 0.761167
Si Si3 0.611902 0.916677 0.152001
Si Si4 0.114062 0.123210 0.653007
Si Si5 0.093078 0.728076 0.633049
Si Si6 0.267563 0.564633 0.578061
Si Si7 0.463718 0.622209 0.962195
Si Si8 0.273491 0.609490 0.866031
O O1 0.477497 0.073677 0.793551
O O2 0.587037 0.221216 0.708717
O O3 0.673298 0.079276 0.795370
O O4 0.569097 0.992676 0.691353
O O5 0.299204 0.154331 0.810571
O O6 0.163543 0.201727 0.711259
O O7 0.554761 0.853059 0.090978
O O8 0.667528 0.037447 0.126834
O O9 0.022348 0.190848 0.616063
O O10 0.199277 0.065171 0.605512
O O11 0.170940 0.617807 0.619386
O O12 0.142371 0.837317 0.591252
O O13 0.250000 0.561584 0.500000
O O14 0.359177 0.587999 0.922648
O O15 0.447661 0.750000 0.000000
O O16 0.500000 0.500000 0.000000
O O17 0.250000 0.750000 0.866690
#
# Coordination Sequence:
#
# PCOD9396914 Si02
#       8
#     8   4   8   8   8   8   8   8
#     4  10  23  37  62 101 130 165 216 276 338 418
#     4  12  24  42  62 104 140 166 224 280 358 418
#     4  11  25  42  69  99 138 173 219 287 344 406
#     4  11  24  38  66  98 136 172 218 287 344 401
#     4  10  21  39  66  92 131 176 219 276 349 397
#     4  10  24  44  66  96 130 181 238 274 327 427
#     4  11  27  49  69  99 139 182 242 289 336 423
#     4  11  25  42  70  98 133 182 221 279 347 411
#
# _framework density 20.640972000000001
#
# number of rings (size 3 to 8) (size 9 to 14) (size 15 to 20)
#    0.000    1.333    2.667    1.600    9.333    2.400 
#    0.000    1.667    0.000    0.000    0.000    0.000 
#    0.000    0.000    0.000    0.000    0.000    0.000 
#
# Total GULP energy -334901.704612 kJ/mol
# GULP energy per Si atom -5581.695077 kJ/mol
# Density = 2.059399 g / cm^3
# Si number density = 20.640972 Si / 1000 Ang^3
#
#
#
# Elastic Constant Matrix: (Units=GPa)
#
#
# Indices 1 2 3 4 5 6 
#
# 1 75.6893 26.2753 37.1376 0.0000 0.0000 0.0000
# 2 26.2753 60.4766 33.0753 0.0000 0.0000 0.0000
# 3 37.1376 33.0753 89.8383 0.0000 0.0000 0.0000
# 4 0.0000 0.0000 0.0000 8.7161 0.0000 0.0000
# 5 0.0000 0.0000 0.0000 0.0000 7.9510 0.0000
# 6 0.0000 0.0000 0.0000 0.0000 0.0000 24.6350
#
#
#
# Elastic Compliance Matrix: (Units=1/GPa)
#
#
# Indices 1 2 3 4 5 6 
#
# 1 0.017529 -0.004574 -0.005562 0.000000 0.000000 0.000000
# 2 -0.004574 0.021898 -0.006171 0.000000 0.000000 0.000000
# 3 -0.005562 -0.006171 0.015702 0.000000 0.000000 0.000000
# 4 0.000000 0.000000 0.000000 0.114730 0.000000 0.000000
# 5 0.000000 0.000000 0.000000 0.000000 0.125771 0.000000
# 6 0.000000 0.000000 0.000000 0.000000 0.000000 0.040593
#
#
# Mechanical properties :
#
#
# Convention : Reuss Voigt Hill
#
# Bulk Modulus (GPa) = 44.41578 46.55341 45.48460
# Shear Modulus (GPa) = 13.28582 16.89482 15.09032
#
# Velocity S-wave (km/s) = 2.53980 2.86406 2.70679
# Velocity P-wave (km/s) = 5.49234 5.79137 5.64384
#
# Compressibility (1/GPa) = 0.02251452
#
# Stress axis : x y z
#
# Youngs Moduli (GPa) = 57.04898 45.66711 63.68428
#
# Poissons Ratio (x) = 0.20887 0.35423
# Poissons Ratio (y) = 0.26093 0.39301
# Poissons Ratio (z) = 0.31732 0.28182
#
# Static dielectric constant tensor:
#      x y z
#    x 2.687700 0.000000 0.000000 
#    y 0.000000 1.762100 0.000000 
#    z 0.000000 0.000000 1.740720 
# 
# From -- ./inp_files/30880.got.cif
#   From: 2010.05.17/outbox.cif.g08.bks.cpg/sg50_16_cif.got.tgz:30880.got - 2010.06.03 11:33:33.
