data_PCOD9396222
_publ_section_title
;
Structure prediction by ZEFSAII (Michael W. Deem and Ramdas Pophale) SiO2 
 PCOD9396222
Probable space group: P B A N
;
_chemical_formula_sum "Si O2"
_cell_formula_units_Z 36
_cell_length_a 28.654995
_cell_length_b 5.202943
_cell_length_c 12.670305
_cell_angle_alpha 90.000000
_cell_angle_beta 90.000000
_cell_angle_gamma 90.000000
_cell_volume 1889.019645
_symmetry_space_group_name_H-M "P B A N"
_symmetry_group_IT_number 50
_space_group.IT_coordinate_system_code '2'
_symmetry_cell_setting 'orthorhombic'
loop_
_space_group_symop_operation_xyz
x,y,z
1/2-x,1/2-y,z
x,1/2-y,-z
1/2-x,y,-z
-x,-y,-z
1/2+x,1/2+y,-z
-x,1/2+y,z
1/2+x,-y,z
loop_
_atom_site_type_symbol
_atom_site_label
_atom_site_fract_x
_atom_site_fract_y
_atom_site_fract_z
Si Si1 0.250000 0.250000 0.715900
Si Si2 0.303245 0.651451 0.384270
Si Si3 0.029454 0.741861 0.126207
Si Si4 0.180879 0.355773 0.112784
Si Si5 0.367863 0.835182 0.811220
O O1 0.209273 0.353986 0.639530
O O2 0.222173 0.084456 0.804178
O O3 0.250000 0.750000 0.363695
O O4 0.315143 0.750000 0.500000
O O5 0.342961 0.721141 0.300871
O O6 0.076739 0.809709 0.186876
O O7 0.009017 0.460505 0.148852
O O8 0.039336 0.750000 0.000000
O O9 0.151177 0.615058 0.110024
O O10 0.149732 0.118202 0.156047
O O11 0.197088 0.250000 0.000000
#
# Coordination Sequence:
#
# PCOD9396222 Si02
#       5
#     4   8   8   8   8
#     4  10  21  37  52  82 114 150 196 230 278 336
#     4  10  21  39  59  82 113 153 195 244 279 336
#     4  10  20  35  58  84 112 149 189 232 285 345
#     4  11  21  34  54  80 118 155 185 228 279 341
#     4  11  22  38  57  86 117 151 196 236 286 338
#
# _framework density 19.057503000000001
#
# number of rings (size 3 to 8) (size 9 to 14) (size 15 to 20)
#    0.000    1.556    2.222    3.667    0.000    3.556 
#    0.000    2.222    0.000    1.333    0.000    0.000 
#    0.000    0.000    0.000    0.000    0.000    0.000 
#
# Total GULP energy -200483.150498 kJ/mol
# GULP energy per Si atom -5568.976403 kJ/mol
# Density = 1.901413 g / cm^3
# Si number density = 19.057503 Si / 1000 Ang^3
#
#
#
# Elastic Constant Matrix: (Units=GPa)
#
#
# Indices 1 2 3 4 5 6 
#
# 1 88.8495 4.8581 45.6934 0.0000 0.0000 0.0000
# 2 4.8581 65.8327 25.4322 0.0000 0.0000 0.0000
# 3 45.6934 25.4322 131.6956 0.0000 0.0000 0.0000
# 4 0.0000 0.0000 0.0000 17.8477 0.0000 0.0000
# 5 0.0000 0.0000 0.0000 0.0000 23.8370 0.0000
# 6 0.0000 0.0000 0.0000 0.0000 0.0000 14.3168
#
#
#
# Elastic Compliance Matrix: (Units=1/GPa)
#
#
# Indices 1 2 3 4 5 6 
#
# 1 0.013748 0.000895 -0.004943 0.000000 0.000000 0.000000
# 2 0.000895 0.016473 -0.003492 0.000000 0.000000 0.000000
# 3 -0.004943 -0.003492 0.009983 0.000000 0.000000 0.000000
# 4 0.000000 0.000000 0.000000 0.056030 0.000000 0.000000
# 5 0.000000 0.000000 0.000000 0.000000 0.041952 0.000000
# 6 0.000000 0.000000 0.000000 0.000000 0.000000 0.069848
#
#
# Mechanical properties :
#
#
# Convention : Reuss Voigt Hill
#
# Bulk Modulus (GPa) = 39.80203 48.70502 44.25352
# Shear Modulus (GPa) = 21.59951 25.22657 23.41304
#
# Velocity S-wave (km/s) = 3.37023 3.64223 3.50887
# Velocity P-wave (km/s) = 6.00626 6.58028 6.29981
#
# Compressibility (1/GPa) = 0.02512435
#
# Stress axis : x y z
#
# Youngs Moduli (GPa) = 72.73749 60.70594 100.17484
#
# Poissons Ratio (x) = -0.05433 0.49515
# Poissons Ratio (y) = -0.06510 0.34978
# Poissons Ratio (z) = 0.35953 0.21196
#
# Static dielectric constant tensor:
#      x y z
#    x 1.659560 0.000000 0.000000 
#    y 0.000000 2.058170 0.000000 
#    z 0.000000 0.000000 1.662940 
# 
# From -- ./inp_files/23259.got.cif
#   From: 2010.05.17/outbox.cif.g08.bks.cpg/sg50_12_cif.got.tgz:23259.got - 2010.06.03 11:33:33.
