data_PCOD9396129
_publ_section_title
;
Structure prediction by ZEFSAII (Michael W. Deem and Ramdas Pophale) SiO2 
 PCOD9396129
Probable space group: P B A N
;
_chemical_formula_sum "Si O2"
_cell_formula_units_Z 44
_cell_length_a 9.512157
_cell_length_b 28.212481
_cell_length_c 8.775002
_cell_angle_alpha 90.000000
_cell_angle_beta 90.000000
_cell_angle_gamma 90.000000
_cell_volume 2354.873126
_symmetry_space_group_name_H-M "P B A N"
_symmetry_group_IT_number 50
_space_group.IT_coordinate_system_code '2'
_symmetry_cell_setting 'orthorhombic'
loop_
_space_group_symop_operation_xyz
x,y,z
1/2-x,1/2-y,z
x,1/2-y,-z
1/2-x,y,-z
-x,-y,-z
1/2+x,1/2+y,-z
-x,1/2+y,z
1/2+x,-y,z
loop_
_atom_site_type_symbol
_atom_site_label
_atom_site_fract_x
_atom_site_fract_y
_atom_site_fract_z
Si Si1 0.856112 0.681777 0.245636
Si Si2 0.250000 0.250000 0.000000
Si Si3 0.881195 0.085407 0.797249
Si Si4 0.066773 0.895700 0.851092
Si Si5 0.169602 0.474663 0.838237
Si Si6 0.166912 0.399596 0.341815
Si Si7 0.250000 0.250000 0.500000
O O1 0.843624 0.716958 0.105412
O O2 0.726408 0.644336 0.243076
O O3 0.841218 0.715002 0.393685
O O4 0.989709 0.648582 0.224982
O O5 0.719395 0.099388 0.776787
O O6 0.998740 0.100047 0.674132
O O7 0.874813 0.028337 0.809096
O O8 0.921371 0.106455 0.964335
O O9 0.968306 0.941776 0.829669
O O10 0.278176 0.449675 0.723341
O O11 0.250000 0.472531 0.000000
O O12 0.250000 0.393181 0.500000
#
# Coordination Sequence:
#
# PCOD9396129 Si02
#       7
#     8   2   8   8   8   8   2
#     4  10  21  39  62  94 108 152 196 249 307 368
#     4  10  20  34  68  92 108 134 204 260 296 378
#     4  11  20  34  59  90 127 164 197 259 295 344
#     4  10  20  33  59  95 119 151 206 259 301 343
#     4  11  19  35  59  87 120 167 222 245 280 347
#     4  11  23  37  57  85 127 166 203 246 299 374
#     4  10  20  42  72  80 120 146 202 242 308 386
#
# _framework density 18.684657999999999
#
# number of rings (size 3 to 8) (size 9 to 14) (size 15 to 20)
#    0.000    1.455    4.545    2.727    2.545    0.727 
#    0.000    3.636    0.000   17.455    0.000    0.000 
#    0.000    0.000    0.000    0.000    0.000    0.000 
#
# Total GULP energy -245436.390277 kJ/mol
# GULP energy per Si atom -5578.099779 kJ/mol
# Density = 1.864213 g / cm^3
# Si number density = 18.684658 Si / 1000 Ang^3
#
#
#
# Elastic Constant Matrix: (Units=GPa)
#
#
# Indices 1 2 3 4 5 6 
#
# 1 174.3610 70.9453 44.7166 0.0000 0.0000 0.0000
# 2 70.9453 118.3168 54.8028 0.0000 0.0000 0.0000
# 3 44.7166 54.8028 63.8181 0.0000 0.0000 0.0000
# 4 0.0000 0.0000 0.0000 -14.2694 0.0000 0.0000
# 5 0.0000 0.0000 0.0000 0.0000 25.0385 0.0000
# 6 0.0000 0.0000 0.0000 0.0000 0.0000 5.3852
#
#
#
# Elastic Compliance Matrix: (Units=1/GPa)
#
#
# Indices 1 2 3 4 5 6 
#
# 1 0.007803 -0.003564 -0.002407 0.000000 0.000000 0.000000
# 2 -0.003564 0.015662 -0.010952 0.000000 0.000000 0.000000
# 3 -0.002407 -0.010952 0.026761 0.000000 0.000000 0.000000
# 4 0.000000 0.000000 0.000000 -0.070080 0.000000 0.000000
# 5 0.000000 0.000000 0.000000 0.000000 0.039939 0.000000
# 6 0.000000 0.000000 0.000000 0.000000 0.000000 0.185693
#
#
# Mechanical properties :
#
#
# Convention : Reuss Voigt Hill
#
# Bulk Modulus (GPa) = 61.05110 77.49171 69.27140
# Shear Modulus (GPa) = 20.40133 15.63293 18.01713
#
# Velocity S-wave (km/s) = 3.30794 2.89567 3.10865
# Velocity P-wave (km/s) = 6.88007 7.26246 7.07385
#
# Compressibility (1/GPa) = 0.01637972
#
# Stress axis : x y z
#
# Youngs Moduli (GPa) = 128.16362 63.85000 37.36785
#
# Poissons Ratio (x) = 0.22755 0.08994
# Poissons Ratio (y) = 0.45674 0.40926
# Poissons Ratio (z) = 0.30847 0.69930
#
# Static dielectric constant tensor:
#      x y z
#    x 1.694580 0.000000 0.000000 
#    y 0.000000 1.631040 0.000000 
#    z 0.000000 0.000000 1.705640 
# 
# From -- ./inp_files/10011.got.cif
#   From: 2010.05.17/outbox.cif.g08.bks.cpg/sg50_6_cif.got.tgz:10011.got - 2010.06.03 11:33:33.
