data_PCOD9396110
_publ_section_title
;
Structure prediction by ZEFSAII (Michael W. Deem and Ramdas Pophale) SiO2 
 PCOD9396110
Probable space group: P B A N
;
_chemical_formula_sum "Si O2"
_cell_formula_units_Z 60
_cell_length_a 11.482683
_cell_length_b 20.113942
_cell_length_c 11.586195
_cell_angle_alpha 90.000000
_cell_angle_beta 90.000000
_cell_angle_gamma 90.000000
_cell_volume 2675.971000
_symmetry_space_group_name_H-M "P B A N"
_symmetry_group_IT_number 50
_space_group.IT_coordinate_system_code '2'
_symmetry_cell_setting 'orthorhombic'
loop_
_space_group_symop_operation_xyz
x,y,z
1/2-x,1/2-y,z
x,1/2-y,-z
1/2-x,y,-z
-x,-y,-z
1/2+x,1/2+y,-z
-x,1/2+y,z
1/2+x,-y,z
loop_
_atom_site_type_symbol
_atom_site_label
_atom_site_fract_x
_atom_site_fract_y
_atom_site_fract_z
Si Si1 0.120860 0.483357 0.283529
Si Si2 0.567127 0.416559 0.846650
Si Si3 0.885060 0.325493 0.960866
Si Si4 0.588898 0.143564 0.515376
Si Si5 0.811590 0.550943 0.114060
Si Si6 0.294763 0.818355 0.692290
Si Si7 0.250000 0.977505 0.500000
Si Si8 0.988299 0.877836 0.736078
O O1 0.207621 0.486936 0.177850
O O2 0.202026 0.479355 0.395292
O O3 0.048305 0.550899 0.288721
O O4 0.032749 0.425519 0.248936
O O5 0.598461 0.489409 0.895894
O O6 0.667345 0.375279 0.779639
O O7 0.537250 0.372699 0.957353
O O8 0.929530 0.340082 0.830511
O O9 0.904043 0.250000 0.000000
O O10 0.750000 0.340910 0.000000
O O11 0.600541 0.189210 0.402090
O O12 0.690129 0.161546 0.607821
O O13 0.637944 0.070693 0.472502
O O14 0.480751 0.147970 0.603289
O O15 0.869561 0.605734 0.196544
O O16 0.750000 0.577491 0.000000
O O17 0.250000 0.750000 0.748751
#
# Coordination Sequence:
#
# PCOD9396110 Si02
#       8
#     8   8   8   8   8   8   4   8
#     4  10  20  35  56  84 117 153 193 248 300 362
#     4  11  22  34  55  84 118 155 198 241 304 368
#     4  11  23  36  54  84 115 152 192 248 305 362
#     4   9  17  33  54  82 115 145 190 233 289 360
#     4  11  21  36  58  81 115 158 202 250 298 361
#     4  10  20  33  53  81 115 153 185 236 298 364
#     4   8  16  32  53  82 114 147 184 236 296 344
#     4  10  21  36  57  83 116 154 197 246 301 365
#
# _framework density 22.421768
#
# number of rings (size 3 to 8) (size 9 to 14) (size 15 to 20)
#    0.000    2.000    0.000    6.800    3.733    3.200 
#    2.400    6.000    0.000    3.600    0.000    0.000 
#    0.000    0.000    0.000    0.000    0.000    0.000 
#
# Total GULP energy -334342.717442 kJ/mol
# GULP energy per Si atom -5572.378624 kJ/mol
# Density = 2.237074 g / cm^3
# Si number density = 22.421768 Si / 1000 Ang^3
#
#
#
# Elastic Constant Matrix: (Units=GPa)
#
#
# Indices 1 2 3 4 5 6 
#
# 1 43.5962 15.7069 28.0948 0.0000 0.0000 0.0000
# 2 15.7069 63.7976 24.9238 0.0000 0.0000 0.0000
# 3 28.0948 24.9238 100.6004 0.0000 0.0000 0.0000
# 4 0.0000 0.0000 0.0000 -8.4827 0.0000 0.0000
# 5 0.0000 0.0000 0.0000 0.0000 36.7748 0.0000
# 6 0.0000 0.0000 0.0000 0.0000 0.0000 36.6465
#
#
#
# Elastic Compliance Matrix: (Units=1/GPa)
#
#
# Indices 1 2 3 4 5 6 
#
# 1 0.029051 -0.004410 -0.007021 0.000000 0.000000 0.000000
# 2 -0.004410 0.018024 -0.003234 0.000000 0.000000 0.000000
# 3 -0.007021 -0.003234 0.012702 0.000000 0.000000 0.000000
# 4 0.000000 0.000000 0.000000 -0.117888 0.000000 0.000000
# 5 0.000000 0.000000 0.000000 0.000000 0.027193 0.000000
# 6 0.000000 0.000000 0.000000 0.000000 0.000000 0.027288
#
#
# Mechanical properties :
#
#
# Convention : Reuss Voigt Hill
#
# Bulk Modulus (GPa) = 32.84234 38.38278 35.61256
# Shear Modulus (GPa) = 139.48302 22.27232 80.87767
#
# Velocity S-wave (km/s) = 7.89581 3.15514 6.01243
# Velocity P-wave (km/s) = 9.88961 5.51624 8.00729
#
# Compressibility (1/GPa) = 0.03044850
#
# Stress axis : x y z
#
# Youngs Moduli (GPa) = 34.42256 55.48285 78.72675
#
# Poissons Ratio (x) = 0.24465 0.55271
# Poissons Ratio (y) = 0.15179 0.25460
# Poissons Ratio (z) = 0.24167 0.17943
#
# Static dielectric constant tensor:
#      x y z
#    x 1.955650 0.000000 0.000000 
#    y 0.000000 1.880160 0.000000 
#    z 0.000000 0.000000 1.976340 
# 
# From -- ./inp_files/20423.got.cif
#   From: 2010.05.17/outbox.cif.g08.bks.cpg/sg50_11_cif.got.tgz:20423.got - 2010.06.03 11:33:33.
