data_PCOD9396478
_publ_section_title
;
Structure prediction by ZEFSAII (Michael W. Deem and Ramdas Pophale) SiO2 
 PCOD9396478
Probable space group: P B A N
;
_chemical_formula_sum "Si O2"
_cell_formula_units_Z 42
_cell_length_a 8.684889
_cell_length_b 14.038098
_cell_length_c 14.352044
_cell_angle_alpha 90.000000
_cell_angle_beta 90.000000
_cell_angle_gamma 90.000000
_cell_volume 1749.791487
_symmetry_space_group_name_H-M "P B A N"
_symmetry_group_IT_number 50
_space_group.IT_coordinate_system_code '2'
_symmetry_cell_setting 'orthorhombic'
loop_
_space_group_symop_operation_xyz
x,y,z
1/2-x,1/2-y,z
x,1/2-y,-z
1/2-x,y,-z
-x,-y,-z
1/2+x,1/2+y,-z
-x,1/2+y,z
1/2+x,-y,z
loop_
_atom_site_type_symbol
_atom_site_label
_atom_site_fract_x
_atom_site_fract_y
_atom_site_fract_z
Si Si1 0.573711 0.778406 0.759807
Si Si2 0.904094 0.084637 0.882551
Si Si3 0.878026 0.066618 0.387766
Si Si4 0.468222 0.874150 0.580923
Si Si5 0.750000 0.250000 0.000000
Si Si6 0.942306 0.411500 0.819316
O O1 0.750000 0.750000 0.761741
O O2 0.533734 0.875961 0.812222
O O3 0.519338 0.793920 0.653676
O O4 0.481132 0.699738 0.818650
O O5 0.737368 0.073954 0.835938
O O6 0.866058 0.169298 0.955264
O O7 0.963380 0.975726 0.892763
O O8 0.697744 0.090175 0.380311
O O9 0.937773 0.135434 0.470598
O O10 0.968909 0.070605 0.290775
O O11 0.904460 0.957670 0.417438
#
# Coordination Sequence:
#
# PCOD9396478 Si02
#       6
#     8   8   8   8   2   8
#     4  12  25  43  70 111 150 203 261 311 378 465
#     4  12  26  50  79 113 148 199 245 326 393 479
#     4  10  20  38  67  98 148 198 261 308 369 431
#     4  10  22  38  63 106 148 205 257 317 363 426
#     4  12  28  56  82 116 152 176 262 312 408 492
#     4  12  23  44  76 105 146 201 252 305 392 454
#
# _framework density 24.002859999999998
#
# number of rings (size 3 to 8) (size 9 to 14) (size 15 to 20)
#    0.000    0.762    5.714    1.143    2.667    1.524 
#    0.000    3.333    0.000    0.000    0.000    0.000 
#    0.000    0.000    0.000    0.000    0.000    0.000 
#
# Total GULP energy -234160.114959 kJ/mol
# GULP energy per Si atom -5575.240832 kJ/mol
# Density = 2.394823 g / cm^3
# Si number density = 24.002860 Si / 1000 Ang^3
#
#
#
# Elastic Constant Matrix: (Units=GPa)
#
#
# Indices 1 2 3 4 5 6 
#
# 1 86.9691 6.6643 -5.0589 0.0000 0.0000 0.0000
# 2 6.6643 92.3711 27.8668 0.0000 0.0000 0.0000
# 3 -5.0589 27.8668 70.7252 0.0000 0.0000 0.0000
# 4 0.0000 0.0000 0.0000 84.5385 0.0000 0.0000
# 5 0.0000 0.0000 0.0000 0.0000 38.9519 0.0000
# 6 0.0000 0.0000 0.0000 0.0000 0.0000 36.8681
#
#
#
# Elastic Compliance Matrix: (Units=1/GPa)
#
#
# Indices 1 2 3 4 5 6 
#
# 1 0.011670 -0.001241 0.001324 0.000000 0.000000 0.000000
# 2 -0.001241 0.012418 -0.004982 0.000000 0.000000 0.000000
# 3 0.001324 -0.004982 0.016197 0.000000 0.000000 0.000000
# 4 0.000000 0.000000 0.000000 0.011829 0.000000 0.000000
# 5 0.000000 0.000000 0.000000 0.000000 0.025673 0.000000
# 6 0.000000 0.000000 0.000000 0.000000 0.000000 0.027124
#
#
# Mechanical properties :
#
#
# Convention : Reuss Voigt Hill
#
# Bulk Modulus (GPa) = 32.80078 34.33442 33.56760
# Shear Modulus (GPa) = 40.04099 46.77791 43.40945
#
# Velocity S-wave (km/s) = 4.08876 4.41936 4.25727
# Velocity P-wave (km/s) = 5.99880 6.35424 6.17908
#
# Compressibility (1/GPa) = 0.03048708
#
# Stress axis : x y z
#
# Youngs Moduli (GPa) = 85.68632 80.52572 61.74044
#
# Poissons Ratio (x) = 0.09996 -0.08174
# Poissons Ratio (y) = 0.10637 0.30758
# Poissons Ratio (z) = -0.11344 0.40117
#
# Static dielectric constant tensor:
#      x y z
#    x 1.888250 0.000000 0.000000 
#    y 0.000000 1.721900 0.000000 
#    z 0.000000 0.000000 2.005090 
# 
# From -- ./inp_files/24729.got.cif
#   From: 2010.05.17/outbox.cif.g08.bks.cpg/sg50_13_cif.got.tgz:24729.got - 2010.06.03 11:33:33.
