data_PCOD9396445
_publ_section_title
;
Structure prediction by ZEFSAII (Michael W. Deem and Ramdas Pophale) SiO2 
 PCOD9396445
Probable space group: P B A N
;
_chemical_formula_sum "Si O2"
_cell_formula_units_Z 40
_cell_length_a 18.136006
_cell_length_b 5.066213
_cell_length_c 20.527835
_cell_angle_alpha 90.000000
_cell_angle_beta 90.000000
_cell_angle_gamma 90.000000
_cell_volume 1886.115326
_symmetry_space_group_name_H-M "P B A N"
_symmetry_group_IT_number 50
_space_group.IT_coordinate_system_code '2'
_symmetry_cell_setting 'orthorhombic'
loop_
_space_group_symop_operation_xyz
x,y,z
1/2-x,1/2-y,z
x,1/2-y,-z
1/2-x,y,-z
-x,-y,-z
1/2+x,1/2+y,-z
-x,1/2+y,z
1/2+x,-y,z
loop_
_atom_site_type_symbol
_atom_site_label
_atom_site_fract_x
_atom_site_fract_y
_atom_site_fract_z
Si Si1 0.250000 0.250000 0.912663
Si Si2 0.176070 0.922927 0.192579
Si Si3 0.641553 0.486609 0.394699
Si Si4 0.750000 0.250000 0.500000
Si Si5 0.052386 0.250000 0.500000
Si Si6 0.948635 0.266437 0.281440
Si Si7 0.750000 0.250000 0.000000
Si Si8 0.250000 0.250000 0.701401
O O1 0.184056 0.380802 0.869528
O O2 0.281048 0.514024 0.951285
O O3 0.250000 0.750000 0.187135
O O4 0.106640 0.755049 0.218404
O O5 0.191133 0.106443 0.254207
O O6 0.692075 0.389340 0.453267
O O7 0.597394 0.718773 0.432257
O O8 0.590291 0.294336 0.351383
O O9 0.702412 0.564433 0.342760
O O10 0.000000 0.500000 0.500000
O O11 0.987677 0.548016 0.277775
#
# Coordination Sequence:
#
# PCOD9396445 Si02
#       8
#     4   8   8   2   4   8   2   4
#     4  10  22  37  72 103 160 178 236 276 330 386
#     4  11  22  43  68 103 136 182 227 286 340 404
#     4  12  24  44  63  91 123 168 231 295 356 437
#     4  12  26  42  70  90 118 174 238 296 360 448
#     4  12  27  45  62  83 119 170 214 276 360 433
#     4  12  27  44  67 100 138 178 225 291 366 430
#     4  10  20  38  62 122 148 194 220 284 334 362
#     4  11  22  40  68  92 118 165 222 292 344 415
#
# _framework density 21.207612000000001
#
# number of rings (size 3 to 8) (size 9 to 14) (size 15 to 20)
#    0.000    0.600    3.000    5.400    2.800    3.200 
#    0.000    0.000    0.000    0.000    0.000   14.000 
#    0.000    0.000    0.000    0.000    0.000    0.000 
#
# Total GULP energy -222722.668838 kJ/mol
# GULP energy per Si atom -5568.066721 kJ/mol
# Density = 2.115934 g / cm^3
# Si number density = 21.207612 Si / 1000 Ang^3
#
#
#
# Elastic Constant Matrix: (Units=GPa)
#
#
# Indices 1 2 3 4 5 6 
#
# 1 83.2077 18.6970 28.3846 0.0000 0.0000 0.0000
# 2 18.6970 87.5357 36.5036 0.0000 0.0000 0.0000
# 3 28.3846 36.5036 106.4227 0.0000 0.0000 0.0000
# 4 0.0000 0.0000 0.0000 72.2768 0.0000 0.0000
# 5 0.0000 0.0000 0.0000 0.0000 238.5238 0.0000
# 6 0.0000 0.0000 0.0000 0.0000 0.0000 34.3821
#
#
#
# Elastic Compliance Matrix: (Units=1/GPa)
#
#
# Indices 1 2 3 4 5 6 
#
# 1 0.013411 -0.001602 -0.003027 0.000000 0.000000 0.000000
# 2 -0.001602 0.013522 -0.004211 0.000000 0.000000 0.000000
# 3 -0.003027 -0.004211 0.011648 0.000000 0.000000 0.000000
# 4 0.000000 0.000000 0.000000 0.013836 0.000000 0.000000
# 5 0.000000 0.000000 0.000000 0.000000 0.004192 0.000000
# 6 0.000000 0.000000 0.000000 0.000000 0.000000 0.029085
#
#
# Mechanical properties :
#
#
# Convention : Reuss Voigt Hill
#
# Bulk Modulus (GPa) = 47.84532 49.37074 48.60803
# Shear Modulus (GPa) = 45.31381 81.94193 63.62787
#
# Velocity S-wave (km/s) = 4.62743 6.22269 5.48338
# Velocity P-wave (km/s) = 7.15264 8.65791 7.94102
#
# Compressibility (1/GPa) = 0.02090068
#
# Stress axis : x y z
#
# Youngs Moduli (GPa) = 74.56669 73.95317 85.84947
#
# Poissons Ratio (x) = 0.11847 0.25990
# Poissons Ratio (y) = 0.11946 0.36150
# Poissons Ratio (z) = 0.22574 0.31141
#
# Static dielectric constant tensor:
#      x y z
#    x 1.858000 0.000000 0.000000 
#    y 0.000000 1.867470 0.000000 
#    z 0.000000 0.000000 1.664670 
# 
# From -- ./inp_files/31078.got.cif
#   From: 2010.05.17/outbox.cif.g08.bks.cpg/sg50_16_cif.got.tgz:31078.got - 2010.06.03 11:33:33.
