data_PCOD9396010
_publ_section_title
;
Structure prediction by ZEFSAII (Michael W. Deem and Ramdas Pophale) SiO2 
 PCOD9396010
Probable space group: P B A N
;
_chemical_formula_sum "Si O2"
_cell_formula_units_Z 56
_cell_length_a 14.340328
_cell_length_b 11.363644
_cell_length_c 18.063631
_cell_angle_alpha 90.000000
_cell_angle_beta 90.000000
_cell_angle_gamma 90.000000
_cell_volume 2943.620085
_symmetry_space_group_name_H-M "P B A N"
_symmetry_group_IT_number 50
_space_group.IT_coordinate_system_code '2'
_symmetry_cell_setting 'orthorhombic'
loop_
_space_group_symop_operation_xyz
x,y,z
1/2-x,1/2-y,z
x,1/2-y,-z
1/2-x,y,-z
-x,-y,-z
1/2+x,1/2+y,-z
-x,1/2+y,z
1/2+x,-y,z
loop_
_atom_site_type_symbol
_atom_site_label
_atom_site_fract_x
_atom_site_fract_y
_atom_site_fract_z
Si Si1 0.344778 0.823912 0.370434
Si Si2 0.341530 0.100746 0.149741
Si Si3 0.067008 0.386564 0.993963
Si Si4 0.974579 0.388078 0.402968
Si Si5 0.469070 0.529539 0.739278
Si Si6 0.139071 0.125483 0.172086
Si Si7 0.851245 0.964749 0.487333
O O1 0.250000 0.750000 0.356455
O O2 0.421123 0.733819 0.401625
O O3 0.394456 0.884365 0.300043
O O4 0.330588 0.925585 0.431518
O O5 0.239286 0.063088 0.176686
O O6 0.350732 0.234467 0.176912
O O7 0.420049 0.025661 0.189402
O O8 0.358727 0.102544 0.061374
O O9 0.107637 0.395828 0.912081
O O10 0.028708 0.250000 0.000000
O O11 0.000000 0.500000 0.000000
O O12 0.002083 0.433074 0.321663
O O13 0.070530 0.385558 0.448563
O O14 0.904069 0.481692 0.441253
O O15 0.563582 0.587778 0.768244
O O16 0.750000 0.909494 0.500000
#
# Coordination Sequence:
#
# PCOD9396010 Si02
#       7
#     8   8   8   8   8   8   8
#     4  11  22  37  61  88 118 159 201 245 309 382
#     4  10  21  38  61  86 117 167 213 247 306 373
#     4  10  19  37  64  92 121 163 222 267 311 370
#     4  10  22  35  57  89 118 145 201 245 298 366
#     4  11  23  37  57  87 126 156 195 254 314 362
#     4  10  21  38  61  85 121 166 208 255 301 373
#     4  10  20  38  62  85 110 156 200 247 298 361
#
# _framework density 19.024196
#
# number of rings (size 3 to 8) (size 9 to 14) (size 15 to 20)
#    0.000    1.714    2.857    1.714    2.000    1.714 
#    0.000    0.000    0.000   15.429    0.000    0.000 
#    0.000    0.000    0.000    0.000    0.000    0.000 
#
# Total GULP energy -312365.521795 kJ/mol
# GULP energy per Si atom -5577.955746 kJ/mol
# Density = 1.898090 g / cm^3
# Si number density = 19.024196 Si / 1000 Ang^3
#
#
#
# Elastic Constant Matrix: (Units=GPa)
#
#
# Indices 1 2 3 4 5 6 
#
# 1 117.9541 32.0888 10.1800 0.0000 0.0000 0.0000
# 2 32.0888 47.9414 6.7613 0.0000 0.0000 0.0000
# 3 10.1800 6.7613 61.5198 0.0000 0.0000 0.0000
# 4 0.0000 0.0000 0.0000 11.7499 0.0000 0.0000
# 5 0.0000 0.0000 0.0000 0.0000 18.2692 0.0000
# 6 0.0000 0.0000 0.0000 0.0000 0.0000 27.1860
#
#
#
# Elastic Compliance Matrix: (Units=1/GPa)
#
#
# Indices 1 2 3 4 5 6 
#
# 1 0.010422 -0.006839 -0.000973 0.000000 0.000000 0.000000
# 2 -0.006839 0.025675 -0.001690 0.000000 0.000000 0.000000
# 3 -0.000973 -0.001690 0.016602 0.000000 0.000000 0.000000
# 4 0.000000 0.000000 0.000000 0.085107 0.000000 0.000000
# 5 0.000000 0.000000 0.000000 0.000000 0.054737 0.000000
# 6 0.000000 0.000000 0.000000 0.000000 0.000000 0.036784
#
#
# Mechanical properties :
#
#
# Convention : Reuss Voigt Hill
#
# Bulk Modulus (GPa) = 29.67819 36.16394 32.92107
# Shear Modulus (GPa) = 19.26324 23.33337 21.29830
#
# Velocity S-wave (km/s) = 3.18554 3.50596 3.34958
# Velocity P-wave (km/s) = 5.40040 5.95312 5.68348
#
# Compressibility (1/GPa) = 0.03369478
#
# Stress axis : x y z
#
# Youngs Moduli (GPa) = 95.94807 38.94902 60.23485
#
# Poissons Ratio (x) = 0.26636 0.05861
# Poissons Ratio (y) = 0.65617 0.10180
# Poissons Ratio (z) = 0.09336 0.06583
#
# Static dielectric constant tensor:
#      x y z
#    x 1.674500 0.000000 0.000000 
#    y 0.000000 1.673280 0.000000 
#    z 0.000000 0.000000 1.655120 
# 
# From -- ./inp_files/30862.got.cif
#   From: 2010.05.17/outbox.cif.g08.bks.cpg/sg50_16_cif.got.tgz:30862.got - 2010.06.03 11:33:33.
