data_PCOD9396542
_publ_section_title
;
Structure prediction by ZEFSAII (Michael W. Deem and Ramdas Pophale) SiO2 
 PCOD9396542
Probable space group: P B A N
;
_chemical_formula_sum "Si O2"
_cell_formula_units_Z 48
_cell_length_a 13.535380
_cell_length_b 13.435150
_cell_length_c 12.310954
_cell_angle_alpha 90.000000
_cell_angle_beta 90.000000
_cell_angle_gamma 90.000000
_cell_volume 2238.745269
_symmetry_space_group_name_H-M "P B A N"
_symmetry_group_IT_number 50
_space_group.IT_coordinate_system_code '2'
_symmetry_cell_setting 'orthorhombic'
loop_
_space_group_symop_operation_xyz
x,y,z
1/2-x,1/2-y,z
x,1/2-y,-z
1/2-x,y,-z
-x,-y,-z
1/2+x,1/2+y,-z
-x,1/2+y,z
1/2+x,-y,z
loop_
_atom_site_type_symbol
_atom_site_label
_atom_site_fract_x
_atom_site_fract_y
_atom_site_fract_z
Si Si1 0.641433 0.730177 0.129124
Si Si2 0.994107 0.398445 0.857647
Si Si3 0.542708 0.387071 0.900164
Si Si4 0.037548 0.624311 0.373136
Si Si5 0.351612 0.810501 0.694486
Si Si6 0.851476 0.506543 0.446939
O O1 0.750000 0.750000 0.174468
O O2 0.569648 0.813006 0.175636
O O3 0.573075 0.632179 0.132858
O O4 0.648252 0.750000 0.000000
O O5 0.056723 0.496173 0.884436
O O6 0.933114 0.412781 0.748538
O O7 0.944571 0.366949 0.971532
O O8 0.609256 0.325994 0.817109
O O9 0.925213 0.591575 0.402165
O O10 0.069399 0.740575 0.370349
O O11 0.098150 0.558445 0.457821
O O12 0.250000 0.750000 0.689780
O O13 0.338180 0.920333 0.644199
O O14 0.750000 0.544698 0.500000
#
# Coordination Sequence:
#
# PCOD9396542 Si02
#       6
#     8   8   8   8   8   8
#     4   9  18  36  60  83 118 168 214 253 313 389
#     4  10  20  40  62  91 132 171 209 265 338 395
#     4  10  21  39  64  92 134 168 211 269 331 407
#     4  11  23  40  69  98 129 172 226 281 336 400
#     4  12  23  42  71  98 129 183 229 279 343 411
#     4  11  24  45  69  95 129 181 230 280 340 411
#
# _framework density 21.440581000000002
#
# number of rings (size 3 to 8) (size 9 to 14) (size 15 to 20)
#    0.000    1.500    5.000    0.500    0.000    0.000 
#    6.000    1.667    0.000    1.000    0.000    0.000 
#    0.000    0.000    0.000    0.000    0.000    0.000 
#
# Total GULP energy -267450.159738 kJ/mol
# GULP energy per Si atom -5571.878328 kJ/mol
# Density = 2.139178 g / cm^3
# Si number density = 21.440581 Si / 1000 Ang^3
#
#
#
# Elastic Constant Matrix: (Units=GPa)
#
#
# Indices 1 2 3 4 5 6 
#
# 1 90.7334 21.3699 27.8924 0.0000 0.0000 0.0000
# 2 21.3699 65.5081 9.6617 0.0000 0.0000 0.0000
# 3 27.8924 9.6617 123.6807 0.0000 0.0000 0.0000
# 4 0.0000 0.0000 0.0000 24.1483 0.0000 0.0000
# 5 0.0000 0.0000 0.0000 0.0000 24.0901 0.0000
# 6 0.0000 0.0000 0.0000 0.0000 0.0000 15.7184
#
#
#
# Elastic Compliance Matrix: (Units=1/GPa)
#
#
# Indices 1 2 3 4 5 6 
#
# 1 0.012698 -0.003763 -0.002570 0.000000 0.000000 0.000000
# 2 -0.003763 0.016559 -0.000445 0.000000 0.000000 0.000000
# 3 -0.002570 -0.000445 0.008700 0.000000 0.000000 0.000000
# 4 0.000000 0.000000 0.000000 0.041411 0.000000 0.000000
# 5 0.000000 0.000000 0.000000 0.000000 0.041511 0.000000
# 6 0.000000 0.000000 0.000000 0.000000 0.000000 0.063620
#
#
# Mechanical properties :
#
#
# Convention : Reuss Voigt Hill
#
# Bulk Modulus (GPa) = 40.98288 44.19668 42.58978
# Shear Modulus (GPa) = 24.25000 27.52457 25.88729
#
# Velocity S-wave (km/s) = 3.36673 3.58685 3.47853
# Velocity P-wave (km/s) = 5.85400 6.14917 6.00340
#
# Compressibility (1/GPa) = 0.02440043
#
# Stress axis : x y z
#
# Youngs Moduli (GPa) = 78.75547 60.39186 114.94814
#
# Poissons Ratio (x) = 0.22727 0.29537
# Poissons Ratio (y) = 0.29637 0.05114
# Poissons Ratio (z) = 0.20237 0.02687
#
# Static dielectric constant tensor:
#      x y z
#    x 1.831110 0.000000 0.000000 
#    y 0.000000 1.858370 0.000000 
#    z 0.000000 0.000000 1.909500 
# 
# From -- ./inp_files/21099.got.cif
#   From: 2010.05.17/outbox.cif.g08.bks.cpg/sg50_11_cif.got.tgz:21099.got - 2010.06.03 11:33:33.
