data_PCOD9396187
_publ_section_title
;
Structure prediction by ZEFSAII (Michael W. Deem and Ramdas Pophale) SiO2 
 PCOD9396187
Probable space group: P B A N
;
_chemical_formula_sum "Si O2"
_cell_formula_units_Z 40
_cell_length_a 25.175082
_cell_length_b 8.955512
_cell_length_c 7.541182
_cell_angle_alpha 90.000000
_cell_angle_beta 90.000000
_cell_angle_gamma 90.000000
_cell_volume 1700.202836
_symmetry_space_group_name_H-M "P B A N"
_symmetry_group_IT_number 50
_space_group.IT_coordinate_system_code '2'
_symmetry_cell_setting 'orthorhombic'
loop_
_space_group_symop_operation_xyz
x,y,z
1/2-x,1/2-y,z
x,1/2-y,-z
1/2-x,y,-z
-x,-y,-z
1/2+x,1/2+y,-z
-x,1/2+y,z
1/2+x,-y,z
loop_
_atom_site_type_symbol
_atom_site_label
_atom_site_fract_x
_atom_site_fract_y
_atom_site_fract_z
Si Si1 0.459569 0.460809 0.344254
Si Si2 0.646869 0.406153 0.757365
Si Si3 0.961901 0.652108 0.825087
Si Si4 0.246867 0.421905 0.216208
Si Si5 0.636361 0.062675 0.813926
O O1 0.500000 0.500000 0.500000
O O2 0.398432 0.507912 0.351584
O O3 0.483442 0.559805 0.180780
O O4 0.464329 0.286556 0.312404
O O5 0.705104 0.473244 0.717304
O O6 0.637238 0.229652 0.737212
O O7 0.640199 0.430937 0.970438
O O8 0.915464 0.536131 0.782030
O O9 0.951356 0.750000 0.000000
O O10 0.250000 0.250000 0.273788
O O11 0.189100 0.484640 0.258515
O O12 0.250000 0.422730 0.000000
#
# Coordination Sequence:
#
# PCOD9396187 Si02
#       5
#     8   8   8   8   8
#     4  12  26  42  62  91 132 177 224 282 350 415
#     4  10  20  36  58  91 134 175 219 271 337 401
#     4  12  24  41  65  93 127 175 233 286 345 406
#     4   9  17  30  55  92 134 169 212 272 337 394
#     4  10  20  34  61  94 129 170 221 281 330 392
#
# _framework density 23.526603999999999
#
# number of rings (size 3 to 8) (size 9 to 14) (size 15 to 20)
#    0.000    1.400    2.000    4.200    5.600    2.400 
#    0.000    0.000    0.000    1.200    0.000    7.000 
#    0.000    0.000    0.000    0.000    0.000    0.000 
#
# Total GULP energy -223828.920897 kJ/mol
# GULP energy per Si atom -5595.723022 kJ/mol
# Density = 2.347306 g / cm^3
# Si number density = 23.526604 Si / 1000 Ang^3
#
#
#
# Elastic Constant Matrix: (Units=GPa)
#
#
# Indices 1 2 3 4 5 6 
#
# 1 172.1964 61.9756 8.5109 0.0000 0.0000 0.0000
# 2 61.9756 172.6368 11.4907 0.0000 0.0000 0.0000
# 3 8.5109 11.4907 68.4002 0.0000 0.0000 0.0000
# 4 0.0000 0.0000 0.0000 17.8947 0.0000 0.0000
# 5 0.0000 0.0000 0.0000 0.0000 9.2940 0.0000
# 6 0.0000 0.0000 0.0000 0.0000 0.0000 52.4382
#
#
#
# Elastic Compliance Matrix: (Units=1/GPa)
#
#
# Indices 1 2 3 4 5 6 
#
# 1 0.006682 -0.002370 -0.000433 0.000000 0.000000 0.000000
# 2 -0.002370 0.006699 -0.000830 0.000000 0.000000 0.000000
# 3 -0.000433 -0.000830 0.014813 0.000000 0.000000 0.000000
# 4 0.000000 0.000000 0.000000 0.055882 0.000000 0.000000
# 5 0.000000 0.000000 0.000000 0.000000 0.107596 0.000000
# 6 0.000000 0.000000 0.000000 0.000000 0.000000 0.019070
#
#
# Mechanical properties :
#
#
# Convention : Reuss Voigt Hill
#
# Bulk Modulus (GPa) = 47.78654 64.13196 55.95925
# Shear Modulus (GPa) = 22.22377 38.00914 30.11646
#
# Velocity S-wave (km/s) = 3.07681 4.02379 3.58173
# Velocity P-wave (km/s) = 5.74266 6.99331 6.39861
#
# Compressibility (1/GPa) = 0.02092640
#
# Stress axis : x y z
#
# Youngs Moduli (GPa) = 149.66318 149.28624 67.50706
#
# Poissons Ratio (x) = 0.35378 0.02925
# Poissons Ratio (y) = 0.35468 0.05606
# Poissons Ratio (z) = 0.06485 0.12397
#
# Static dielectric constant tensor:
#      x y z
#    x 1.807540 0.000000 0.000000 
#    y 0.000000 1.851740 0.000000 
#    z 0.000000 0.000000 2.046080 
# 
# From -- ./inp_files/9553.got.cif
#   From: 2010.05.17/outbox.cif.g08.bks.cpg/sg50_5_cif.got.tgz:9553.got - 2010.06.03 11:33:33.
