data_PCOD9396874
_publ_section_title
;
Structure prediction by ZEFSAII (Michael W. Deem and Ramdas Pophale) SiO2 
 PCOD9396874
Probable space group: P B A N
;
_chemical_formula_sum "Si O2"
_cell_formula_units_Z 32
_cell_length_a 5.504815
_cell_length_b 16.775566
_cell_length_c 13.830894
_cell_angle_alpha 90.000000
_cell_angle_beta 90.000000
_cell_angle_gamma 90.000000
_cell_volume 1277.233095
_symmetry_space_group_name_H-M "P B A N"
_symmetry_group_IT_number 50
_space_group.IT_coordinate_system_code '2'
_symmetry_cell_setting 'orthorhombic'
loop_
_space_group_symop_operation_xyz
x,y,z
1/2-x,1/2-y,z
x,1/2-y,-z
1/2-x,y,-z
-x,-y,-z
1/2+x,1/2+y,-z
-x,1/2+y,z
1/2+x,-y,z
loop_
_atom_site_type_symbol
_atom_site_label
_atom_site_fract_x
_atom_site_fract_y
_atom_site_fract_z
Si Si1 0.995958 0.468875 0.887775
Si Si2 0.306109 0.964218 0.615623
Si Si3 0.999882 0.718524 0.137755
Si Si4 0.504157 0.214489 0.357249
O O1 0.242901 0.502528 0.844156
O O2 0.002172 0.375199 0.876224
O O3 0.000000 0.500000 0.000000
O O4 0.250000 0.970722 0.500000
O O5 0.441952 0.880025 0.637617
O O6 0.521507 0.026062 0.649124
O O7 0.250000 0.750000 0.096595
O O8 0.000931 0.752446 0.247263
O O9 0.750000 0.750000 0.096666
O O10 0.750000 0.250000 0.400808
O O11 0.250000 0.250000 0.396795
#
# Coordination Sequence:
#
# PCOD9396874 Si02
#       4
#     8   8   8   8
#     4  10  21  40  62  89 120 159 205 254 313 376
#     4  10  21  39  62  89 122 161 204 251 305 368
#     4  10  21  40  61  88 123 159 205 258 314 373
#     4  10  21  39  60  90 124 162 205 256 313 370
#
# _framework density 25.05416
#
# number of rings (size 3 to 8) (size 9 to 14) (size 15 to 20)
#    0.000    2.000    0.000    3.000    0.000    0.500 
#    0.000   46.250    0.000    0.000    0.000    0.000 
#    0.000    0.000    0.000    0.000    0.000    0.000 
#
# Total GULP energy -178604.887157 kJ/mol
# GULP energy per Si atom -5581.402724 kJ/mol
# Density = 2.499714 g / cm^3
# Si number density = 25.054160 Si / 1000 Ang^3
#
#
#
# Elastic Constant Matrix: (Units=GPa)
#
#
# Indices 1 2 3 4 5 6 
#
# 1 351.2592 129.2972 41.4767 0.0000 0.0000 0.0000
# 2 129.2972 169.0803 -2.2025 0.0000 0.0000 0.0000
# 3 41.4767 -2.2025 146.3145 0.0000 0.0000 0.0000
# 4 0.0000 0.0000 0.0000 41.4994 0.0000 0.0000
# 5 0.0000 0.0000 0.0000 0.0000 -19.4828 0.0000
# 6 0.0000 0.0000 0.0000 0.0000 0.0000 64.6640
#
#
#
# Elastic Compliance Matrix: (Units=1/GPa)
#
#
# Indices 1 2 3 4 5 6 
#
# 1 0.004173 -0.003207 -0.001231 0.000000 0.000000 0.000000
# 2 -0.003207 0.008380 0.001035 0.000000 0.000000 0.000000
# 3 -0.001231 0.001035 0.007199 0.000000 0.000000 0.000000
# 4 0.000000 0.000000 0.000000 0.024097 0.000000 0.000000
# 5 0.000000 0.000000 0.000000 0.000000 -0.051327 0.000000
# 6 0.000000 0.000000 0.000000 0.000000 0.000000 0.015465
#
#
# Mechanical properties :
#
#
# Convention : Reuss Voigt Hill
#
# Bulk Modulus (GPa) = 77.24143 111.53297 94.38720
# Shear Modulus (GPa) = 261.67899 50.54161 156.11030
#
# Velocity S-wave (km/s) = 10.23094 4.49630 7.90218
# Velocity P-wave (km/s) = 13.05601 8.45985 11.00065
#
# Compressibility (1/GPa) = 0.01294642
#
# Stress axis : x y z
#
# Youngs Moduli (GPa) = 239.64993 119.32832 138.90467
#
# Poissons Ratio (x) = 0.38268 0.17101
# Poissons Ratio (y) = 0.76855 -0.14380
# Poissons Ratio (z) = 0.29505 -0.12354
#
# Static dielectric constant tensor:
#      x y z
#    x 2.045700 0.000000 0.000000 
#    y 0.000000 1.884760 0.000000 
#    z 0.000000 0.000000 2.077690 
# 
# From -- ./inp_files/27896.got.cif
#   From: 2010.05.17/outbox.cif.g08.bks.cpg/sg50_14_cif.got.tgz:27896.got - 2010.06.03 11:33:33.
