data_PCOD9396211
_publ_section_title
;
Structure prediction by ZEFSAII (Michael W. Deem and Ramdas Pophale) SiO2 
 PCOD9396211
Probable space group: P B A N
;
_chemical_formula_sum "Si O2"
_cell_formula_units_Z 48
_cell_length_a 7.999083
_cell_length_b 14.900734
_cell_length_c 15.850435
_cell_angle_alpha 90.000000
_cell_angle_beta 90.000000
_cell_angle_gamma 90.000000
_cell_volume 1889.248346
_symmetry_space_group_name_H-M "P B A N"
_symmetry_group_IT_number 50
_space_group.IT_coordinate_system_code '2'
_symmetry_cell_setting 'orthorhombic'
loop_
_space_group_symop_operation_xyz
x,y,z
1/2-x,1/2-y,z
x,1/2-y,-z
1/2-x,y,-z
-x,-y,-z
1/2+x,1/2+y,-z
-x,1/2+y,z
1/2+x,-y,z
loop_
_atom_site_type_symbol
_atom_site_label
_atom_site_fract_x
_atom_site_fract_y
_atom_site_fract_z
Si Si1 0.949568 0.104489 0.986146
Si Si2 0.073839 0.132367 0.464820
Si Si3 0.098839 0.815066 0.675919
Si Si4 0.110757 0.573750 0.809735
Si Si5 0.995543 0.624996 0.163003
Si Si6 0.379144 0.554484 0.376040
O O1 0.983500 0.122387 0.887546
O O2 0.750000 0.112467 0.000000
O O3 0.025285 0.156456 0.066636
O O4 0.000000 0.000000 0.000000
O O5 0.250000 0.156528 0.500000
O O6 0.993361 0.210426 0.409269
O O7 0.957193 0.097317 0.540358
O O8 0.120054 0.050235 0.399043
O O9 0.250000 0.750000 0.697789
O O10 0.971707 0.816660 0.753907
O O11 0.194460 0.906034 0.643202
O O12 0.305030 0.602772 0.820583
O O13 0.039564 0.579542 0.714911
O O14 0.103693 0.467522 0.827970
#
# Coordination Sequence:
#
# PCOD9396211 Si02
#       6
#     8   8   8   8   8   8
#     4   8  14  25  43  74 109 141 178 228 277 328
#     4  11  22  36  59  83 108 146 205 254 294 351
#     4  11  23  39  57  82 118 158 191 241 311 366
#     4   9  16  27  50  78 110 144 186 239 284 333
#     4   9  17  30  51  78 110 147 189 231 286 345
#     4  10  20  35  56  83 114 152 197 243 297 354
#
# _framework density 25.406928000000001
#
# number of rings (size 3 to 8) (size 9 to 14) (size 15 to 20)
#    0.000    2.333    1.667    2.500    2.333    1.333 
#    0.000    1.667    0.000   12.500    0.000    0.000 
#    0.000    0.000    0.000  161.667    0.000    0.333 
#
# Total GULP energy -267662.663948 kJ/mol
# GULP energy per Si atom -5576.305499 kJ/mol
# Density = 2.534910 g / cm^3
# Si number density = 25.406928 Si / 1000 Ang^3
#
#
#
# Elastic Constant Matrix: (Units=GPa)
#
#
# Indices 1 2 3 4 5 6 
#
# 1 21.4062 -0.6635 4.4542 0.0000 0.0000 0.0000
# 2 -0.6635 60.3812 11.3724 0.0000 0.0000 0.0000
# 3 4.4542 11.3724 251.7133 0.0000 0.0000 0.0000
# 4 0.0000 0.0000 0.0000 14.0607 0.0000 0.0000
# 5 0.0000 0.0000 0.0000 0.0000 22.4564 0.0000
# 6 0.0000 0.0000 0.0000 0.0000 0.0000 14.9955
#
#
#
# Elastic Compliance Matrix: (Units=1/GPa)
#
#
# Indices 1 2 3 4 5 6 
#
# 1 0.046915 0.000678 -0.000861 0.000000 0.000000 0.000000
# 2 0.000678 0.016713 -0.000767 0.000000 0.000000 0.000000
# 3 -0.000861 -0.000767 0.004023 0.000000 0.000000 0.000000
# 4 0.000000 0.000000 0.000000 0.071120 0.000000 0.000000
# 5 0.000000 0.000000 0.000000 0.000000 0.044531 0.000000
# 6 0.000000 0.000000 0.000000 0.000000 0.000000 0.066687
#
#
# Mechanical properties :
#
#
# Convention : Reuss Voigt Hill
#
# Bulk Modulus (GPa) = 15.20888 40.42521 27.81705
# Shear Modulus (GPa) = 18.26108 31.52504 24.89306
#
# Velocity S-wave (km/s) = 2.68385 3.52633 3.13353
# Velocity P-wave (km/s) = 3.95008 5.70312 4.90555
#
# Compressibility (1/GPa) = 0.06575105
#
# Stress axis : x y z
#
# Youngs Moduli (GPa) = 21.31493 59.83233 248.59150
#
# Poissons Ratio (x) = -0.04055 0.21399
# Poissons Ratio (y) = -0.01444 0.19069
# Poissons Ratio (z) = 0.01835 0.04590
#
# Static dielectric constant tensor:
#      x y z
#    x 2.011050 0.000000 0.000000 
#    y 0.000000 2.061830 0.000000 
#    z 0.000000 0.000000 2.246050 
# 
# From -- ./inp_files/25019.got.cif
#   From: 2010.05.17/outbox.cif.g08.bks.cpg/sg50_13_cif.got.tgz:25019.got - 2010.06.03 11:33:33.
