data_PCOD9396448
_publ_section_title
;
Structure prediction by ZEFSAII (Michael W. Deem and Ramdas Pophale) SiO2 
 PCOD9396448
Probable space group: P B A N
;
_chemical_formula_sum "Si O2"
_cell_formula_units_Z 64
_cell_length_a 8.105046
_cell_length_b 13.324699
_cell_length_c 23.156330
_cell_angle_alpha 90.000000
_cell_angle_beta 90.000000
_cell_angle_gamma 90.000000
_cell_volume 2500.821079
_symmetry_space_group_name_H-M "P B A N"
_symmetry_group_IT_number 50
_space_group.IT_coordinate_system_code '2'
_symmetry_cell_setting 'orthorhombic'
loop_
_space_group_symop_operation_xyz
x,y,z
1/2-x,1/2-y,z
x,1/2-y,-z
1/2-x,y,-z
-x,-y,-z
1/2+x,1/2+y,-z
-x,1/2+y,z
1/2+x,-y,z
loop_
_atom_site_type_symbol
_atom_site_label
_atom_site_fract_x
_atom_site_fract_y
_atom_site_fract_z
Si Si1 0.121418 0.970880 0.786533
Si Si2 0.904130 0.983824 0.610073
Si Si3 0.621440 0.625017 0.447162
Si Si4 0.063260 0.776581 0.630558
Si Si5 0.428584 0.884709 0.719082
Si Si6 0.412957 0.185423 0.848388
Si Si7 0.762464 0.961949 0.066038
Si Si8 0.449545 0.615201 0.119805
O O1 0.288647 0.910405 0.768089
O O2 0.980905 0.887689 0.798967
O O3 0.088744 0.052030 0.736720
O O4 0.072214 0.049552 0.838453
O O5 0.734079 0.928278 0.599926
O O6 0.024354 0.893365 0.628052
O O7 0.877477 0.061764 0.660572
O O8 0.965681 0.048097 0.554420
O O9 0.750000 0.634850 0.500000
O O10 0.551771 0.726015 0.418586
O O11 0.250000 0.750000 0.614376
O O12 0.040746 0.727542 0.695047
O O13 0.250000 0.250000 0.832803
O O14 0.365510 0.117778 0.904369
O O15 0.547710 0.270601 0.861577
O O16 0.935228 0.901662 0.064457
O O17 0.721206 0.061482 0.105052
O O18 0.750000 0.993530 0.000000
#
# Coordination Sequence:
#
# PCOD9396448 Si02
#       8
#     8   8   8   8   8   8   8   8
#     4  11  22  40  64  89 126 170 213 263 320 385
#     4  11  23  43  67  97 135 171 218 275 324 393
#     4  11  24  45  71  99 134 176 218 269 336 398
#     4  11  24  43  66  99 137 173 220 273 323 392
#     4  11  23  41  64  93 129 173 216 259 322 380
#     4   9  20  38  60  90 125 162 212 266 320 388
#     4  10  20  38  62  86 119 161 205 259 322 385
#     4  10  21  38  59  89 123 160 209 264 317 381
#
# _framework density 25.591593
#
# number of rings (size 3 to 8) (size 9 to 14) (size 15 to 20)
#    0.000    1.500    0.000    7.125    0.000    5.250 
#    0.000   10.625    0.000    3.750    0.000    0.000 
#    0.000    0.000    0.000    0.000    0.000    0.000 
#
# Total GULP energy -356878.431837 kJ/mol
# GULP energy per Si atom -5576.225497 kJ/mol
# Density = 2.553335 g / cm^3
# Si number density = 25.591593 Si / 1000 Ang^3
#
#
#
# Elastic Constant Matrix: (Units=GPa)
#
#
# Indices 1 2 3 4 5 6 
#
# 1 74.1847 28.2801 0.5638 0.0000 0.0000 0.0000
# 2 28.2801 161.8740 31.5156 0.0000 0.0000 0.0000
# 3 0.5638 31.5156 61.5908 0.0000 0.0000 0.0000
# 4 0.0000 0.0000 0.0000 -3.6439 0.0000 0.0000
# 5 0.0000 0.0000 0.0000 0.0000 17.7792 0.0000
# 6 0.0000 0.0000 0.0000 0.0000 0.0000 55.8159
#
#
#
# Elastic Compliance Matrix: (Units=1/GPa)
#
#
# Indices 1 2 3 4 5 6 
#
# 1 0.014534 -0.002791 0.001295 0.000000 0.000000 0.000000
# 2 -0.002791 0.007397 -0.003760 0.000000 0.000000 0.000000
# 3 0.001295 -0.003760 0.018148 0.000000 0.000000 0.000000
# 4 0.000000 0.000000 0.000000 -0.274434 0.000000 0.000000
# 5 0.000000 0.000000 0.000000 0.000000 0.056246 0.000000
# 6 0.000000 0.000000 0.000000 0.000000 0.000000 0.017916
#
#
# Mechanical properties :
#
#
# Convention : Reuss Voigt Hill
#
# Bulk Modulus (GPa) = 33.82019 46.48540 40.15279
# Shear Modulus (GPa) = -35.75895 29.80957 -2.97469
#
# Velocity S-wave (km/s) = -3.74209 3.41665 -1.07930
# Velocity P-wave (km/s) = 2.32959 5.81106 3.76440
#
# Compressibility (1/GPa) = 0.02956814
#
# Stress axis : x y z
#
# Youngs Moduli (GPa) = 68.80365 135.18511 55.10224
#
# Poissons Ratio (x) = 0.37735 -0.07137
# Poissons Ratio (y) = 0.19206 0.20716
# Poissons Ratio (z) = -0.08912 0.50824
#
# Static dielectric constant tensor:
#      x y z
#    x 2.278180 0.000000 0.000000 
#    y 0.000000 2.014450 0.000000 
#    z 0.000000 0.000000 2.295920 
# 
# From -- ./inp_files/31629.got.cif
#   From: 2010.05.17/outbox.cif.g08.bks.cpg/sg50_16_cif.got.tgz:31629.got - 2010.06.03 11:33:33.
