data_PCOD9396081
_publ_section_title
;
Structure prediction by ZEFSAII (Michael W. Deem and Ramdas Pophale) SiO2 
 PCOD9396081
Probable space group: P B A N
;
_chemical_formula_sum "Si O2"
_cell_formula_units_Z 32
_cell_length_a 9.351540
_cell_length_b 17.624947
_cell_length_c 7.964710
_cell_angle_alpha 90.000000
_cell_angle_beta 90.000000
_cell_angle_gamma 90.000000
_cell_volume 1312.746663
_symmetry_space_group_name_H-M "P B A N"
_symmetry_group_IT_number 50
_space_group.IT_coordinate_system_code '2'
_symmetry_cell_setting 'orthorhombic'
loop_
_space_group_symop_operation_xyz
x,y,z
1/2-x,1/2-y,z
x,1/2-y,-z
1/2-x,y,-z
-x,-y,-z
1/2+x,1/2+y,-z
-x,1/2+y,z
1/2+x,-y,z
loop_
_atom_site_type_symbol
_atom_site_label
_atom_site_fract_x
_atom_site_fract_y
_atom_site_fract_z
Si Si1 0.717862 0.162981 0.761189
Si Si2 0.558456 0.835490 0.443890
Si Si3 0.511901 0.927672 0.756267
Si Si4 0.553108 0.904494 0.119563
O O1 0.750000 0.250000 0.795222
O O2 0.611276 0.160284 0.600551
O O3 0.862418 0.116951 0.748232
O O4 0.608544 0.128421 0.896732
O O5 0.589195 0.750000 0.500000
O O6 0.587706 0.898551 0.586295
O O7 0.624811 0.851776 0.260147
O O8 0.469011 0.015143 0.786107
O O9 0.600702 0.910594 0.927413
#
# Coordination Sequence:
#
# PCOD9396081 Si02
#       4
#     8   8   8   8
#     4  10  20  33  53  81 104 132 171 216 261 307
#     4  10  20  32  50  77 102 133 170 213 261 305
#     4  11  18  35  47  70 115 131 172 213 254 318
#     4   9  23  30  47  77 101 146 166 206 267 304
#
# _framework density 24.376370999999999
#
# number of rings (size 3 to 8) (size 9 to 14) (size 15 to 20)
#    1.500    0.500    2.500    2.250    0.000    5.000 
#    0.000    0.000    0.000    0.000    0.000    8.750 
#    0.000   32.000    0.000    0.000    0.000    0.000 
#
# Total GULP energy -178425.929163 kJ/mol
# GULP energy per Si atom -5575.810286 kJ/mol
# Density = 2.432089 g / cm^3
# Si number density = 24.376371 Si / 1000 Ang^3
#
#
#
# Elastic Constant Matrix: (Units=GPa)
#
#
# Indices 1 2 3 4 5 6 
#
# 1 81.0443 2.9191 -13.4836 0.0000 0.0000 0.0000
# 2 2.9191 135.1599 44.7418 0.0000 0.0000 0.0000
# 3 -13.4836 44.7418 186.5577 0.0000 0.0000 0.0000
# 4 0.0000 0.0000 0.0000 43.6162 0.0000 0.0000
# 5 0.0000 0.0000 0.0000 0.0000 38.5618 0.0000
# 6 0.0000 0.0000 0.0000 0.0000 0.0000 -277.3215
#
#
#
# Elastic Compliance Matrix: (Units=1/GPa)
#
#
# Indices 1 2 3 4 5 6 
#
# 1 0.012537 -0.000620 0.001055 0.000000 0.000000 0.000000
# 2 -0.000620 0.008067 -0.001980 0.000000 0.000000 0.000000
# 3 0.001055 -0.001980 0.005911 0.000000 0.000000 0.000000
# 4 0.000000 0.000000 0.000000 0.022927 0.000000 0.000000
# 5 0.000000 0.000000 0.000000 0.000000 0.025932 0.000000
# 6 0.000000 0.000000 0.000000 0.000000 0.000000 -0.003606
#
#
# Mechanical properties :
#
#
# Convention : Reuss Voigt Hill
#
# Bulk Modulus (GPa) = 42.68780 52.34627 47.51704
# Shear Modulus (GPa) = 60.48351 -14.45638 23.01356
#
# Velocity S-wave (km/s) = 4.98660 -2.43790 3.07594
# Velocity P-wave (km/s) = 7.12074 3.68732 5.67015
#
# Compressibility (1/GPa) = 0.02342589
#
# Stress axis : x y z
#
# Youngs Moduli (GPa) = 79.76555 123.95679 169.16856
#
# Poissons Ratio (x) = 0.07684 -0.17843
# Poissons Ratio (y) = 0.04945 0.33488
# Poissons Ratio (z) = -0.08413 0.24538
#
# Static dielectric constant tensor:
#      x y z
#    x 1.938600 0.000000 0.000000 
#    y 0.000000 2.015130 0.000000 
#    z 0.000000 0.000000 1.591170 
# 
# From -- ./inp_files/10552.got.cif
#   From: 2010.05.17/outbox.cif.g08.bks.cpg/sg50_6_cif.got.tgz:10552.got - 2010.06.03 11:33:33.
