data_PCOD9396246
_publ_section_title
;
Structure prediction by ZEFSAII (Michael W. Deem and Ramdas Pophale) SiO2 
 PCOD9396246
Probable space group: P B A N
;
_chemical_formula_sum "Si O2"
_cell_formula_units_Z 64
_cell_length_a 14.916804
_cell_length_b 8.861961
_cell_length_c 23.593322
_cell_angle_alpha 90.000000
_cell_angle_beta 90.000000
_cell_angle_gamma 90.000000
_cell_volume 3118.851614
_symmetry_space_group_name_H-M "P B A N"
_symmetry_group_IT_number 50
_space_group.IT_coordinate_system_code '2'
_symmetry_cell_setting 'orthorhombic'
loop_
_space_group_symop_operation_xyz
x,y,z
1/2-x,1/2-y,z
x,1/2-y,-z
1/2-x,y,-z
-x,-y,-z
1/2+x,1/2+y,-z
-x,1/2+y,z
1/2+x,-y,z
loop_
_atom_site_type_symbol
_atom_site_label
_atom_site_fract_x
_atom_site_fract_y
_atom_site_fract_z
Si Si1 0.430301 0.949831 0.770610
Si Si2 0.201711 0.476537 0.114301
Si Si3 0.122445 0.900070 0.777002
Si Si4 0.951684 0.384975 0.958441
Si Si5 0.119255 0.555103 0.349429
Si Si6 0.070495 0.593207 0.642421
Si Si7 0.881444 0.645504 0.124254
Si Si8 0.730942 0.431681 0.563585
O O1 0.410413 0.773603 0.782761
O O2 0.402554 0.969784 0.704852
O O3 0.535513 0.990098 0.778825
O O4 0.387508 0.066574 0.814617
O O5 0.191514 0.565721 0.173251
O O6 0.138068 0.554720 0.069374
O O7 0.157169 0.313383 0.126275
O O8 0.303195 0.452208 0.094104
O O9 0.158455 0.934446 0.714197
O O10 0.024285 0.352544 0.908548
O O11 0.931092 0.250000 0.000000
O O12 0.000000 0.500000 0.000000
O O13 0.083789 0.726437 0.358022
O O14 0.195751 0.509269 0.392665
O O15 0.033579 0.449821 0.359401
O O16 0.133613 0.537861 0.591085
O O17 0.750000 0.250000 0.563199
O O18 0.750000 0.485668 0.500000
#
# Coordination Sequence:
#
# PCOD9396246 Si02
#       8
#     8   8   8   8   8   8   8   8
#     4  10  20  35  61  89 125 161 201 256 312 370
#     4  11  25  44  66  97 124 162 205 252 310 365
#     4  10  20  35  61  89 125 160 202 254 314 369
#     4  12  26  48  72  90 124 168 204 251 301 360
#     4   9  19  35  56  85 118 158 202 253 305 366
#     4   9  19  35  56  85 118 158 203 252 307 364
#     4  11  25  44  66  95 127 160 205 254 308 365
#     4   9  18  34  57  83 117 162 209 252 306 373
#
# _framework density 20.520375000000001
#
# number of rings (size 3 to 8) (size 9 to 14) (size 15 to 20)
#    0.000    1.875    2.500    0.750    3.500    2.500 
#    0.000    1.250    0.000    0.750    0.000    0.000 
#    0.000    0.000    0.000    0.000    0.000    0.000 
#
# Total GULP energy -357183.867977 kJ/mol
# GULP energy per Si atom -5580.997937 kJ/mol
# Density = 2.047367 g / cm^3
# Si number density = 20.520375 Si / 1000 Ang^3
#
#
#
# Elastic Constant Matrix: (Units=GPa)
#
#
# Indices 1 2 3 4 5 6 
#
# 1 46.0417 1.3528 17.1380 0.0000 0.0000 0.0000
# 2 1.3528 42.2184 22.9615 0.0000 0.0000 0.0000
# 3 17.1380 22.9615 96.0663 0.0000 0.0000 0.0000
# 4 0.0000 0.0000 0.0000 18.6062 0.0000 0.0000
# 5 0.0000 0.0000 0.0000 0.0000 22.4641 0.0000
# 6 0.0000 0.0000 0.0000 0.0000 0.0000 22.1446
#
#
#
# Elastic Compliance Matrix: (Units=1/GPa)
#
#
# Indices 1 2 3 4 5 6 
#
# 1 0.023376 0.001746 -0.004588 0.000000 0.000000 0.000000
# 2 0.001746 0.027356 -0.006850 0.000000 0.000000 0.000000
# 3 -0.004588 -0.006850 0.012865 0.000000 0.000000 0.000000
# 4 0.000000 0.000000 0.000000 0.053746 0.000000 0.000000
# 5 0.000000 0.000000 0.000000 0.000000 0.044515 0.000000
# 6 0.000000 0.000000 0.000000 0.000000 0.000000 0.045158
#
#
# Mechanical properties :
#
#
# Convention : Reuss Voigt Hill
#
# Bulk Modulus (GPa) = 22.61739 29.69234 26.15487
# Shear Modulus (GPa) = 20.73515 22.16793 21.45154
#
# Velocity S-wave (km/s) = 3.18223 3.29034 3.23674
# Velocity P-wave (km/s) = 4.95459 5.37924 5.17128
#
# Compressibility (1/GPa) = 0.04421376
#
# Stress axis : x y z
#
# Youngs Moduli (GPa) = 42.77938 36.55514 77.72932
#
# Poissons Ratio (x) = -0.06383 0.35658
# Poissons Ratio (y) = -0.07469 0.53245
# Poissons Ratio (z) = 0.19625 0.25040
#
# Static dielectric constant tensor:
#      x y z
#    x 1.751690 0.000000 0.000000 
#    y 0.000000 1.715220 0.000000 
#    z 0.000000 0.000000 1.743650 
# 
# From -- ./inp_files/31794.got.cif
#   From: 2010.05.17/outbox.cif.g08.bks.cpg/sg50_16_cif.got.tgz:31794.got - 2010.06.03 11:33:33.
