data_PCOD9396422
_publ_section_title
;
Structure prediction by ZEFSAII (Michael W. Deem and Ramdas Pophale) SiO2 
 PCOD9396422
Probable space group: P B A N
;
_chemical_formula_sum "Si O2"
_cell_formula_units_Z 42
_cell_length_a 21.301276
_cell_length_b 22.055061
_cell_length_c 5.173629
_cell_angle_alpha 90.000000
_cell_angle_beta 90.000000
_cell_angle_gamma 90.000000
_cell_volume 2430.575775
_symmetry_space_group_name_H-M "P B A N"
_symmetry_group_IT_number 50
_space_group.IT_coordinate_system_code '2'
_symmetry_cell_setting 'orthorhombic'
loop_
_space_group_symop_operation_xyz
x,y,z
1/2-x,1/2-y,z
x,1/2-y,-z
1/2-x,y,-z
-x,-y,-z
1/2+x,1/2+y,-z
-x,1/2+y,z
1/2+x,-y,z
loop_
_atom_site_type_symbol
_atom_site_label
_atom_site_fract_x
_atom_site_fract_y
_atom_site_fract_z
Si Si1 0.750000 0.250000 0.500000
Si Si2 0.644626 0.190165 0.180778
Si Si3 0.792792 0.434189 0.238499
Si Si4 0.962336 0.574179 0.744078
Si Si5 0.415727 0.491365 0.239869
Si Si6 0.502693 0.209242 0.257997
O O1 0.703101 0.207192 0.354033
O O2 0.667526 0.122856 0.109630
O O3 0.575780 0.189736 0.303937
O O4 0.642229 0.250000 0.000000
O O5 0.750000 0.423404 0.500000
O O6 0.847762 0.481637 0.300720
O O7 0.750000 0.455270 0.000000
O O8 0.937471 0.553796 0.465738
O O9 0.032196 0.545141 0.769874
O O10 0.966153 0.646376 0.770629
O O11 0.921131 0.543087 0.967510
O O12 0.482714 0.250000 0.500000
O O13 0.499759 0.250000 0.000000
#
# Coordination Sequence:
#
# PCOD9396422 Si02
#       6
#     2   8   8   8   8   8
#     4  12  18  36  44  66 104 160 198 216 262 284
#     4  11  23  34  48  72 110 156 196 231 261 303
#     4  12  24  38  56  81 114 148 199 239 270 328
#     4  10  20  38  58  78 111 144 191 233 284 341
#     4  10  21  37  58  80 106 152 188 231 289 330
#     4  11  22  36  56  83 112 144 188 238 274 320
#
# _framework density 17.279857
#
# number of rings (size 3 to 8) (size 9 to 14) (size 15 to 20)
#    0.000    1.143    3.810    3.714    0.000    0.000 
#    0.000    0.000    0.000    0.000    0.000    0.000 
#    0.000   53.333    0.000    0.000    0.000    0.000 
#
# Total GULP energy -233906.933090 kJ/mol
# GULP energy per Si atom -5569.212693 kJ/mol
# Density = 1.724053 g / cm^3
# Si number density = 17.279857 Si / 1000 Ang^3
#
#
#
# Elastic Constant Matrix: (Units=GPa)
#
#
# Indices 1 2 3 4 5 6 
#
# 1 48.6080 25.9252 0.6412 0.0000 0.0000 0.0000
# 2 25.9252 97.9742 16.8024 0.0000 0.0000 0.0000
# 3 0.6412 16.8024 68.3327 0.0000 0.0000 0.0000
# 4 0.0000 0.0000 0.0000 16.7414 0.0000 0.0000
# 5 0.0000 0.0000 0.0000 0.0000 15.6804 0.0000
# 6 0.0000 0.0000 0.0000 0.0000 0.0000 75.3258
#
#
#
# Elastic Compliance Matrix: (Units=1/GPa)
#
#
# Indices 1 2 3 4 5 6 
#
# 1 0.024081 -0.006612 0.001400 0.000000 0.000000 0.000000
# 2 -0.006612 0.012472 -0.003005 0.000000 0.000000 0.000000
# 3 0.001400 -0.003005 0.015360 0.000000 0.000000 0.000000
# 4 0.000000 0.000000 0.000000 0.059732 0.000000 0.000000
# 5 0.000000 0.000000 0.000000 0.000000 0.063774 0.000000
# 6 0.000000 0.000000 0.000000 0.000000 0.000000 0.013276
#
#
# Mechanical properties :
#
#
# Convention : Reuss Voigt Hill
#
# Bulk Modulus (GPa) = 28.18586 33.51693 30.85139
# Shear Modulus (GPa) = 23.04632 32.98593 28.01612
#
# Velocity S-wave (km/s) = 3.65596 4.37386 4.03093
# Velocity P-wave (km/s) = 5.84536 6.70419 6.28945
#
# Compressibility (1/GPa) = 0.03547879
#
# Stress axis : x y z
#
# Youngs Moduli (GPa) = 41.52663 80.18133 65.10434
#
# Poissons Ratio (x) = 0.53017 -0.09114
# Poissons Ratio (y) = 0.27458 0.19561
# Poissons Ratio (z) = -0.05813 0.24092
#
# Static dielectric constant tensor:
#      x y z
#    x 1.529850 0.000000 0.000000 
#    y 0.000000 1.678660 0.000000 
#    z 0.000000 0.000000 1.622010 
# 
# From -- ./inp_files/5243.got.cif
#   From: 2010.05.17/outbox.cif.g08.bks.cpg/sg50_3_cif.got.tgz:5243.got - 2010.06.03 11:33:33.
