data_PCOD9396073
_publ_section_title
;
Structure prediction by ZEFSAII (Michael W. Deem and Ramdas Pophale) SiO2 
 PCOD9396073
Probable space group: P B A N
;
_chemical_formula_sum "Si O2"
_cell_formula_units_Z 64
_cell_length_a 19.718018
_cell_length_b 6.855456
_cell_length_c 17.382003
_cell_angle_alpha 90.000000
_cell_angle_beta 90.000000
_cell_angle_gamma 90.000000
_cell_volume 2349.629721
_symmetry_space_group_name_H-M "P B A N"
_symmetry_group_IT_number 50
_space_group.IT_coordinate_system_code '2'
_symmetry_cell_setting 'orthorhombic'
loop_
_space_group_symop_operation_xyz
x,y,z
1/2-x,1/2-y,z
x,1/2-y,-z
1/2-x,y,-z
-x,-y,-z
1/2+x,1/2+y,-z
-x,1/2+y,z
1/2+x,-y,z
loop_
_atom_site_type_symbol
_atom_site_label
_atom_site_fract_x
_atom_site_fract_y
_atom_site_fract_z
Si Si1 0.089233 0.531697 0.600019
Si Si2 0.258986 0.983584 0.775316
Si Si3 0.099439 0.617113 0.819417
Si Si4 0.868646 0.556340 0.853663
Si Si5 0.579209 0.022505 0.012951
Si Si6 0.473441 0.378513 0.712058
Si Si7 0.253067 0.982852 0.606596
Si Si8 0.892597 0.000263 0.430086
O O1 0.030400 0.480150 0.662711
O O2 0.167633 0.466998 0.607817
O O3 0.096270 0.772579 0.597316
O O4 0.072468 0.474517 0.512487
O O5 0.250000 0.750000 0.781068
O O6 0.340073 0.998762 0.778120
O O7 0.210039 0.088473 0.835078
O O8 0.230115 0.035696 0.692364
O O9 0.126343 0.822222 0.848151
O O10 0.085877 0.491086 0.895495
O O11 0.036648 0.687472 0.766916
O O12 0.918734 0.615419 0.783368
O O13 0.887213 0.596261 0.942546
O O14 0.597860 0.250000 0.000000
O O15 0.500000 0.000000 0.000000
O O16 0.423545 0.371935 0.637903
O O17 0.250000 0.750000 0.596723
O O18 0.187939 0.043696 0.556649
#
# Coordination Sequence:
#
# PCOD9396073 Si02
#       8
#     8   8   8   8   8   8   8   8
#     4  10  20  32  47  71 100 130 165 209 258 311
#     4   9  16  30  50  74 100 130 165 214 264 310
#     4  10  20  33  52  76 106 135 170 212 262 312
#     4  10  20  33  52  76 106 135 170 212 262 312
#     4  10  20  35  53  83 115 147 178 218 270 324
#     4  12  19  29  48  72 102 132 168 199 265 304
#     4   9  15  28  48  68  94 126 161 203 260 313
#     4  10  20  32  47  71 100 130 165 209 258 311
#
# _framework density 27.238333000000001
#
# number of rings (size 3 to 8) (size 9 to 14) (size 15 to 20)
#    0.000    2.000    3.750    1.500    0.000    2.000 
#    0.000    2.500    0.000    0.000    0.000   19.250 
#    0.000   16.000    0.000    0.000    0.000    0.000 
#
# Total GULP energy -356355.705675 kJ/mol
# GULP energy per Si atom -5568.057901 kJ/mol
# Density = 2.717634 g / cm^3
# Si number density = 27.238333 Si / 1000 Ang^3
#
#
#
# Elastic Constant Matrix: (Units=GPa)
#
#
# Indices 1 2 3 4 5 6 
#
# 1 185.2788 18.0896 54.8247 0.0000 0.0000 0.0000
# 2 18.0896 92.8747 3.2636 0.0000 0.0000 0.0000
# 3 54.8247 3.2636 198.0413 0.0000 0.0000 0.0000
# 4 0.0000 0.0000 0.0000 2.7350 0.0000 0.0000
# 5 0.0000 0.0000 0.0000 0.0000 32.9849 0.0000
# 6 0.0000 0.0000 0.0000 0.0000 0.0000 25.4498
#
#
#
# Elastic Compliance Matrix: (Units=1/GPa)
#
#
# Indices 1 2 3 4 5 6 
#
# 1 0.005991 -0.001109 -0.001640 0.000000 0.000000 0.000000
# 2 -0.001109 0.010979 0.000126 0.000000 0.000000 0.000000
# 3 -0.001640 0.000126 0.005501 0.000000 0.000000 0.000000
# 4 0.000000 0.000000 0.000000 0.365626 0.000000 0.000000
# 5 0.000000 0.000000 0.000000 0.000000 0.030317 0.000000
# 6 0.000000 0.000000 0.000000 0.000000 0.000000 0.039293
#
#
# Mechanical properties :
#
#
# Convention : Reuss Voigt Hill
#
# Bulk Modulus (GPa) = 58.05662 69.83897 63.94779
# Shear Modulus (GPa) = 10.66792 38.90172 24.78482
#
# Velocity S-wave (km/s) = 1.98116 3.78325 3.01977
# Velocity P-wave (km/s) = 5.15693 6.69176 5.97384
#
# Compressibility (1/GPa) = 0.01722457
#
# Stress axis : x y z
#
# Youngs Moduli (GPa) = 166.91928 91.08450 181.77053
#
# Poissons Ratio (x) = 0.10103 0.29814
# Poissons Ratio (y) = 0.18515 -0.02293
# Poissons Ratio (z) = 0.27378 -0.01149
#
# Static dielectric constant tensor:
#      x y z
#    x 2.123380 0.000000 0.000000 
#    y 0.000000 2.486870 0.000000 
#    z 0.000000 0.000000 2.209570 
# 
# From -- ./inp_files/29748.got.cif
#   From: 2010.05.17/outbox.cif.g08.bks.cpg/sg50_15_cif.got.tgz:29748.got - 2010.06.03 11:33:33.
