data_PCOD9396133
_publ_section_title
;
Structure prediction by ZEFSAII (Michael W. Deem and Ramdas Pophale) SiO2 
 PCOD9396133
Probable space group: P B A N
;
_chemical_formula_sum "Si O2"
_cell_formula_units_Z 40
_cell_length_a 8.435321
_cell_length_b 13.598439
_cell_length_c 14.641572
_cell_angle_alpha 90.000000
_cell_angle_beta 90.000000
_cell_angle_gamma 90.000000
_cell_volume 1679.493699
_symmetry_space_group_name_H-M "P B A N"
_symmetry_group_IT_number 50
_space_group.IT_coordinate_system_code '2'
_symmetry_cell_setting 'orthorhombic'
loop_
_space_group_symop_operation_xyz
x,y,z
1/2-x,1/2-y,z
x,1/2-y,-z
1/2-x,y,-z
-x,-y,-z
1/2+x,1/2+y,-z
-x,1/2+y,z
1/2+x,-y,z
loop_
_atom_site_type_symbol
_atom_site_label
_atom_site_fract_x
_atom_site_fract_y
_atom_site_fract_z
Si Si1 0.012888 0.981051 0.133481
Si Si2 0.750000 0.012189 0.000000
Si Si3 0.579091 0.786504 0.104401
Si Si4 0.642949 0.437024 0.308412
Si Si5 0.877963 0.561881 0.436003
Si Si6 0.750000 0.250000 0.202913
O O1 0.062236 0.095951 0.118375
O O2 0.936390 0.987319 0.234162
O O3 0.161658 0.930097 0.081505
O O4 0.875889 0.955729 0.061610
O O5 0.750000 0.750000 0.141822
O O6 0.420817 0.748463 0.153393
O O7 0.573279 0.750000 0.000000
O O8 0.764975 0.492861 0.374256
O O9 0.498135 0.388559 0.365230
O O10 0.738084 0.350103 0.260960
O O11 0.750000 0.616783 0.500000
O O12 0.000000 0.500000 0.500000
#
# Coordination Sequence:
#
# PCOD9396133 Si02
#       6
#     8   4   8   8   8   4
#     4  10  21  34  54  83 117 160 196 252 293 343
#     4  10  20  34  50  84 122 152 210 248 294 344
#     4  10  21  38  56  79 118 175 214 246 291 354
#     4  10  20  39  61  93 120 158 202 252 310 371
#     4   9  19  39  65  89 114 152 193 244 317 392
#     4  10  23  38  61  92 128 160 208 262 309 357
#
# _framework density 23.816701999999999
#
# number of rings (size 3 to 8) (size 9 to 14) (size 15 to 20)
#    0.000    2.200    0.000    2.700    5.600    0.000 
#   18.000    4.500    0.000    3.600    0.000    0.000 
#    0.000    0.000    0.000    0.000    0.000    0.000 
#
# Total GULP energy -222819.587159 kJ/mol
# GULP energy per Si atom -5570.489679 kJ/mol
# Density = 2.376249 g / cm^3
# Si number density = 23.816702 Si / 1000 Ang^3
#
#
#
# Elastic Constant Matrix: (Units=GPa)
#
#
# Indices 1 2 3 4 5 6 
#
# 1 198.9388 22.2901 70.8047 0.0000 0.0000 0.0000
# 2 22.2901 68.9129 12.8850 0.0000 0.0000 0.0000
# 3 70.8047 12.8850 121.5188 0.0000 0.0000 0.0000
# 4 0.0000 0.0000 0.0000 1.1169 0.0000 0.0000
# 5 0.0000 0.0000 0.0000 0.0000 69.6863 0.0000
# 6 0.0000 0.0000 0.0000 0.0000 0.0000 16.7743
#
#
#
# Elastic Compliance Matrix: (Units=1/GPa)
#
#
# Indices 1 2 3 4 5 6 
#
# 1 0.006475 -0.001417 -0.003622 0.000000 0.000000 0.000000
# 2 -0.001417 0.015115 -0.000777 0.000000 0.000000 0.000000
# 3 -0.003622 -0.000777 0.010422 0.000000 0.000000 0.000000
# 4 0.000000 0.000000 0.000000 0.895327 0.000000 0.000000
# 5 0.000000 0.000000 0.000000 0.000000 0.014350 0.000000
# 6 0.000000 0.000000 0.000000 0.000000 0.000000 0.059615
#
#
# Mechanical properties :
#
#
# Convention : Reuss Voigt Hill
#
# Bulk Modulus (GPa) = 49.07042 66.81445 57.94244
# Shear Modulus (GPa) = 4.90326 36.40821 20.65574
#
# Velocity S-wave (km/s) = 1.43639 3.91408 2.94816
# Velocity P-wave (km/s) = 4.83726 6.96715 5.99751
#
# Compressibility (1/GPa) = 0.02037887
#
# Stress axis : x y z
#
# Youngs Moduli (GPa) = 154.44823 66.16086 95.94936
#
# Poissons Ratio (x) = 0.09375 0.34756
# Poissons Ratio (y) = 0.21885 0.07456
# Poissons Ratio (z) = 0.55946 0.05141
#
# Static dielectric constant tensor:
#      x y z
#    x 2.121320 0.000000 0.000000 
#    y 0.000000 2.171010 0.000000 
#    z 0.000000 0.000000 1.993490 
# 
# From -- ./inp_files/24713.got.cif
#   From: 2010.05.17/outbox.cif.g08.bks.cpg/sg50_13_cif.got.tgz:24713.got - 2010.06.03 11:33:33.
