data_PCOD9396371
_publ_section_title
;
Structure prediction by ZEFSAII (Michael W. Deem and Ramdas Pophale) SiO2 
 PCOD9396371
Probable space group: P B A N
;
_chemical_formula_sum "Si O2"
_cell_formula_units_Z 60
_cell_length_a 5.197795
_cell_length_b 27.008401
_cell_length_c 21.614889
_cell_angle_alpha 90.000000
_cell_angle_beta 90.000000
_cell_angle_gamma 90.000000
_cell_volume 3034.387424
_symmetry_space_group_name_H-M "P B A N"
_symmetry_group_IT_number 50
_space_group.IT_coordinate_system_code '2'
_symmetry_cell_setting 'orthorhombic'
loop_
_space_group_symop_operation_xyz
x,y,z
1/2-x,1/2-y,z
x,1/2-y,-z
1/2-x,y,-z
-x,-y,-z
1/2+x,1/2+y,-z
-x,1/2+y,z
1/2+x,-y,z
loop_
_atom_site_type_symbol
_atom_site_label
_atom_site_fract_x
_atom_site_fract_y
_atom_site_fract_z
Si Si1 0.266299 0.466579 0.179576
Si Si2 0.750000 0.250000 0.666114
Si Si3 0.762620 0.530109 0.674060
Si Si4 0.834362 0.631178 0.387012
Si Si5 0.733984 0.192060 0.074226
Si Si6 0.140947 0.305742 0.731884
Si Si7 0.771337 0.644792 0.135633
Si Si8 0.640774 0.319961 0.566272
O O1 0.523087 0.498091 0.166403
O O2 0.265854 0.455326 0.253471
O O3 0.253304 0.414341 0.144388
O O4 0.651159 0.206940 0.711229
O O5 0.569749 0.275619 0.614098
O O6 0.556787 0.486155 0.664854
O O7 0.681865 0.573840 0.628880
O O8 0.765143 0.658557 0.322337
O O9 0.614644 0.647204 0.435107
O O10 0.117123 0.649631 0.405875
O O11 0.750000 0.250000 0.093800
O O12 0.475841 0.167793 0.101449
O O13 0.975449 0.161508 0.099258
O O14 0.750000 0.191117 0.000000
O O15 0.250000 0.250000 0.730797
O O16 0.194621 0.330548 0.796855
O O17 0.750000 0.304031 0.500000
#
# Coordination Sequence:
#
# PCOD9396371 Si02
#       8
#     8   4   8   8   8   8   8   8
#     4  10  21  39  61  95 131 162 206 263 323 390
#     4  10  23  38  56  86 131 160 202 254 300 374
#     4  10  20  37  61  88 119 157 196 247 319 382
#     4  11  22  39  60  88 121 156 197 260 301 367
#     4  11  25  45  65  94 133 180 224 256 297 371
#     4  11  22  37  57  94 132 158 189 255 323 369
#     4  12  24  39  70  96 129 172 212 265 322 381
#     4  11  23  39  60  81 118 169 210 241 297 367
#
# _framework density 19.773347999999999
#
# number of rings (size 3 to 8) (size 9 to 14) (size 15 to 20)
#    0.000    1.200    2.667    3.800    2.800    1.067 
#    0.000    1.333    0.000   16.000    0.000    0.000 
#    0.000    0.000    0.000    0.000    0.000    0.000 
#
# Total GULP energy -334784.484398 kJ/mol
# GULP energy per Si atom -5579.741407 kJ/mol
# Density = 1.972834 g / cm^3
# Si number density = 19.773348 Si / 1000 Ang^3
#
#
#
# Elastic Constant Matrix: (Units=GPa)
#
#
# Indices 1 2 3 4 5 6 
#
# 1 92.1309 5.9367 23.2817 0.0000 0.0000 0.0000
# 2 5.9367 86.6554 24.0378 0.0000 0.0000 0.0000
# 3 23.2817 24.0378 80.4614 0.0000 0.0000 0.0000
# 4 0.0000 0.0000 0.0000 -189.5051 0.0000 0.0000
# 5 0.0000 0.0000 0.0000 0.0000 30.7685 0.0000
# 6 0.0000 0.0000 0.0000 0.0000 0.0000 15.0836
#
#
#
# Elastic Compliance Matrix: (Units=1/GPa)
#
#
# Indices 1 2 3 4 5 6 
#
# 1 0.011712 0.000150 -0.003434 0.000000 0.000000 0.000000
# 2 0.000150 0.012585 -0.003803 0.000000 0.000000 0.000000
# 3 -0.003434 -0.003803 0.014558 0.000000 0.000000 0.000000
# 4 0.000000 0.000000 0.000000 -0.005277 0.000000 0.000000
# 5 0.000000 0.000000 0.000000 0.000000 0.032501 0.000000
# 6 0.000000 0.000000 0.000000 0.000000 0.000000 0.066297
#
#
# Mechanical properties :
#
#
# Convention : Reuss Voigt Hill
#
# Bulk Modulus (GPa) = 40.51643 40.64002 40.57823
# Shear Modulus (GPa) = 32.30461 -14.99784 8.65338
#
# Velocity S-wave (km/s) = 4.04635 -2.75705 2.09423
# Velocity P-wave (km/s) = 6.50888 3.23457 5.13945
#
# Compressibility (1/GPa) = 0.02468135
#
# Stress axis : x y z
#
# Youngs Moduli (GPa) = 85.38121 79.46194 68.69036
#
# Poissons Ratio (x) = -0.01193 0.23587
# Poissons Ratio (y) = -0.01282 0.26124
# Poissons Ratio (z) = 0.29318 0.30220
#
# Static dielectric constant tensor:
#      x y z
#    x 1.786510 0.000000 0.000000 
#    y 0.000000 1.699460 0.000000 
#    z 0.000000 0.000000 1.706750 
# 
# From -- ./inp_files/30462.got.cif
#   From: 2010.05.17/outbox.cif.g08.bks.cpg/sg50_16_cif.got.tgz:30462.got - 2010.06.03 11:33:33.
