data_PCOD9396871
_publ_section_title
;
Structure prediction by ZEFSAII (Michael W. Deem and Ramdas Pophale) SiO2 
 PCOD9396871
Probable space group: P B A N
;
_chemical_formula_sum "Si O2"
_cell_formula_units_Z 40
_cell_length_a 12.647372
_cell_length_b 15.338870
_cell_length_c 10.174311
_cell_angle_alpha 90.000000
_cell_angle_beta 90.000000
_cell_angle_gamma 90.000000
_cell_volume 1973.779655
_symmetry_space_group_name_H-M "P B A N"
_symmetry_group_IT_number 50
_space_group.IT_coordinate_system_code '2'
_symmetry_cell_setting 'orthorhombic'
loop_
_space_group_symop_operation_xyz
x,y,z
1/2-x,1/2-y,z
x,1/2-y,-z
1/2-x,y,-z
-x,-y,-z
1/2+x,1/2+y,-z
-x,1/2+y,z
1/2+x,-y,z
loop_
_atom_site_type_symbol
_atom_site_label
_atom_site_fract_x
_atom_site_fract_y
_atom_site_fract_z
Si Si1 0.609587 0.498880 0.622776
Si Si2 0.476713 0.306275 0.373320
Si Si3 0.655921 0.076521 0.651524
Si Si4 0.047547 0.025342 0.858694
Si Si5 0.866044 0.786485 0.143438
O O1 0.591778 0.603600 0.634113
O O2 0.723721 0.453269 0.645614
O O3 0.599527 0.478804 0.466210
O O4 0.539342 0.460709 0.742735
O O5 0.448077 0.250000 0.500000
O O6 0.601560 0.330689 0.377044
O O7 0.448179 0.250750 0.246948
O O8 0.614943 0.052494 0.795915
O O9 0.122205 0.109790 0.863950
O O10 0.000000 0.000000 0.000000
O O11 0.750000 0.750000 0.179869
O O12 0.889667 0.750000 0.000000
#
# Coordination Sequence:
#
# PCOD9396871 Si02
#       5
#     8   8   8   8   8
#     4  10  21  39  61  86 120 163 202 241 297 368
#     4  11  21  37  62  92 120 151 200 259 300 345
#     4  10  21  39  60  86 120 163 202 240 298 368
#     4  11  22  39  61  86 121 162 199 244 303 369
#     4  11  23  38  57  87 120 153 197 253 305 355
#
# _framework density 20.265685999999999
#
# number of rings (size 3 to 8) (size 9 to 14) (size 15 to 20)
#    0.000    1.400    0.000    8.400    0.000    4.400 
#    0.000    7.000    0.000    1.200    0.000    0.000 
#    0.000    0.000    0.000    0.000    0.000    0.000 
#
# Total GULP energy -222709.654245 kJ/mol
# GULP energy per Si atom -5567.741356 kJ/mol
# Density = 2.021956 g / cm^3
# Si number density = 20.265686 Si / 1000 Ang^3
#
#
#
# Elastic Constant Matrix: (Units=GPa)
#
#
# Indices 1 2 3 4 5 6 
#
# 1 80.8090 20.6564 30.5612 0.0000 0.0000 0.0000
# 2 20.6564 73.8770 19.6919 0.0000 0.0000 0.0000
# 3 30.5612 19.6919 80.3992 0.0000 0.0000 0.0000
# 4 0.0000 0.0000 0.0000 34.9998 0.0000 0.0000
# 5 0.0000 0.0000 0.0000 0.0000 3.9369 0.0000
# 6 0.0000 0.0000 0.0000 0.0000 0.0000 20.4190
#
#
#
# Elastic Compliance Matrix: (Units=1/GPa)
#
#
# Indices 1 2 3 4 5 6 
#
# 1 0.014997 -0.002860 -0.005000 0.000000 0.000000 0.000000
# 2 -0.002860 0.015027 -0.002593 0.000000 0.000000 0.000000
# 3 -0.005000 -0.002593 0.014974 0.000000 0.000000 0.000000
# 4 0.000000 0.000000 0.000000 0.028572 0.000000 0.000000
# 5 0.000000 0.000000 0.000000 0.000000 0.254008 0.000000
# 6 0.000000 0.000000 0.000000 0.000000 0.000000 0.048974
#
#
# Mechanical properties :
#
#
# Convention : Reuss Voigt Hill
#
# Bulk Modulus (GPa) = 41.51047 41.87824 41.69436
# Shear Modulus (GPa) = 12.33078 22.81618 17.57348
#
# Velocity S-wave (km/s) = 2.46937 3.35901 2.94794
# Velocity P-wave (km/s) = 5.35331 5.97942 5.67501
#
# Compressibility (1/GPa) = 0.02409031
#
# Stress axis : x y z
#
# Youngs Moduli (GPa) = 66.67989 66.54674 66.78382
#
# Poissons Ratio (x) = 0.19036 0.33392
# Poissons Ratio (y) = 0.19074 0.17318
# Poissons Ratio (z) = 0.33340 0.17257
#
# Static dielectric constant tensor:
#      x y z
#    x 1.851260 0.000000 0.000000 
#    y 0.000000 1.813130 0.000000 
#    z 0.000000 0.000000 1.692190 
# 
# From -- ./inp_files/12554.got.cif
#   From: 2010.05.17/outbox.cif.g08.bks.cpg/sg50_7_cif.got.tgz:12554.got - 2010.06.03 11:33:33.
