data_PCOD9396132
_publ_section_title
;
Structure prediction by ZEFSAII (Michael W. Deem and Ramdas Pophale) SiO2 
 PCOD9396132
Probable space group: P B A N
;
_chemical_formula_sum "Si O2"
_cell_formula_units_Z 48
_cell_length_a 19.944245
_cell_length_b 19.504041
_cell_length_c 7.423065
_cell_angle_alpha 90.000000
_cell_angle_beta 90.000000
_cell_angle_gamma 90.000000
_cell_volume 2887.523086
_symmetry_space_group_name_H-M "P B A N"
_symmetry_group_IT_number 50
_space_group.IT_coordinate_system_code '2'
_symmetry_cell_setting 'orthorhombic'
loop_
_space_group_symop_operation_xyz
x,y,z
1/2-x,1/2-y,z
x,1/2-y,-z
1/2-x,y,-z
-x,-y,-z
1/2+x,1/2+y,-z
-x,1/2+y,z
1/2+x,-y,z
loop_
_atom_site_type_symbol
_atom_site_label
_atom_site_fract_x
_atom_site_fract_y
_atom_site_fract_z
Si Si1 0.466253 0.924653 0.000000
Si Si2 0.465156 0.171625 0.714774
Si Si3 0.325792 0.987629 0.000000
Si Si4 0.324698 0.107409 0.713379
Si Si5 0.824698 0.607409 0.713379
Si Si6 0.034843 0.328375 0.285226
O O1 0.492019 0.882180 0.171949
O O2 0.386560 0.934995 0.000000
O O3 0.492019 0.882180 0.828051
O O4 0.500000 0.000000 0.000000
O O5 0.386756 0.156611 0.755216
O O6 0.474386 0.162855 0.500000
O O7 0.481423 0.250000 0.761705
O O8 0.332731 0.038406 0.828762
O O9 0.250000 0.959392 0.000000
O O10 0.332731 0.038405 0.171238
O O11 0.327377 0.092824 0.500000
O O12 0.250000 0.135191 0.753767
O O13 0.886756 0.656611 0.755216
#
# Coordination Sequence:
#
# PCOD9396132 Si02
#       6
#     8   8   8   8   8   8
#     4  12  21  34  55  80 101 137 176 215 259 302
#     4  10  21  35  52  77 108 140 173 211 256 306
#     4  10  20  34  50  74 105 133 168 212 259 305
#     4   9  17  30  49  74 106 140 170 200 242 304
#     4   9  17  30  49  74 106 140 170 200 242 304
#     4  10  21  35  52  77 108 140 173 211 256 306
#
# _framework density 16.623242999999999
#
# number of rings (size 3 to 8) (size 9 to 14) (size 15 to 20)
#    0.000    2.000    3.333    0.500    0.000    2.667 
#    0.000    3.333    0.000    7.000    0.000    2.333 
#    0.000    0.000    0.000    0.000    0.000    0.000 
#
# Total GULP energy -267719.607030 kJ/mol
# GULP energy per Si atom -5577.491813 kJ/mol
# Density = 1.658541 g / cm^3
# Si number density = 16.623243 Si / 1000 Ang^3
#
#
#
# Elastic Constant Matrix: (Units=GPa)
#
#
# Indices 1 2 3 4 5 6 
#
# 1 111.6307 67.2650 35.4860 0.0000 0.0000 0.0000
# 2 67.2650 107.5698 44.9484 0.0000 0.0000 0.0000
# 3 35.4860 44.9484 58.6296 0.0000 0.0000 0.0000
# 4 0.0000 0.0000 0.0000 33.7677 0.0000 0.0000
# 5 0.0000 0.0000 0.0000 0.0000 25.7117 0.0000
# 6 0.0000 0.0000 0.0000 0.0000 0.0000 22.4182
#
#
#
# Elastic Compliance Matrix: (Units=1/GPa)
#
#
# Indices 1 2 3 4 5 6 
#
# 1 0.014662 -0.008034 -0.002715 0.000000 0.000000 0.000000
# 2 -0.008034 0.018080 -0.008998 0.000000 0.000000 0.000000
# 3 -0.002715 -0.008998 0.025598 0.000000 0.000000 0.000000
# 4 0.000000 0.000000 0.000000 0.029614 0.000000 0.000000
# 5 0.000000 0.000000 0.000000 0.000000 0.038893 0.000000
# 6 0.000000 0.000000 0.000000 0.000000 0.000000 0.044607
#
#
# Mechanical properties :
#
#
# Convention : Reuss Voigt Hill
#
# Bulk Modulus (GPa) = 53.06347 63.69209 58.37778
# Shear Modulus (GPa) = 23.01696 25.05492 24.03594
#
# Velocity S-wave (km/s) = 3.72509 3.88651 3.80666
# Velocity P-wave (km/s) = 7.10579 7.65102 7.38344
#
# Compressibility (1/GPa) = 0.01884536
#
# Stress axis : x y z
#
# Youngs Moduli (GPa) = 68.20243 55.30945 39.06507
#
# Poissons Ratio (x) = 0.44435 0.10607
# Poissons Ratio (y) = 0.54794 0.35153
# Poissons Ratio (z) = 0.18518 0.49770
#
# Static dielectric constant tensor:
#      x y z
#    x 1.572730 0.000000 0.000000 
#    y 0.000000 1.521860 0.000000 
#    z 0.000000 0.000000 1.596110 
# 
# From -- ./inp_files/14354.got.cif
#   From: 2010.05.17/outbox.cif.g08.bks.cpg/sg50_8_cif.got.tgz:14354.got - 2010.06.03 11:33:33.
