data_PCOD9396628
_publ_section_title
;
Structure prediction by ZEFSAII (Michael W. Deem and Ramdas Pophale) SiO2 
 PCOD9396628
Probable space group: P B A N
;
_chemical_formula_sum "Si O2"
_cell_formula_units_Z 60
_cell_length_a 20.145699
_cell_length_b 13.534934
_cell_length_c 11.677808
_cell_angle_alpha 90.000000
_cell_angle_beta 90.000000
_cell_angle_gamma 90.000000
_cell_volume 3184.196156
_symmetry_space_group_name_H-M "P B A N"
_symmetry_group_IT_number 50
_space_group.IT_coordinate_system_code '2'
_symmetry_cell_setting 'orthorhombic'
loop_
_space_group_symop_operation_xyz
x,y,z
1/2-x,1/2-y,z
x,1/2-y,-z
1/2-x,y,-z
-x,-y,-z
1/2+x,1/2+y,-z
-x,1/2+y,z
1/2+x,-y,z
loop_
_atom_site_type_symbol
_atom_site_label
_atom_site_fract_x
_atom_site_fract_y
_atom_site_fract_z
Si Si1 0.768757 0.572003 0.133092
Si Si2 0.444455 0.414454 0.798775
Si Si3 0.250000 0.250000 0.287894
Si Si4 0.993724 0.122629 0.231401
Si Si5 0.596353 0.866089 0.035350
Si Si6 0.397294 0.239292 0.633419
Si Si7 0.723892 0.146124 0.131651
Si Si8 0.426098 0.704003 0.126740
O O1 0.734863 0.656353 0.207110
O O2 0.846220 0.601183 0.121972
O O3 0.756415 0.461510 0.178472
O O4 0.750000 0.577872 0.000000
O O5 0.460546 0.518709 0.742872
O O6 0.414862 0.335783 0.710119
O O7 0.513178 0.368643 0.847361
O O8 0.401732 0.424657 0.915561
O O9 0.317883 0.276625 0.353626
O O10 0.029350 0.117382 0.106626
O O11 0.052474 0.157276 0.315356
O O12 0.938120 0.206911 0.216122
O O13 0.602181 0.750000 0.000000
O O14 0.412173 0.250000 0.500000
O O15 0.750000 0.250000 0.182119
O O16 0.644547 0.152147 0.135860
O O17 0.750000 0.145259 0.000000
O O18 0.428606 0.750000 0.000000
#
# Coordination Sequence:
#
# PCOD9396628 Si02
#       8
#     8   8   4   8   8   8   8   8
#     4  11  22  31  54  82 121 157 187 239 298 370
#     4  11  22  35  60  88 119 157 198 238 306 362
#     4  12  22  42  62  86 116 155 205 258 324 366
#     4  11  22  36  60  87 119 158 197 246 299 368
#     4  12  18  34  53  90 124 151 184 236 301 375
#     4  11  25  44  61  85 116 155 211 266 308 356
#     4  10  21  33  46  75 121 166 194 223 276 356
#     4  11  19  32  51  80 120 160 189 225 276 356
#
# _framework density 18.843060000000001
#
# number of rings (size 3 to 8) (size 9 to 14) (size 15 to 20)
#    0.000    0.933    6.667    3.200    1.867    1.600 
#    0.000    0.000    0.000    0.000    0.000    0.000 
#    0.000    0.000    0.000    0.000    0.000    0.000 
#
# Total GULP energy -334828.057067 kJ/mol
# GULP energy per Si atom -5580.467618 kJ/mol
# Density = 1.880017 g / cm^3
# Si number density = 18.843060 Si / 1000 Ang^3
#
#
#
# Elastic Constant Matrix: (Units=GPa)
#
#
# Indices 1 2 3 4 5 6 
#
# 1 62.2690 2.9025 15.8894 0.0000 0.0000 0.0000
# 2 2.9025 93.8857 4.4424 0.0000 0.0000 0.0000
# 3 15.8894 4.4424 78.4113 0.0000 0.0000 0.0000
# 4 0.0000 0.0000 0.0000 2.7948 0.0000 0.0000
# 5 0.0000 0.0000 0.0000 0.0000 13.2592 0.0000
# 6 0.0000 0.0000 0.0000 0.0000 0.0000 -8.0661
#
#
#
# Elastic Compliance Matrix: (Units=1/GPa)
#
#
# Indices 1 2 3 4 5 6 
#
# 1 0.016947 -0.000362 -0.003414 0.000000 0.000000 0.000000
# 2 -0.000362 0.010688 -0.000532 0.000000 0.000000 0.000000
# 3 -0.003414 -0.000532 0.013475 0.000000 0.000000 0.000000
# 4 0.000000 0.000000 0.000000 0.357802 0.000000 0.000000
# 5 0.000000 0.000000 0.000000 0.000000 0.075420 0.000000
# 6 0.000000 0.000000 0.000000 0.000000 0.000000 -0.123975
#
#
# Mechanical properties :
#
#
# Convention : Reuss Voigt Hill
#
# Bulk Modulus (GPa) = 30.77514 31.22607 31.00061
# Shear Modulus (GPa) = 13.52070 15.68635 14.60352
#
# Velocity S-wave (km/s) = 2.68160 2.88839 2.78692
# Velocity P-wave (km/s) = 5.09468 5.26606 5.18108
#
# Compressibility (1/GPa) = 0.03249376
#
# Stress axis : x y z
#
# Youngs Moduli (GPa) = 59.00634 93.56607 74.21061
#
# Poissons Ratio (x) = 0.03391 0.25333
# Poissons Ratio (y) = 0.02138 0.03949
# Poissons Ratio (z) = 0.20143 0.04978
#
# Static dielectric constant tensor:
#      x y z
#    x 1.727690 0.000000 0.000000 
#    y 0.000000 1.698550 0.000000 
#    z 0.000000 0.000000 1.612500 
# 
# From -- ./inp_files/22507.got.cif
#   From: 2010.05.17/outbox.cif.g08.bks.cpg/sg50_12_cif.got.tgz:22507.got - 2010.06.03 11:33:33.
