data_PCOD9396486
_publ_section_title
;
Structure prediction by ZEFSAII (Michael W. Deem and Ramdas Pophale) SiO2 
 PCOD9396486
Probable space group: P B A N
;
_chemical_formula_sum "Si O2"
_cell_formula_units_Z 34
_cell_length_a 11.249281
_cell_length_b 27.588650
_cell_length_c 5.476187
_cell_angle_alpha 90.000000
_cell_angle_beta 90.000000
_cell_angle_gamma 90.000000
_cell_volume 1699.548196
_symmetry_space_group_name_H-M "P B A N"
_symmetry_group_IT_number 50
_space_group.IT_coordinate_system_code '2'
_symmetry_cell_setting 'orthorhombic'
loop_
_space_group_symop_operation_xyz
x,y,z
1/2-x,1/2-y,z
x,1/2-y,-z
1/2-x,y,-z
-x,-y,-z
1/2+x,1/2+y,-z
-x,1/2+y,z
1/2+x,-y,z
loop_
_atom_site_type_symbol
_atom_site_label
_atom_site_fract_x
_atom_site_fract_y
_atom_site_fract_z
Si Si1 0.295548 0.805862 0.741610
Si Si2 0.250000 0.250000 0.500000
Si Si3 0.059866 0.202429 0.838990
Si Si4 0.890792 0.901593 0.988866
Si Si5 0.897819 0.541576 0.508711
O O1 0.250000 0.750000 0.744096
O O2 0.250000 0.831768 0.500000
O O3 0.435680 0.803972 0.706461
O O4 0.250000 0.826600 0.000000
O O5 0.168649 0.214748 0.662653
O O6 0.046963 0.250000 0.000000
O O7 0.073346 0.154414 0.997804
O O8 0.922974 0.926864 0.734621
O O9 0.750000 0.901614 0.000000
O O10 0.924472 0.929418 0.239337
O O11 0.750000 0.530185 0.500000
O O12 0.000000 0.500000 0.500000
#
# Coordination Sequence:
#
# PCOD9396486 Si02
#       5
#     8   2   8   8   8
#     4  10  20  39  59  79 114 176 234 255 321 366
#     4  12  26  36  62  94 140 176 238 274 318 384
#     4  12  25  40  63  95 138 182 231 272 322 402
#     4  10  23  40  65 100 132 171 217 268 340 398
#     4  10  22  44  72  96 130 168 214 282 347 411
#
# _framework density 20.005316000000001
#
# number of rings (size 3 to 8) (size 9 to 14) (size 15 to 20)
#    0.000    1.412    2.353    3.882    8.235    0.000 
#    0.000    3.529    0.000    0.000    0.000    0.000 
#    0.000    0.000    0.000    0.000    0.000    0.000 
#
# Total GULP energy -189483.447680 kJ/mol
# GULP energy per Si atom -5573.042579 kJ/mol
# Density = 1.995978 g / cm^3
# Si number density = 20.005316 Si / 1000 Ang^3
#
#
#
# Elastic Constant Matrix: (Units=GPa)
#
#
# Indices 1 2 3 4 5 6 
#
# 1 108.3642 49.5908 71.1760 0.0000 0.0000 0.0000
# 2 49.5908 128.8593 57.3286 0.0000 0.0000 0.0000
# 3 71.1760 57.3286 140.7179 0.0000 0.0000 0.0000
# 4 0.0000 0.0000 0.0000 -5.7621 0.0000 0.0000
# 5 0.0000 0.0000 0.0000 0.0000 -144.2748 0.0000
# 6 0.0000 0.0000 0.0000 0.0000 0.0000 3.3346
#
#
#
# Elastic Compliance Matrix: (Units=1/GPa)
#
#
# Indices 1 2 3 4 5 6 
#
# 1 0.014632 -0.002856 -0.006237 0.000000 0.000000 0.000000
# 2 -0.002856 0.010036 -0.002644 0.000000 0.000000 0.000000
# 3 -0.006237 -0.002644 0.011338 0.000000 0.000000 0.000000
# 4 0.000000 0.000000 0.000000 -0.173548 0.000000 0.000000
# 5 0.000000 0.000000 0.000000 0.000000 -0.006931 0.000000
# 6 0.000000 0.000000 0.000000 0.000000 0.000000 0.299889
#
#
# Mechanical properties :
#
#
# Convention : Reuss Voigt Hill
#
# Bulk Modulus (GPa) = 79.79938 81.57025 80.68481
# Shear Modulus (GPa) = 27.31225 -16.01740 5.64743
#
# Velocity S-wave (km/s) = 3.69894 -2.83266 1.68199
# Velocity P-wave (km/s) = 7.63011 5.49219 6.64766
#
# Compressibility (1/GPa) = 0.01253143
#
# Stress axis : x y z
#
# Youngs Moduli (GPa) = 68.34320 99.64284 88.19517
#
# Poissons Ratio (x) = 0.28459 0.55011
# Poissons Ratio (y) = 0.19519 0.23319
# Poissons Ratio (z) = 0.42628 0.26345
#
# Static dielectric constant tensor:
#      x y z
#    x 1.487090 0.000000 0.000000 
#    y 0.000000 0.830940 0.000000 
#    z 0.000000 0.000000 1.815060 
# 
# From -- ./inp_files/2246.got.cif
#   From: 2010.05.17/outbox.cif.g08.bks.cpg/sg50_2_cif.got.tgz:2246.got - 2010.06.03 11:33:33.
