data_PCOD9396213
_publ_section_title
;
Structure prediction by ZEFSAII (Michael W. Deem and Ramdas Pophale) SiO2 
 PCOD9396213
Probable space group: P B A N
;
_chemical_formula_sum "Si O2"
_cell_formula_units_Z 58
_cell_length_a 17.076954
_cell_length_b 10.040661
_cell_length_c 18.210190
_cell_angle_alpha 90.000000
_cell_angle_beta 90.000000
_cell_angle_gamma 90.000000
_cell_volume 3122.390307
_symmetry_space_group_name_H-M "P B A N"
_symmetry_group_IT_number 50
_space_group.IT_coordinate_system_code '2'
_symmetry_cell_setting 'orthorhombic'
loop_
_space_group_symop_operation_xyz
x,y,z
1/2-x,1/2-y,z
x,1/2-y,-z
1/2-x,y,-z
-x,-y,-z
1/2+x,1/2+y,-z
-x,1/2+y,z
1/2+x,-y,z
loop_
_atom_site_type_symbol
_atom_site_label
_atom_site_fract_x
_atom_site_fract_y
_atom_site_fract_z
Si Si1 0.080688 0.426594 0.145043
Si Si2 0.830791 0.931337 0.294732
Si Si3 0.750000 0.250000 0.500000
Si Si4 0.430016 0.391549 0.154773
Si Si5 0.894570 0.096440 0.427093
Si Si6 0.838368 0.589276 0.006572
Si Si7 0.653587 0.886392 0.308226
Si Si8 0.064221 0.372271 0.545960
O O1 0.143157 0.448691 0.210403
O O2 0.058389 0.268929 0.148031
O O3 0.114260 0.456398 0.064515
O O4 0.008722 0.524311 0.157093
O O5 0.738878 0.951994 0.307760
O O6 0.842028 0.774784 0.311925
O O7 0.880003 0.022728 0.350017
O O8 0.813134 0.165960 0.451390
O O9 0.385902 0.417539 0.230859
O O10 0.379341 0.437122 0.084213
O O11 0.977023 0.176994 0.427745
O O12 0.920392 0.990335 0.488589
O O13 0.834884 0.750000 0.000000
O O14 0.750000 0.538190 0.000000
O O15 0.605507 0.922070 0.380183
O O16 0.100288 0.250000 0.500000
#
# Coordination Sequence:
#
# PCOD9396213 Si02
#       8
#     8   8   2   8   8   8   8   8
#     4  10  20  35  57  85 115 149 193 238 291 350
#     4  10  20  36  55  81 109 145 187 241 287 338
#     4  12  24  40  54  88 120 150 186 246 312 364
#     4  10  20  35  56  84 114 150 189 237 289 348
#     4  11  23  38  58  81 116 150 188 238 300 353
#     4   9  17  32  57  85 113 149 192 239 283 337
#     4  10  20  35  57  82 109 142 196 242 279 338
#     4  11  21  39  59  81 105 150 196 237 284 351
#
# _framework density 18.575512
#
# number of rings (size 3 to 8) (size 9 to 14) (size 15 to 20)
#    0.000    1.793    2.069    2.897    0.000    3.310 
#    0.000    1.379    0.000    3.310    0.000    0.000 
#    0.000    0.000    0.000    0.000    0.000    0.000 
#
# Total GULP energy -323139.858773 kJ/mol
# GULP energy per Si atom -5571.376875 kJ/mol
# Density = 1.853323 g / cm^3
# Si number density = 18.575512 Si / 1000 Ang^3
#
#
#
# Elastic Constant Matrix: (Units=GPa)
#
#
# Indices 1 2 3 4 5 6 
#
# 1 75.2634 14.3842 16.6478 0.0000 0.0000 0.0000
# 2 14.3842 20.8053 15.9708 0.0000 0.0000 0.0000
# 3 16.6478 15.9708 120.4071 0.0000 0.0000 0.0000
# 4 0.0000 0.0000 0.0000 -9.7575 0.0000 0.0000
# 5 0.0000 0.0000 0.0000 0.0000 44.5130 0.0000
# 6 0.0000 0.0000 0.0000 0.0000 0.0000 26.8367
#
#
#
# Elastic Compliance Matrix: (Units=1/GPa)
#
#
# Indices 1 2 3 4 5 6 
#
# 1 0.015378 -0.010020 -0.000797 0.000000 0.000000 0.000000
# 2 -0.010020 0.060042 -0.006579 0.000000 0.000000 0.000000
# 3 -0.000797 -0.006579 0.009288 0.000000 0.000000 0.000000
# 4 0.000000 0.000000 0.000000 -0.102486 0.000000 0.000000
# 5 0.000000 0.000000 0.000000 0.000000 0.022465 0.000000
# 6 0.000000 0.000000 0.000000 0.000000 0.000000 0.037262
#
#
# Mechanical properties :
#
#
# Convention : Reuss Voigt Hill
#
# Bulk Modulus (GPa) = 20.03338 34.49790 27.26564
# Shear Modulus (GPa) = 53.54426 23.61664 38.58045
#
# Velocity S-wave (km/s) = 5.37473 3.56952 4.56230
# Velocity P-wave (km/s) = 7.02319 5.96663 6.51636
#
# Compressibility (1/GPa) = 0.04991668
#
# Stress axis : x y z
#
# Youngs Moduli (GPa) = 65.02800 16.65497 107.66630
#
# Poissons Ratio (x) = 0.16688 0.08583
# Poissons Ratio (y) = 0.65158 0.70829
# Poissons Ratio (z) = 0.05184 0.10957
#
# Static dielectric constant tensor:
#      x y z
#    x 1.705740 0.000000 0.000000 
#    y 0.000000 1.655150 0.000000 
#    z 0.000000 0.000000 1.669450 
# 
# From -- ./inp_files/29531.got.cif
#   From: 2010.05.17/outbox.cif.g08.bks.cpg/sg50_15_cif.got.tgz:29531.got - 2010.06.03 11:33:33.
