data_PCOD9396001
_publ_section_title
;
Structure prediction by ZEFSAII (Michael W. Deem and Ramdas Pophale) SiO2 
 PCOD9396001
Probable space group: P B A N
;
_chemical_formula_sum "Si O2"
_cell_formula_units_Z 58
_cell_length_a 8.529193
_cell_length_b 23.274690
_cell_length_c 14.821826
_cell_angle_alpha 90.000000
_cell_angle_beta 90.000000
_cell_angle_gamma 90.000000
_cell_volume 2942.344754
_symmetry_space_group_name_H-M "P B A N"
_symmetry_group_IT_number 50
_space_group.IT_coordinate_system_code '2'
_symmetry_cell_setting 'orthorhombic'
loop_
_space_group_symop_operation_xyz
x,y,z
1/2-x,1/2-y,z
x,1/2-y,-z
1/2-x,y,-z
-x,-y,-z
1/2+x,1/2+y,-z
-x,1/2+y,z
1/2+x,-y,z
loop_
_atom_site_type_symbol
_atom_site_label
_atom_site_fract_x
_atom_site_fract_y
_atom_site_fract_z
Si Si1 0.924778 0.575059 0.779411
Si Si2 0.575634 0.557977 0.537485
Si Si3 0.079520 0.685404 0.844210
Si Si4 0.439723 0.635179 0.395712
Si Si5 0.145661 0.853570 0.716664
Si Si6 0.750000 0.250000 0.000000
Si Si7 0.570170 0.951348 0.246335
Si Si8 0.065937 0.248490 0.681763
O O1 0.740357 0.564690 0.791510
O O2 0.999098 0.622688 0.845441
O O3 0.954553 0.602117 0.679519
O O4 0.014823 0.514552 0.781603
O O5 0.750000 0.563055 0.500000
O O6 0.500000 0.500000 0.500000
O O7 0.480332 0.609929 0.492124
O O8 0.579261 0.552976 0.644730
O O9 0.236322 0.679437 0.783299
O O10 0.137012 0.711839 0.936972
O O11 0.964872 0.724930 0.783606
O O12 0.263458 0.624157 0.360895
O O13 0.481702 0.702116 0.383148
O O14 0.062665 0.904031 0.772267
O O15 0.016719 0.810065 0.678396
O O16 0.250000 0.250000 0.662652
#
# Coordination Sequence:
#
# PCOD9396001 Si02
#       8
#     8   8   8   8   8   2   8   8
#     4  10  20  36  56  90 116 166 205 255 298 384
#     4  12  24  35  52  84 120 160 208 278 317 344
#     4  10  21  38  66  94 124 149 198 246 314 379
#     4  10  20  35  54  82 121 154 220 259 316 354
#     4  10  20  36  60  85 116 165 206 250 298 389
#     4  12  20  44  70 104 124 154 182 264 322 376
#     4  12  21  36  61  84 123 166 218 255 307 356
#     4  10  19  37  62  87 118 166 208 253 300 388
#
# _framework density 19.712171000000001
#
# number of rings (size 3 to 8) (size 9 to 14) (size 15 to 20)
#    0.000    1.655    4.138    4.552    1.931    0.000 
#    0.000    1.034    0.000    6.621    0.000    0.000 
#    0.000    0.000    0.000    0.000    0.000    0.000 
#
# Total GULP energy -324000.749639 kJ/mol
# GULP energy per Si atom -5586.219821 kJ/mol
# Density = 1.966731 g / cm^3
# Si number density = 19.712171 Si / 1000 Ang^3
#
#
#
# Elastic Constant Matrix: (Units=GPa)
#
#
# Indices 1 2 3 4 5 6 
#
# 1 118.8746 33.3609 23.4566 0.0000 0.0000 0.0000
# 2 33.3609 111.8719 27.8013 0.0000 0.0000 0.0000
# 3 23.4566 27.8013 65.4042 0.0000 0.0000 0.0000
# 4 0.0000 0.0000 0.0000 22.7565 0.0000 0.0000
# 5 0.0000 0.0000 0.0000 0.0000 18.0370 0.0000
# 6 0.0000 0.0000 0.0000 0.0000 0.0000 37.6510
#
#
#
# Elastic Compliance Matrix: (Units=1/GPa)
#
#
# Indices 1 2 3 4 5 6 
#
# 1 0.009524 -0.002227 -0.002469 0.000000 0.000000 0.000000
# 2 -0.002227 0.010515 -0.003671 0.000000 0.000000 0.000000
# 3 -0.002469 -0.003671 0.017736 0.000000 0.000000 0.000000
# 4 0.000000 0.000000 0.000000 0.043944 0.000000 0.000000
# 5 0.000000 0.000000 0.000000 0.000000 0.055442 0.000000
# 6 0.000000 0.000000 0.000000 0.000000 0.000000 0.026560
#
#
# Mechanical properties :
#
#
# Convention : Reuss Voigt Hill
#
# Bulk Modulus (GPa) = 47.52631 51.70981 49.61806
# Shear Modulus (GPa) = 26.67129 29.79104 28.23116
#
# Velocity S-wave (km/s) = 3.68236 3.89176 3.78851
# Velocity P-wave (km/s) = 6.49939 6.81790 6.66055
#
# Compressibility (1/GPa) = 0.02104098
#
# Stress axis : x y z
#
# Youngs Moduli (GPa) = 104.99410 95.10160 56.38372
#
# Poissons Ratio (x) = 0.21175 0.13923
# Poissons Ratio (y) = 0.23377 0.20699
# Poissons Ratio (z) = 0.25927 0.34913
#
# Static dielectric constant tensor:
#      x y z
#    x 1.781670 0.000000 0.000000 
#    y 0.000000 1.723780 0.000000 
#    z 0.000000 0.000000 1.694020 
# 
# From -- ./inp_files/25396.got.cif
#   From: 2010.05.17/outbox.cif.g08.bks.cpg/sg50_13_cif.got.tgz:25396.got - 2010.06.03 11:33:33.
