data_PCOD9396108
_publ_section_title
;
Structure prediction by ZEFSAII (Michael W. Deem and Ramdas Pophale) SiO2 
 PCOD9396108
Probable space group: P B A N
;
_chemical_formula_sum "Si O2"
_cell_formula_units_Z 36
_cell_length_a 16.407499
_cell_length_b 12.575054
_cell_length_c 7.686835
_cell_angle_alpha 90.000000
_cell_angle_beta 90.000000
_cell_angle_gamma 90.000000
_cell_volume 1585.987661
_symmetry_space_group_name_H-M "P B A N"
_symmetry_group_IT_number 50
_space_group.IT_coordinate_system_code '2'
_symmetry_cell_setting 'orthorhombic'
loop_
_space_group_symop_operation_xyz
x,y,z
1/2-x,1/2-y,z
x,1/2-y,-z
1/2-x,y,-z
-x,-y,-z
1/2+x,1/2+y,-z
-x,1/2+y,z
1/2+x,-y,z
loop_
_atom_site_type_symbol
_atom_site_label
_atom_site_fract_x
_atom_site_fract_y
_atom_site_fract_z
Si Si1 0.681359 0.427420 0.647657
Si Si2 0.005807 0.878609 0.442936
Si Si3 0.381522 0.375401 0.868705
Si Si4 0.891290 0.655659 0.253948
Si Si5 0.750000 0.042823 0.000000
O O1 0.750000 0.417833 0.500000
O O2 0.600827 0.362746 0.594349
O O3 0.657767 0.554299 0.671936
O O4 0.709075 0.394819 0.841634
O O5 0.952580 0.887058 0.268875
O O6 0.964576 0.822894 0.612000
O O7 0.000000 0.000000 0.500000
O O8 0.343417 0.264854 0.792342
O O9 0.314319 0.465711 0.898815
O O10 0.421469 0.369763 0.060038
#
# Coordination Sequence:
#
# PCOD9396108 Si02
#       5
#     8   8   8   8   4
#     4  10  21  34  51  79 108 141 180 221 269 316
#     4  10  20  34  52  75 107 147 183 213 259 323
#     4  10  20  35  55  81 108 140 176 216 269 324
#     4   9  20  35  55  78 105 141 177 216 267 328
#     4  10  20  33  52  80 114 137 170 220 272 325
#
# _framework density 22.698789999999999
#
# number of rings (size 3 to 8) (size 9 to 14) (size 15 to 20)
#    0.000    2.222    0.000    3.333    0.000   16.889 
#    0.000    3.333    0.000    2.667    0.000    3.111 
#    0.000    1.778    0.000    0.000    0.000    0.000 
#
# Total GULP energy -200469.204530 kJ/mol
# GULP energy per Si atom -5568.589015 kJ/mol
# Density = 2.264713 g / cm^3
# Si number density = 22.698790 Si / 1000 Ang^3
#
#
#
# Elastic Constant Matrix: (Units=GPa)
#
#
# Indices 1 2 3 4 5 6 
#
# 1 156.0091 6.4122 119.0886 0.0000 0.0000 0.0000
# 2 6.4122 12.6022 21.7209 0.0000 0.0000 0.0000
# 3 119.0886 21.7209 164.5084 0.0000 0.0000 0.0000
# 4 0.0000 0.0000 0.0000 23.3029 0.0000 0.0000
# 5 0.0000 0.0000 0.0000 0.0000 27.2435 0.0000
# 6 0.0000 0.0000 0.0000 0.0000 0.0000 -4.7646
#
#
#
# Elastic Compliance Matrix: (Units=1/GPa)
#
#
# Indices 1 2 3 4 5 6 
#
# 1 0.016422 0.015709 -0.013962 0.000000 0.000000 0.000000
# 2 0.015709 0.117757 -0.026920 0.000000 0.000000 0.000000
# 3 -0.013962 -0.026920 0.019741 0.000000 0.000000 0.000000
# 4 0.000000 0.000000 0.000000 0.042913 0.000000 0.000000
# 5 0.000000 0.000000 0.000000 0.000000 0.036706 0.000000
# 6 0.000000 0.000000 0.000000 0.000000 0.000000 -0.209880
#
#
# Mechanical properties :
#
#
# Convention : Reuss Voigt Hill
#
# Bulk Modulus (GPa) = 9.65496 69.72925 39.69210
# Shear Modulus (GPa) = 46.07008 21.54957 33.80982
#
# Velocity S-wave (km/s) = 4.51003 3.08453 3.86359
# Velocity P-wave (km/s) = 5.60207 6.59332 6.11780
#
# Compressibility (1/GPa) = 0.10357376
#
# Stress axis : x y z
#
# Youngs Moduli (GPa) = 60.89264 8.49204 50.65690
#
# Poissons Ratio (x) = -0.13341 0.70729
# Poissons Ratio (y) = -0.95659 1.36370
# Poissons Ratio (z) = 0.85021 0.22861
#
# Static dielectric constant tensor:
#      x y z
#    x 1.777400 0.000000 0.000000 
#    y 0.000000 2.065010 0.000000 
#    z 0.000000 0.000000 1.807700 
# 
# From -- ./inp_files/12442.got.cif
#   From: 2010.05.17/outbox.cif.g08.bks.cpg/sg50_7_cif.got.tgz:12442.got - 2010.06.03 11:33:33.
