data_PCOD9396101
_publ_section_title
;
Structure prediction by ZEFSAII (Michael W. Deem and Ramdas Pophale) SiO2 
 PCOD9396101
Probable space group: P B A N
;
_chemical_formula_sum "Si O2"
_cell_formula_units_Z 48
_cell_length_a 26.882270
_cell_length_b 13.449611
_cell_length_c 6.379906
_cell_angle_alpha 90.000000
_cell_angle_beta 90.000000
_cell_angle_gamma 90.000000
_cell_volume 2306.693768
_symmetry_space_group_name_H-M "P B A N"
_symmetry_group_IT_number 50
_space_group.IT_coordinate_system_code '2'
_symmetry_cell_setting 'orthorhombic'
loop_
_space_group_symop_operation_xyz
x,y,z
1/2-x,1/2-y,z
x,1/2-y,-z
1/2-x,y,-z
-x,-y,-z
1/2+x,1/2+y,-z
-x,1/2+y,z
1/2+x,-y,z
loop_
_atom_site_type_symbol
_atom_site_label
_atom_site_fract_x
_atom_site_fract_y
_atom_site_fract_z
Si Si1 0.341228 0.941634 0.279074
Si Si2 0.532083 0.618745 0.368111
Si Si3 0.750000 0.076980 0.500000
Si Si4 0.453630 0.892013 0.299219
Si Si5 0.012838 0.250000 0.000000
Si Si6 0.297357 0.454366 0.115610
Si Si7 0.864601 0.862949 0.558297
O O1 0.298833 0.876895 0.394947
O O2 0.394329 0.889571 0.294231
O O3 0.346312 0.049826 0.397533
O O4 0.323547 0.970028 0.046107
O O5 0.479691 0.638516 0.481402
O O6 0.532063 0.507924 0.279126
O O7 0.575722 0.626421 0.540448
O O8 0.543000 0.693618 0.179950
O O9 0.771740 0.012279 0.691902
O O10 0.478105 0.829382 0.115909
O O11 0.339576 0.386770 0.219456
O O12 0.250000 0.404341 0.000000
O O13 0.851219 0.750000 0.500000
#
# Coordination Sequence:
#
# PCOD9396101 Si02
#       7
#     8   8   4   8   4   8   8
#     4   9  19  34  55  79 105 143 187 232 289 344
#     4  10  23  40  57  83 121 157 194 237 290 350
#     4   8  16  34  55  76 103 138 188 236 282 342
#     4  10  22  38  58  87 119 152 191 241 292 347
#     4  12  22  36  58  86 117 156 197 238 288 352
#     4   9  18  35  53  75 105 143 189 236 286 343
#     4  10  20  33  50  76 110 148 189 234 279 338
#
# _framework density 20.809006
#
# number of rings (size 3 to 8) (size 9 to 14) (size 15 to 20)
#    0.000    2.333    0.000    2.000    0.000   11.333 
#    0.000   19.167    0.000    0.000    0.000   23.917 
#    0.000    0.000    0.000    0.000    0.000    0.000 
#
# Total GULP energy -267617.238729 kJ/mol
# GULP energy per Si atom -5575.359140 kJ/mol
# Density = 2.076164 g / cm^3
# Si number density = 20.809006 Si / 1000 Ang^3
#
#
#
# Elastic Constant Matrix: (Units=GPa)
#
#
# Indices 1 2 3 4 5 6 
#
# 1 127.1636 5.7694 46.2117 0.0000 0.0000 0.0000
# 2 5.7694 48.7320 18.5289 0.0000 0.0000 0.0000
# 3 46.2117 18.5289 93.4284 0.0000 0.0000 0.0000
# 4 0.0000 0.0000 0.0000 28.4746 0.0000 0.0000
# 5 0.0000 0.0000 0.0000 0.0000 34.2925 0.0000
# 6 0.0000 0.0000 0.0000 0.0000 0.0000 -4.9770
#
#
#
# Elastic Compliance Matrix: (Units=1/GPa)
#
#
# Indices 1 2 3 4 5 6 
#
# 1 0.009611 0.000724 -0.004897 0.000000 0.000000 0.000000
# 2 0.000724 0.022249 -0.004771 0.000000 0.000000 0.000000
# 3 -0.004897 -0.004771 0.014072 0.000000 0.000000 0.000000
# 4 0.000000 0.000000 0.000000 0.035119 0.000000 0.000000
# 5 0.000000 0.000000 0.000000 0.000000 0.029161 0.000000
# 6 0.000000 0.000000 0.000000 0.000000 0.000000 -0.200923
#
#
# Mechanical properties :
#
#
# Convention : Reuss Voigt Hill
#
# Bulk Modulus (GPa) = 35.65857 45.59377 40.62617
# Shear Modulus (GPa) = -78.76936 24.81228 -26.97854
#
# Velocity S-wave (km/s) = -6.15919 3.45683 -3.60458
# Velocity P-wave (km/s) = 5.77993 6.15557 1.49725
#
# Compressibility (1/GPa) = 0.02804375
#
# Stress axis : x y z
#
# Youngs Moduli (GPa) = 104.05050 44.94679 71.06414
#
# Poissons Ratio (x) = -0.03255 0.34802
# Poissons Ratio (y) = -0.07536 0.33902
# Poissons Ratio (z) = 0.50957 0.21442
#
# Static dielectric constant tensor:
#      x y z
#    x 1.785800 0.000000 0.000000 
#    y 0.000000 1.745150 0.000000 
#    z 0.000000 0.000000 1.761310 
# 
# From -- ./inp_files/3717.got.cif
#   From: 2010.05.17/outbox.cif.g08.bks.cpg/sg50_2_cif.got.tgz:3717.got - 2010.06.03 11:33:33.
