data_PCOD9396060
_publ_section_title
;
Structure prediction by ZEFSAII (Michael W. Deem and Ramdas Pophale) SiO2 
 PCOD9396060
Probable space group: P B A N
;
_chemical_formula_sum "Si O2"
_cell_formula_units_Z 40
_cell_length_a 8.885608
_cell_length_b 21.352134
_cell_length_c 10.600359
_cell_angle_alpha 90.000000
_cell_angle_beta 90.000000
_cell_angle_gamma 90.000000
_cell_volume 2011.171054
_symmetry_space_group_name_H-M "P B A N"
_symmetry_group_IT_number 50
_space_group.IT_coordinate_system_code '2'
_symmetry_cell_setting 'orthorhombic'
loop_
_space_group_symop_operation_xyz
x,y,z
1/2-x,1/2-y,z
x,1/2-y,-z
1/2-x,y,-z
-x,-y,-z
1/2+x,1/2+y,-z
-x,1/2+y,z
1/2+x,-y,z
loop_
_atom_site_type_symbol
_atom_site_label
_atom_site_fract_x
_atom_site_fract_y
_atom_site_fract_z
Si Si1 0.433783 0.683933 0.643282
Si Si2 0.513300 0.556302 0.658562
Si Si3 0.493208 0.559386 0.163819
Si Si4 0.250000 0.505765 0.500000
Si Si5 0.750000 0.992256 0.000000
Si Si6 0.570391 0.176536 0.346113
O O1 0.506467 0.625264 0.713423
O O2 0.476932 0.752715 0.691008
O O3 0.252953 0.677395 0.653113
O O4 0.475767 0.674407 0.494586
O O5 0.474332 0.500760 0.750546
O O6 0.383509 0.548838 0.552197
O O7 0.674032 0.538821 0.602137
O O8 0.338105 0.539120 0.095022
O O9 0.480873 0.620538 0.253569
O O10 0.627016 0.553685 0.063139
#
# Coordination Sequence:
#
# PCOD9396060 Si02
#       6
#     8   8   8   4   4   8
#     4   9  17  29  52  88 116 139 173 210 278 370
#     4  11  19  32  54  81 114 146 177 227 282 336
#     4  11  21  37  58  79 107 146 191 244 282 310
#     4  10  20  28  50  90 120 144 182 214 274 366
#     4  10  24  38  56  80 104 146 212 250 268 306
#     4   9  17  31  53  82 117 146 172 221 281 339
#
# _framework density 19.888909999999999
#
# number of rings (size 3 to 8) (size 9 to 14) (size 15 to 20)
#    0.000    2.000    0.000    8.400    0.000    0.000 
#    0.000    0.000    0.000   37.200    0.000    5.600 
#    0.000    0.000    0.000    0.000    0.000    0.000 
#
# Total GULP energy -222974.388765 kJ/mol
# GULP energy per Si atom -5574.359719 kJ/mol
# Density = 1.984364 g / cm^3
# Si number density = 19.888910 Si / 1000 Ang^3
#
#
#
# Elastic Constant Matrix: (Units=GPa)
#
#
# Indices 1 2 3 4 5 6 
#
# 1 60.3808 27.2736 18.8013 0.0000 0.0000 0.0000
# 2 27.2736 209.0292 46.2530 0.0000 0.0000 0.0000
# 3 18.8013 46.2530 48.1040 0.0000 0.0000 0.0000
# 4 0.0000 0.0000 0.0000 23.9427 0.0000 0.0000
# 5 0.0000 0.0000 0.0000 0.0000 22.4947 0.0000
# 6 0.0000 0.0000 0.0000 0.0000 0.0000 27.4601
#
#
#
# Elastic Compliance Matrix: (Units=1/GPa)
#
#
# Indices 1 2 3 4 5 6 
#
# 1 0.019041 -0.001064 -0.006419 0.000000 0.000000 0.000000
# 2 -0.001064 0.006136 -0.005484 0.000000 0.000000 0.000000
# 3 -0.006419 -0.005484 0.028571 0.000000 0.000000 0.000000
# 4 0.000000 0.000000 0.000000 0.041766 0.000000 0.000000
# 5 0.000000 0.000000 0.000000 0.000000 0.044455 0.000000
# 6 0.000000 0.000000 0.000000 0.000000 0.000000 0.036417
#
#
# Mechanical properties :
#
#
# Convention : Reuss Voigt Hill
#
# Bulk Modulus (GPa) = 35.95443 55.79665 45.87554
# Shear Modulus (GPa) = 23.63043 29.79189 26.71116
#
# Velocity S-wave (km/s) = 3.45065 3.87449 3.66870
# Velocity P-wave (km/s) = 5.83034 6.93762 6.40794
#
# Compressibility (1/GPa) = 0.02781299
#
# Stress axis : x y z
#
# Youngs Moduli (GPa) = 52.51847 162.96128 35.00108
#
# Poissons Ratio (x) = 0.17340 0.22467
# Poissons Ratio (y) = 0.05588 0.19196
# Poissons Ratio (z) = 0.33711 0.89375
#
# Static dielectric constant tensor:
#      x y z
#    x 1.745050 0.000000 0.000000 
#    y 0.000000 1.770720 0.000000 
#    z 0.000000 0.000000 1.766370 
# 
# From -- ./inp_files/19009.got.cif
#   From: 2010.05.17/outbox.cif.g08.bks.cpg/sg50_10_cif.got.tgz:19009.got - 2010.06.03 11:33:33.
