data_PCOD9396399
_publ_section_title
;
Structure prediction by ZEFSAII (Michael W. Deem and Ramdas Pophale) SiO2 
 PCOD9396399
Probable space group: P B A N
;
_chemical_formula_sum "Si O2"
_cell_formula_units_Z 44
_cell_length_a 7.577683
_cell_length_b 14.736494
_cell_length_c 14.156863
_cell_angle_alpha 90.000000
_cell_angle_beta 90.000000
_cell_angle_gamma 90.000000
_cell_volume 1580.875374
_symmetry_space_group_name_H-M "P B A N"
_symmetry_group_IT_number 50
_space_group.IT_coordinate_system_code '2'
_symmetry_cell_setting 'orthorhombic'
loop_
_space_group_symop_operation_xyz
x,y,z
1/2-x,1/2-y,z
x,1/2-y,-z
1/2-x,y,-z
-x,-y,-z
1/2+x,1/2+y,-z
-x,1/2+y,z
1/2+x,-y,z
loop_
_atom_site_type_symbol
_atom_site_label
_atom_site_fract_x
_atom_site_fract_y
_atom_site_fract_z
Si Si1 0.809216 0.581580 0.595534
Si Si2 0.446937 0.646235 0.679761
Si Si3 0.487306 0.397123 0.951372
Si Si4 0.491438 0.750000 0.500000
Si Si5 0.401786 0.940460 0.761400
Si Si6 0.899159 0.861689 0.858418
O O1 0.750000 0.523673 0.500000
O O2 0.617936 0.593754 0.640334
O O3 0.895023 0.671385 0.550610
O O4 0.939668 0.569831 0.686045
O O5 0.398714 0.702834 0.587663
O O6 0.272622 0.591135 0.707127
O O7 0.532617 0.698403 0.770505
O O8 0.610729 0.386829 0.861474
O O9 0.299015 0.372014 0.900593
O O10 0.500000 0.500000 0.000000
O O11 0.506850 0.341282 0.047176
O O12 0.428251 0.039473 0.810409
#
# Coordination Sequence:
#
# PCOD9396399 Si02
#       6
#     8   8   8   4   8   8
#     4  10  22  42  63  86 123 173 229 283 334 399
#     4  11  22  38  68  93 128 175 229 276 328 408
#     4   9  18  35  60  95 140 178 207 253 334 420
#     4  10  25  49  68  89 123 184 237 283 346 383
#     4  11  21  35  63  99 136 170 212 280 339 402
#     4  10  20  37  63  97 141 175 208 266 344 410
#
# _framework density 27.832678999999999
#
# number of rings (size 3 to 8) (size 9 to 14) (size 15 to 20)
#    0.000    1.818    1.818    4.636    0.000    6.545 
#    0.000    3.636    0.000    1.091    0.000   10.182 
#    0.000    0.000    0.000    0.000    0.000    0.000 
#
# Total GULP energy -245008.338974 kJ/mol
# GULP energy per Si atom -5568.371340 kJ/mol
# Density = 2.776933 g / cm^3
# Si number density = 27.832679 Si / 1000 Ang^3
#
#
#
# Elastic Constant Matrix: (Units=GPa)
#
#
# Indices 1 2 3 4 5 6 
#
# 1 185.2378 25.8077 103.2567 0.0000 0.0000 0.0000
# 2 25.8077 61.9882 54.8417 0.0000 0.0000 0.0000
# 3 103.2567 54.8417 352.7847 0.0000 0.0000 0.0000
# 4 0.0000 0.0000 0.0000 40.1943 0.0000 0.0000
# 5 0.0000 0.0000 0.0000 0.0000 38.6566 0.0000
# 6 0.0000 0.0000 0.0000 0.0000 0.0000 23.6102
#
#
#
# Elastic Compliance Matrix: (Units=1/GPa)
#
#
# Indices 1 2 3 4 5 6 
#
# 1 0.006526 -0.001191 -0.001725 0.000000 0.000000 0.000000
# 2 -0.001191 0.018922 -0.002593 0.000000 0.000000 0.000000
# 3 -0.001725 -0.002593 0.003743 0.000000 0.000000 0.000000
# 4 0.000000 0.000000 0.000000 0.024879 0.000000 0.000000
# 5 0.000000 0.000000 0.000000 0.000000 0.025869 0.000000
# 6 0.000000 0.000000 0.000000 0.000000 0.000000 0.042355
#
#
# Mechanical properties :
#
#
# Convention : Reuss Voigt Hill
#
# Bulk Modulus (GPa) = 55.02709 107.53588 81.28149
# Shear Modulus (GPa) = 35.87627 48.23253 42.05440
#
# Velocity S-wave (km/s) = 3.59416 4.16738 3.89134
# Velocity P-wave (km/s) = 6.08585 7.86616 7.03257
#
# Compressibility (1/GPa) = 0.01817287
#
# Stress axis : x y z
#
# Youngs Moduli (GPa) = 153.23516 52.84886 267.19790
#
# Poissons Ratio (x) = 0.06294 0.46090
# Poissons Ratio (y) = 0.18248 0.69282
# Poissons Ratio (z) = 0.26432 0.13703
#
# Static dielectric constant tensor:
#      x y z
#    x 2.311570 0.000000 0.000000 
#    y 0.000000 2.771960 0.000000 
#    z 0.000000 0.000000 2.533420 
# 
# From -- ./inp_files/25837.got.cif
#   From: 2010.05.17/outbox.cif.g08.bks.cpg/sg50_13_cif.got.tgz:25837.got - 2010.06.03 11:33:33.
