data_PCOD9396495
_publ_section_title
;
Structure prediction by ZEFSAII (Michael W. Deem and Ramdas Pophale) SiO2 
 PCOD9396495
Probable space group: P B A N
;
_chemical_formula_sum "Si O2"
_cell_formula_units_Z 56
_cell_length_a 11.102290
_cell_length_b 14.288679
_cell_length_c 15.554057
_cell_angle_alpha 90.000000
_cell_angle_beta 90.000000
_cell_angle_gamma 90.000000
_cell_volume 2467.449842
_symmetry_space_group_name_H-M "P B A N"
_symmetry_group_IT_number 50
_space_group.IT_coordinate_system_code '2'
_symmetry_cell_setting 'orthorhombic'
loop_
_space_group_symop_operation_xyz
x,y,z
1/2-x,1/2-y,z
x,1/2-y,-z
1/2-x,y,-z
-x,-y,-z
1/2+x,1/2+y,-z
-x,1/2+y,z
1/2+x,-y,z
loop_
_atom_site_type_symbol
_atom_site_label
_atom_site_fract_x
_atom_site_fract_y
_atom_site_fract_z
Si Si1 0.197285 0.340303 0.165348
Si Si2 0.061287 0.052858 0.608310
Si Si3 0.679143 0.337869 0.189676
Si Si4 0.377240 0.990193 0.052366
Si Si5 0.272935 0.009165 0.721811
Si Si6 0.093700 0.395557 0.569144
Si Si7 0.486452 0.234462 0.309593
O O1 0.250000 0.250000 0.118476
O O2 0.131181 0.413521 0.105568
O O3 0.297326 0.406711 0.211661
O O4 0.111435 0.295847 0.238323
O O5 0.131508 0.104197 0.529918
O O6 0.976945 0.138070 0.641795
O O7 0.135045 0.024378 0.692705
O O8 0.033561 0.950938 0.567804
O O9 0.750000 0.250000 0.150747
O O10 0.616850 0.402574 0.118161
O O11 0.774769 0.409195 0.233957
O O12 0.589631 0.293745 0.261221
O O13 0.250000 0.981517 0.000000
O O14 0.500000 0.000000 0.000000
O O15 0.341648 0.032755 0.634615
O O16 0.077427 0.299275 0.618508
#
# Coordination Sequence:
#
# PCOD9396495 Si02
#       7
#     8   8   8   8   8   8   8
#     4  10  22  42  71  99 128 181 226 284 348 424
#     4  10  22  35  57  92 131 182 221 289 340 393
#     4  11  25  44  72  99 134 183 230 291 357 435
#     4  11  29  52  75 109 150 180 230 297 373 453
#     4  10  20  39  61  93 130 173 233 278 343 409
#     4  11  20  36  61  87 136 175 229 283 341 394
#     4  11  22  40  65  94 129 174 241 278 342 417
#
# _framework density 22.695497
#
# number of rings (size 3 to 8) (size 9 to 14) (size 15 to 20)
#    0.000    1.429    2.857    1.714    4.000    0.571 
#    0.000    1.429    0.000    0.000    0.000    0.000 
#    0.000    0.000    0.000    0.000    0.000    0.000 
#
# Total GULP energy -311960.164419 kJ/mol
# GULP energy per Si atom -5570.717222 kJ/mol
# Density = 2.264384 g / cm^3
# Si number density = 22.695497 Si / 1000 Ang^3
#
#
#
# Elastic Constant Matrix: (Units=GPa)
#
#
# Indices 1 2 3 4 5 6 
#
# 1 26.8134 24.7310 24.1982 0.0000 0.0000 0.0000
# 2 24.7310 187.0431 56.0069 0.0000 0.0000 0.0000
# 3 24.1982 56.0069 103.5300 0.0000 0.0000 0.0000
# 4 0.0000 0.0000 0.0000 32.8900 0.0000 0.0000
# 5 0.0000 0.0000 0.0000 0.0000 38.2334 0.0000
# 6 0.0000 0.0000 0.0000 0.0000 0.0000 21.4505
#
#
#
# Elastic Compliance Matrix: (Units=1/GPa)
#
#
# Indices 1 2 3 4 5 6 
#
# 1 0.049278 -0.003660 -0.009538 0.000000 0.000000 0.000000
# 2 -0.003660 0.006652 -0.002743 0.000000 0.000000 0.000000
# 3 -0.009538 -0.002743 0.013372 0.000000 0.000000 0.000000
# 4 0.000000 0.000000 0.000000 0.030404 0.000000 0.000000
# 5 0.000000 0.000000 0.000000 0.000000 0.026155 0.000000
# 6 0.000000 0.000000 0.000000 0.000000 0.000000 0.046619
#
#
# Mechanical properties :
#
#
# Convention : Reuss Voigt Hill
#
# Bulk Modulus (GPa) = 26.72332 58.58428 42.65380
# Shear Modulus (GPa) = 23.05906 32.67815 27.86861
#
# Velocity S-wave (km/s) = 3.19096 3.79865 3.50799
# Velocity P-wave (km/s) = 5.03752 6.71632 5.93656
#
# Compressibility (1/GPa) = 0.03742050
#
# Stress axis : x y z
#
# Youngs Moduli (GPa) = 20.29313 150.34057 74.78180
#
# Poissons Ratio (x) = 0.55018 0.71327
# Poissons Ratio (y) = 0.07426 0.20512
# Poissons Ratio (z) = 0.19356 0.41238
#
# Static dielectric constant tensor:
#      x y z
#    x 2.089570 0.000000 0.000000 
#    y 0.000000 1.884250 0.000000 
#    z 0.000000 0.000000 1.883760 
# 
# From -- ./inp_files/25962.got.cif
#   From: 2010.05.17/outbox.cif.g08.bks.cpg/sg50_13_cif.got.tgz:25962.got - 2010.06.03 11:33:33.
