data_PCOD9396614
_publ_section_title
;
Structure prediction by ZEFSAII (Michael W. Deem and Ramdas Pophale) SiO2 
 PCOD9396614
Probable space group: P B A N
;
_chemical_formula_sum "Si O2"
_cell_formula_units_Z 48
_cell_length_a 13.350452
_cell_length_b 20.205445
_cell_length_c 8.807267
_cell_angle_alpha 90.000000
_cell_angle_beta 90.000000
_cell_angle_gamma 90.000000
_cell_volume 2375.776334
_symmetry_space_group_name_H-M "P B A N"
_symmetry_group_IT_number 50
_space_group.IT_coordinate_system_code '2'
_symmetry_cell_setting 'orthorhombic'
loop_
_space_group_symop_operation_xyz
x,y,z
1/2-x,1/2-y,z
x,1/2-y,-z
1/2-x,y,-z
-x,-y,-z
1/2+x,1/2+y,-z
-x,1/2+y,z
1/2+x,-y,z
loop_
_atom_site_type_symbol
_atom_site_label
_atom_site_fract_x
_atom_site_fract_y
_atom_site_fract_z
Si Si1 0.801481 0.072067 0.734439
Si Si2 0.750000 0.960813 0.500000
Si Si3 0.881107 0.358200 0.828125
Si Si4 0.750000 0.750000 0.500000
Si Si5 0.250000 0.750000 0.000000
Si Si6 0.501015 0.925405 0.932331
Si Si7 0.104323 0.674114 0.517925
Si Si8 0.889964 0.641815 0.658724
O O1 0.702115 0.083875 0.831517
O O2 0.900986 0.072848 0.831315
O O3 0.817698 0.134016 0.620865
O O4 0.789064 0.007357 0.634197
O O5 0.658763 0.916760 0.559894
O O6 0.822192 0.295243 0.896427
O O7 0.908036 0.352563 0.652252
O O8 0.976170 0.376157 0.929169
O O9 0.816187 0.703237 0.613645
O O10 0.587453 0.892652 0.824560
O O11 0.500000 0.000000 0.000000
O O12 0.132115 0.750000 0.500000
O O13 0.997871 0.665861 0.600825
#
# Coordination Sequence:
#
# PCOD9396614 Si02
#       8
#     8   4   8   2   2   8   8   8
#     4  11  22  41  64  94 126 173 215 266 323 396
#     4  11  22  41  67  90 123 164 232 262 327 372
#     4  12  23  39  61  93 130 171 197 266 319 401
#     4  10  20  48  76  90 132 168 248 272 326 380
#     4  12  24  36  58  88 132 166 202 234 340 380
#     4  11  25  41  63  95 138 166 216 263 344 393
#     4  11  23  39  66  94 125 163 227 264 321 382
#     4  10  24  41  69  95 123 176 215 286 318 391
#
# _framework density 20.203921000000001
#
# number of rings (size 3 to 8) (size 9 to 14) (size 15 to 20)
#    0.000    1.000    4.167    2.000    4.667    2.000 
#    0.000    0.000    0.000    1.000    0.000    0.000 
#    0.000    0.000    0.000    0.000    0.000    0.000 
#
# Total GULP energy -267760.030277 kJ/mol
# GULP energy per Si atom -5578.333964 kJ/mol
# Density = 2.015794 g / cm^3
# Si number density = 20.203921 Si / 1000 Ang^3
#
#
#
# Elastic Constant Matrix: (Units=GPa)
#
#
# Indices 1 2 3 4 5 6 
#
# 1 63.9476 21.9168 20.4281 0.0000 0.0000 0.0000
# 2 21.9168 108.6938 35.6065 0.0000 0.0000 0.0000
# 3 20.4281 35.6065 102.6658 0.0000 0.0000 0.0000
# 4 0.0000 0.0000 0.0000 30.9005 0.0000 0.0000
# 5 0.0000 0.0000 0.0000 0.0000 33.9907 0.0000
# 6 0.0000 0.0000 0.0000 0.0000 0.0000 35.5574
#
#
#
# Elastic Compliance Matrix: (Units=1/GPa)
#
#
# Indices 1 2 3 4 5 6 
#
# 1 0.017361 -0.002673 -0.002528 0.000000 0.000000 0.000000
# 2 -0.002673 0.010791 -0.003211 0.000000 0.000000 0.000000
# 3 -0.002528 -0.003211 0.011357 0.000000 0.000000 0.000000
# 4 0.000000 0.000000 0.000000 0.032362 0.000000 0.000000
# 5 0.000000 0.000000 0.000000 0.000000 0.029420 0.000000
# 6 0.000000 0.000000 0.000000 0.000000 0.000000 0.028124
#
#
# Mechanical properties :
#
#
# Convention : Reuss Voigt Hill
#
# Bulk Modulus (GPa) = 44.07802 47.91223 45.99513
# Shear Modulus (GPa) = 32.51011 33.24678 32.87845
#
# Velocity S-wave (km/s) = 4.01571 4.06095 4.03839
# Velocity P-wave (km/s) = 6.58522 6.76419 6.67531
#
# Compressibility (1/GPa) = 0.02268705
#
# Stress axis : x y z
#
# Youngs Moduli (GPa) = 57.59955 92.67123 88.05307
#
# Poissons Ratio (x) = 0.24768 0.22256
# Poissons Ratio (y) = 0.15395 0.28271
# Poissons Ratio (z) = 0.14559 0.29754
#
# Static dielectric constant tensor:
#      x y z
#    x 1.679970 0.000000 0.000000 
#    y 0.000000 1.741720 0.000000 
#    z 0.000000 0.000000 1.877880 
# 
# From -- ./inp_files/13051.got.cif
#   From: 2010.05.17/outbox.cif.g08.bks.cpg/sg50_7_cif.got.tgz:13051.got - 2010.06.03 11:33:33.
