data_PCOD9396337
_publ_section_title
;
Structure prediction by ZEFSAII (Michael W. Deem and Ramdas Pophale) SiO2 
 PCOD9396337
Probable space group: P B A N
;
_chemical_formula_sum "Si O2"
_cell_formula_units_Z 32
_cell_length_a 22.108348
_cell_length_b 14.938192
_cell_length_c 5.174284
_cell_angle_alpha 90.000000
_cell_angle_beta 90.000000
_cell_angle_gamma 90.000000
_cell_volume 1708.852552
_symmetry_space_group_name_H-M "P B A N"
_symmetry_group_IT_number 50
_space_group.IT_coordinate_system_code '2'
_symmetry_cell_setting 'orthorhombic'
loop_
_space_group_symop_operation_xyz
x,y,z
1/2-x,1/2-y,z
x,1/2-y,-z
1/2-x,y,-z
-x,-y,-z
1/2+x,1/2+y,-z
-x,1/2+y,z
1/2+x,-y,z
loop_
_atom_site_type_symbol
_atom_site_label
_atom_site_fract_x
_atom_site_fract_y
_atom_site_fract_z
Si Si1 0.928982 0.509418 0.923766
Si Si2 0.468567 0.308562 0.742333
Si Si3 0.222602 0.649964 0.743330
Si Si4 0.594921 0.095751 0.402263
O O1 0.909512 0.440851 0.695463
O O2 0.924762 0.609208 0.814150
O O3 0.898881 0.485730 0.196553
O O4 0.000000 0.500000 0.000000
O O5 0.447286 0.250000 0.500000
O O6 0.532909 0.351580 0.655614
O O7 0.477586 0.250000 0.000000
O O8 0.250000 0.750000 0.746931
O O9 0.250000 0.599152 0.500000
O O10 0.151850 0.655470 0.683132
O O11 0.250000 0.607419 0.000000
#
# Coordination Sequence:
#
# PCOD9396337 Si02
#       4
#     8   8   8   8
#     4  10  20  37  51  76 106 147 192 228 271 345
#     4  11  21  31  53  79 108 137 189 227 273 330
#     4  10  22  35  51  76 113 140 193 230 254 322
#     4  11  21  35  56  71 113 159 180 220 288 322
#
# _framework density 18.726016000000001
#
# number of rings (size 3 to 8) (size 9 to 14) (size 15 to 20)
#    0.000    1.500    0.000    9.000    7.000    0.000 
#    0.000    0.000    0.000    0.000    0.000    0.000 
#    0.000   70.000    0.000    0.000    0.000    0.000 
#
# Total GULP energy -178222.677264 kJ/mol
# GULP energy per Si atom -5569.458665 kJ/mol
# Density = 1.868339 g / cm^3
# Si number density = 18.726016 Si / 1000 Ang^3
#
#
#
# Elastic Constant Matrix: (Units=GPa)
#
#
# Indices 1 2 3 4 5 6 
#
# 1 41.0626 -0.8385 -5.0631 0.0000 0.0000 0.0000
# 2 -0.8385 59.0470 10.6106 0.0000 0.0000 0.0000
# 3 -5.0631 10.6106 148.2114 0.0000 0.0000 0.0000
# 4 0.0000 0.0000 0.0000 32.4417 0.0000 0.0000
# 5 0.0000 0.0000 0.0000 0.0000 21.7984 0.0000
# 6 0.0000 0.0000 0.0000 0.0000 0.0000 22.0573
#
#
#
# Elastic Compliance Matrix: (Units=1/GPa)
#
#
# Indices 1 2 3 4 5 6 
#
# 1 0.024458 0.000200 0.000821 0.000000 0.000000 0.000000
# 2 0.000200 0.017158 -0.001222 0.000000 0.000000 0.000000
# 3 0.000821 -0.001222 0.006863 0.000000 0.000000 0.000000
# 4 0.000000 0.000000 0.000000 0.030825 0.000000 0.000000
# 5 0.000000 0.000000 0.000000 0.000000 0.045875 0.000000
# 6 0.000000 0.000000 0.000000 0.000000 0.000000 0.045336
#
#
# Mechanical properties :
#
#
# Convention : Reuss Voigt Hill
#
# Bulk Modulus (GPa) = 20.79958 28.63768 24.71863
# Shear Modulus (GPa) = 26.74624 31.50026 29.12325
#
# Velocity S-wave (km/s) = 3.78338 4.10587 3.94792
# Velocity P-wave (km/s) = 5.49697 6.14848 5.83183
#
# Compressibility (1/GPa) = 0.04807790
#
# Stress axis : x y z
#
# Youngs Moduli (GPa) = 40.88576 58.28182 145.71691
#
# Poissons Ratio (x) = -0.01164 -0.11967
# Poissons Ratio (y) = -0.00817 0.17800
# Poissons Ratio (z) = -0.03358 0.07119
#
# Static dielectric constant tensor:
#      x y z
#    x 1.776760 0.000000 0.000000 
#    y 0.000000 1.712710 0.000000 
#    z 0.000000 0.000000 1.706290 
# 
# From -- ./inp_files/2165.got.cif
#   From: 2010.05.17/outbox.cif.g08.bks.cpg/sg50_2_cif.got.tgz:2165.got - 2010.06.03 11:33:33.
