data_PCOD9396709
_publ_section_title
;
Structure prediction by ZEFSAII (Michael W. Deem and Ramdas Pophale) SiO2 
 PCOD9396709
Probable space group: P B A N
;
_chemical_formula_sum "Si O2"
_cell_formula_units_Z 64
_cell_length_a 11.004758
_cell_length_b 31.272308
_cell_length_c 9.932100
_cell_angle_alpha 90.000000
_cell_angle_beta 90.000000
_cell_angle_gamma 90.000000
_cell_volume 3418.074426
_symmetry_space_group_name_H-M "P B A N"
_symmetry_group_IT_number 50
_space_group.IT_coordinate_system_code '2'
_symmetry_cell_setting 'orthorhombic'
loop_
_space_group_symop_operation_xyz
x,y,z
1/2-x,1/2-y,z
x,1/2-y,-z
1/2-x,y,-z
-x,-y,-z
1/2+x,1/2+y,-z
-x,1/2+y,z
1/2+x,-y,z
loop_
_atom_site_type_symbol
_atom_site_label
_atom_site_fract_x
_atom_site_fract_y
_atom_site_fract_z
Si Si1 0.157638 0.066517 0.684440
Si Si2 0.831740 0.027989 0.362956
Si Si3 0.994919 0.145964 0.748413
Si Si4 0.244354 0.595981 0.843861
Si Si5 0.893002 0.800637 0.016440
Si Si6 0.916553 0.920844 0.620900
Si Si7 0.473309 0.845296 0.228767
Si Si8 0.104732 0.699522 0.491391
O O1 0.128250 0.079387 0.531067
O O2 0.302470 0.061551 0.704969
O O3 0.089348 0.105651 0.755638
O O4 0.119464 0.017097 0.694889
O O5 0.750000 0.022077 0.500000
O O6 0.753465 0.055583 0.256902
O O7 0.955129 0.054811 0.385765
O O8 0.871496 0.125047 0.806775
O O9 0.960356 0.168905 0.604447
O O10 0.051878 0.182070 0.844222
O O11 0.362135 0.625183 0.817829
O O12 0.250000 0.582850 0.000000
O O13 0.909374 0.750000 0.000000
O O14 0.750000 0.810053 0.000000
O O15 0.964202 0.824083 0.897605
O O16 0.937025 0.875321 0.687169
O O17 0.428815 0.812481 0.339850
O O18 0.077276 0.750000 0.500000
O O19 0.250000 0.692814 0.500000
#
# Coordination Sequence:
#
# PCOD9396709 Si02
#       8
#     8   8   8   8   8   8   8   8
#     4  11  22  37  62  95 124 163 212 267 315 391
#     4  11  23  38  67  94 125 168 215 272 326 379
#     4  12  23  42  69  95 130 179 216 268 333 398
#     4  11  24  42  63  93 129 170 215 265 324 395
#     4  11  25  45  67  93 130 178 227 268 324 400
#     4  10  21  36  59  91 128 157 209 261 318 377
#     4  11  21  42  64  90 131 168 208 271 326 383
#     4  11  23  38  62 101 135 162 212 276 339 396
#
# _framework density 18.723991999999999
#
# number of rings (size 3 to 8) (size 9 to 14) (size 15 to 20)
#    0.000    1.000    5.000    2.625    3.500    0.000 
#    0.000    3.125    0.000    3.000    0.000    0.000 
#    0.000    0.000    0.000    0.000    0.000    0.000 
#
# Total GULP energy -356647.023982 kJ/mol
# GULP energy per Si atom -5572.609750 kJ/mol
# Density = 1.868138 g / cm^3
# Si number density = 18.723992 Si / 1000 Ang^3
#
#
#
# Elastic Constant Matrix: (Units=GPa)
#
#
# Indices 1 2 3 4 5 6 
#
# 1 63.3642 26.6706 21.6825 0.0000 0.0000 0.0000
# 2 26.6706 90.9499 44.5934 0.0000 0.0000 0.0000
# 3 21.6825 44.5934 79.2161 0.0000 0.0000 0.0000
# 4 0.0000 0.0000 0.0000 35.1908 0.0000 0.0000
# 5 0.0000 0.0000 0.0000 0.0000 24.7944 0.0000
# 6 0.0000 0.0000 0.0000 0.0000 0.0000 23.5291
#
#
#
# Elastic Compliance Matrix: (Units=1/GPa)
#
#
# Indices 1 2 3 4 5 6 
#
# 1 0.018433 -0.004049 -0.002766 0.000000 0.000000 0.000000
# 2 -0.004049 0.016076 -0.007942 0.000000 0.000000 0.000000
# 3 -0.002766 -0.007942 0.017851 0.000000 0.000000 0.000000
# 4 0.000000 0.000000 0.000000 0.028416 0.000000 0.000000
# 5 0.000000 0.000000 0.000000 0.000000 0.040332 0.000000
# 6 0.000000 0.000000 0.000000 0.000000 0.000000 0.042501
#
#
# Mechanical properties :
#
#
# Convention : Reuss Voigt Hill
#
# Bulk Modulus (GPa) = 43.76936 46.60259 45.18598
# Shear Modulus (GPa) = 24.90814 26.07512 25.49163
#
# Velocity S-wave (km/s) = 3.65126 3.73581 3.69378
# Velocity P-wave (km/s) = 6.41891 6.59937 6.50976
#
# Compressibility (1/GPa) = 0.02284703
#
# Stress axis : x y z
#
# Youngs Moduli (GPa) = 54.25192 62.20355 56.01828
#
# Poissons Ratio (x) = 0.25187 0.15494
# Poissons Ratio (y) = 0.21967 0.44487
# Poissons Ratio (z) = 0.15005 0.49399
#
# Static dielectric constant tensor:
#      x y z
#    x 1.674620 0.000000 0.000000 
#    y 0.000000 1.689970 0.000000 
#    z 0.000000 0.000000 1.673670 
# 
# From -- ./inp_files/11843.got.cif
#   From: 2010.05.17/outbox.cif.g08.bks.cpg/sg50_6_cif.got.tgz:11843.got - 2010.06.03 11:33:33.
