data_PCOD9396529
_publ_section_title
;
Structure prediction by ZEFSAII (Michael W. Deem and Ramdas Pophale) SiO2 
 PCOD9396529
Probable space group: P B A N
;
_chemical_formula_sum "Si O2"
_cell_formula_units_Z 44
_cell_length_a 8.064427
_cell_length_b 29.872898
_cell_length_c 8.504281
_cell_angle_alpha 90.000000
_cell_angle_beta 90.000000
_cell_angle_gamma 90.000000
_cell_volume 2048.747671
_symmetry_space_group_name_H-M "P B A N"
_symmetry_group_IT_number 50
_space_group.IT_coordinate_system_code '2'
_symmetry_cell_setting 'orthorhombic'
loop_
_space_group_symop_operation_xyz
x,y,z
1/2-x,1/2-y,z
x,1/2-y,-z
1/2-x,y,-z
-x,-y,-z
1/2+x,1/2+y,-z
-x,1/2+y,z
1/2+x,-y,z
loop_
_atom_site_type_symbol
_atom_site_label
_atom_site_fract_x
_atom_site_fract_y
_atom_site_fract_z
Si Si1 0.540582 0.369271 0.724081
Si Si2 0.249348 0.300801 0.186460
Si Si3 0.932996 0.860196 0.589147
Si Si4 0.490082 0.449074 0.214739
Si Si5 0.156723 0.461914 0.329760
Si Si6 0.750000 0.094425 0.000000
O O1 0.406528 0.333643 0.785841
O O2 0.565294 0.351447 0.547094
O O3 0.461131 0.418905 0.693089
O O4 0.682040 0.376804 0.852893
O O5 0.250000 0.250000 0.249488
O O6 0.402520 0.324967 0.272721
O O7 0.250000 0.298024 0.000000
O O8 0.750000 0.862369 0.500000
O O9 0.983828 0.905939 0.672483
O O10 0.296583 0.458910 0.194496
O O11 0.564684 0.491608 0.303976
O O12 0.599274 0.435832 0.065192
O O13 0.250000 0.462261 0.500000
#
# Coordination Sequence:
#
# PCOD9396529 Si02
#       6
#     8   8   8   8   8   4
#     4  11  23  43  62 100 136 176 234 276 345 402
#     4  10  20  39  74 110 135 167 216 287 347 413
#     4  10  20  41  68  99 130 176 227 290 331 409
#     4  12  24  41  61  93 133 177 234 278 351 402
#     4  12  23  40  69  94 128 179 238 292 340 410
#     4  12  30  40  60  95 140 192 215 296 340 408
#
# _framework density 21.476535999999999
#
# number of rings (size 3 to 8) (size 9 to 14) (size 15 to 20)
#    0.000    0.909    5.455    2.727    2.545    6.182 
#    0.000    0.000    0.000    8.727    0.000   15.273 
#    0.000    0.000    0.000    0.000    0.000    0.000 
#
# Total GULP energy -245433.393512 kJ/mol
# GULP energy per Si atom -5578.031671 kJ/mol
# Density = 2.142765 g / cm^3
# Si number density = 21.476536 Si / 1000 Ang^3
#
#
#
# Elastic Constant Matrix: (Units=GPa)
#
#
# Indices 1 2 3 4 5 6 
#
# 1 72.0821 18.4776 39.0540 0.0000 0.0000 0.0000
# 2 18.4776 139.9498 42.2799 0.0000 0.0000 0.0000
# 3 39.0540 42.2799 109.0714 0.0000 0.0000 0.0000
# 4 0.0000 0.0000 0.0000 38.7950 0.0000 0.0000
# 5 0.0000 0.0000 0.0000 0.0000 49.3199 0.0000
# 6 0.0000 0.0000 0.0000 0.0000 0.0000 13.2406
#
#
#
# Elastic Compliance Matrix: (Units=1/GPa)
#
#
# Indices 1 2 3 4 5 6 
#
# 1 0.017239 -0.000466 -0.005992 0.000000 0.000000 0.000000
# 2 -0.000466 0.008106 -0.002975 0.000000 0.000000 0.000000
# 3 -0.005992 -0.002975 0.012467 0.000000 0.000000 0.000000
# 4 0.000000 0.000000 0.000000 0.025777 0.000000 0.000000
# 5 0.000000 0.000000 0.000000 0.000000 0.020276 0.000000
# 6 0.000000 0.000000 0.000000 0.000000 0.000000 0.075525
#
#
# Mechanical properties :
#
#
# Convention : Reuss Voigt Hill
#
# Bulk Modulus (GPa) = 52.78263 57.85845 55.32054
# Shear Modulus (GPa) = 27.08985 35.02387 31.05686
#
# Velocity S-wave (km/s) = 3.55543 4.04269 3.80687
# Velocity P-wave (km/s) = 6.44089 6.98498 6.71844
#
# Compressibility (1/GPa) = 0.01894563
#
# Stress axis : x y z
#
# Youngs Moduli (GPa) = 58.00824 123.36875 80.21101
#
# Poissons Ratio (x) = 0.05747 0.48062
# Poissons Ratio (y) = 0.02702 0.23865
# Poissons Ratio (z) = 0.34758 0.36706
#
# Static dielectric constant tensor:
#      x y z
#    x 1.871050 0.000000 0.000000 
#    y 0.000000 1.813910 0.000000 
#    z 0.000000 0.000000 2.000550 
# 
# From -- ./inp_files/9969.got.cif
#   From: 2010.05.17/outbox.cif.g08.bks.cpg/sg50_5_cif.got.tgz:9969.got - 2010.06.03 11:33:33.
