data_PCOD9396617
_publ_section_title
;
Structure prediction by ZEFSAII (Michael W. Deem and Ramdas Pophale) SiO2 
 PCOD9396617
Probable space group: P B A N
;
_chemical_formula_sum "Si O2"
_cell_formula_units_Z 34
_cell_length_a 18.501495
_cell_length_b 8.452559
_cell_length_c 11.968293
_cell_angle_alpha 90.000000
_cell_angle_beta 90.000000
_cell_angle_gamma 90.000000
_cell_volume 1871.661238
_symmetry_space_group_name_H-M "P B A N"
_symmetry_group_IT_number 50
_space_group.IT_coordinate_system_code '2'
_symmetry_cell_setting 'orthorhombic'
loop_
_space_group_symop_operation_xyz
x,y,z
1/2-x,1/2-y,z
x,1/2-y,-z
1/2-x,y,-z
-x,-y,-z
1/2+x,1/2+y,-z
-x,1/2+y,z
1/2+x,-y,z
loop_
_atom_site_type_symbol
_atom_site_label
_atom_site_fract_x
_atom_site_fract_y
_atom_site_fract_z
Si Si1 0.750000 0.750000 0.000000
Si Si2 0.325596 0.202893 0.212392
Si Si3 0.539714 0.250000 0.000000
Si Si4 0.938200 0.530385 0.152983
Si Si5 0.482523 0.750000 0.500000
Si Si6 0.058303 0.491475 0.341211
O O1 0.699601 0.845723 0.913600
O O2 0.250000 0.250000 0.269924
O O3 0.372530 0.361815 0.195081
O O4 0.372624 0.072464 0.274554
O O5 0.580436 0.127649 0.082473
O O6 0.487030 0.357290 0.074820
O O7 0.991161 0.492225 0.255570
O O8 0.436673 0.657301 0.593710
O O9 0.535407 0.868395 0.564056
#
# Coordination Sequence:
#
# PCOD9396617 Si02
#       6
#     2   8   4   8   4   8
#     4   8  22  36  56  88 130 156 186 250 314 398
#     4  10  21  36  60  90 125 166 201 250 319 392
#     4  10  21  26  59  91 123 144 216 236 313 364
#     4  11  19  35  55  93 118 162 197 262 297 386
#     4  10  22  36  65  89 120 148 218 272 304 344
#     4  11  20  38  61  92 116 159 209 263 314 360
#
# _framework density 18.165680999999999
#
# number of rings (size 3 to 8) (size 9 to 14) (size 15 to 20)
#    0.706    0.941    4.706    0.706    3.294    0.000 
#    0.000    0.588    0.000   14.824    0.000    0.000 
#    0.000    0.000    0.000    0.000    0.000    0.000 
#
# Total GULP energy -189349.904606 kJ/mol
# GULP energy per Si atom -5569.114841 kJ/mol
# Density = 1.812434 g / cm^3
# Si number density = 18.165681 Si / 1000 Ang^3
#
#
#
# Elastic Constant Matrix: (Units=GPa)
#
#
# Indices 1 2 3 4 5 6 
#
# 1 92.9048 20.5185 23.1298 0.0000 0.0000 0.0000
# 2 20.5185 76.2458 23.5171 0.0000 0.0000 0.0000
# 3 23.1298 23.5171 77.9358 0.0000 0.0000 0.0000
# 4 0.0000 0.0000 0.0000 49.8196 0.0000 0.0000
# 5 0.0000 0.0000 0.0000 0.0000 19.1666 0.0000
# 6 0.0000 0.0000 0.0000 0.0000 0.0000 13.5401
#
#
#
# Elastic Compliance Matrix: (Units=1/GPa)
#
#
# Indices 1 2 3 4 5 6 
#
# 1 0.011992 -0.002348 -0.002850 0.000000 0.000000 0.000000
# 2 -0.002348 0.014921 -0.003806 0.000000 0.000000 0.000000
# 3 -0.002850 -0.003806 0.014825 0.000000 0.000000 0.000000
# 4 0.000000 0.000000 0.000000 0.020072 0.000000 0.000000
# 5 0.000000 0.000000 0.000000 0.000000 0.052174 0.000000
# 6 0.000000 0.000000 0.000000 0.000000 0.000000 0.073855
#
#
# Mechanical properties :
#
#
# Convention : Reuss Voigt Hill
#
# Bulk Modulus (GPa) = 42.14013 42.37969 42.25991
# Shear Modulus (GPa) = 23.39094 28.49999 25.94546
#
# Velocity S-wave (km/s) = 3.59227 3.96522 3.78334
# Velocity P-wave (km/s) = 6.36034 6.65914 6.51145
#
# Compressibility (1/GPa) = 0.02373035
#
# Stress axis : x y z
#
# Youngs Moduli (GPa) = 83.38943 67.01905 67.45192
#
# Poissons Ratio (x) = 0.15736 0.19227
# Poissons Ratio (y) = 0.19579 0.25670
# Poissons Ratio (z) = 0.23770 0.25505
#
# Static dielectric constant tensor:
#      x y z
#    x 1.615920 0.000000 0.000000 
#    y 0.000000 1.657150 0.000000 
#    z 0.000000 0.000000 1.650470 
# 
# From -- ./inp_files/18870.got.cif
#   From: 2010.05.17/outbox.cif.g08.bks.cpg/sg50_10_cif.got.tgz:18870.got - 2010.06.03 11:33:33.
