data_PCOD9396364
_publ_section_title
;
Structure prediction by ZEFSAII (Michael W. Deem and Ramdas Pophale) SiO2 
 PCOD9396364
Probable space group: P B A N
;
_chemical_formula_sum "Si O2"
_cell_formula_units_Z 58
_cell_length_a 11.515818
_cell_length_b 8.900116
_cell_length_c 29.355203
_cell_angle_alpha 90.000000
_cell_angle_beta 90.000000
_cell_angle_gamma 90.000000
_cell_volume 3008.676872
_symmetry_space_group_name_H-M "P B A N"
_symmetry_group_IT_number 50
_space_group.IT_coordinate_system_code '2'
_symmetry_cell_setting 'orthorhombic'
loop_
_space_group_symop_operation_xyz
x,y,z
1/2-x,1/2-y,z
x,1/2-y,-z
1/2-x,y,-z
-x,-y,-z
1/2+x,1/2+y,-z
-x,1/2+y,z
1/2+x,-y,z
loop_
_atom_site_type_symbol
_atom_site_label
_atom_site_fract_x
_atom_site_fract_y
_atom_site_fract_z
Si Si1 0.488614 0.540748 0.263955
Si Si2 0.884095 0.709192 0.204837
Si Si3 0.624541 0.288168 0.315674
Si Si4 0.124193 0.311667 0.448445
Si Si5 0.946672 0.437659 0.953254
Si Si6 0.612449 0.772932 0.898366
Si Si7 0.372251 0.664153 0.577424
Si Si8 0.750000 0.250000 0.000000
O O1 0.550750 0.664195 0.233526
O O2 0.403075 0.448478 0.230726
O O3 0.571650 0.416414 0.284807
O O4 0.441735 0.632024 0.307618
O O5 0.750000 0.750000 0.204984
O O6 0.923995 0.723851 0.152552
O O7 0.750000 0.250000 0.297467
O O8 0.632317 0.340587 0.367648
O O9 0.250000 0.250000 0.428155
O O10 0.127157 0.250000 0.500000
O O11 0.125111 0.493820 0.442784
O O12 0.996713 0.248474 0.432061
O O13 0.917929 0.559721 0.914633
O O14 0.043192 0.329034 0.933273
O O15 0.831305 0.350402 0.968016
O O16 0.000000 0.500000 0.000000
O O17 0.750000 0.750000 0.902120
O O18 0.250000 0.750000 0.563182
#
# Coordination Sequence:
#
# PCOD9396364 Si02
#       8
#     8   8   8   8   8   8   8   2
#     4  10  20  37  60  85 120 155 194 239 294 360
#     4  10  21  38  59  85 116 153 194 237 290 353
#     4  10  21  37  60  90 121 156 198 247 304 358
#     4  11  24  42  63  92 128 171 218 267 323 381
#     4  12  23  42  62  87 118 153 199 246 302 357
#     4  11  24  40  62  87 119 155 196 249 297 357
#     4  11  23  41  65  95 129 166 215 270 320 381
#     4  12  24  40  64  88 116 156 202 246 304 360
#
# _framework density 19.277577000000001
#
# number of rings (size 3 to 8) (size 9 to 14) (size 15 to 20)
#    0.000    1.241    1.379    4.552    0.000    3.034 
#    0.000    3.448    3.034    0.000    0.000    0.000 
#    0.000    0.000    0.000    0.000    0.000    0.000 
#
# Total GULP energy -323293.090425 kJ/mol
# GULP energy per Si atom -5574.018800 kJ/mol
# Density = 1.923370 g / cm^3
# Si number density = 19.277577 Si / 1000 Ang^3
#
#
#
# Elastic Constant Matrix: (Units=GPa)
#
#
# Indices 1 2 3 4 5 6 
#
# 1 106.4140 48.1940 13.8726 0.0000 0.0000 0.0000
# 2 48.1940 135.9227 36.7404 0.0000 0.0000 0.0000
# 3 13.8726 36.7404 73.0860 0.0000 0.0000 0.0000
# 4 0.0000 0.0000 0.0000 58.1799 0.0000 0.0000
# 5 0.0000 0.0000 0.0000 0.0000 217.8343 0.0000
# 6 0.0000 0.0000 0.0000 0.0000 0.0000 30.2394
#
#
#
# Elastic Compliance Matrix: (Units=1/GPa)
#
#
# Indices 1 2 3 4 5 6 
#
# 1 0.011196 -0.003929 -0.000150 0.000000 0.000000 0.000000
# 2 -0.003929 0.009893 -0.004227 0.000000 0.000000 0.000000
# 3 -0.000150 -0.004227 0.015836 0.000000 0.000000 0.000000
# 4 0.000000 0.000000 0.000000 0.017188 0.000000 0.000000
# 5 0.000000 0.000000 0.000000 0.000000 0.004591 0.000000
# 6 0.000000 0.000000 0.000000 0.000000 0.000000 0.033069
#
#
# Mechanical properties :
#
#
# Convention : Reuss Voigt Hill
#
# Bulk Modulus (GPa) = 49.23164 57.00407 53.11786
# Shear Modulus (GPa) = 43.41873 75.69177 59.55525
#
# Velocity S-wave (km/s) = 4.75098 6.27291 5.56423
# Velocity P-wave (km/s) = 7.46254 9.06092 8.30029
#
# Compressibility (1/GPa) = 0.02031214
#
# Stress axis : x y z
#
# Youngs Moduli (GPa) = 89.31463 101.08120 63.14697
#
# Poissons Ratio (x) = 0.39718 0.00947
# Poissons Ratio (y) = 0.35095 0.26695
# Poissons Ratio (z) = 0.01339 0.42731
#
# Static dielectric constant tensor:
#      x y z
#    x 1.922290 0.000000 0.000000 
#    y 0.000000 1.986310 0.000000 
#    z 0.000000 0.000000 1.669000 
# 
# From -- ./inp_files/32189.got.cif
#   From: 2010.05.17/outbox.cif.g08.bks.cpg/sg50_17_cif.got.tgz:32189.got - 2010.06.03 11:33:33.
