data_PCOD9396323
_publ_section_title
;
Structure prediction by ZEFSAII (Michael W. Deem and Ramdas Pophale) SiO2 
 PCOD9396323
Probable space group: P B A N
;
_chemical_formula_sum "Si O2"
_cell_formula_units_Z 48
_cell_length_a 13.340414
_cell_length_b 12.859599
_cell_length_c 15.965939
_cell_angle_alpha 90.000000
_cell_angle_beta 90.000000
_cell_angle_gamma 90.000000
_cell_volume 2738.994747
_symmetry_space_group_name_H-M "P B A N"
_symmetry_group_IT_number 50
_space_group.IT_coordinate_system_code '2'
_symmetry_cell_setting 'orthorhombic'
loop_
_space_group_symop_operation_xyz
x,y,z
1/2-x,1/2-y,z
x,1/2-y,-z
1/2-x,y,-z
-x,-y,-z
1/2+x,1/2+y,-z
-x,1/2+y,z
1/2+x,-y,z
loop_
_atom_site_type_symbol
_atom_site_label
_atom_site_fract_x
_atom_site_fract_y
_atom_site_fract_z
Si Si1 0.587290 0.250000 0.000000
Si Si2 0.992888 0.189079 0.175103
Si Si3 0.680982 0.962185 0.168660
Si Si4 0.733560 0.372904 0.593750
Si Si5 0.056245 0.614874 0.717117
Si Si6 0.135366 0.979970 0.735241
Si Si7 0.250000 0.932464 0.000000
O O1 0.525147 0.245276 0.913907
O O2 0.656783 0.147581 0.993431
O O3 0.978896 0.273711 0.248412
O O4 0.907424 0.102707 0.196640
O O5 0.099372 0.129590 0.171948
O O6 0.625170 0.061727 0.210699
O O7 0.780589 0.946558 0.223593
O O8 0.720843 0.994952 0.077887
O O9 0.750000 0.250000 0.591737
O O10 0.750000 0.414375 0.500000
O O11 0.624038 0.386593 0.634388
O O12 0.811926 0.421412 0.658874
O O13 0.959568 0.544304 0.705686
#
# Coordination Sequence:
#
# PCOD9396323 Si02
#       7
#     4   8   8   8   8   8   4
#     4  11  22  32  58  81 110 154 197 250 293 334
#     4  11  21  37  56  84 114 152 198 242 290 337
#     4  10  22  35  57  82 113 152 200 243 283 344
#     4  10  20  36  63  92 114 143 189 238 282 345
#     4  10  21  37  59  84 115 154 187 235 291 345
#     4  10  21  38  58  83 118 152 189 233 288 351
#     4  11  20  34  54  81 108 154 201 246 291 338
#
# _framework density 17.524678000000002
#
# number of rings (size 3 to 8) (size 9 to 14) (size 15 to 20)
#    0.000    1.667    5.000    0.000    0.000    3.333 
#    0.000    0.000    0.000    0.000    0.000    1.167 
#    0.000    0.000    0.000    0.000    0.000    0.000 
#
# Total GULP energy -267573.002088 kJ/mol
# GULP energy per Si atom -5574.437544 kJ/mol
# Density = 1.748479 g / cm^3
# Si number density = 17.524678 Si / 1000 Ang^3
#
#
#
# Elastic Constant Matrix: (Units=GPa)
#
#
# Indices 1 2 3 4 5 6 
#
# 1 123.9824 43.5803 73.0285 0.0000 0.0000 0.0000
# 2 43.5803 53.3694 36.0702 0.0000 0.0000 0.0000
# 3 73.0285 36.0702 138.0297 0.0000 0.0000 0.0000
# 4 0.0000 0.0000 0.0000 15.6082 0.0000 0.0000
# 5 0.0000 0.0000 0.0000 0.0000 6.5360 0.0000
# 6 0.0000 0.0000 0.0000 0.0000 0.0000 20.1227
#
#
#
# Elastic Compliance Matrix: (Units=1/GPa)
#
#
# Indices 1 2 3 4 5 6 
#
# 1 0.013949 -0.007776 -0.005348 0.000000 0.000000 0.000000
# 2 -0.007776 0.027091 -0.002965 0.000000 0.000000 0.000000
# 3 -0.005348 -0.002965 0.010849 0.000000 0.000000 0.000000
# 4 0.000000 0.000000 0.000000 0.064069 0.000000 0.000000
# 5 0.000000 0.000000 0.000000 0.000000 0.152999 0.000000
# 6 0.000000 0.000000 0.000000 0.000000 0.000000 0.049695
#
#
# Mechanical properties :
#
#
# Convention : Reuss Voigt Hill
#
# Bulk Modulus (GPa) = 50.73414 68.97106 59.85260
# Shear Modulus (GPa) = 13.98985 19.30023 16.64504
#
# Velocity S-wave (km/s) = 2.82848 3.32221 3.08524
# Velocity P-wave (km/s) = 6.29921 7.35922 6.84975
#
# Compressibility (1/GPa) = 0.01971059
#
# Stress axis : x y z
#
# Youngs Moduli (GPa) = 71.68918 36.91233 92.17151
#
# Poissons Ratio (x) = 0.28703 0.49295
# Poissons Ratio (y) = 0.55745 0.27333
# Poissons Ratio (z) = 0.38340 0.10946
#
# Static dielectric constant tensor:
#      x y z
#    x 1.593270 0.000000 0.000000 
#    y 0.000000 1.596590 0.000000 
#    z 0.000000 0.000000 1.607190 
# 
# From -- ./inp_files/25895.got.cif
#   From: 2010.05.17/outbox.cif.g08.bks.cpg/sg50_13_cif.got.tgz:25895.got - 2010.06.03 11:33:33.
