data_PCOD9396368
_publ_section_title
;
Structure prediction by ZEFSAII (Michael W. Deem and Ramdas Pophale) SiO2 
 PCOD9396368
Probable space group: P B A N
;
_chemical_formula_sum "Si O2"
_cell_formula_units_Z 64
_cell_length_a 32.958163
_cell_length_b 9.402930
_cell_length_c 11.012398
_cell_angle_alpha 90.000000
_cell_angle_beta 90.000000
_cell_angle_gamma 90.000000
_cell_volume 3412.778477
_symmetry_space_group_name_H-M "P B A N"
_symmetry_group_IT_number 50
_space_group.IT_coordinate_system_code '2'
_symmetry_cell_setting 'orthorhombic'
loop_
_space_group_symop_operation_xyz
x,y,z
1/2-x,1/2-y,z
x,1/2-y,-z
1/2-x,y,-z
-x,-y,-z
1/2+x,1/2+y,-z
-x,1/2+y,z
1/2+x,-y,z
loop_
_atom_site_type_symbol
_atom_site_label
_atom_site_fract_x
_atom_site_fract_y
_atom_site_fract_z
Si Si1 0.042329 0.297981 0.639127
Si Si2 0.085845 0.956788 0.251432
Si Si3 0.250317 0.913095 0.647169
Si Si4 0.550922 0.299231 0.364088
Si Si5 0.332224 0.076761 0.641249
Si Si6 0.330669 0.083531 0.352790
Si Si7 0.043904 0.923236 0.998013
Si Si8 0.415915 0.049960 0.242976
O O1 0.049396 0.250000 0.500000
O O2 0.054311 0.460851 0.660379
O O3 0.995574 0.273091 0.672244
O O4 0.070262 0.210830 0.732622
O O5 0.129614 0.018753 0.283749
O O6 0.081944 0.791238 0.284055
O O7 0.069471 0.970558 0.115677
O O8 0.250000 0.750000 0.690326
O O9 0.250000 0.909668 0.500000
O O10 0.291545 0.994689 0.679425
O O11 0.210295 0.001252 0.681973
O O12 0.556042 0.250000 0.500000
O O13 0.560634 0.463147 0.347567
O O14 0.339569 0.052335 0.496110
O O15 0.326299 0.245875 0.656212
O O16 0.368463 0.038402 0.270175
O O17 0.067695 0.981821 0.880382
O O18 0.039770 0.750000 0.000000
O O19 0.000000 0.000000 0.000000
#
# Coordination Sequence:
#
# PCOD9396368 Si02
#       8
#     8   8   8   8   8   8   8   8
#     4  11  22  39  59  88 122 156 200 251 316 380
#     4  12  24  39  61  87 121 163 211 259 305 365
#     4   9  19  33  57  92 127 162 195 241 307 373
#     4  11  22  35  57  86 120 158 196 255 320 370
#     4  10  20  37  60  90 127 162 200 247 306 376
#     4  10  20  37  60  90 127 162 200 247 306 376
#     4  12  28  46  64  85 118 167 224 272 309 360
#     4  12  24  39  61  87 121 163 211 259 305 365
#
# _framework density 18.753048
#
# number of rings (size 3 to 8) (size 9 to 14) (size 15 to 20)
#    0.000    1.125    2.500    4.875    3.500    3.500 
#    0.000    0.000    0.000    0.750    0.000    3.500 
#    0.000    0.000    0.000    0.000    0.000    0.000 
#
# Total GULP energy -357494.545313 kJ/mol
# GULP energy per Si atom -5585.852271 kJ/mol
# Density = 1.871037 g / cm^3
# Si number density = 18.753048 Si / 1000 Ang^3
#
#
#
# Elastic Constant Matrix: (Units=GPa)
#
#
# Indices 1 2 3 4 5 6 
#
# 1 163.6314 61.5532 65.2530 0.0000 0.0000 0.0000
# 2 61.5532 88.0510 45.1242 0.0000 0.0000 0.0000
# 3 65.2530 45.1242 57.1013 0.0000 0.0000 0.0000
# 4 0.0000 0.0000 0.0000 23.9859 0.0000 0.0000
# 5 0.0000 0.0000 0.0000 0.0000 -1.5650 0.0000
# 6 0.0000 0.0000 0.0000 0.0000 0.0000 30.1187
#
#
#
# Elastic Compliance Matrix: (Units=1/GPa)
#
#
# Indices 1 2 3 4 5 6 
#
# 1 0.011473 -0.002187 -0.011383 0.000000 0.000000 0.000000
# 2 -0.002187 0.019504 -0.012914 0.000000 0.000000 0.000000
# 3 -0.011383 -0.012914 0.040726 0.000000 0.000000 0.000000
# 4 0.000000 0.000000 0.000000 0.041691 0.000000 0.000000
# 5 0.000000 0.000000 0.000000 0.000000 -0.638970 0.000000
# 6 0.000000 0.000000 0.000000 0.000000 0.000000 0.033202
#
#
# Mechanical properties :
#
#
# Convention : Reuss Voigt Hill
#
# Bulk Modulus (GPa) = 53.37420 72.51604 62.94512
# Shear Modulus (GPa) = -11.54303 19.63148 4.04422
#
# Velocity S-wave (km/s) = -2.48368 3.23900 1.47012
# Velocity P-wave (km/s) = 4.50539 7.26231 6.04316
#
# Compressibility (1/GPa) = 0.01873564
#
# Stress axis : x y z
#
# Youngs Moduli (GPa) = 87.15907 51.27182 24.55464
#
# Poissons Ratio (x) = 0.11214 0.27950
# Poissons Ratio (y) = 0.19063 0.31709
# Poissons Ratio (z) = 0.99212 0.66210
#
# Static dielectric constant tensor:
#      x y z
#    x 1.628430 0.000000 0.000000 
#    y 0.000000 1.639880 0.000000 
#    z 0.000000 0.000000 1.648740 
# 
# From -- ./inp_files/23404.got.cif
#   From: 2010.05.17/outbox.cif.g08.bks.cpg/sg50_12_cif.got.tgz:23404.got - 2010.06.03 11:33:33.
