data_PCOD9396096
_publ_section_title
;
Structure prediction by ZEFSAII (Michael W. Deem and Ramdas Pophale) SiO2 
 PCOD9396096
Probable space group: P B A N
;
_chemical_formula_sum "Si O2"
_cell_formula_units_Z 26
_cell_length_a 28.041183
_cell_length_b 5.393059
_cell_length_c 7.114566
_cell_angle_alpha 90.000000
_cell_angle_beta 90.000000
_cell_angle_gamma 90.000000
_cell_volume 1075.919839
_symmetry_space_group_name_H-M "P B A N"
_symmetry_group_IT_number 50
_space_group.IT_coordinate_system_code '2'
_symmetry_cell_setting 'orthorhombic'
loop_
_space_group_symop_operation_xyz
x,y,z
1/2-x,1/2-y,z
x,1/2-y,-z
1/2-x,y,-z
-x,-y,-z
1/2+x,1/2+y,-z
-x,1/2+y,z
1/2+x,-y,z
loop_
_atom_site_type_symbol
_atom_site_label
_atom_site_fract_x
_atom_site_fract_y
_atom_site_fract_z
Si Si1 0.516787 0.330790 0.783950
Si Si2 0.162953 0.507596 0.308345
Si Si3 0.750000 0.250000 0.500000
Si Si4 0.377250 0.002617 0.727737
O O1 0.482462 0.548570 0.701146
O O2 0.567492 0.469174 0.772825
O O3 0.505671 0.250000 0.000000
O O4 0.216343 0.569387 0.377148
O O5 0.132458 0.500524 0.502857
O O6 0.146840 0.751698 0.201840
O O7 0.149234 0.252399 0.210633
#
# Coordination Sequence:
#
# PCOD9396096 Si02
#       4
#     8   8   2   8
#     4  10  20  33  49  66  90 129 173 209 237 278
#     4   9  18  29  48  70  99 126 148 192 242 297
#     4   8  16  30  48  74  98 126 160 182 236 312
#     4   9  17  31  44  68  97 122 159 197 241 285
#
# _framework density 24.165372000000001
#
# number of rings (size 3 to 8) (size 9 to 14) (size 15 to 20)
#    0.000    3.077    0.000    1.846    0.000    9.846 
#    0.000   18.462    0.000    0.000    0.000   17.231 
#    0.000   78.769    0.000    0.000    0.000    0.000 
#
# Total GULP energy -144804.822677 kJ/mol
# GULP energy per Si atom -5569.416257 kJ/mol
# Density = 2.411037 g / cm^3
# Si number density = 24.165372 Si / 1000 Ang^3
#
#
#
# Elastic Constant Matrix: (Units=GPa)
#
#
# Indices 1 2 3 4 5 6 
#
# 1 151.5770 72.4834 11.5841 0.0000 0.0000 0.0000
# 2 72.4834 314.6629 21.3029 0.0000 0.0000 0.0000
# 3 11.5841 21.3029 98.8006 0.0000 0.0000 0.0000
# 4 0.0000 0.0000 0.0000 -17.9772 0.0000 0.0000
# 5 0.0000 0.0000 0.0000 0.0000 -20.3745 0.0000
# 6 0.0000 0.0000 0.0000 0.0000 0.0000 6.7162
#
#
#
# Elastic Compliance Matrix: (Units=1/GPa)
#
#
# Indices 1 2 3 4 5 6 
#
# 1 0.007439 -0.001679 -0.000510 0.000000 0.000000 0.000000
# 2 -0.001679 0.003604 -0.000580 0.000000 0.000000 0.000000
# 3 -0.000510 -0.000580 0.010306 0.000000 0.000000 0.000000
# 4 0.000000 0.000000 0.000000 -0.055626 0.000000 0.000000
# 5 0.000000 0.000000 0.000000 0.000000 -0.049081 0.000000
# 6 0.000000 0.000000 0.000000 0.000000 0.000000 0.148893
#
#
# Mechanical properties :
#
#
# Convention : Reuss Voigt Hill
#
# Bulk Modulus (GPa) = 63.24875 86.19791 74.72333
# Shear Modulus (GPa) = 65.49251 24.31759 44.90505
#
# Velocity S-wave (km/s) = 5.21159 3.17566 4.31541
# Velocity P-wave (km/s) = 7.90217 7.01384 7.47122
#
# Compressibility (1/GPa) = 0.01581059
#
# Stress axis : x y z
#
# Youngs Moduli (GPa) = 134.42231 277.46391 97.02790
#
# Poissons Ratio (x) = 0.46589 0.04950
# Poissons Ratio (y) = 0.22571 0.05630
# Poissons Ratio (z) = 0.06858 0.16099
#
# Static dielectric constant tensor:
#      x y z
#    x 1.953360 0.000000 0.000000 
#    y 0.000000 2.452700 0.000000 
#    z 0.000000 0.000000 2.035240 
# 
# From -- ./inp_files/16631.got.cif
#   From: 2010.05.17/outbox.cif.g08.bks.cpg/sg50_9_cif.got.tgz:16631.got - 2010.06.03 11:33:33.
