data_PCOD9396785
_publ_section_title
;
Structure prediction by ZEFSAII (Michael W. Deem and Ramdas Pophale) SiO2 
 PCOD9396785
Probable space group: P B A N
;
_chemical_formula_sum "Si O2"
_cell_formula_units_Z 56
_cell_length_a 9.124170
_cell_length_b 20.697668
_cell_length_c 15.014193
_cell_angle_alpha 90.000000
_cell_angle_beta 90.000000
_cell_angle_gamma 90.000000
_cell_volume 2835.415956
_symmetry_space_group_name_H-M "P B A N"
_symmetry_group_IT_number 50
_space_group.IT_coordinate_system_code '2'
_symmetry_cell_setting 'orthorhombic'
loop_
_space_group_symop_operation_xyz
x,y,z
1/2-x,1/2-y,z
x,1/2-y,-z
1/2-x,y,-z
-x,-y,-z
1/2+x,1/2+y,-z
-x,1/2+y,z
1/2+x,-y,z
loop_
_atom_site_type_symbol
_atom_site_label
_atom_site_fract_x
_atom_site_fract_y
_atom_site_fract_z
Si Si1 0.171761 0.680797 0.088665
Si Si2 0.831190 0.815276 0.257470
Si Si3 0.367753 0.618870 0.222483
Si Si4 0.157252 0.136887 0.089855
Si Si5 0.375975 0.989588 0.927856
Si Si6 0.843939 0.444565 0.413856
Si Si7 0.814398 0.580514 0.588064
O O1 0.250000 0.750000 0.097034
O O2 0.220928 0.644683 0.177154
O O3 0.999207 0.671772 0.077282
O O4 0.250000 0.654481 0.000000
O O5 0.750000 0.750000 0.291638
O O6 0.744687 0.829296 0.167631
O O7 0.808781 0.871831 0.329294
O O8 0.004484 0.826344 0.232130
O O9 0.410960 0.562163 0.150438
O O10 0.330296 0.593003 0.320441
O O11 0.145446 0.060801 0.113997
O O12 0.250000 0.140529 0.000000
O O13 0.250000 0.974650 0.000000
O O14 0.500000 0.000000 0.000000
O O15 0.750000 0.420561 0.500000
O O16 0.782977 0.516618 0.397640
O O17 0.018239 0.441155 0.430698
O O18 0.750000 0.613485 0.500000
#
# Coordination Sequence:
#
# PCOD9396785 Si02
#       7
#     8   8   8   8   8   8   8
#     4  11  23  39  58  83 118 164 208 248 297 358
#     4  11  24  40  58  85 117 159 208 247 294 361
#     4  11  22  39  60  86 124 160 200 255 309 367
#     4  11  23  38  60  87 120 161 203 252 302 360
#     4  11  21  35  57  88 122 155 197 249 309 366
#     4  10  21  37  62  93 121 153 196 250 315 378
#     4  10  21  39  63  89 119 152 193 250 312 370
#
# _framework density 19.75019
#
# number of rings (size 3 to 8) (size 9 to 14) (size 15 to 20)
#    0.000    1.286    0.000    8.143    0.000    7.429 
#    0.000    0.000    0.000    2.143    0.000    4.000 
#    0.000    0.000    0.000    0.000    0.000    0.000 
#
# Total GULP energy -312096.325652 kJ/mol
# GULP energy per Si atom -5573.148672 kJ/mol
# Density = 1.970524 g / cm^3
# Si number density = 19.750190 Si / 1000 Ang^3
#
#
#
# Elastic Constant Matrix: (Units=GPa)
#
#
# Indices 1 2 3 4 5 6 
#
# 1 135.3746 41.3242 53.0036 0.0000 0.0000 0.0000
# 2 41.3242 83.4659 25.1749 0.0000 0.0000 0.0000
# 3 53.0036 25.1749 112.3390 0.0000 0.0000 0.0000
# 4 0.0000 0.0000 0.0000 23.7755 0.0000 0.0000
# 5 0.0000 0.0000 0.0000 0.0000 32.8606 0.0000
# 6 0.0000 0.0000 0.0000 0.0000 0.0000 26.3182
#
#
#
# Elastic Compliance Matrix: (Units=1/GPa)
#
#
# Indices 1 2 3 4 5 6 
#
# 1 0.010078 -0.003813 -0.003900 0.000000 0.000000 0.000000
# 2 -0.003813 0.014292 -0.001404 0.000000 0.000000 0.000000
# 3 -0.003900 -0.001404 0.011057 0.000000 0.000000 0.000000
# 4 0.000000 0.000000 0.000000 0.042060 0.000000 0.000000
# 5 0.000000 0.000000 0.000000 0.000000 0.030432 0.000000
# 6 0.000000 0.000000 0.000000 0.000000 0.000000 0.037996
#
#
# Mechanical properties :
#
#
# Convention : Reuss Voigt Hill
#
# Bulk Modulus (GPa) = 58.16654 63.35387 60.76020
# Shear Modulus (GPa) = 29.43245 30.70266 30.06755
#
# Velocity S-wave (km/s) = 3.86455 3.94706 3.90602
# Velocity P-wave (km/s) = 7.03051 7.27458 7.15359
#
# Compressibility (1/GPa) = 0.01719201
#
# Stress axis : x y z
#
# Youngs Moduli (GPa) = 99.22513 69.96790 90.44436
#
# Poissons Ratio (x) = 0.26680 0.35278
# Poissons Ratio (y) = 0.37837 0.12696
# Poissons Ratio (z) = 0.38703 0.09822
#
# Static dielectric constant tensor:
#      x y z
#    x 1.383580 0.000000 0.000000 
#    y 0.000000 1.765830 0.000000 
#    z 0.000000 0.000000 1.713870 
# 
# From -- ./inp_files/25231.got.cif
#   From: 2010.05.17/outbox.cif.g08.bks.cpg/sg50_13_cif.got.tgz:25231.got - 2010.06.03 11:33:33.
