data_PCOD9396363
_publ_section_title
;
Structure prediction by ZEFSAII (Michael W. Deem and Ramdas Pophale) SiO2 
 PCOD9396363
Probable space group: P B A N
;
_chemical_formula_sum "Si O2"
_cell_formula_units_Z 58
_cell_length_a 12.590626
_cell_length_b 8.940928
_cell_length_c 26.142873
_cell_angle_alpha 90.000000
_cell_angle_beta 90.000000
_cell_angle_gamma 90.000000
_cell_volume 2942.952376
_symmetry_space_group_name_H-M "P B A N"
_symmetry_group_IT_number 50
_space_group.IT_coordinate_system_code '2'
_symmetry_cell_setting 'orthorhombic'
loop_
_space_group_symop_operation_xyz
x,y,z
1/2-x,1/2-y,z
x,1/2-y,-z
1/2-x,y,-z
-x,-y,-z
1/2+x,1/2+y,-z
-x,1/2+y,z
1/2+x,-y,z
loop_
_atom_site_type_symbol
_atom_site_label
_atom_site_fract_x
_atom_site_fract_y
_atom_site_fract_z
Si Si1 0.376404 0.745759 0.939577
Si Si2 0.081419 0.157578 0.291447
Si Si3 0.418819 0.893259 0.574951
Si Si4 0.627421 0.766485 0.406191
Si Si5 0.750000 0.250000 0.500000
Si Si6 0.501631 0.997285 0.877500
Si Si7 0.870057 0.750248 0.819998
Si Si8 0.367020 0.690645 0.310256
O O1 0.250000 0.750000 0.932503
O O2 0.424870 0.597489 0.914070
O O3 0.430651 0.885633 0.911264
O O4 0.399532 0.750000 0.000000
O O5 0.121325 0.236113 0.343957
O O6 0.127541 0.232057 0.240907
O O7 0.955590 0.193673 0.290434
O O8 0.108706 0.980369 0.292517
O O9 0.541952 0.845545 0.569090
O O10 0.331851 0.845164 0.533919
O O11 0.381481 0.819006 0.628424
O O12 0.413998 0.069991 0.580073
O O13 0.750000 0.750000 0.421651
O O14 0.430292 0.109500 0.844663
O O15 0.570956 0.897324 0.839231
O O16 0.750000 0.750000 0.838660
O O17 0.250000 0.750000 0.297362
#
# Coordination Sequence:
#
# PCOD9396363 Si02
#       8
#     8   8   8   8   2   8   8   8
#     4  10  20  37  60  84 112 156 205 249 299 351
#     4  10  22  37  62  91 118 162 207 243 296 367
#     4  10  24  41  67  91 124 162 200 249 310 365
#     4  10  23  43  66  93 126 160 207 254 303 360
#     4  12  24  44  68  92 128 160 202 250 312 380
#     4  10  22  37  56  85 121 154 195 251 299 355
#     4  11  22  38  57  84 122 158 195 240 304 357
#     4  10  21  40  62  88 121 156 199 252 298 349
#
# _framework density 19.708100000000002
#
# number of rings (size 3 to 8) (size 9 to 14) (size 15 to 20)
#    0.000    1.793    0.690    2.483    1.931    8.276 
#    0.000    3.448    0.000    6.621    0.000    0.000 
#    0.000    0.000    0.000    0.000    0.000    0.000 
#
# Total GULP energy -324109.729054 kJ/mol
# GULP energy per Si atom -5588.098777 kJ/mol
# Density = 1.966324 g / cm^3
# Si number density = 19.708100 Si / 1000 Ang^3
#
#
#
# Elastic Constant Matrix: (Units=GPa)
#
#
# Indices 1 2 3 4 5 6 
#
# 1 178.6222 67.9608 37.3809 0.0000 0.0000 0.0000
# 2 67.9608 102.6079 40.4477 0.0000 0.0000 0.0000
# 3 37.3809 40.4477 85.7026 0.0000 0.0000 0.0000
# 4 0.0000 0.0000 0.0000 11.6967 0.0000 0.0000
# 5 0.0000 0.0000 0.0000 0.0000 33.1497 0.0000
# 6 0.0000 0.0000 0.0000 0.0000 0.0000 -31.2868
#
#
#
# Elastic Compliance Matrix: (Units=1/GPa)
#
#
# Indices 1 2 3 4 5 6 
#
# 1 0.007576 -0.004564 -0.001150 0.000000 0.000000 0.000000
# 2 -0.004564 0.014723 -0.004958 0.000000 0.000000 0.000000
# 3 -0.001150 -0.004958 0.014510 0.000000 0.000000 0.000000
# 4 0.000000 0.000000 0.000000 0.085494 0.000000 0.000000
# 5 0.000000 0.000000 0.000000 0.000000 0.030166 0.000000
# 6 0.000000 0.000000 0.000000 0.000000 0.000000 -0.031962
#
#
# Mechanical properties :
#
#
# Convention : Reuss Voigt Hill
#
# Bulk Modulus (GPa) = 64.66582 73.16797 68.91690
# Shear Modulus (GPa) = 34.01216 17.45481 25.73348
#
# Velocity S-wave (km/s) = 4.15878 2.97924 3.61741
# Velocity P-wave (km/s) = 7.47955 7.00292 7.24516
#
# Compressibility (1/GPa) = 0.01546412
#
# Stress axis : x y z
#
# Youngs Moduli (GPa) = 132.00138 67.91947 68.91868
#
# Poissons Ratio (x) = 0.31000 0.07927
# Poissons Ratio (y) = 0.60249 0.34170
# Poissons Ratio (z) = 0.15182 0.33674
#
# Static dielectric constant tensor:
#      x y z
#    x 1.679120 0.000000 0.000000 
#    y 0.000000 1.665210 0.000000 
#    z 0.000000 0.000000 1.709830 
# 
# From -- ./inp_files/32183.got.cif
#   From: 2010.05.17/outbox.cif.g08.bks.cpg/sg50_17_cif.got.tgz:32183.got - 2010.06.03 11:33:33.
