data_PCOD9396903
_publ_section_title
;
Structure prediction by ZEFSAII (Michael W. Deem and Ramdas Pophale) SiO2 
 PCOD9396903
Probable space group: P B A N
;
_chemical_formula_sum "Si O2"
_cell_formula_units_Z 40
_cell_length_a 13.960189
_cell_length_b 24.038155
_cell_length_c 5.219358
_cell_angle_alpha 90.000000
_cell_angle_beta 90.000000
_cell_angle_gamma 90.000000
_cell_volume 1751.497476
_symmetry_space_group_name_H-M "P B A N"
_symmetry_group_IT_number 50
_space_group.IT_coordinate_system_code '2'
_symmetry_cell_setting 'orthorhombic'
loop_
_space_group_symop_operation_xyz
x,y,z
1/2-x,1/2-y,z
x,1/2-y,-z
1/2-x,y,-z
-x,-y,-z
1/2+x,1/2+y,-z
-x,1/2+y,z
1/2+x,-y,z
loop_
_atom_site_type_symbol
_atom_site_label
_atom_site_fract_x
_atom_site_fract_y
_atom_site_fract_z
Si Si1 0.156003 0.442331 0.325829
Si Si2 0.859170 0.832581 0.993294
Si Si3 0.999120 0.378902 0.580690
Si Si4 0.311864 0.929820 0.240619
Si Si5 0.031598 0.716232 0.755465
O O1 0.250000 0.431098 0.500000
O O2 0.164624 0.504320 0.222315
O O3 0.060859 0.431668 0.491971
O O4 0.147097 0.394874 0.111672
O O5 0.924280 0.840514 0.737513
O O6 0.750000 0.813850 0.000000
O O7 0.919639 0.792605 0.177926
O O8 0.910984 0.396966 0.752033
O O9 0.950671 0.347029 0.338839
O O10 0.250000 0.922707 0.500000
O O11 0.250000 0.912412 0.000000
O O12 0.052640 0.750000 0.500000
O O13 0.072920 0.750000 0.000000
#
# Coordination Sequence:
#
# PCOD9396903 Si02
#       5
#     8   8   8   8   8
#     4  10  21  39  64  99 145 182 222 272 326 412
#     4  11  22  39  65  98 139 176 223 264 333 409
#     4  11  24  43  71  96 136 186 221 283 342 399
#     4  11  27  44  67 101 136 180 235 284 334 397
#     4  11  24  44  64  97 131 173 220 279 342 410
#
# _framework density 22.837603000000001
#
# number of rings (size 3 to 8) (size 9 to 14) (size 15 to 20)
#    0.000    1.200    4.000    1.200    8.400    1.200 
#    3.600    0.000    0.000    0.600    5.200    0.000 
#    0.000    0.000    0.000    0.000    0.000    0.000 
#
# Total GULP energy -223243.362657 kJ/mol
# GULP energy per Si atom -5581.084066 kJ/mol
# Density = 2.278562 g / cm^3
# Si number density = 22.837603 Si / 1000 Ang^3
#
#
#
# Elastic Constant Matrix: (Units=GPa)
#
#
# Indices 1 2 3 4 5 6 
#
# 1 89.7893 31.0343 35.1588 0.0000 0.0000 0.0000
# 2 31.0343 54.8111 28.9276 0.0000 0.0000 0.0000
# 3 35.1588 28.9276 131.5079 0.0000 0.0000 0.0000
# 4 0.0000 0.0000 0.0000 16.2467 0.0000 0.0000
# 5 0.0000 0.0000 0.0000 0.0000 39.0826 0.0000
# 6 0.0000 0.0000 0.0000 0.0000 0.0000 -9.3156
#
#
#
# Elastic Compliance Matrix: (Units=1/GPa)
#
#
# Indices 1 2 3 4 5 6 
#
# 1 0.014454 -0.006952 -0.002335 0.000000 0.000000 0.000000
# 2 -0.006952 0.023984 -0.003417 0.000000 0.000000 0.000000
# 3 -0.002335 -0.003417 0.008980 0.000000 0.000000 0.000000
# 4 0.000000 0.000000 0.000000 0.061551 0.000000 0.000000
# 5 0.000000 0.000000 0.000000 0.000000 0.025587 0.000000
# 6 0.000000 0.000000 0.000000 0.000000 0.000000 -0.107347
#
#
# Mechanical properties :
#
#
# Convention : Reuss Voigt Hill
#
# Bulk Modulus (GPa) = 45.43331 51.81665 48.62498
# Shear Modulus (GPa) = 83.39728 21.26859 52.33293
#
# Velocity S-wave (km/s) = 6.04953 3.05503 4.79218
# Velocity P-wave (km/s) = 8.29054 5.93150 7.20818
#
# Compressibility (1/GPa) = 0.02201029
#
# Stress axis : x y z
#
# Youngs Moduli (GPa) = 69.18342 41.69444 111.35717
#
# Poissons Ratio (x) = 0.28985 0.26005
# Poissons Ratio (y) = 0.48094 0.38053
# Poissons Ratio (z) = 0.16156 0.14248
#
# Static dielectric constant tensor:
#      x y z
#    x 1.826030 0.000000 0.000000 
#    y 0.000000 1.924070 0.000000 
#    z 0.000000 0.000000 1.931600 
# 
# From -- ./inp_files/2400.got.cif
#   From: 2010.05.17/outbox.cif.g08.bks.cpg/sg50_2_cif.got.tgz:2400.got - 2010.06.03 11:33:33.
