data_PCOD9396697
_publ_section_title
;
Structure prediction by ZEFSAII (Michael W. Deem and Ramdas Pophale) SiO2 
 PCOD9396697
Probable space group: P B A N
;
_chemical_formula_sum "Si O2"
_cell_formula_units_Z 32
_cell_length_a 10.162592
_cell_length_b 25.231084
_cell_length_c 5.119131
_cell_angle_alpha 90.000000
_cell_angle_beta 90.000000
_cell_angle_gamma 90.000000
_cell_volume 1312.612824
_symmetry_space_group_name_H-M "P B A N"
_symmetry_group_IT_number 50
_space_group.IT_coordinate_system_code '2'
_symmetry_cell_setting 'orthorhombic'
loop_
_space_group_symop_operation_xyz
x,y,z
1/2-x,1/2-y,z
x,1/2-y,-z
1/2-x,y,-z
-x,-y,-z
1/2+x,1/2+y,-z
-x,1/2+y,z
1/2+x,-y,z
loop_
_atom_site_type_symbol
_atom_site_label
_atom_site_fract_x
_atom_site_fract_y
_atom_site_fract_z
Si Si1 0.895686 0.834419 0.392781
Si Si2 0.966938 0.085354 0.928967
Si Si3 0.122882 0.015658 0.320267
Si Si4 0.532898 0.303326 0.095907
O O1 0.750000 0.837418 0.500000
O O2 0.983619 0.805453 0.609601
O O3 0.958470 0.891521 0.326303
O O4 0.911199 0.806511 0.111948
O O5 0.903321 0.138842 0.046543
O O6 0.078512 0.062607 0.125396
O O7 0.871694 0.037641 0.857013
O O8 0.250000 0.023427 0.500000
O O9 0.000000 0.000000 0.500000
O O10 0.603055 0.250000 0.000000
#
# Coordination Sequence:
#
# PCOD9396697 Si02
#       4
#     8   8   8   8
#     4  10  21  36  57  92 139 181 229 283 351 432
#     4   9  24  39  63  98 133 190 234 301 366 435
#     4  11  24  45  70 100 141 185 245 303 367 436
#     4  10  21  36  58  93 137 184 232 288 354 437
#
# _framework density 24.378858000000001
#
# number of rings (size 3 to 8) (size 9 to 14) (size 15 to 20)
#    1.500    0.500    0.000    3.000    0.000   13.000 
#    0.000    0.000    0.000    0.000    0.000   24.500 
#    0.000    0.000    0.000    0.000    0.000    0.000 
#
# Total GULP energy -178576.884781 kJ/mol
# GULP energy per Si atom -5580.527649 kJ/mol
# Density = 2.432337 g / cm^3
# Si number density = 24.378858 Si / 1000 Ang^3
#
#
#
# Elastic Constant Matrix: (Units=GPa)
#
#
# Indices 1 2 3 4 5 6 
#
# 1 112.0869 32.9294 48.5962 0.0000 0.0000 0.0000
# 2 32.9294 210.8397 52.0254 0.0000 0.0000 0.0000
# 3 48.5962 52.0254 155.2598 0.0000 0.0000 0.0000
# 4 0.0000 0.0000 0.0000 55.9809 0.0000 0.0000
# 5 0.0000 0.0000 0.0000 0.0000 19.4623 0.0000
# 6 0.0000 0.0000 0.0000 0.0000 0.0000 -3.3169
#
#
#
# Elastic Compliance Matrix: (Units=1/GPa)
#
#
# Indices 1 2 3 4 5 6 
#
# 1 0.010477 -0.000902 -0.002977 0.000000 0.000000 0.000000
# 2 -0.000902 0.005248 -0.001476 0.000000 0.000000 0.000000
# 3 -0.002977 -0.001476 0.007867 0.000000 0.000000 0.000000
# 4 0.000000 0.000000 0.000000 0.017863 0.000000 0.000000
# 5 0.000000 0.000000 0.000000 0.000000 0.051381 0.000000
# 6 0.000000 0.000000 0.000000 0.000000 0.000000 -0.301482
#
#
# Mechanical properties :
#
#
# Convention : Reuss Voigt Hill
#
# Bulk Modulus (GPa) = 77.62629 82.80981 80.21805
# Shear Modulus (GPa) = -25.82114 37.40095 5.78990
#
# Velocity S-wave (km/s) = -3.25801 3.92108 1.54277
# Velocity P-wave (km/s) = 4.21402 7.38522 6.01246
#
# Compressibility (1/GPa) = 0.01288223
#
# Stress axis : x y z
#
# Youngs Moduli (GPa) = 95.44374 190.54665 127.10708
#
# Poissons Ratio (x) = 0.17182 0.37843
# Poissons Ratio (y) = 0.08606 0.18765
# Poissons Ratio (z) = 0.28416 0.28131
#
# Static dielectric constant tensor:
#      x y z
#    x 1.884990 0.000000 0.000000 
#    y 0.000000 2.095210 0.000000 
#    z 0.000000 0.000000 1.938880 
# 
# From -- ./inp_files/1232.got.cif
#   From: 2010.05.17/outbox.cif.g08.bks.cpg/sg50_1_cif.got.tgz:1232.got - 2010.06.03 11:33:33.
