data_PCOD9396926
_publ_section_title
;
Structure prediction by ZEFSAII (Michael W. Deem and Ramdas Pophale) SiO2 
 PCOD9396926
Probable space group: P B A N
;
_chemical_formula_sum "Si O2"
_cell_formula_units_Z 44
_cell_length_a 12.936447
_cell_length_b 17.941186
_cell_length_c 7.157666
_cell_angle_alpha 90.000000
_cell_angle_beta 90.000000
_cell_angle_gamma 90.000000
_cell_volume 1661.259935
_symmetry_space_group_name_H-M "P B A N"
_symmetry_group_IT_number 50
_space_group.IT_coordinate_system_code '2'
_symmetry_cell_setting 'orthorhombic'
loop_
_space_group_symop_operation_xyz
x,y,z
1/2-x,1/2-y,z
x,1/2-y,-z
1/2-x,y,-z
-x,-y,-z
1/2+x,1/2+y,-z
-x,1/2+y,z
1/2+x,-y,z
loop_
_atom_site_type_symbol
_atom_site_label
_atom_site_fract_x
_atom_site_fract_y
_atom_site_fract_z
Si Si1 0.581852 0.250000 0.500000
Si Si2 0.644083 0.616390 0.031686
Si Si3 0.444696 0.811843 0.880195
Si Si4 0.888369 0.462728 0.029063
Si Si5 0.596682 0.092986 0.615838
Si Si6 0.367149 0.428206 0.534149
O O1 0.522768 0.224372 0.314266
O O2 0.638188 0.174004 0.561343
O O3 0.542580 0.664090 0.992741
O O4 0.663826 0.540094 0.911264
O O5 0.620893 0.590924 0.245040
O O6 0.750000 0.659396 0.000000
O O7 0.385267 0.750000 0.000000
O O8 0.387387 0.890062 0.843642
O O9 0.866763 0.426990 0.826355
O O10 0.000000 0.500000 0.000000
O O11 0.470612 0.098185 0.577972
O O12 0.629062 0.017777 0.509446
O O13 0.250000 0.400331 0.500000
#
# Coordination Sequence:
#
# PCOD9396926 Si02
#       6
#     4   8   8   8   8   8
#     4  12  22  38  62  92 126 168 208 248 314 396
#     4  10  22  38  59  88 120 157 210 257 311 371
#     4  11  22  38  61  88 124 163 201 249 314 370
#     4   9  20  37  61  86 115 161 204 257 308 357
#     4  10  21  40  59  92 127 160 214 259 310 386
#     4  10  22  37  62  90 121 163 208 267 317 362
#
# _framework density 26.485921999999999
#
# number of rings (size 3 to 8) (size 9 to 14) (size 15 to 20)
#    0.000    1.818    3.636    0.000    7.636    0.364 
#    0.000    0.909    0.000    0.545    0.000    0.000 
#    0.000    0.000    0.000    0.000    0.000    0.000 
#
# Total GULP energy -245259.518301 kJ/mol
# GULP energy per Si atom -5574.079961 kJ/mol
# Density = 2.642564 g / cm^3
# Si number density = 26.485922 Si / 1000 Ang^3
#
#
#
# Elastic Constant Matrix: (Units=GPa)
#
#
# Indices 1 2 3 4 5 6 
#
# 1 102.3806 -6.3799 -6.3172 0.0000 0.0000 0.0000
# 2 -6.3799 174.5565 44.2323 0.0000 0.0000 0.0000
# 3 -6.3172 44.2323 113.1710 0.0000 0.0000 0.0000
# 4 0.0000 0.0000 0.0000 56.4813 0.0000 0.0000
# 5 0.0000 0.0000 0.0000 0.0000 17.9768 0.0000
# 6 0.0000 0.0000 0.0000 0.0000 0.0000 -1.3072
#
#
#
# Elastic Compliance Matrix: (Units=1/GPa)
#
#
# Indices 1 2 3 4 5 6 
#
# 1 0.009811 0.000244 0.000452 0.000000 0.000000 0.000000
# 2 0.000244 0.006365 -0.002474 0.000000 0.000000 0.000000
# 3 0.000452 -0.002474 0.009828 0.000000 0.000000 0.000000
# 4 0.000000 0.000000 0.000000 0.017705 0.000000 0.000000
# 5 0.000000 0.000000 0.000000 0.000000 0.055627 0.000000
# 6 0.000000 0.000000 0.000000 0.000000 0.000000 -0.764970
#
#
# Mechanical properties :
#
#
# Convention : Reuss Voigt Hill
#
# Bulk Modulus (GPa) = 44.54716 50.35317 47.45016
# Shear Modulus (GPa) = -7.63830 38.53503 15.44837
#
# Velocity S-wave (km/s) = -1.70005 3.81849 2.41771
# Velocity P-wave (km/s) = 3.60585 6.20433 5.07424
#
# Compressibility (1/GPa) = 0.02244812
#
# Stress axis : x y z
#
# Youngs Moduli (GPa) = 101.93070 157.11858 101.74634
#
# Poissons Ratio (x) = -0.03833 -0.04602
# Poissons Ratio (y) = -0.02487 0.25172
# Poissons Ratio (z) = -0.04610 0.38871
#
# Static dielectric constant tensor:
#      x y z
#    x 2.286840 0.000000 0.000000 
#    y 0.000000 2.119610 0.000000 
#    z 0.000000 0.000000 2.192170 
# 
# From -- ./inp_files/12857.got.cif
#   From: 2010.05.17/outbox.cif.g08.bks.cpg/sg50_7_cif.got.tgz:12857.got - 2010.06.03 11:33:33.
