data_PCOD9396783
_publ_section_title
;
Structure prediction by ZEFSAII (Michael W. Deem and Ramdas Pophale) SiO2 
 PCOD9396783
Probable space group: P B A N
;
_chemical_formula_sum "Si O2"
_cell_formula_units_Z 56
_cell_length_a 13.241001
_cell_length_b 11.772640
_cell_length_c 15.905211
_cell_angle_alpha 90.000000
_cell_angle_beta 90.000000
_cell_angle_gamma 90.000000
_cell_volume 2479.328753
_symmetry_space_group_name_H-M "P B A N"
_symmetry_group_IT_number 50
_space_group.IT_coordinate_system_code '2'
_symmetry_cell_setting 'orthorhombic'
loop_
_space_group_symop_operation_xyz
x,y,z
1/2-x,1/2-y,z
x,1/2-y,-z
1/2-x,y,-z
-x,-y,-z
1/2+x,1/2+y,-z
-x,1/2+y,z
1/2+x,-y,z
loop_
_atom_site_type_symbol
_atom_site_label
_atom_site_fract_x
_atom_site_fract_y
_atom_site_fract_z
Si Si1 0.019684 0.336585 0.428630
Si Si2 0.106921 0.620182 0.811662
Si Si3 0.531169 0.802154 0.091396
Si Si4 0.078003 0.516974 0.181103
Si Si5 0.127239 0.790807 0.685647
Si Si6 0.270468 0.431914 0.099601
Si Si7 0.149572 0.545348 0.457306
O O1 0.060387 0.250000 0.500000
O O2 0.978663 0.259696 0.352424
O O3 0.924717 0.400480 0.472945
O O4 0.095747 0.439666 0.411124
O O5 0.165848 0.681105 0.736559
O O6 0.179673 0.553082 0.874469
O O7 0.035852 0.712236 0.857476
O O8 0.022417 0.534683 0.777963
O O9 0.464640 0.917430 0.098298
O O10 0.643394 0.839005 0.121157
O O11 0.541976 0.750000 0.000000
O O12 0.115086 0.610537 0.246103
O O13 0.165758 0.432287 0.151260
O O14 0.174932 0.851694 0.605474
O O15 0.250000 0.425133 0.000000
O O16 0.250000 0.502196 0.500000
#
# Coordination Sequence:
#
# PCOD9396783 Si02
#       7
#     8   8   8   8   8   8   8
#     4   9  20  38  61  87 118 153 191 236 290 345
#     4  10  22  39  59  86 122 158 201 249 305 368
#     4  10  21  38  60  83 114 160 206 253 312 368
#     4  10  22  38  59  89 120 157 205 253 302 363
#     4  10  21  39  61  84 120 161 194 240 299 355
#     4  11  23  38  59  87 119 156 206 265 312 360
#     4  10  21  37  61  91 118 150 195 240 285 348
#
# _framework density 22.586759000000001
#
# number of rings (size 3 to 8) (size 9 to 14) (size 15 to 20)
#    0.000    2.000    0.000    2.571    0.000   11.714 
#    0.000    9.286    0.000   17.143    0.000    0.000 
#    0.000    0.000    0.000    0.000    0.000    0.000 
#
# Total GULP energy -312538.931225 kJ/mol
# GULP energy per Si atom -5581.052343 kJ/mol
# Density = 2.253535 g / cm^3
# Si number density = 22.586759 Si / 1000 Ang^3
#
#
#
# Elastic Constant Matrix: (Units=GPa)
#
#
# Indices 1 2 3 4 5 6 
#
# 1 101.2712 31.9646 22.8231 0.0000 0.0000 0.0000
# 2 31.9646 81.9974 19.7371 0.0000 0.0000 0.0000
# 3 22.8231 19.7371 63.9236 0.0000 0.0000 0.0000
# 4 0.0000 0.0000 0.0000 26.0879 0.0000 0.0000
# 5 0.0000 0.0000 0.0000 0.0000 25.1903 0.0000
# 6 0.0000 0.0000 0.0000 0.0000 0.0000 46.0814
#
#
#
# Elastic Compliance Matrix: (Units=1/GPa)
#
#
# Indices 1 2 3 4 5 6 
#
# 1 0.011773 -0.003865 -0.003010 0.000000 0.000000 0.000000
# 2 -0.003865 0.014443 -0.003080 0.000000 0.000000 0.000000
# 3 -0.003010 -0.003080 0.017669 0.000000 0.000000 0.000000
# 4 0.000000 0.000000 0.000000 0.038332 0.000000 0.000000
# 5 0.000000 0.000000 0.000000 0.000000 0.039698 0.000000
# 6 0.000000 0.000000 0.000000 0.000000 0.000000 0.021701
#
#
# Mechanical properties :
#
#
# Convention : Reuss Voigt Hill
#
# Bulk Modulus (GPa) = 41.70767 44.02687 42.86727
# Shear Modulus (GPa) = 29.15166 30.98307 30.06736
#
# Velocity S-wave (km/s) = 3.59646 3.70771 3.65251
# Velocity P-wave (km/s) = 5.97927 6.15339 6.06695
#
# Compressibility (1/GPa) = 0.02397640
#
# Stress axis : x y z
#
# Youngs Moduli (GPa) = 84.94244 69.23593 56.59557
#
# Poissons Ratio (x) = 0.26758 0.17035
# Poissons Ratio (y) = 0.32828 0.17430
# Poissons Ratio (z) = 0.25568 0.21322
#
# Static dielectric constant tensor:
#      x y z
#    x 1.872500 0.000000 0.000000 
#    y 0.000000 1.888880 0.000000 
#    z 0.000000 0.000000 1.828660 
# 
# From -- ./inp_files/26501.got.cif
#   From: 2010.05.17/outbox.cif.g08.bks.cpg/sg50_14_cif.got.tgz:26501.got - 2010.06.03 11:33:33.
