data_PCOD9396438
_publ_section_title
;
Structure prediction by ZEFSAII (Michael W. Deem and Ramdas Pophale) SiO2 
 PCOD9396438
Probable space group: P B A N
;
_chemical_formula_sum "Si O2"
_cell_formula_units_Z 32
_cell_length_a 13.094895
_cell_length_b 8.315204
_cell_length_c 11.997656
_cell_angle_alpha 90.000000
_cell_angle_beta 90.000000
_cell_angle_gamma 90.000000
_cell_volume 1306.385449
_symmetry_space_group_name_H-M "P B A N"
_symmetry_group_IT_number 50
_space_group.IT_coordinate_system_code '2'
_symmetry_cell_setting 'orthorhombic'
loop_
_space_group_symop_operation_xyz
x,y,z
1/2-x,1/2-y,z
x,1/2-y,-z
1/2-x,y,-z
-x,-y,-z
1/2+x,1/2+y,-z
-x,1/2+y,z
1/2+x,-y,z
loop_
_atom_site_type_symbol
_atom_site_label
_atom_site_fract_x
_atom_site_fract_y
_atom_site_fract_z
Si Si1 0.846214 0.978612 0.914846
Si Si2 0.026790 0.750000 0.000000
Si Si3 0.626824 0.842181 0.313049
Si Si4 0.250000 0.534462 0.500000
Si Si5 0.567510 0.486582 0.386828
O O1 0.944906 0.872785 0.948607
O O2 0.815418 0.904757 0.796142
O O3 0.750000 0.968935 0.000000
O O4 0.895519 0.157061 0.916977
O O5 0.684247 0.921967 0.417547
O O6 0.608166 0.655673 0.340389
O O7 0.511932 0.910560 0.302798
O O8 0.333940 0.617163 0.578677
O O9 0.500000 0.500000 0.500000
#
# Coordination Sequence:
#
# PCOD9396438 Si02
#       5
#     8   4   8   4   8
#     4  11  24  43  68  98 133 184 243 306 376 444
#     4  10  24  44  64  96 134 174 238 312 378 440
#     4  11  22  39  64  92 129 172 220 276 341 423
#     4  10  21  36  61  92 127 170 213 262 329 416
#     4  10  20  38  60  92 130 169 214 269 339 419
#
# _framework density 24.495068
#
# number of rings (size 3 to 8) (size 9 to 14) (size 15 to 20)
#    0.000    1.500    0.000    6.750    0.000    8.000 
#    0.000   12.500    0.000    0.000    0.000    0.000 
#    0.000    0.000    0.000    0.000    0.000    0.000 
#
# Total GULP energy -178562.120927 kJ/mol
# GULP energy per Si atom -5580.066279 kJ/mol
# Density = 2.443932 g / cm^3
# Si number density = 24.495068 Si / 1000 Ang^3
#
#
#
# Elastic Constant Matrix: (Units=GPa)
#
#
# Indices 1 2 3 4 5 6 
#
# 1 183.4420 31.1037 64.4708 0.0000 0.0000 0.0000
# 2 31.1037 64.5346 22.8131 0.0000 0.0000 0.0000
# 3 64.4708 22.8131 109.9610 0.0000 0.0000 0.0000
# 4 0.0000 0.0000 0.0000 27.7310 0.0000 0.0000
# 5 0.0000 0.0000 0.0000 0.0000 44.2546 0.0000
# 6 0.0000 0.0000 0.0000 0.0000 0.0000 43.1917
#
#
#
# Elastic Compliance Matrix: (Units=1/GPa)
#
#
# Indices 1 2 3 4 5 6 
#
# 1 0.007123 -0.002112 -0.003738 0.000000 0.000000 0.000000
# 2 -0.002112 0.017348 -0.002361 0.000000 0.000000 0.000000
# 3 -0.003738 -0.002361 0.011776 0.000000 0.000000 0.000000
# 4 0.000000 0.000000 0.000000 0.036061 0.000000 0.000000
# 5 0.000000 0.000000 0.000000 0.000000 0.022597 0.000000
# 6 0.000000 0.000000 0.000000 0.000000 0.000000 0.023153
#
#
# Mechanical properties :
#
#
# Convention : Reuss Voigt Hill
#
# Bulk Modulus (GPa) = 50.44146 66.07918 58.26032
# Shear Modulus (GPa) = 35.43915 39.00546 37.22230
#
# Velocity S-wave (km/s) = 3.80779 3.99479 3.90241
# Velocity P-wave (km/s) = 6.32215 6.95075 6.64389
#
# Compressibility (1/GPa) = 0.01982496
#
# Stress axis : x y z
#
# Youngs Moduli (GPa) = 140.38686 57.64370 84.92048
#
# Poissons Ratio (x) = 0.12172 0.31745
# Poissons Ratio (y) = 0.29645 0.20050
# Poissons Ratio (z) = 0.52480 0.13610
#
# Static dielectric constant tensor:
#      x y z
#    x 1.999390 0.000000 0.000000 
#    y 0.000000 2.123600 0.000000 
#    z 0.000000 0.000000 2.032200 
# 
# From -- ./inp_files/20803.got.cif
#   From: 2010.05.17/outbox.cif.g08.bks.cpg/sg50_11_cif.got.tgz:20803.got - 2010.06.03 11:33:33.
