data_PCOD9396841
_publ_section_title
;
Structure prediction by ZEFSAII (Michael W. Deem and Ramdas Pophale) SiO2 
 PCOD9396841
Probable space group: P B A N
;
_chemical_formula_sum "Si O2"
_cell_formula_units_Z 58
_cell_length_a 9.114218
_cell_length_b 12.260639
_cell_length_c 24.186089
_cell_angle_alpha 90.000000
_cell_angle_beta 90.000000
_cell_angle_gamma 90.000000
_cell_volume 2702.702007
_symmetry_space_group_name_H-M "P B A N"
_symmetry_group_IT_number 50
_space_group.IT_coordinate_system_code '2'
_symmetry_cell_setting 'orthorhombic'
loop_
_space_group_symop_operation_xyz
x,y,z
1/2-x,1/2-y,z
x,1/2-y,-z
1/2-x,y,-z
-x,-y,-z
1/2+x,1/2+y,-z
-x,1/2+y,z
1/2+x,-y,z
loop_
_atom_site_type_symbol
_atom_site_label
_atom_site_fract_x
_atom_site_fract_y
_atom_site_fract_z
Si Si1 0.789807 0.629958 0.564993
Si Si2 0.173961 0.562446 0.303253
Si Si3 0.688256 0.975387 0.870025
Si Si4 0.750000 0.250000 0.000000
Si Si5 0.559077 0.021948 0.376132
Si Si6 0.440902 0.567012 0.053366
Si Si7 0.652305 0.845254 0.765893
Si Si8 0.392675 0.690377 0.807720
O O1 0.750000 0.750000 0.586575
O O2 0.750000 0.630905 0.500000
O O3 0.680724 0.539846 0.588775
O O4 0.953117 0.597630 0.586389
O O5 0.336828 0.574915 0.328384
O O6 0.142254 0.440184 0.279326
O O7 0.146337 0.641452 0.252396
O O8 0.048641 0.568727 0.349399
O O9 0.577224 0.908062 0.907694
O O10 0.733799 0.906408 0.816597
O O11 0.823034 0.004205 0.909054
O O12 0.599760 0.082631 0.846986
O O13 0.643956 0.173156 0.034403
O O14 0.500000 0.500000 0.000000
O O15 0.750000 0.750000 0.741329
O O16 0.514599 0.782739 0.794230
O O17 0.250000 0.750000 0.830895
#
# Coordination Sequence:
#
# PCOD9396841 Si02
#       8
#     8   8   8   2   8   8   8   8
#     4  10  22  41  64  92 125 168 222 276 332 391
#     4  10  22  38  57  94 129 165 216 262 310 388
#     4  11  25  42  67  95 128 162 215 262 319 390
#     4  12  28  44  74  94 124 168 202 264 348 378
#     4  10  21  38  63  90 129 172 213 269 330 382
#     4  12  25  47  68  96 129 161 210 273 322 394
#     4  11  23  39  62  91 128 171 211 258 315 379
#     4  11  23  39  63  93 128 172 209 260 315 382
#
# _framework density 21.460006
#
# number of rings (size 3 to 8) (size 9 to 14) (size 15 to 20)
#    0.000    1.241    1.379    3.724    2.897   11.034 
#    0.000    2.759    0.000    7.448    0.000    0.000 
#    0.000    0.000    0.000    0.000    0.000    0.000 
#
# Total GULP energy -323653.445607 kJ/mol
# GULP energy per Si atom -5580.231821 kJ/mol
# Density = 2.141116 g / cm^3
# Si number density = 21.460006 Si / 1000 Ang^3
#
#
#
# Elastic Constant Matrix: (Units=GPa)
#
#
# Indices 1 2 3 4 5 6 
#
# 1 102.3683 18.1474 26.6987 0.0000 0.0000 0.0000
# 2 18.1474 91.2162 19.7317 0.0000 0.0000 0.0000
# 3 26.6987 19.7317 85.1673 0.0000 0.0000 0.0000
# 4 0.0000 0.0000 0.0000 14.4377 0.0000 0.0000
# 5 0.0000 0.0000 0.0000 0.0000 32.2850 0.0000
# 6 0.0000 0.0000 0.0000 0.0000 0.0000 30.7671
#
#
#
# Elastic Compliance Matrix: (Units=1/GPa)
#
#
# Indices 1 2 3 4 5 6 
#
# 1 0.010829 -0.001495 -0.003048 0.000000 0.000000 0.000000
# 2 -0.001495 0.011748 -0.002253 0.000000 0.000000 0.000000
# 3 -0.003048 -0.002253 0.013219 0.000000 0.000000 0.000000
# 4 0.000000 0.000000 0.000000 0.069263 0.000000 0.000000
# 5 0.000000 0.000000 0.000000 0.000000 0.030974 0.000000
# 6 0.000000 0.000000 0.000000 0.000000 0.000000 0.032502
#
#
# Mechanical properties :
#
#
# Convention : Reuss Voigt Hill
#
# Bulk Modulus (GPa) = 45.03903 45.32306 45.18104
# Shear Modulus (GPa) = 26.38120 29.77623 28.07871
#
# Velocity S-wave (km/s) = 3.50997 3.72899 3.62113
# Velocity P-wave (km/s) = 6.12042 6.30128 6.21150
#
# Compressibility (1/GPa) = 0.02220297
#
# Stress axis : x y z
#
# Youngs Moduli (GPa) = 92.34725 85.12258 75.64764
#
# Poissons Ratio (x) = 0.12726 0.23060
# Poissons Ratio (y) = 0.13806 0.17044
# Poissons Ratio (z) = 0.28150 0.19179
#
# Static dielectric constant tensor:
#      x y z
#    x 1.858060 0.000000 0.000000 
#    y 0.000000 1.844620 0.000000 
#    z 0.000000 0.000000 1.815410 
# 
# From -- ./inp_files/32139.got.cif
#   From: 2010.05.17/outbox.cif.g08.bks.cpg/sg50_17_cif.got.tgz:32139.got - 2010.06.03 11:33:33.
