data_PCOD9396180
_publ_section_title
;
Structure prediction by ZEFSAII (Michael W. Deem and Ramdas Pophale) SiO2 
 PCOD9396180
Probable space group: P B A N
;
_chemical_formula_sum "Si O2"
_cell_formula_units_Z 44
_cell_length_a 13.157386
_cell_length_b 26.870095
_cell_length_c 5.109831
_cell_angle_alpha 90.000000
_cell_angle_beta 90.000000
_cell_angle_gamma 90.000000
_cell_volume 1806.530734
_symmetry_space_group_name_H-M "P B A N"
_symmetry_group_IT_number 50
_space_group.IT_coordinate_system_code '2'
_symmetry_cell_setting 'orthorhombic'
loop_
_space_group_symop_operation_xyz
x,y,z
1/2-x,1/2-y,z
x,1/2-y,-z
1/2-x,y,-z
-x,-y,-z
1/2+x,1/2+y,-z
-x,1/2+y,z
1/2+x,-y,z
loop_
_atom_site_type_symbol
_atom_site_label
_atom_site_fract_x
_atom_site_fract_y
_atom_site_fract_z
Si Si1 0.071935 0.603422 0.317844
Si Si2 0.924081 0.200686 0.100286
Si Si3 0.074175 0.055633 0.934507
Si Si4 0.134585 0.996212 0.440615
Si Si5 0.418099 0.152293 0.296120
Si Si6 0.585847 0.750000 0.500000
O O1 0.130310 0.654354 0.242874
O O2 0.124017 0.562688 0.500784
O O3 0.031941 0.575015 0.059052
O O4 0.969572 0.623953 0.459021
O O5 0.010880 0.223837 0.290159
O O6 0.867466 0.250000 0.000000
O O7 0.986427 0.174410 0.866832
O O8 0.117483 0.019859 0.156450
O O9 0.131260 0.107542 0.867790
O O10 0.069584 0.024760 0.665575
O O11 0.250000 0.009548 0.500000
O O12 0.358614 0.202436 0.372411
#
# Coordination Sequence:
#
# PCOD9396180 Si02
#       6
#     8   8   8   8   8   4
#     4  10  20  34  60  83 114 151 194 242 294 346
#     4   8  15  27  49  82 118 138 178 237 296 338
#     4  11  22  39  58  81 114 152 197 237 288 349
#     4  12  26  39  54  81 119 160 197 240 286 345
#     4   9  17  30  55  86 113 143 183 240 291 338
#     4   8  14  28  46  86 122 134 172 240 296 342
#
# _framework density 24.356076999999999
#
# number of rings (size 3 to 8) (size 9 to 14) (size 15 to 20)
#    0.000    2.182    1.818    1.636    5.091    0.000 
#    0.000    0.000    0.000    0.000    0.000   29.909 
#   21.818    0.000    0.000    0.000    0.000    0.000 
#
# Total GULP energy -245195.743929 kJ/mol
# GULP energy per Si atom -5572.630544 kJ/mol
# Density = 2.430064 g / cm^3
# Si number density = 24.356077 Si / 1000 Ang^3
#
#
#
# Elastic Constant Matrix: (Units=GPa)
#
#
# Indices 1 2 3 4 5 6 
#
# 1 22.7359 19.6588 12.5252 0.0000 0.0000 0.0000
# 2 19.6588 279.6715 78.4536 0.0000 0.0000 0.0000
# 3 12.5252 78.4536 143.6504 0.0000 0.0000 0.0000
# 4 0.0000 0.0000 0.0000 67.7147 0.0000 0.0000
# 5 0.0000 0.0000 0.0000 0.0000 5.7119 0.0000
# 6 0.0000 0.0000 0.0000 0.0000 0.0000 -5.5066
#
#
#
# Elastic Compliance Matrix: (Units=1/GPa)
#
#
# Indices 1 2 3 4 5 6 
#
# 1 0.047733 -0.002584 -0.002751 0.000000 0.000000 0.000000
# 2 -0.002584 0.004362 -0.002157 0.000000 0.000000 0.000000
# 3 -0.002751 -0.002157 0.008379 0.000000 0.000000 0.000000
# 4 0.000000 0.000000 0.000000 0.014768 0.000000 0.000000
# 5 0.000000 0.000000 0.000000 0.000000 0.175073 0.000000
# 6 0.000000 0.000000 0.000000 0.000000 0.000000 -0.181602
#
#
# Mechanical properties :
#
#
# Convention : Reuss Voigt Hill
#
# Bulk Modulus (GPa) = 21.98232 74.14810 48.06521
# Shear Modulus (GPa) = 50.57613 35.94535 43.26074
#
# Velocity S-wave (km/s) = 4.56184 3.84582 4.21905
# Velocity P-wave (km/s) = 6.06565 7.08730 6.59629
#
# Compressibility (1/GPa) = 0.04549110
#
# Stress axis : x y z
#
# Youngs Moduli (GPa) = 20.94997 229.23315 119.34101
#
# Poissons Ratio (x) = 0.59224 0.32830
# Poissons Ratio (y) = 0.05413 0.25744
# Poissons Ratio (z) = 0.05763 0.49450
#
# Static dielectric constant tensor:
#      x y z
#    x 1.922670 0.000000 0.000000 
#    y 0.000000 2.066040 0.000000 
#    z 0.000000 0.000000 2.067690 
# 
# From -- ./inp_files/3483.got.cif
#   From: 2010.05.17/outbox.cif.g08.bks.cpg/sg50_2_cif.got.tgz:3483.got - 2010.06.03 11:33:33.
