data_PCOD9396525
_publ_section_title
;
Structure prediction by ZEFSAII (Michael W. Deem and Ramdas Pophale) SiO2 
 PCOD9396525
Probable space group: P B A N
;
_chemical_formula_sum "Si O2"
_cell_formula_units_Z 40
_cell_length_a 10.248461
_cell_length_b 13.671045
_cell_length_c 14.562114
_cell_angle_alpha 90.000000
_cell_angle_beta 90.000000
_cell_angle_gamma 90.000000
_cell_volume 2040.256604
_symmetry_space_group_name_H-M "P B A N"
_symmetry_group_IT_number 50
_space_group.IT_coordinate_system_code '2'
_symmetry_cell_setting 'orthorhombic'
loop_
_space_group_symop_operation_xyz
x,y,z
1/2-x,1/2-y,z
x,1/2-y,-z
1/2-x,y,-z
-x,-y,-z
1/2+x,1/2+y,-z
-x,1/2+y,z
1/2+x,-y,z
loop_
_atom_site_type_symbol
_atom_site_label
_atom_site_fract_x
_atom_site_fract_y
_atom_site_fract_z
Si Si1 0.259608 0.400125 0.599696
Si Si2 0.611994 0.305389 0.202262
Si Si3 0.125645 0.514825 0.063886
Si Si4 0.975912 0.462879 0.657790
Si Si5 0.587766 0.632812 0.221567
O O1 0.250000 0.351649 0.500000
O O2 0.366582 0.487940 0.593274
O O3 0.002627 0.547394 0.734026
O O4 0.114370 0.436055 0.618199
O O5 0.750000 0.250000 0.203727
O O6 0.610026 0.385820 0.122077
O O7 0.587449 0.369011 0.293764
O O8 0.003745 0.273681 0.195256
O O9 0.146074 0.423426 0.133900
O O10 0.250000 0.524137 0.000000
O O11 0.000000 0.500000 0.000000
O O12 0.812745 0.651256 0.693297
#
# Coordination Sequence:
#
# PCOD9396525 Si02
#       5
#     8   8   8   8   8
#     4  10  20  39  68  93 132 173 216 267 333 386
#     4  11  22  42  69  91 130 177 216 267 331 386
#     4  11  25  42  65  96 129 168 223 271 326 398
#     4   9  21  38  64  94 128 172 218 264 320 389
#     4   9  23  38  66  91 133 167 217 267 330 381
#
# _framework density 19.605377000000001
#
# number of rings (size 3 to 8) (size 9 to 14) (size 15 to 20)
#    1.200    0.800    0.000    3.000    5.600    3.600 
#    0.000    3.000    0.000    0.000    0.000    0.000 
#    0.000    0.000    0.000    0.000    0.000    0.000 
#
# Total GULP energy -222806.435791 kJ/mol
# GULP energy per Si atom -5570.160895 kJ/mol
# Density = 1.956075 g / cm^3
# Si number density = 19.605377 Si / 1000 Ang^3
#
#
#
# Elastic Constant Matrix: (Units=GPa)
#
#
# Indices 1 2 3 4 5 6 
#
# 1 155.6345 65.4114 73.0520 0.0000 0.0000 0.0000
# 2 65.4114 137.5893 55.9239 0.0000 0.0000 0.0000
# 3 73.0520 55.9239 121.2101 0.0000 0.0000 0.0000
# 4 0.0000 0.0000 0.0000 -4.4447 0.0000 0.0000
# 5 0.0000 0.0000 0.0000 0.0000 0.1157 0.0000
# 6 0.0000 0.0000 0.0000 0.0000 0.0000 27.2091
#
#
#
# Elastic Compliance Matrix: (Units=1/GPa)
#
#
# Indices 1 2 3 4 5 6 
#
# 1 0.009745 -0.002764 -0.004598 0.000000 0.000000 0.000000
# 2 -0.002764 0.009730 -0.002823 0.000000 0.000000 0.000000
# 3 -0.004598 -0.002823 0.012324 0.000000 0.000000 0.000000
# 4 0.000000 0.000000 0.000000 -0.224988 0.000000 0.000000
# 5 0.000000 0.000000 0.000000 0.000000 8.642776 0.000000
# 6 0.000000 0.000000 0.000000 0.000000 0.000000 0.036752
#
#
# Mechanical properties :
#
#
# Convention : Reuss Voigt Hill
#
# Bulk Modulus (GPa) = 87.50349 89.24540 88.37445
# Shear Modulus (GPa) = 0.58751 19.24579 9.91665
#
# Velocity S-wave (km/s) = 0.54801 3.13654 2.25147
# Velocity P-wave (km/s) = 6.71787 7.66400 7.20648
#
# Compressibility (1/GPa) = 0.01142812
#
# Stress axis : x y z
#
# Youngs Moduli (GPa) = 102.61373 102.77947 81.14327
#
# Poissons Ratio (x) = 0.28409 0.37310
# Poissons Ratio (y) = 0.28363 0.22908
# Poissons Ratio (z) = 0.47183 0.29016
#
# Static dielectric constant tensor:
#      x y z
#    x 1.643530 0.000000 0.000000 
#    y 0.000000 1.697740 0.000000 
#    z 0.000000 0.000000 1.767300 
# 
# From -- ./inp_files/24828.got.cif
#   From: 2010.05.17/outbox.cif.g08.bks.cpg/sg50_13_cif.got.tgz:24828.got - 2010.06.03 11:33:33.
