data_PCOD9396195
_publ_section_title
;
Structure prediction by ZEFSAII (Michael W. Deem and Ramdas Pophale) SiO2 
 PCOD9396195
Probable space group: P B A N
;
_chemical_formula_sum "Si O2"
_cell_formula_units_Z 56
_cell_length_a 10.098116
_cell_length_b 19.541175
_cell_length_c 15.924461
_cell_angle_alpha 90.000000
_cell_angle_beta 90.000000
_cell_angle_gamma 90.000000
_cell_volume 3142.358792
_symmetry_space_group_name_H-M "P B A N"
_symmetry_group_IT_number 50
_space_group.IT_coordinate_system_code '2'
_symmetry_cell_setting 'orthorhombic'
loop_
_space_group_symop_operation_xyz
x,y,z
1/2-x,1/2-y,z
x,1/2-y,-z
1/2-x,y,-z
-x,-y,-z
1/2+x,1/2+y,-z
-x,1/2+y,z
1/2+x,-y,z
loop_
_atom_site_type_symbol
_atom_site_label
_atom_site_fract_x
_atom_site_fract_y
_atom_site_fract_z
Si Si1 0.963092 0.992721 0.798732
Si Si2 0.896955 0.256883 0.135204
Si Si3 0.382922 0.629328 0.281926
Si Si4 0.829912 0.809225 0.087400
Si Si5 0.411080 0.744239 0.403811
Si Si6 0.795266 0.965779 0.097316
Si Si7 0.074608 0.641319 0.270700
O O1 0.824218 0.990894 0.845857
O O2 0.986523 0.925089 0.744004
O O3 0.960417 0.061217 0.742887
O O4 0.074452 0.994830 0.871863
O O5 0.750000 0.250000 0.097113
O O6 0.888263 0.315082 0.206955
O O7 0.926531 0.186378 0.184751
O O8 0.020095 0.282901 0.080841
O O9 0.438559 0.670800 0.361597
O O10 0.225050 0.616694 0.290186
O O11 0.750000 0.750000 0.137121
O O12 0.823667 0.886219 0.119055
O O13 0.750000 0.814898 0.000000
O O14 0.250000 0.750000 0.400507
O O15 0.453149 0.750000 0.500000
O O16 0.462758 0.805564 0.344540
O O17 0.750000 0.972919 0.000000
#
# Coordination Sequence:
#
# PCOD9396195 Si02
#       7
#     8   8   8   8   8   8   8
#     4  12  20  36  54  80 112 147 191 236 270 336
#     4   9  17  33  54  73  98 139 183 230 270 323
#     4   9  17  31  53  79 108 140 181 227 264 318
#     4  10  20  35  50  72 104 134 177 237 283 329
#     4   8  15  31  56  85 112 140 178 223 272 329
#     4  11  24  37  54  76 110 154 189 238 289 325
#     4   9  18  31  54  83 106 140 188 223 270 324
#
# _framework density 17.821007999999999
#
# number of rings (size 3 to 8) (size 9 to 14) (size 15 to 20)
#    0.000    2.286    2.857    3.000    0.000    0.000 
#    0.000    2.143    0.000    0.000    0.000    4.000 
#    0.000    0.000    0.000    0.000    0.000    0.000 
#
# Total GULP energy -311900.365952 kJ/mol
# GULP energy per Si atom -5569.649392 kJ/mol
# Density = 1.778045 g / cm^3
# Si number density = 17.821008 Si / 1000 Ang^3
#
#
#
# Elastic Constant Matrix: (Units=GPa)
#
#
# Indices 1 2 3 4 5 6 
#
# 1 76.9122 11.3632 15.5793 0.0000 0.0000 0.0000
# 2 11.3632 101.2097 37.4077 0.0000 0.0000 0.0000
# 3 15.5793 37.4077 80.0456 0.0000 0.0000 0.0000
# 4 0.0000 0.0000 0.0000 15.3204 0.0000 0.0000
# 5 0.0000 0.0000 0.0000 0.0000 -50.3704 0.0000
# 6 0.0000 0.0000 0.0000 0.0000 0.0000 23.6686
#
#
#
# Elastic Compliance Matrix: (Units=1/GPa)
#
#
# Indices 1 2 3 4 5 6 
#
# 1 0.013572 -0.000662 -0.002332 0.000000 0.000000 0.000000
# 2 -0.000662 0.011976 -0.005468 0.000000 0.000000 0.000000
# 3 -0.002332 -0.005468 0.015502 0.000000 0.000000 0.000000
# 4 0.000000 0.000000 0.000000 0.065272 0.000000 0.000000
# 5 0.000000 0.000000 0.000000 0.000000 -0.019853 0.000000
# 6 0.000000 0.000000 0.000000 0.000000 0.000000 0.042250
#
#
# Mechanical properties :
#
#
# Convention : Reuss Voigt Hill
#
# Bulk Modulus (GPa) = 41.44882 42.98534 42.21708
# Shear Modulus (GPa) = 32.53408 10.64489 21.58948
#
# Velocity S-wave (km/s) = 4.27734 2.44667 3.48438
# Velocity P-wave (km/s) = 6.90674 5.67050 6.31893
#
# Compressibility (1/GPa) = 0.02412614
#
# Stress axis : x y z
#
# Youngs Moduli (GPa) = 73.68089 83.50242 64.50754
#
# Poissons Ratio (x) = 0.05526 0.15045
# Poissons Ratio (y) = 0.04876 0.35271
# Poissons Ratio (z) = 0.17184 0.45657
#
# Static dielectric constant tensor:
#      x y z
#    x 1.629640 0.000000 0.000000 
#    y 0.000000 1.636170 0.000000 
#    z 0.000000 0.000000 1.628710 
# 
# From -- ./inp_files/28925.got.cif
#   From: 2010.05.17/outbox.cif.g08.bks.cpg/sg50_15_cif.got.tgz:28925.got - 2010.06.03 11:33:33.
