data_PCOD9396312
_publ_section_title
;
Structure prediction by ZEFSAII (Michael W. Deem and Ramdas Pophale) SiO2 
 PCOD9396312
Probable space group: P B A N
;
_chemical_formula_sum "Si O2"
_cell_formula_units_Z 34
_cell_length_a 12.694811
_cell_length_b 12.675461
_cell_length_c 8.971929
_cell_angle_alpha 90.000000
_cell_angle_beta 90.000000
_cell_angle_gamma 90.000000
_cell_volume 1443.696259
_symmetry_space_group_name_H-M "P B A N"
_symmetry_group_IT_number 50
_space_group.IT_coordinate_system_code '2'
_symmetry_cell_setting 'orthorhombic'
loop_
_space_group_symop_operation_xyz
x,y,z
1/2-x,1/2-y,z
x,1/2-y,-z
1/2-x,y,-z
-x,-y,-z
1/2+x,1/2+y,-z
-x,1/2+y,z
1/2+x,-y,z
loop_
_atom_site_type_symbol
_atom_site_label
_atom_site_fract_x
_atom_site_fract_y
_atom_site_fract_z
Si Si1 0.134638 0.082547 0.615173
Si Si2 0.907807 0.380011 0.257810
Si Si3 0.018006 0.250000 0.000000
Si Si4 0.250000 0.250000 0.500000
Si Si5 0.750000 0.118181 0.500000
Si Si6 0.189821 0.400759 0.848475
O O1 0.159503 0.157877 0.475775
O O2 0.211886 0.133356 0.741766
O O3 0.015989 0.093131 0.659857
O O4 0.171056 0.963940 0.584720
O O5 0.825392 0.329690 0.375354
O O6 0.858604 0.491562 0.211778
O O7 0.943071 0.314389 0.113083
O O8 0.096397 0.178265 0.101899
O O9 0.250000 0.426783 0.000000
#
# Coordination Sequence:
#
# PCOD9396312 Si02
#       6
#     8   8   4   2   4   8
#     4  10  20  37  68  94 134 175 227 286 348 402
#     4  11  23  41  69  97 137 186 231 287 351 419
#     4  12  23  38  69 110 140 178 235 301 358 406
#     4  10  20  36  62 104 124 162 232 296 332 404
#     4   9  22  41  62  94 134 192 226 269 343 430
#     4  11  23  40  68 103 136 173 231 287 348 419
#
# _framework density 23.550659
#
# number of rings (size 3 to 8) (size 9 to 14) (size 15 to 20)
#    0.000    1.412    2.353    3.176    0.000    0.000 
#    0.000    0.588    5.176    2.824    0.000    0.000 
#    0.000    0.000    0.000    0.000    0.000    0.000 
#
# Total GULP energy -189499.404300 kJ/mol
# GULP energy per Si atom -5573.511891 kJ/mol
# Density = 2.349706 g / cm^3
# Si number density = 23.550659 Si / 1000 Ang^3
#
#
#
# Elastic Constant Matrix: (Units=GPa)
#
#
# Indices 1 2 3 4 5 6 
#
# 1 174.8579 63.3372 79.3104 0.0000 0.0000 0.0000
# 2 63.3372 76.5192 24.7668 0.0000 0.0000 0.0000
# 3 79.3104 24.7668 95.7552 0.0000 0.0000 0.0000
# 4 0.0000 0.0000 0.0000 78.3610 0.0000 0.0000
# 5 0.0000 0.0000 0.0000 0.0000 69.0548 0.0000
# 6 0.0000 0.0000 0.0000 0.0000 0.0000 37.6502
#
#
#
# Elastic Compliance Matrix: (Units=1/GPa)
#
#
# Indices 1 2 3 4 5 6 
#
# 1 0.012046 -0.007358 -0.008075 0.000000 0.000000 0.000000
# 2 -0.007358 0.018757 0.001243 0.000000 0.000000 0.000000
# 3 -0.008075 0.001243 0.016810 0.000000 0.000000 0.000000
# 4 0.000000 0.000000 0.000000 0.012761 0.000000 0.000000
# 5 0.000000 0.000000 0.000000 0.000000 0.014481 0.000000
# 6 0.000000 0.000000 0.000000 0.000000 0.000000 0.026560
#
#
# Mechanical properties :
#
#
# Convention : Reuss Voigt Hill
#
# Bulk Modulus (GPa) = 51.99193 75.77344 63.88268
# Shear Modulus (GPa) = 36.70912 48.99439 42.85176
#
# Velocity S-wave (km/s) = 3.95236 4.56607 4.27025
# Velocity P-wave (km/s) = 6.55383 7.74875 7.17621
#
# Compressibility (1/GPa) = 0.01923376
#
# Stress axis : x y z
#
# Youngs Moduli (GPa) = 83.01207 53.31461 59.48945
#
# Poissons Ratio (x) = 0.39227 0.48035
# Poissons Ratio (y) = 0.61078 -0.07393
# Poissons Ratio (z) = 0.67029 -0.06626
#
# Static dielectric constant tensor:
#      x y z
#    x 1.831640 0.000000 0.000000 
#    y 0.000000 1.927550 0.000000 
#    z 0.000000 0.000000 2.431920 
# 
# From -- ./inp_files/10775.got.cif
#   From: 2010.05.17/outbox.cif.g08.bks.cpg/sg50_6_cif.got.tgz:10775.got - 2010.06.03 11:33:33.
