data_PCOD9396759
_publ_section_title
;
Structure prediction by ZEFSAII (Michael W. Deem and Ramdas Pophale) SiO2 
 PCOD9396759
Probable space group: P B A N
;
_chemical_formula_sum "Si O2"
_cell_formula_units_Z 58
_cell_length_a 13.339895
_cell_length_b 8.594219
_cell_length_c 25.986244
_cell_angle_alpha 90.000000
_cell_angle_beta 90.000000
_cell_angle_gamma 90.000000
_cell_volume 2979.218386
_symmetry_space_group_name_H-M "P B A N"
_symmetry_group_IT_number 50
_space_group.IT_coordinate_system_code '2'
_symmetry_cell_setting 'orthorhombic'
loop_
_space_group_symop_operation_xyz
x,y,z
1/2-x,1/2-y,z
x,1/2-y,-z
1/2-x,y,-z
-x,-y,-z
1/2+x,1/2+y,-z
-x,1/2+y,z
1/2+x,-y,z
loop_
_atom_site_type_symbol
_atom_site_label
_atom_site_fract_x
_atom_site_fract_y
_atom_site_fract_z
Si Si1 0.258936 0.935425 0.441742
Si Si2 0.008659 0.796281 0.126937
Si Si3 0.602815 0.920390 0.638162
Si Si4 0.148721 0.458829 0.914197
Si Si5 0.386566 0.448819 0.353100
Si Si6 0.250000 0.250000 0.000000
Si Si7 0.340897 0.540624 0.840128
Si Si8 0.756867 0.935885 0.265947
O O1 0.250000 0.750000 0.443840
O O2 0.250000 0.995466 0.500000
O O3 0.357287 0.999811 0.413665
O O4 0.176401 0.987902 0.400848
O O5 0.100164 0.704555 0.154788
O O6 0.926488 0.667748 0.111008
O O7 0.934237 0.918187 0.155359
O O8 0.073443 0.891994 0.083817
O O9 0.613403 0.735503 0.637816
O O10 0.663552 0.969865 0.688916
O O11 0.491584 0.972047 0.644839
O O12 0.251594 0.503317 0.882226
O O13 0.185503 0.367954 0.964793
O O14 0.343468 0.480311 0.296148
O O15 0.286218 0.520999 0.785796
O O16 0.750000 0.750000 0.255361
#
# Coordination Sequence:
#
# PCOD9396759 Si02
#       8
#     8   8   8   8   8   2   8   8
#     4  10  21  38  59  83 113 154 204 263 321 375
#     4  10  23  40  67  95 129 167 214 260 314 385
#     4  10  21  37  57  86 119 158 205 251 309 379
#     4  11  23  44  64  97 128 166 212 261 318 377
#     4  10  21  38  58  87 121 159 204 253 312 377
#     4  12  24  44  74  92 130 176 206 272 334 368
#     4  11  21  42  64  95 132 170 210 265 316 381
#     4   9  20  36  60  87 123 164 200 253 307 363
#
# _framework density 19.468194
#
# number of rings (size 3 to 8) (size 9 to 14) (size 15 to 20)
#    0.000    1.793    1.379    3.310    0.000    6.621 
#    0.000    7.586    0.000    0.000    0.000    0.000 
#    0.000    0.000    0.000    0.000    0.000    0.000 
#
# Total GULP energy -322924.744326 kJ/mol
# GULP energy per Si atom -5567.668006 kJ/mol
# Density = 1.942388 g / cm^3
# Si number density = 19.468194 Si / 1000 Ang^3
#
#
#
# Elastic Constant Matrix: (Units=GPa)
#
#
# Indices 1 2 3 4 5 6 
#
# 1 130.9966 35.6790 46.5923 0.0000 0.0000 0.0000
# 2 35.6790 50.6080 20.0205 0.0000 0.0000 0.0000
# 3 46.5923 20.0205 87.2491 0.0000 0.0000 0.0000
# 4 0.0000 0.0000 0.0000 23.9899 0.0000 0.0000
# 5 0.0000 0.0000 0.0000 0.0000 11.7593 0.0000
# 6 0.0000 0.0000 0.0000 0.0000 0.0000 37.2507
#
#
#
# Elastic Compliance Matrix: (Units=1/GPa)
#
#
# Indices 1 2 3 4 5 6 
#
# 1 0.010805 -0.005868 -0.004424 0.000000 0.000000 0.000000
# 2 -0.005868 0.024919 -0.002584 0.000000 0.000000 0.000000
# 3 -0.004424 -0.002584 0.014417 0.000000 0.000000 0.000000
# 4 0.000000 0.000000 0.000000 0.041684 0.000000 0.000000
# 5 0.000000 0.000000 0.000000 0.000000 0.085039 0.000000
# 6 0.000000 0.000000 0.000000 0.000000 0.000000 0.026845
#
#
# Mechanical properties :
#
#
# Convention : Reuss Voigt Hill
#
# Bulk Modulus (GPa) = 41.00204 52.60414 46.80309
# Shear Modulus (GPa) = 21.04452 25.70412 23.37432
#
# Velocity S-wave (km/s) = 3.29138 3.63755 3.46879
# Velocity P-wave (km/s) = 5.96246 6.68742 6.33532
#
# Compressibility (1/GPa) = 0.02438903
#
# Stress axis : x y z
#
# Youngs Moduli (GPa) = 92.54611 40.12996 69.36329
#
# Poissons Ratio (x) = 0.23548 0.30685
# Poissons Ratio (y) = 0.54305 0.17927
# Poissons Ratio (z) = 0.40940 0.10372
#
# Static dielectric constant tensor:
#      x y z
#    x 1.696820 0.000000 0.000000 
#    y 0.000000 1.723790 0.000000 
#    z 0.000000 0.000000 1.653930 
# 
# From -- ./inp_files/32187.got.cif
#   From: 2010.05.17/outbox.cif.g08.bks.cpg/sg50_17_cif.got.tgz:32187.got - 2010.06.03 11:33:33.
