data_PCOD9396140
_publ_section_title
;
Structure prediction by ZEFSAII (Michael W. Deem and Ramdas Pophale) SiO2 
 PCOD9396140
Probable space group: P B A N
;
_chemical_formula_sum "Si O2"
_cell_formula_units_Z 48
_cell_length_a 9.861678
_cell_length_b 21.549315
_cell_length_c 11.904873
_cell_angle_alpha 90.000000
_cell_angle_beta 90.000000
_cell_angle_gamma 90.000000
_cell_volume 2529.933200
_symmetry_space_group_name_H-M "P B A N"
_symmetry_group_IT_number 50
_space_group.IT_coordinate_system_code '2'
_symmetry_cell_setting 'orthorhombic'
loop_
_space_group_symop_operation_xyz
x,y,z
1/2-x,1/2-y,z
x,1/2-y,-z
1/2-x,y,-z
-x,-y,-z
1/2+x,1/2+y,-z
-x,1/2+y,z
1/2+x,-y,z
loop_
_atom_site_type_symbol
_atom_site_label
_atom_site_fract_x
_atom_site_fract_y
_atom_site_fract_z
Si Si1 0.596173 0.747361 0.297042
Si Si2 0.443325 0.145559 0.105051
Si Si3 0.733729 0.535732 0.869397
Si Si4 0.978010 0.638573 0.147439
Si Si5 0.277133 0.600815 0.194395
Si Si6 0.670218 0.193921 0.382879
O O1 0.750000 0.750000 0.339702
O O2 0.585824 0.702144 0.188171
O O3 0.559824 0.815167 0.248214
O O4 0.484436 0.718199 0.381270
O O5 0.347356 0.088750 0.142887
O O6 0.595981 0.120416 0.118041
O O7 0.424976 0.162066 0.974101
O O8 0.593942 0.571500 0.844351
O O9 0.741670 0.472865 0.800418
O O10 0.750000 0.516436 0.000000
O O11 0.138443 0.630024 0.149792
O O12 0.313521 0.631596 0.313361
O O13 0.750000 0.250000 0.320292
O O14 0.750000 0.187272 0.500000
#
# Coordination Sequence:
#
# PCOD9396140 Si02
#       6
#     8   8   8   8   8   8
#     4  11  21  37  60  90 118 153 195 241 295 352
#     4  10  21  32  53  86 128 164 197 233 276 345
#     4  10  20  34  53  82 126 170 198 226 277 350
#     4  11  20  33  54  87 123 165 198 233 280 340
#     4  11  21  35  57  83 113 159 204 245 287 348
#     4  10  22  43  65  86 106 140 197 258 318 346
#
# _framework density 18.972833000000001
#
# number of rings (size 3 to 8) (size 9 to 14) (size 15 to 20)
#    0.000    1.500    3.333    3.000    0.000    3.333 
#    0.000    3.333    0.000    9.000    0.000    0.000 
#    0.000    0.000    0.000    0.000    0.000    0.000 
#
# Total GULP energy -267811.263675 kJ/mol
# GULP energy per Si atom -5579.401327 kJ/mol
# Density = 1.892965 g / cm^3
# Si number density = 18.972833 Si / 1000 Ang^3
#
#
#
# Elastic Constant Matrix: (Units=GPa)
#
#
# Indices 1 2 3 4 5 6 
#
# 1 134.5542 9.5781 14.5695 0.0000 0.0000 0.0000
# 2 9.5781 76.3573 29.1765 0.0000 0.0000 0.0000
# 3 14.5695 29.1765 70.4473 0.0000 0.0000 0.0000
# 4 0.0000 0.0000 0.0000 22.0590 0.0000 0.0000
# 5 0.0000 0.0000 0.0000 0.0000 20.0897 0.0000
# 6 0.0000 0.0000 0.0000 0.0000 0.0000 18.8622
#
#
#
# Elastic Compliance Matrix: (Units=1/GPa)
#
#
# Indices 1 2 3 4 5 6 
#
# 1 0.007614 -0.000420 -0.001401 0.000000 0.000000 0.000000
# 2 -0.000420 0.015582 -0.006366 0.000000 0.000000 0.000000
# 3 -0.001401 -0.006366 0.017121 0.000000 0.000000 0.000000
# 4 0.000000 0.000000 0.000000 0.045333 0.000000 0.000000
# 5 0.000000 0.000000 0.000000 0.000000 0.049777 0.000000
# 6 0.000000 0.000000 0.000000 0.000000 0.000000 0.053016
#
#
# Mechanical properties :
#
#
# Convention : Reuss Voigt Hill
#
# Bulk Modulus (GPa) = 41.76657 43.11189 42.43923
# Shear Modulus (GPa) = 23.49655 27.40450 25.45053
#
# Velocity S-wave (km/s) = 3.52295 3.80466 3.66651
# Velocity P-wave (km/s) = 6.21369 6.48636 6.35149
#
# Compressibility (1/GPa) = 0.02394259
#
# Stress axis : x y z
#
# Youngs Moduli (GPa) = 131.34562 64.17809 58.40630
#
# Poissons Ratio (x) = 0.02694 0.08181
# Poissons Ratio (y) = 0.05514 0.37184
# Poissons Ratio (z) = 0.18398 0.40859
#
# Static dielectric constant tensor:
#      x y z
#    x 1.699110 0.000000 0.000000 
#    y 0.000000 1.647250 0.000000 
#    z 0.000000 0.000000 1.667090 
# 
# From -- ./inp_files/19150.got.cif
#   From: 2010.05.17/outbox.cif.g08.bks.cpg/sg50_10_cif.got.tgz:19150.got - 2010.06.03 11:33:33.
