data_PCOD9396878
_publ_section_title
;
Structure prediction by ZEFSAII (Michael W. Deem and Ramdas Pophale) SiO2 
 PCOD9396878
Probable space group: P B A N
;
_chemical_formula_sum "Si O2"
_cell_formula_units_Z 60
_cell_length_a 11.951517
_cell_length_b 20.034108
_cell_length_c 10.466262
_cell_angle_alpha 90.000000
_cell_angle_beta 90.000000
_cell_angle_gamma 90.000000
_cell_volume 2506.020656
_symmetry_space_group_name_H-M "P B A N"
_symmetry_group_IT_number 50
_space_group.IT_coordinate_system_code '2'
_symmetry_cell_setting 'orthorhombic'
loop_
_space_group_symop_operation_xyz
x,y,z
1/2-x,1/2-y,z
x,1/2-y,-z
1/2-x,y,-z
-x,-y,-z
1/2+x,1/2+y,-z
-x,1/2+y,z
1/2+x,-y,z
loop_
_atom_site_type_symbol
_atom_site_label
_atom_site_fract_x
_atom_site_fract_y
_atom_site_fract_z
Si Si1 0.561422 0.508756 0.169532
Si Si2 0.873057 0.402791 0.235106
Si Si3 0.927500 0.169177 0.497841
Si Si4 0.765242 0.989186 0.360723
Si Si5 0.679303 0.317702 0.219964
Si Si6 0.950294 0.860719 0.852836
Si Si7 0.337337 0.347625 0.403324
Si Si8 0.750000 0.575629 0.000000
O O1 0.482251 0.574059 0.159586
O O2 0.609930 0.504308 0.312298
O O3 0.502550 0.437101 0.151231
O O4 0.671419 0.527091 0.086534
O O5 0.890329 0.358575 0.363975
O O6 0.824860 0.473335 0.277768
O O7 0.770458 0.368405 0.163856
O O8 0.937409 0.250000 0.500000
O O9 0.857421 0.158395 0.365306
O O10 0.049849 0.137705 0.480729
O O11 0.750000 0.018374 0.500000
O O12 0.729861 0.913001 0.362515
O O13 0.750000 0.250000 0.230082
O O14 0.565414 0.317925 0.137234
O O15 0.892018 0.824319 0.729121
O O16 0.842408 0.875109 0.938783
O O17 0.250000 0.314249 0.500000
#
# Coordination Sequence:
#
# PCOD9396878 Si02
#       8
#     8   8   8   8   8   8   8   4
#     4  12  24  43  66 102 136 185 231 292 362 417
#     4  12  22  36  64  98 141 184 221 272 346 425
#     4  11  23  36  62  99 139 190 223 265 338 415
#     4  11  21  35  60  98 147 175 208 270 348 434
#     4  11  23  43  68 103 143 179 232 280 337 424
#     4  11  24  44  71 102 139 188 232 293 356 415
#     4  10  21  39  60  97 142 175 218 276 341 427
#     4  12  26  48  70  95 141 172 244 304 360 410
#
# _framework density 23.942340000000002
#
# number of rings (size 3 to 8) (size 9 to 14) (size 15 to 20)
#    0.000    0.800    5.333    3.200    1.867    1.333 
#    0.000    0.000    0.000    3.200    0.000    0.000 
#    0.000    0.000    0.000    0.000    0.000    0.000 
#
# Total GULP energy -334289.155737 kJ/mol
# GULP energy per Si atom -5571.485929 kJ/mol
# Density = 2.388785 g / cm^3
# Si number density = 23.942340 Si / 1000 Ang^3
#
#
#
# Elastic Constant Matrix: (Units=GPa)
#
#
# Indices 1 2 3 4 5 6 
#
# 1 202.6049 37.6007 54.8810 0.0000 0.0000 0.0000
# 2 37.6007 81.5968 13.7631 0.0000 0.0000 0.0000
# 3 54.8810 13.7631 55.6664 0.0000 0.0000 0.0000
# 4 0.0000 0.0000 0.0000 71.0224 0.0000 0.0000
# 5 0.0000 0.0000 0.0000 0.0000 40.4434 0.0000
# 6 0.0000 0.0000 0.0000 0.0000 0.0000 47.9902
#
#
#
# Elastic Compliance Matrix: (Units=1/GPa)
#
#
# Indices 1 2 3 4 5 6 
#
# 1 0.007087 -0.002178 -0.006448 0.000000 0.000000 0.000000
# 2 -0.002178 0.013458 -0.001180 0.000000 0.000000 0.000000
# 3 -0.006448 -0.001180 0.024613 0.000000 0.000000 0.000000
# 4 0.000000 0.000000 0.000000 0.014080 0.000000 0.000000
# 5 0.000000 0.000000 0.000000 0.000000 0.024726 0.000000
# 6 0.000000 0.000000 0.000000 0.000000 0.000000 0.020838
#
#
# Mechanical properties :
#
#
# Convention : Reuss Voigt Hill
#
# Bulk Modulus (GPa) = 39.14623 61.37306 50.25965
# Shear Modulus (GPa) = 37.61411 47.46607 42.54009
#
# Velocity S-wave (km/s) = 3.96792 4.45738 4.21975
# Velocity P-wave (km/s) = 6.11377 7.22359 6.69173
#
# Compressibility (1/GPa) = 0.02554524
#
# Stress axis : x y z
#
# Youngs Moduli (GPa) = 141.11236 74.30483 40.62881
#
# Poissons Ratio (x) = 0.16183 0.26198
# Poissons Ratio (y) = 0.30733 0.04795
# Poissons Ratio (z) = 0.90991 0.08769
#
# Static dielectric constant tensor:
#      x y z
#    x 1.972480 0.000000 0.000000 
#    y 0.000000 1.927250 0.000000 
#    z 0.000000 0.000000 2.091410 
# 
# From -- ./inp_files/20434.got.cif
#   From: 2010.05.17/outbox.cif.g08.bks.cpg/sg50_11_cif.got.tgz:20434.got - 2010.06.03 11:33:33.
