data_PCOD9396624
_publ_section_title
;
Structure prediction by ZEFSAII (Michael W. Deem and Ramdas Pophale) SiO2 
 PCOD9396624
Probable space group: P B A N
;
_chemical_formula_sum "Si O2"
_cell_formula_units_Z 38
_cell_length_a 15.926514
_cell_length_b 22.784296
_cell_length_c 5.103070
_cell_angle_alpha 90.000000
_cell_angle_beta 90.000000
_cell_angle_gamma 90.000000
_cell_volume 1851.773511
_symmetry_space_group_name_H-M "P B A N"
_symmetry_group_IT_number 50
_space_group.IT_coordinate_system_code '2'
_symmetry_cell_setting 'orthorhombic'
loop_
_space_group_symop_operation_xyz
x,y,z
1/2-x,1/2-y,z
x,1/2-y,-z
1/2-x,y,-z
-x,-y,-z
1/2+x,1/2+y,-z
-x,1/2+y,z
1/2+x,-y,z
loop_
_atom_site_type_symbol
_atom_site_label
_atom_site_fract_x
_atom_site_fract_y
_atom_site_fract_z
Si Si1 0.750000 0.881565 0.500000
Si Si2 0.889057 0.692292 0.641862
Si Si3 0.250000 0.250000 0.000000
Si Si4 0.825328 0.517946 0.842988
Si Si5 0.017791 0.402525 0.012050
Si Si6 0.561096 0.055802 0.505223
O O1 0.663532 0.847095 0.433218
O O2 0.719853 0.924886 0.724798
O O3 0.925694 0.750000 0.500000
O O4 0.810522 0.713055 0.816199
O O5 0.945776 0.654604 0.838589
O O6 0.908757 0.547041 0.977167
O O7 0.855777 0.472420 0.623240
O O8 0.750000 0.488659 0.000000
O O9 0.942739 0.420911 0.210936
O O10 0.980832 0.400094 0.719331
O O11 0.500000 0.000000 0.500000
#
# Coordination Sequence:
#
# PCOD9396624 Si02
#       6
#     4   8   2   8   8   8
#     4  10  21  32  48  80 112 148 187 232 290 338
#     4  11  23  36  52  79 115 152 199 240 289 343
#     4  12  22  32  56  74 116 144 200 248 286 324
#     4  10  22  30  56  78 110 144 196 234 282 341
#     4  10  24  36  57  75 115 157 194 230 297 343
#     4  10  21  40  53  77 111 155 193 239 284 352
#
# _framework density 20.520866999999999
#
# number of rings (size 3 to 8) (size 9 to 14) (size 15 to 20)
#    0.000    1.684    2.105    2.526   20.632    0.000 
#    0.000    0.000    0.000    0.000    0.000    0.000 
#    0.000    5.053    0.000    0.000    0.000    0.000 
#
# Total GULP energy -211979.736394 kJ/mol
# GULP energy per Si atom -5578.414116 kJ/mol
# Density = 2.047416 g / cm^3
# Si number density = 20.520867 Si / 1000 Ang^3
#
#
#
# Elastic Constant Matrix: (Units=GPa)
#
#
# Indices 1 2 3 4 5 6 
#
# 1 69.7849 23.6509 23.8065 0.0000 0.0000 0.0000
# 2 23.6509 70.3823 7.9331 0.0000 0.0000 0.0000
# 3 23.8065 7.9331 73.7229 0.0000 0.0000 0.0000
# 4 0.0000 0.0000 0.0000 29.9364 0.0000 0.0000
# 5 0.0000 0.0000 0.0000 0.0000 33.2296 0.0000
# 6 0.0000 0.0000 0.0000 0.0000 0.0000 -44.3598
#
#
#
# Elastic Compliance Matrix: (Units=1/GPa)
#
#
# Indices 1 2 3 4 5 6 
#
# 1 0.017953 -0.005445 -0.005211 0.000000 0.000000 0.000000
# 2 -0.005445 0.016034 0.000033 0.000000 0.000000 0.000000
# 3 -0.005211 0.000033 0.015244 0.000000 0.000000 0.000000
# 4 0.000000 0.000000 0.000000 0.033404 0.000000 0.000000
# 5 0.000000 0.000000 0.000000 0.000000 0.030094 0.000000
# 6 0.000000 0.000000 0.000000 0.000000 0.000000 -0.022543
#
#
# Mechanical properties :
#
#
# Convention : Reuss Voigt Hill
#
# Bulk Modulus (GPa) = 35.73562 36.07458 35.90510
# Shear Modulus (GPa) = 41.40399 14.32789 27.86594
#
# Velocity S-wave (km/s) = 4.49670 2.64523 3.68901
# Velocity P-wave (km/s) = 6.66427 5.19108 5.97327
#
# Compressibility (1/GPa) = 0.02798328
#
# Stress axis : x y z
#
# Youngs Moduli (GPa) = 55.70061 62.36648 65.60116
#
# Poissons Ratio (x) = 0.33961 0.34188
# Poissons Ratio (y) = 0.30332 -0.00217
# Poissons Ratio (z) = 0.29028 -0.00206
#
# Static dielectric constant tensor:
#      x y z
#    x 1.782000 0.000000 0.000000 
#    y 0.000000 1.922680 0.000000 
#    z 0.000000 0.000000 1.905610 
# 
# From -- ./inp_files/3407.got.cif
#   From: 2010.05.17/outbox.cif.g08.bks.cpg/sg50_2_cif.got.tgz:3407.got - 2010.06.03 11:33:33.
