data_PCOD9396600
_publ_section_title
;
Structure prediction by ZEFSAII (Michael W. Deem and Ramdas Pophale) SiO2 
 PCOD9396600
Probable space group: P B A N
;
_chemical_formula_sum "Si O2"
_cell_formula_units_Z 58
_cell_length_a 8.687304
_cell_length_b 27.621778
_cell_length_c 11.828618
_cell_angle_alpha 90.000000
_cell_angle_beta 90.000000
_cell_angle_gamma 90.000000
_cell_volume 2838.380774
_symmetry_space_group_name_H-M "P B A N"
_symmetry_group_IT_number 50
_space_group.IT_coordinate_system_code '2'
_symmetry_cell_setting 'orthorhombic'
loop_
_space_group_symop_operation_xyz
x,y,z
1/2-x,1/2-y,z
x,1/2-y,-z
1/2-x,y,-z
-x,-y,-z
1/2+x,1/2+y,-z
-x,1/2+y,z
1/2+x,-y,z
loop_
_atom_site_type_symbol
_atom_site_label
_atom_site_fract_x
_atom_site_fract_y
_atom_site_fract_z
Si Si1 0.744225 0.648686 0.365681
Si Si2 0.916944 0.848201 0.969464
Si Si3 0.836532 0.379454 0.121458
Si Si4 0.000139 0.978406 0.127446
Si Si5 0.250000 0.750000 0.500000
Si Si6 0.589293 0.725285 0.791395
Si Si7 0.828918 0.566128 0.196037
Si Si8 0.591160 0.187599 0.306389
O O1 0.750000 0.647154 0.500000
O O2 0.852244 0.691324 0.312869
O O3 0.798223 0.599612 0.304069
O O4 0.566440 0.659070 0.334617
O O5 0.983787 0.808882 0.885973
O O6 0.895987 0.897973 0.900400
O O7 0.750000 0.830562 0.000000
O O8 0.000754 0.856767 0.085457
O O9 0.798082 0.348240 0.233047
O O10 0.872402 0.435904 0.140236
O O11 0.750000 0.374839 0.000000
O O12 0.833012 0.956591 0.154929
O O13 0.050413 0.022660 0.207236
O O14 0.000000 0.000000 0.000000
O O15 0.340919 0.787065 0.581995
O O16 0.750000 0.750000 0.828178
O O17 0.466779 0.765879 0.762944
#
# Coordination Sequence:
#
# PCOD9396600 Si02
#       8
#     8   8   8   8   2   8   8   8
#     4  10  20  42  70  93 122 164 227 277 317 368
#     4  11  19  37  59  92 130 166 202 256 321 380
#     4  12  25  39  62  95 136 171 209 267 331 391
#     4  12  21  39  64  93 128 168 212 253 328 401
#     4  12  28  44  64  84 128 184 216 268 320 376
#     4   9  20  35  63  92 120 160 206 261 315 378
#     4  11  22  38  62  95 129 166 212 268 316 392
#     4  11  24  45  62  94 131 169 225 266 322 397
#
# _framework density 20.434184999999999
#
# number of rings (size 3 to 8) (size 9 to 14) (size 15 to 20)
#    0.000    1.103    4.138    3.724    1.931    3.862 
#    0.000    0.690    1.517    0.000    0.000    0.000 
#    0.000    0.000    0.000    0.000    0.000    0.000 
#
# Total GULP energy -323809.789041 kJ/mol
# GULP energy per Si atom -5582.927397 kJ/mol
# Density = 2.038768 g / cm^3
# Si number density = 20.434185 Si / 1000 Ang^3
#
#
#
# Elastic Constant Matrix: (Units=GPa)
#
#
# Indices 1 2 3 4 5 6 
#
# 1 16.6661 15.2125 -5.2313 0.0000 0.0000 0.0000
# 2 15.2125 141.9357 56.9586 0.0000 0.0000 0.0000
# 3 -5.2313 56.9586 80.8387 0.0000 0.0000 0.0000
# 4 0.0000 0.0000 0.0000 21.0949 0.0000 0.0000
# 5 0.0000 0.0000 0.0000 0.0000 18.3924 0.0000
# 6 0.0000 0.0000 0.0000 0.0000 0.0000 21.4483
#
#
#
# Elastic Compliance Matrix: (Units=1/GPa)
#
#
# Indices 1 2 3 4 5 6 
#
# 1 0.078007 -0.014481 0.015251 0.000000 0.000000 0.000000
# 2 -0.014481 0.012511 -0.009752 0.000000 0.000000 0.000000
# 3 0.015251 -0.009752 0.020229 0.000000 0.000000 0.000000
# 4 0.000000 0.000000 0.000000 0.047405 0.000000 0.000000
# 5 0.000000 0.000000 0.000000 0.000000 0.054370 0.000000
# 6 0.000000 0.000000 0.000000 0.000000 0.000000 0.046624
#
#
# Mechanical properties :
#
#
# Convention : Reuss Voigt Hill
#
# Bulk Modulus (GPa) = 10.77783 41.48000 26.12891
# Shear Modulus (GPa) = 16.23176 23.68717 19.95946
#
# Velocity S-wave (km/s) = 2.82147 3.40839 3.12872
# Velocity P-wave (km/s) = 3.98749 5.98605 5.08591
#
# Compressibility (1/GPa) = 0.09278309
#
# Stress axis : x y z
#
# Youngs Moduli (GPa) = 12.81929 79.92878 49.43457
#
# Poissons Ratio (x) = 1.15746 -0.75395
# Poissons Ratio (y) = 0.18564 0.48211
# Poissons Ratio (z) = -0.19551 0.77950
#
# Static dielectric constant tensor:
#      x y z
#    x 1.774670 0.000000 0.000000 
#    y 0.000000 1.749520 0.000000 
#    z 0.000000 0.000000 1.659510 
# 
# From -- ./inp_files/19424.got.cif
#   From: 2010.05.17/outbox.cif.g08.bks.cpg/sg50_10_cif.got.tgz:19424.got - 2010.06.03 11:33:33.
