data_PCOD9396437
_publ_section_title
;
Structure prediction by ZEFSAII (Michael W. Deem and Ramdas Pophale) SiO2 
 PCOD9396437
Probable space group: P B A N
;
_chemical_formula_sum "Si O2"
_cell_formula_units_Z 48
_cell_length_a 19.420060
_cell_length_b 10.937987
_cell_length_c 10.911757
_cell_angle_alpha 90.000000
_cell_angle_beta 90.000000
_cell_angle_gamma 90.000000
_cell_volume 2317.835745
_symmetry_space_group_name_H-M "P B A N"
_symmetry_group_IT_number 50
_space_group.IT_coordinate_system_code '2'
_symmetry_cell_setting 'orthorhombic'
loop_
_space_group_symop_operation_xyz
x,y,z
1/2-x,1/2-y,z
x,1/2-y,-z
1/2-x,y,-z
-x,-y,-z
1/2+x,1/2+y,-z
-x,1/2+y,z
1/2+x,-y,z
loop_
_atom_site_type_symbol
_atom_site_label
_atom_site_fract_x
_atom_site_fract_y
_atom_site_fract_z
Si Si1 0.082337 0.884814 0.847842
Si Si2 0.930708 0.827158 0.812698
Si Si3 0.059168 0.411076 0.354306
Si Si4 0.180821 0.674899 0.750026
Si Si5 0.590983 0.020455 0.404564
Si Si6 0.675016 0.531851 0.954698
O O1 0.124115 0.765234 0.808092
O O2 0.004133 0.845960 0.880109
O O3 0.072393 0.971359 0.730157
O O4 0.126257 0.959370 0.948289
O O5 0.928782 0.703054 0.734675
O O6 0.921152 0.933157 0.711437
O O7 0.868885 0.854963 0.904393
O O8 0.102751 0.436973 0.476677
O O9 0.981249 0.405618 0.408085
O O10 0.250000 0.750000 0.731954
O O11 0.151172 0.613786 0.627523
O O12 0.190952 0.566480 0.847605
O O13 0.750000 0.569677 0.000000
#
# Coordination Sequence:
#
# PCOD9396437 Si02
#       6
#     8   8   8   8   8   8
#     4  11  22  37  60  98 128 165 219 269 324 387
#     4  10  21  39  63  93 130 168 221 270 323 391
#     4  10  20  38  60  92 129 163 213 271 317 393
#     4  11  21  39  66  91 128 165 214 273 329 393
#     4   9  20  37  64  92 124 167 212 264 333 383
#     4  11  23  40  64  90 127 175 218 265 332 395
#
# _framework density 20.708973
#
# number of rings (size 3 to 8) (size 9 to 14) (size 15 to 20)
#    0.000    1.667    3.333    1.500    0.000    1.333 
#    3.000    3.333    0.000    0.000    4.333    0.000 
#    0.000    0.000    0.000    0.000    0.000    0.000 
#
# Total GULP energy -268022.525801 kJ/mol
# GULP energy per Si atom -5583.802621 kJ/mol
# Density = 2.066184 g / cm^3
# Si number density = 20.708973 Si / 1000 Ang^3
#
#
#
# Elastic Constant Matrix: (Units=GPa)
#
#
# Indices 1 2 3 4 5 6 
#
# 1 159.5058 54.7572 59.0100 0.0000 0.0000 0.0000
# 2 54.7572 57.2500 21.3981 0.0000 0.0000 0.0000
# 3 59.0100 21.3981 79.4651 0.0000 0.0000 0.0000
# 4 0.0000 0.0000 0.0000 21.5881 0.0000 0.0000
# 5 0.0000 0.0000 0.0000 0.0000 25.1055 0.0000
# 6 0.0000 0.0000 0.0000 0.0000 0.0000 29.7794
#
#
#
# Elastic Compliance Matrix: (Units=1/GPa)
#
#
# Indices 1 2 3 4 5 6 
#
# 1 0.011581 -0.008743 -0.006246 0.000000 0.000000 0.000000
# 2 -0.008743 0.026022 -0.000515 0.000000 0.000000 0.000000
# 3 -0.006246 -0.000515 0.017361 0.000000 0.000000 0.000000
# 4 0.000000 0.000000 0.000000 0.046322 0.000000 0.000000
# 5 0.000000 0.000000 0.000000 0.000000 0.039832 0.000000
# 6 0.000000 0.000000 0.000000 0.000000 0.000000 0.033580
#
#
# Mechanical properties :
#
#
# Convention : Reuss Voigt Hill
#
# Bulk Modulus (GPa) = 41.74137 62.95014 52.34575
# Shear Modulus (GPa) = 23.39831 26.03162 24.71497
#
# Velocity S-wave (km/s) = 3.36499 3.54930 3.45837
# Velocity P-wave (km/s) = 5.94117 6.87460 6.42486
#
# Compressibility (1/GPa) = 0.02395705
#
# Stress axis : x y z
#
# Youngs Moduli (GPa) = 86.34559 38.42970 57.60020
#
# Poissons Ratio (x) = 0.33597 0.35977
# Poissons Ratio (y) = 0.75488 0.02966
# Poissons Ratio (z) = 0.53932 0.01979
#
# Static dielectric constant tensor:
#      x y z
#    x 1.789270 0.000000 0.000000 
#    y 0.000000 1.726660 0.000000 
#    z 0.000000 0.000000 1.748170 
# 
# From -- ./inp_files/21801.got.cif
#   From: 2010.05.17/outbox.cif.g08.bks.cpg/sg50_11_cif.got.tgz:21801.got - 2010.06.03 11:33:33.
