data_PCOD9396137
_publ_section_title
;
Structure prediction by ZEFSAII (Michael W. Deem and Ramdas Pophale) SiO2 
 PCOD9396137
Probable space group: P B A N
;
_chemical_formula_sum "Si O2"
_cell_formula_units_Z 42
_cell_length_a 18.266389
_cell_length_b 24.708178
_cell_length_c 5.319600
_cell_angle_alpha 90.000000
_cell_angle_beta 90.000000
_cell_angle_gamma 90.000000
_cell_volume 2400.890764
_symmetry_space_group_name_H-M "P B A N"
_symmetry_group_IT_number 50
_space_group.IT_coordinate_system_code '2'
_symmetry_cell_setting 'orthorhombic'
loop_
_space_group_symop_operation_xyz
x,y,z
1/2-x,1/2-y,z
x,1/2-y,-z
1/2-x,y,-z
-x,-y,-z
1/2+x,1/2+y,-z
-x,1/2+y,z
1/2+x,-y,z
loop_
_atom_site_type_symbol
_atom_site_label
_atom_site_fract_x
_atom_site_fract_y
_atom_site_fract_z
Si Si1 0.376597 0.186071 0.512548
Si Si2 0.982448 0.563123 0.004691
Si Si3 0.526664 0.125825 0.493834
Si Si4 0.250000 0.750000 0.000000
Si Si5 0.167673 0.377542 0.015898
Si Si6 0.327337 0.689333 0.607428
O O1 0.364573 0.250000 0.500000
O O2 0.462867 0.171290 0.494485
O O3 0.340574 0.156934 0.271845
O O4 0.347772 0.160423 0.773164
O O5 0.896084 0.577456 0.982128
O O6 0.020115 0.593839 0.769021
O O7 0.000000 0.500000 0.000000
O O8 0.008644 0.587399 0.270119
O O9 0.604883 0.152578 0.543465
O O10 0.307586 0.793788 0.111516
O O11 0.250000 0.399254 0.000000
O O12 0.338060 0.750000 0.500000
O O13 0.250000 0.668244 0.500000
#
# Coordination Sequence:
#
# PCOD9396137 Si02
#       6
#     8   8   8   2   8   8
#     4  10  20  34  52  83 112 143 177 211 261 322
#     4  10  22  40  59  78 105 141 187 234 284 316
#     4  10  21  36  58  80 108 145 184 229 269 332
#     4   8  18  32  52  78 120 156 180 216 278 340
#     4  10  21  36  55  79 108 143 176 218 268 322
#     4   9  19  33  52  82 117 151 182 217 278 332
#
# _framework density 17.493506
#
# number of rings (size 3 to 8) (size 9 to 14) (size 15 to 20)
#    0.000    2.476    0.000    2.286    5.333    2.286 
#    3.429    1.905    0.000    0.000    0.000    0.000 
#    0.000    0.000    0.000    0.000    0.000    0.000 
#
# Total GULP energy -233887.231553 kJ/mol
# GULP energy per Si atom -5568.743608 kJ/mol
# Density = 1.745369 g / cm^3
# Si number density = 17.493506 Si / 1000 Ang^3
#
#
#
# Elastic Constant Matrix: (Units=GPa)
#
#
# Indices 1 2 3 4 5 6 
#
# 1 142.7372 50.0537 18.2634 0.0000 0.0000 0.0000
# 2 50.0537 80.7097 12.2187 0.0000 0.0000 0.0000
# 3 18.2634 12.2187 83.6640 0.0000 0.0000 0.0000
# 4 0.0000 0.0000 0.0000 25.4270 0.0000 0.0000
# 5 0.0000 0.0000 0.0000 0.0000 19.3507 0.0000
# 6 0.0000 0.0000 0.0000 0.0000 0.0000 13.4125
#
#
#
# Elastic Compliance Matrix: (Units=1/GPa)
#
#
# Indices 1 2 3 4 5 6 
#
# 1 0.009066 -0.005443 -0.001184 0.000000 0.000000 0.000000
# 2 -0.005443 0.015938 -0.001139 0.000000 0.000000 0.000000
# 3 -0.001184 -0.001139 0.012377 0.000000 0.000000 0.000000
# 4 0.000000 0.000000 0.000000 0.039328 0.000000 0.000000
# 5 0.000000 0.000000 0.000000 0.000000 0.051678 0.000000
# 6 0.000000 0.000000 0.000000 0.000000 0.000000 0.074557
#
#
# Mechanical properties :
#
#
# Convention : Reuss Voigt Hill
#
# Bulk Modulus (GPa) = 45.77037 52.02029 48.89533
# Shear Modulus (GPa) = 22.14722 26.74305 24.44513
#
# Velocity S-wave (km/s) = 3.56198 3.91415 3.74221
# Velocity P-wave (km/s) = 6.56795 7.08724 6.83253
#
# Compressibility (1/GPa) = 0.02184819
#
# Stress axis : x y z
#
# Youngs Moduli (GPa) = 110.29980 62.74172 80.79193
#
# Poissons Ratio (x) = 0.34152 0.09567
# Poissons Ratio (y) = 0.60040 0.09206
# Poissons Ratio (z) = 0.13061 0.07149
#
# Static dielectric constant tensor:
#      x y z
#    x 1.590360 0.000000 0.000000 
#    y 0.000000 1.541930 0.000000 
#    z 0.000000 0.000000 0.657060 
# 
# From -- ./inp_files/4469.got.cif
#   From: 2010.05.17/outbox.cif.g08.bks.cpg/sg50_3_cif.got.tgz:4469.got - 2010.06.03 11:33:33.
