data_PCOD9396482
_publ_section_title
;
Structure prediction by ZEFSAII (Michael W. Deem and Ramdas Pophale) SiO2 
 PCOD9396482
Probable space group: P B A N
;
_chemical_formula_sum "Si O2"
_cell_formula_units_Z 48
_cell_length_a 5.398547
_cell_length_b 26.622324
_cell_length_c 14.714542
_cell_angle_alpha 90.000000
_cell_angle_beta 90.000000
_cell_angle_gamma 90.000000
_cell_volume 2114.801454
_symmetry_space_group_name_H-M "P B A N"
_symmetry_group_IT_number 50
_space_group.IT_coordinate_system_code '2'
_symmetry_cell_setting 'orthorhombic'
loop_
_space_group_symop_operation_xyz
x,y,z
1/2-x,1/2-y,z
x,1/2-y,-z
1/2-x,y,-z
-x,-y,-z
1/2+x,1/2+y,-z
-x,1/2+y,z
1/2+x,-y,z
loop_
_atom_site_type_symbol
_atom_site_label
_atom_site_fract_x
_atom_site_fract_y
_atom_site_fract_z
Si Si1 0.967212 0.111905 0.179751
Si Si2 0.127270 0.183582 0.908640
Si Si3 0.750000 0.107905 0.000000
Si Si4 0.750000 0.931329 0.500000
Si Si5 0.149444 0.692635 0.315610
Si Si6 0.750000 0.750000 0.237760
Si Si7 0.750000 0.365396 0.500000
Si Si8 0.713472 0.972766 0.300703
O O1 0.872315 0.081950 0.088773
O O2 0.792343 0.148708 0.241181
O O3 0.161320 0.150523 0.137547
O O4 0.110956 0.075628 0.248231
O O5 0.059203 0.226139 0.835947
O O6 0.250000 0.202979 0.000000
O O7 0.924074 0.145659 0.944331
O O8 0.499302 0.898515 0.511323
O O9 0.710377 0.963190 0.408670
O O10 0.250000 0.750000 0.311313
O O11 0.212120 0.668825 0.411581
O O12 0.859313 0.706083 0.299504
O O13 0.498377 0.013640 0.277807
#
# Coordination Sequence:
#
# PCOD9396482 Si02
#       8
#     8   8   4   4   8   4   4   8
#     4  10  23  43  67 105 142 191 236 302 360 437
#     4   9  19  36  63  97 137 185 241 295 356 420
#     4  10  20  38  71  94 142 186 236 290 361 438
#     4  12  26  51  77 107 142 187 243 311 376 434
#     4  11  24  42  66 101 145 199 245 294 354 434
#     4  10  21  38  61  96 142 190 250 299 351 422
#     4  12  27  45  76 107 148 197 238 299 363 438
#     4  12  27  48  79 110 141 184 242 308 378 441
#
# _framework density 22.697164999999998
#
# number of rings (size 3 to 8) (size 9 to 14) (size 15 to 20)
#    0.000    1.333    1.667    3.000    4.667    0.000 
#    0.000   10.417    0.000    0.000    0.000    0.000 
#    0.000    0.000    0.000    0.000    0.000    0.000 
#
# Total GULP energy -267442.764509 kJ/mol
# GULP energy per Si atom -5571.724261 kJ/mol
# Density = 2.264551 g / cm^3
# Si number density = 22.697165 Si / 1000 Ang^3
#
#
#
# Elastic Constant Matrix: (Units=GPa)
#
#
# Indices 1 2 3 4 5 6 
#
# 1 67.5943 4.6906 22.5315 0.0000 0.0000 0.0000
# 2 4.6906 53.6101 19.5675 0.0000 0.0000 0.0000
# 3 22.5315 19.5675 137.9145 0.0000 0.0000 0.0000
# 4 0.0000 0.0000 0.0000 586.9523 0.0000 0.0000
# 5 0.0000 0.0000 0.0000 0.0000 33.8751 0.0000
# 6 0.0000 0.0000 0.0000 0.0000 0.0000 42.6085
#
#
#
# Elastic Compliance Matrix: (Units=1/GPa)
#
#
# Indices 1 2 3 4 5 6 
#
# 1 0.015657 -0.000460 -0.002493 0.000000 0.000000 0.000000
# 2 -0.000460 0.019685 -0.002718 0.000000 0.000000 0.000000
# 3 -0.002493 -0.002718 0.008044 0.000000 0.000000 0.000000
# 4 0.000000 0.000000 0.000000 0.001704 0.000000 0.000000
# 5 0.000000 0.000000 0.000000 0.000000 0.029520 0.000000
# 6 0.000000 0.000000 0.000000 0.000000 0.000000 0.023469
#
#
# Mechanical properties :
#
#
# Convention : Reuss Voigt Hill
#
# Bulk Modulus (GPa) = 31.20613 39.18866 35.19740
# Shear Modulus (GPa) = 41.63116 146.84246 94.23681
#
# Velocity S-wave (km/s) = 4.28740 8.05213 6.45053
# Velocity P-wave (km/s) = 6.18772 10.18590 8.42735
#
# Compressibility (1/GPa) = 0.03204498
#
# Stress axis : x y z
#
# Youngs Moduli (GPa) = 63.86943 50.79893 124.32076
#
# Poissons Ratio (x) = 0.02337 0.30989
# Poissons Ratio (y) = 0.02939 0.33788
# Poissons Ratio (z) = 0.15920 0.13806
#
# Static dielectric constant tensor:
#      x y z
#    x 2.060790 0.000000 0.000000 
#    y 0.000000 1.859520 0.000000 
#    z 0.000000 0.000000 1.826190 
# 
# From -- ./inp_files/24113.got.cif
#   From: 2010.05.17/outbox.cif.g08.bks.cpg/sg50_13_cif.got.tgz:24113.got - 2010.06.03 11:33:33.
