data_PCOD9396118
_publ_section_title
;
Structure prediction by ZEFSAII (Michael W. Deem and Ramdas Pophale) SiO2 
 PCOD9396118
Probable space group: P B A N
;
_chemical_formula_sum "Si O2"
_cell_formula_units_Z 64
_cell_length_a 32.636849
_cell_length_b 9.612592
_cell_length_c 11.424192
_cell_angle_alpha 90.000000
_cell_angle_beta 90.000000
_cell_angle_gamma 90.000000
_cell_volume 3584.051363
_symmetry_space_group_name_H-M "P B A N"
_symmetry_group_IT_number 50
_space_group.IT_coordinate_system_code '2'
_symmetry_cell_setting 'orthorhombic'
loop_
_space_group_symop_operation_xyz
x,y,z
1/2-x,1/2-y,z
x,1/2-y,-z
1/2-x,y,-z
-x,-y,-z
1/2+x,1/2+y,-z
-x,1/2+y,z
1/2+x,-y,z
loop_
_atom_site_type_symbol
_atom_site_label
_atom_site_fract_x
_atom_site_fract_y
_atom_site_fract_z
Si Si1 0.097144 0.536024 0.856495
Si Si2 0.600036 0.450430 0.137899
Si Si3 0.315201 0.591827 0.731585
Si Si4 0.753240 0.588409 0.139278
Si Si5 0.179738 0.585875 0.730977
Si Si6 0.935205 0.754270 0.141604
Si Si7 0.200196 0.415732 0.499384
Si Si8 0.027848 0.741061 0.859207
O O1 0.133847 0.596878 0.781147
O O2 0.092559 0.375336 0.826517
O O3 0.052359 0.600518 0.832345
O O4 0.104967 0.558942 0.995909
O O5 0.641463 0.411129 0.202191
O O6 0.587614 0.605426 0.171209
O O7 0.560780 0.358266 0.172643
O O8 0.282708 0.507400 0.809683
O O9 0.304253 0.755445 0.715125
O O10 0.315736 0.502832 0.612086
O O11 0.750000 0.750000 0.182885
O O12 0.794177 0.507804 0.178158
O O13 0.750000 0.593390 0.000000
O O14 0.183498 0.497669 0.612242
O O15 0.981865 0.748847 0.187572
O O16 0.938329 0.750000 0.000000
O O17 0.189932 0.250000 0.500000
O O18 0.250000 0.424561 0.500000
O O19 0.024216 0.750000 0.000000
#
# Coordination Sequence:
#
# PCOD9396118 Si02
#       8
#     8   8   8   8   8   8   8   8
#     4  10  20  33  54  87 125 157 192 237 284 345
#     4  10  20  33  54  87 125 157 192 237 284 345
#     4  12  24  40  62  87 117 153 195 244 295 344
#     4  11  25  40  59  86 121 159 193 231 286 351
#     4  12  24  40  62  87 117 153 195 244 295 344
#     4   9  18  30  52  82 119 164 198 230 279 343
#     4  11  25  45  67  85 107 146 197 255 297 345
#     4   9  16  32  52  80 121 160 194 232 285 341
#
# _framework density 17.856887
#
# number of rings (size 3 to 8) (size 9 to 14) (size 15 to 20)
#    0.000    1.500    2.500    3.000    3.500    5.500 
#    0.000    0.000    0.000    0.000    0.000    5.250 
#    0.000    0.000    0.000    0.000    0.000    0.000 
#
# Total GULP energy -356915.485154 kJ/mol
# GULP energy per Si atom -5576.804456 kJ/mol
# Density = 1.781624 g / cm^3
# Si number density = 17.856887 Si / 1000 Ang^3
#
#
#
# Elastic Constant Matrix: (Units=GPa)
#
#
# Indices 1 2 3 4 5 6 
#
# 1 69.5242 10.8467 18.4500 0.0000 0.0000 0.0000
# 2 10.8467 115.7064 22.2899 0.0000 0.0000 0.0000
# 3 18.4500 22.2899 66.4151 0.0000 0.0000 0.0000
# 4 0.0000 0.0000 0.0000 21.8879 0.0000 0.0000
# 5 0.0000 0.0000 0.0000 0.0000 -14.6018 0.0000
# 6 0.0000 0.0000 0.0000 0.0000 0.0000 110.2120
#
#
#
# Elastic Compliance Matrix: (Units=1/GPa)
#
#
# Indices 1 2 3 4 5 6 
#
# 1 0.015577 -0.000670 -0.004102 0.000000 0.000000 0.000000
# 2 -0.000670 0.009269 -0.002925 0.000000 0.000000 0.000000
# 3 -0.004102 -0.002925 0.017178 0.000000 0.000000 0.000000
# 4 0.000000 0.000000 0.000000 0.045687 0.000000 0.000000
# 5 0.000000 0.000000 0.000000 0.000000 -0.068485 0.000000
# 6 0.000000 0.000000 0.000000 0.000000 0.000000 0.009073
#
#
# Mechanical properties :
#
#
# Convention : Reuss Voigt Hill
#
# Bulk Modulus (GPa) = 37.55214 39.42431 38.48823
# Shear Modulus (GPa) = 95.11145 36.83690 65.97418
#
# Velocity S-wave (km/s) = 7.30608 4.54684 6.08492
# Velocity P-wave (km/s) = 9.60452 7.04917 8.42430
#
# Compressibility (1/GPa) = 0.02662964
#
# Stress axis : x y z
#
# Youngs Moduli (GPa) = 64.19867 107.88918 58.21402
#
# Poissons Ratio (x) = 0.07228 0.23881
# Poissons Ratio (y) = 0.04301 0.17025
# Poissons Ratio (z) = 0.26336 0.31554
#
# Static dielectric constant tensor:
#      x y z
#    x 1.444960 0.000000 0.000000 
#    y 0.000000 1.674040 0.000000 
#    z 0.000000 0.000000 1.597180 
# 
# From -- ./inp_files/23400.got.cif
#   From: 2010.05.17/outbox.cif.g08.bks.cpg/sg50_12_cif.got.tgz:23400.got - 2010.06.03 11:33:33.
