data_PCOD9396489
_publ_section_title
;
Structure prediction by ZEFSAII (Michael W. Deem and Ramdas Pophale) SiO2 
 PCOD9396489
Probable space group: P B A N
;
_chemical_formula_sum "Si O2"
_cell_formula_units_Z 58
_cell_length_a 11.995238
_cell_length_b 14.100717
_cell_length_c 16.654387
_cell_angle_alpha 90.000000
_cell_angle_beta 90.000000
_cell_angle_gamma 90.000000
_cell_volume 2816.947272
_symmetry_space_group_name_H-M "P B A N"
_symmetry_group_IT_number 50
_space_group.IT_coordinate_system_code '2'
_symmetry_cell_setting 'orthorhombic'
loop_
_space_group_symop_operation_xyz
x,y,z
1/2-x,1/2-y,z
x,1/2-y,-z
1/2-x,y,-z
-x,-y,-z
1/2+x,1/2+y,-z
-x,1/2+y,z
1/2+x,-y,z
loop_
_atom_site_type_symbol
_atom_site_label
_atom_site_fract_x
_atom_site_fract_y
_atom_site_fract_z
Si Si1 0.253470 0.862415 0.673764
Si Si2 0.949956 0.665036 0.413630
Si Si3 0.750000 0.750000 0.500000
Si Si4 0.043562 0.640415 0.977371
Si Si5 0.162007 0.019371 0.928354
Si Si6 0.456502 0.623383 0.420084
Si Si7 0.354432 0.951748 0.825725
Si Si8 0.977167 0.028490 0.293934
O O1 0.250000 0.750000 0.665190
O O2 0.326796 0.896678 0.598140
O O3 0.326266 0.885518 0.751548
O O4 0.138937 0.916206 0.693006
O O5 0.828816 0.687203 0.446018
O O6 0.012660 0.765850 0.403807
O O7 0.012380 0.610791 0.486665
O O8 0.939980 0.603905 0.334619
O O9 0.122619 0.612304 0.903221
O O10 0.923930 0.605033 0.943989
O O11 0.045288 0.750000 0.000000
O O12 0.088085 0.574862 0.051077
O O13 0.242950 0.011863 0.850400
O O14 0.250000 0.028234 0.000000
O O15 0.522810 0.561101 0.354576
O O16 0.467387 0.003972 0.792509
#
# Coordination Sequence:
#
# PCOD9396489 Si02
#       8
#     8   8   2   8   8   8   8   8
#     4  11  22  38  61  90 127 169 209 267 326 385
#     4  10  20  39  60  85 126 164 220 270 317 383
#     4   8  20  36  60  82 116 162 214 264 324 374
#     4  10  21  39  65  92 119 166 212 261 310 385
#     4   9  20  40  62  90 126 157 204 262 313 371
#     4   9  21  38  58  92 119 163 223 268 314 384
#     4  10  23  38  60  93 129 164 208 259 328 395
#     4  11  22  39  62  90 128 169 210 264 327 395
#
# _framework density 20.589663999999999
#
# number of rings (size 3 to 8) (size 9 to 14) (size 15 to 20)
#    0.000    2.207    1.379    1.241    1.931    7.172 
#    0.000    0.000    0.000    3.310    0.000    0.000 
#    0.000    0.000    0.000    0.000    0.000    0.000 
#
# Total GULP energy -322998.055307 kJ/mol
# GULP energy per Si atom -5568.931988 kJ/mol
# Density = 2.054280 g / cm^3
# Si number density = 20.589664 Si / 1000 Ang^3
#
#
#
# Elastic Constant Matrix: (Units=GPa)
#
#
# Indices 1 2 3 4 5 6 
#
# 1 125.5111 35.2150 25.6662 0.0000 0.0000 0.0000
# 2 35.2150 93.5128 31.0503 0.0000 0.0000 0.0000
# 3 25.6662 31.0503 77.9145 0.0000 0.0000 0.0000
# 4 0.0000 0.0000 0.0000 30.5847 0.0000 0.0000
# 5 0.0000 0.0000 0.0000 0.0000 32.0764 0.0000
# 6 0.0000 0.0000 0.0000 0.0000 0.0000 10.9436
#
#
#
# Elastic Compliance Matrix: (Units=1/GPa)
#
#
# Indices 1 2 3 4 5 6 
#
# 1 0.009144 -0.002816 -0.001890 0.000000 0.000000 0.000000
# 2 -0.002816 0.013192 -0.004330 0.000000 0.000000 0.000000
# 3 -0.001890 -0.004330 0.015183 0.000000 0.000000 0.000000
# 4 0.000000 0.000000 0.000000 0.032696 0.000000 0.000000
# 5 0.000000 0.000000 0.000000 0.000000 0.031176 0.000000
# 6 0.000000 0.000000 0.000000 0.000000 0.000000 0.091377
#
#
# Mechanical properties :
#
#
# Convention : Reuss Voigt Hill
#
# Bulk Modulus (GPa) = 51.42062 53.42239 52.42151
# Shear Modulus (GPa) = 23.00749 28.38807 25.69778
#
# Velocity S-wave (km/s) = 3.34642 3.71719 3.53667
# Velocity P-wave (km/s) = 6.32136 6.66527 6.49559
#
# Compressibility (1/GPa) = 0.01944745
#
# Stress axis : x y z
#
# Youngs Moduli (GPa) = 109.36163 75.80508 65.86498
#
# Poissons Ratio (x) = 0.21346 0.12448
# Poissons Ratio (y) = 0.30795 0.28517
# Poissons Ratio (z) = 0.20669 0.32820
#
# Static dielectric constant tensor:
#      x y z
#    x 1.832140 0.000000 0.000000 
#    y 0.000000 1.726590 0.000000 
#    z 0.000000 0.000000 1.768380 
# 
# From -- ./inp_files/29224.got.cif
#   From: 2010.05.17/outbox.cif.g08.bks.cpg/sg50_15_cif.got.tgz:29224.got - 2010.06.03 11:33:33.
