data_PCOD9396632
_publ_section_title
;
Structure prediction by ZEFSAII (Michael W. Deem and Ramdas Pophale) SiO2 
 PCOD9396632
Probable space group: P B A N
;
_chemical_formula_sum "Si O2"
_cell_formula_units_Z 64
_cell_length_a 30.256831
_cell_length_b 8.243002
_cell_length_c 14.516525
_cell_angle_alpha 90.000000
_cell_angle_beta 90.000000
_cell_angle_gamma 90.000000
_cell_volume 3620.524670
_symmetry_space_group_name_H-M "P B A N"
_symmetry_group_IT_number 50
_space_group.IT_coordinate_system_code '2'
_symmetry_cell_setting 'orthorhombic'
loop_
_space_group_symop_operation_xyz
x,y,z
1/2-x,1/2-y,z
x,1/2-y,-z
1/2-x,y,-z
-x,-y,-z
1/2+x,1/2+y,-z
-x,1/2+y,z
1/2+x,-y,z
loop_
_atom_site_type_symbol
_atom_site_label
_atom_site_fract_x
_atom_site_fract_y
_atom_site_fract_z
Si Si1 0.756840 0.442494 0.106587
Si Si2 0.199240 0.445950 0.600333
Si Si3 0.168862 0.445864 0.200531
Si Si4 0.432662 0.055885 0.877350
Si Si5 0.842062 0.941128 0.789519
Si Si6 0.903431 0.412386 0.938152
Si Si7 0.302025 0.449400 0.604104
Si Si8 0.990854 0.249957 0.890505
O O1 0.750000 0.250000 0.116784
O O2 0.718804 0.530831 0.164443
O O3 0.805145 0.490348 0.141570
O O4 0.750000 0.485252 0.000000
O O5 0.171159 0.498168 0.687744
O O6 0.250365 0.496318 0.613757
O O7 0.198224 0.248342 0.603131
O O8 0.183994 0.499681 0.498838
O O9 0.158915 0.254380 0.202063
O O10 0.135443 0.535277 0.130539
O O11 0.170220 0.503835 0.307202
O O12 0.391144 0.011637 0.816283
O O13 0.460987 0.212975 0.850411
O O14 0.470385 0.921271 0.866645
O O15 0.414985 0.044368 0.982754
O O16 0.948411 0.370194 0.882795
O O17 0.892708 0.250000 0.000000
O O18 0.998753 0.250000 0.000000
#
# Coordination Sequence:
#
# PCOD9396632 Si02
#       8
#     8   8   8   8   8   8   8   8
#     4  11  25  37  49  67 112 160 182 205 260 316
#     4   8  14  29  50  75 108 129 172 218 278 296
#     4  11  21  33  56  78 107 136 190 217 258 311
#     4  10  21  33  53  75 107 135 175 221 269 315
#     4  11  22  34  53  84 104 138 184 230 259 313
#     4   9  20  34  52  75 104 142 177 215 263 318
#     4   8  14  28  52  76 100 140 167 224 260 313
#     4   9  19  35  52  70 102 136 177 215 273 309
#
# _framework density 17.676995000000002
#
# number of rings (size 3 to 8) (size 9 to 14) (size 15 to 20)
#    0.000    2.625    1.250    3.375    8.750    2.000 
#    0.000    0.000    0.000    1.500    0.000    0.875 
#    0.000    0.000    0.000    0.000    0.000    0.000 
#
# Total GULP energy -356717.144658 kJ/mol
# GULP energy per Si atom -5573.705385 kJ/mol
# Density = 1.763676 g / cm^3
# Si number density = 17.676995 Si / 1000 Ang^3
#
#
#
# Elastic Constant Matrix: (Units=GPa)
#
#
# Indices 1 2 3 4 5 6 
#
# 1 107.7295 17.2697 54.8738 0.0000 0.0000 0.0000
# 2 17.2697 23.7130 23.7256 0.0000 0.0000 0.0000
# 3 54.8738 23.7256 112.4032 0.0000 0.0000 0.0000
# 4 0.0000 0.0000 0.0000 -9.0077 0.0000 0.0000
# 5 0.0000 0.0000 0.0000 0.0000 -84.3962 0.0000
# 6 0.0000 0.0000 0.0000 0.0000 0.0000 -79.2468
#
#
#
# Elastic Compliance Matrix: (Units=1/GPa)
#
#
# Indices 1 2 3 4 5 6 
#
# 1 0.012624 -0.003838 -0.005353 0.000000 0.000000 0.000000
# 2 -0.003838 0.054628 -0.009657 0.000000 0.000000 0.000000
# 3 -0.005353 -0.009657 0.013548 0.000000 0.000000 0.000000
# 4 0.000000 0.000000 0.000000 -0.111017 0.000000 0.000000
# 5 0.000000 0.000000 0.000000 0.000000 -0.011849 0.000000
# 6 0.000000 0.000000 0.000000 0.000000 0.000000 -0.012619
#
#
# Mechanical properties :
#
#
# Convention : Reuss Voigt Hill
#
# Bulk Modulus (GPa) = 23.19939 48.39820 35.79879
# Shear Modulus (GPa) = -1909.10957 -24.66502 -966.88730
#
# Velocity S-wave (km/s) = -32.89895 -3.73945 -23.41287
# Velocity P-wave (km/s) = 37.81493 2.96547 26.65685
#
# Compressibility (1/GPa) = 0.04310459
#
# Stress axis : x y z
#
# Youngs Moduli (GPa) = 79.21161 18.30551 73.81106
#
# Poissons Ratio (x) = 0.07026 0.39510
# Poissons Ratio (y) = 0.30404 0.71279
# Poissons Ratio (z) = 0.42401 0.17677
#
# Static dielectric constant tensor:
#      x y z
#    x 1.607370 0.000000 0.000000 
#    y 0.000000 1.691350 0.000000 
#    z 0.000000 0.000000 1.617060 
# 
# From -- ./inp_files/27810.got.cif
#   From: 2010.05.17/outbox.cif.g08.bks.cpg/sg50_14_cif.got.tgz:27810.got - 2010.06.03 11:33:33.
