data_PCOD9396121
_publ_section_title
;
Structure prediction by ZEFSAII (Michael W. Deem and Ramdas Pophale) SiO2 
 PCOD9396121
Probable space group: P B A N
;
_chemical_formula_sum "Si O2"
_cell_formula_units_Z 40
_cell_length_a 23.522294
_cell_length_b 10.652391
_cell_length_c 9.011195
_cell_angle_alpha 90.000000
_cell_angle_beta 90.000000
_cell_angle_gamma 90.000000
_cell_volume 2257.923172
_symmetry_space_group_name_H-M "P B A N"
_symmetry_group_IT_number 50
_space_group.IT_coordinate_system_code '2'
_symmetry_cell_setting 'orthorhombic'
loop_
_space_group_symop_operation_xyz
x,y,z
1/2-x,1/2-y,z
x,1/2-y,-z
1/2-x,y,-z
-x,-y,-z
1/2+x,1/2+y,-z
-x,1/2+y,z
1/2+x,-y,z
loop_
_atom_site_type_symbol
_atom_site_label
_atom_site_fract_x
_atom_site_fract_y
_atom_site_fract_z
Si Si1 0.124483 0.512984 0.306835
Si Si2 0.510385 0.125328 0.600864
Si Si3 0.237862 0.602720 0.164328
Si Si4 0.196131 0.054942 0.404569
Si Si5 0.602740 0.768684 0.321973
O O1 0.068116 0.595479 0.313541
O O2 0.173338 0.571004 0.206559
O O3 0.152597 0.500937 0.472551
O O4 0.107932 0.370979 0.258772
O O5 0.518637 0.250000 0.500000
O O6 0.455473 0.155120 0.704227
O O7 0.500000 0.000000 0.500000
O O8 0.250000 0.750000 0.163943
O O9 0.277212 0.543670 0.291734
O O10 0.250000 0.552122 0.000000
O O11 0.250000 0.105517 0.500000
O O12 0.160739 0.154109 0.307186
O O13 0.599971 0.750000 0.500000
#
# Coordination Sequence:
#
# PCOD9396121 Si02
#       5
#     8   8   8   8   8
#     4  10  20  33  55  84 111 142 182 231 270 338
#     4  11  18  30  51  86 119 146 179 227 285 326
#     4  10  23  39  52  75 108 147 185 231 289 334
#     4   9  18  31  53  78 105 138 180 227 277 331
#     4   9  17  31  49  83 119 140 171 226 288 325
#
# _framework density 17.715395000000001
#
# number of rings (size 3 to 8) (size 9 to 14) (size 15 to 20)
#    0.000    2.200    6.000    0.000    2.800   12.000 
#    0.000    2.000    0.000    1.200    0.000    0.000 
#    0.000    0.000    0.000    0.000    0.000    0.000 
#
# Total GULP energy -222696.463405 kJ/mol
# GULP energy per Si atom -5567.411585 kJ/mol
# Density = 1.767507 g / cm^3
# Si number density = 17.715395 Si / 1000 Ang^3
#
#
#
# Elastic Constant Matrix: (Units=GPa)
#
#
# Indices 1 2 3 4 5 6 
#
# 1 156.5938 65.5794 29.9046 0.0000 0.0000 0.0000
# 2 65.5794 108.7564 24.2427 0.0000 0.0000 0.0000
# 3 29.9046 24.2427 45.4957 0.0000 0.0000 0.0000
# 4 0.0000 0.0000 0.0000 7.2394 0.0000 0.0000
# 5 0.0000 0.0000 0.0000 0.0000 9.4452 0.0000
# 6 0.0000 0.0000 0.0000 0.0000 0.0000 32.7248
#
#
#
# Elastic Compliance Matrix: (Units=1/GPa)
#
#
# Indices 1 2 3 4 5 6 
#
# 1 0.008991 -0.004657 -0.003428 0.000000 0.000000 0.000000
# 2 -0.004657 0.012847 -0.003784 0.000000 0.000000 0.000000
# 3 -0.003428 -0.003784 0.026250 0.000000 0.000000 0.000000
# 4 0.000000 0.000000 0.000000 0.138133 0.000000 0.000000
# 5 0.000000 0.000000 0.000000 0.000000 0.105874 0.000000
# 6 0.000000 0.000000 0.000000 0.000000 0.000000 0.030558
#
#
# Mechanical properties :
#
#
# Convention : Reuss Voigt Hill
#
# Bulk Modulus (GPa) = 41.07065 61.14437 51.10751
# Shear Modulus (GPa) = 14.10405 22.62315 18.36360
#
# Velocity S-wave (km/s) = 2.82467 3.57744 3.22310
# Velocity P-wave (km/s) = 5.81999 7.18706 6.53935
#
# Compressibility (1/GPa) = 0.02434829
#
# Stress axis : x y z
#
# Youngs Moduli (GPa) = 111.22127 77.84056 38.09539
#
# Poissons Ratio (x) = 0.36253 0.13060
# Poissons Ratio (y) = 0.51800 0.14416
# Poissons Ratio (z) = 0.38129 0.29456
#
# Static dielectric constant tensor:
#      x y z
#    x 1.673260 0.000000 0.000000 
#    y 0.000000 1.646210 0.000000 
#    z 0.000000 0.000000 1.580980 
# 
# From -- ./inp_files/15125.got.cif
#   From: 2010.05.17/outbox.cif.g08.bks.cpg/sg50_8_cif.got.tgz:15125.got - 2010.06.03 11:33:33.
