data_PCOD9396616
_publ_section_title
;
Structure prediction by ZEFSAII (Michael W. Deem and Ramdas Pophale) SiO2 
 PCOD9396616
Probable space group: P B A N
;
_chemical_formula_sum "Si O2"
_cell_formula_units_Z 36
_cell_length_a 12.793308
_cell_length_b 23.847206
_cell_length_c 4.914939
_cell_angle_alpha 90.000000
_cell_angle_beta 90.000000
_cell_angle_gamma 90.000000
_cell_volume 1499.472451
_symmetry_space_group_name_H-M "P B A N"
_symmetry_group_IT_number 50
_space_group.IT_coordinate_system_code '2'
_symmetry_cell_setting 'orthorhombic'
loop_
_space_group_symop_operation_xyz
x,y,z
1/2-x,1/2-y,z
x,1/2-y,-z
1/2-x,y,-z
-x,-y,-z
1/2+x,1/2+y,-z
-x,1/2+y,z
1/2+x,-y,z
loop_
_atom_site_type_symbol
_atom_site_label
_atom_site_fract_x
_atom_site_fract_y
_atom_site_fract_z
Si Si1 0.250000 0.491718 0.500000
Si Si2 0.402930 0.395384 0.613458
Si Si3 0.250000 0.250000 0.500000
Si Si4 0.250000 0.750000 0.000000
Si Si5 0.750000 0.431597 0.000000
Si Si6 0.881852 0.672477 0.110228
Si Si7 0.906346 0.157847 0.900901
O O1 0.344210 0.454485 0.631450
O O2 0.215285 0.530946 0.747494
O O3 0.384547 0.381606 0.301011
O O4 0.522450 0.378975 0.689495
O O5 0.345304 0.350368 0.815608
O O6 0.173881 0.281136 0.712787
O O7 0.176264 0.793237 0.171026
O O8 0.843965 0.389058 0.929912
O O9 0.002597 0.687871 0.070005
#
# Coordination Sequence:
#
# PCOD9396616 Si02
#       7
#     4   8   2   2   4   8   8
#     4  12  25  44  74 110 140 202 243 306 378 426
#     4  10  24  46  68 101 154 183 238 306 367 426
#     4  12  26  42  76 112 144 202 246 286 384 434
#     4  10  20  52  78 102 142 204 238 290 370 432
#     4  11  26  43  76 106 144 195 256 299 364 436
#     4  10  25  43  70 103 149 190 235 307 349 450
#     4   9  25  47  72 108 149 189 246 304 355 443
#
# _framework density 24.008443
#
# number of rings (size 3 to 8) (size 9 to 14) (size 15 to 20)
#    1.333    0.444    0.000    2.000    6.222    6.222 
#    0.000    1.111    0.000    0.000    0.000    0.000 
#    0.000    0.000    0.000    0.000    0.000    0.000 
#
# Total GULP energy -200418.300525 kJ/mol
# GULP energy per Si atom -5567.175015 kJ/mol
# Density = 2.395380 g / cm^3
# Si number density = 24.008443 Si / 1000 Ang^3
#
#
#
# Elastic Constant Matrix: (Units=GPa)
#
#
# Indices 1 2 3 4 5 6 
#
# 1 152.9618 71.4093 37.5220 0.0000 0.0000 0.0000
# 2 71.4093 136.9517 30.9002 0.0000 0.0000 0.0000
# 3 37.5220 30.9002 90.1579 0.0000 0.0000 0.0000
# 4 0.0000 0.0000 0.0000 26.6575 0.0000 0.0000
# 5 0.0000 0.0000 0.0000 0.0000 24.6024 0.0000
# 6 0.0000 0.0000 0.0000 0.0000 0.0000 6.9883
#
#
#
# Elastic Compliance Matrix: (Units=1/GPa)
#
#
# Indices 1 2 3 4 5 6 
#
# 1 0.009073 -0.004204 -0.002335 0.000000 0.000000 0.000000
# 2 -0.004204 0.009862 -0.001630 0.000000 0.000000 0.000000
# 3 -0.002335 -0.001630 0.012622 0.000000 0.000000 0.000000
# 4 0.000000 0.000000 0.000000 0.037513 0.000000 0.000000
# 5 0.000000 0.000000 0.000000 0.000000 0.040646 0.000000
# 6 0.000000 0.000000 0.000000 0.000000 0.000000 0.143096
#
#
# Mechanical properties :
#
#
# Convention : Reuss Voigt Hill
#
# Bulk Modulus (GPa) = 65.71138 73.30381 69.50759
# Shear Modulus (GPa) = 18.23327 27.66563 22.94945
#
# Velocity S-wave (km/s) = 2.75881 3.39828 3.09510
# Velocity P-wave (km/s) = 6.13005 6.78207 6.46429
#
# Compressibility (1/GPa) = 0.01521806
#
# Stress axis : x y z
#
# Youngs Moduli (GPa) = 110.21715 101.40211 79.22497
#
# Poissons Ratio (x) = 0.42629 0.18500
# Poissons Ratio (y) = 0.46335 0.12916
# Poissons Ratio (z) = 0.25738 0.16532
#
# Static dielectric constant tensor:
#      x y z
#    x 2.015770 0.000000 0.000000 
#    y 0.000000 1.959940 0.000000 
#    z 0.000000 0.000000 1.890550 
# 
# From -- ./inp_files/3279.got.cif
#   From: 2010.05.17/outbox.cif.g08.bks.cpg/sg50_2_cif.got.tgz:3279.got - 2010.06.03 11:33:33.
