data_PCOD9396960
_publ_section_title
;
Structure prediction by ZEFSAII (Michael W. Deem and Ramdas Pophale) SiO2 
 PCOD9396960
Probable space group: P B A N
;
_chemical_formula_sum "Si O2"
_cell_formula_units_Z 44
_cell_length_a 13.077838
_cell_length_b 9.211571
_cell_length_c 18.490274
_cell_angle_alpha 90.000000
_cell_angle_beta 90.000000
_cell_angle_gamma 90.000000
_cell_volume 2227.475849
_symmetry_space_group_name_H-M "P B A N"
_symmetry_group_IT_number 50
_space_group.IT_coordinate_system_code '2'
_symmetry_cell_setting 'orthorhombic'
loop_
_space_group_symop_operation_xyz
x,y,z
1/2-x,1/2-y,z
x,1/2-y,-z
1/2-x,y,-z
-x,-y,-z
1/2+x,1/2+y,-z
-x,1/2+y,z
1/2+x,-y,z
loop_
_atom_site_type_symbol
_atom_site_label
_atom_site_fract_x
_atom_site_fract_y
_atom_site_fract_z
Si Si1 0.369389 0.759236 0.913238
Si Si2 0.516966 0.250000 0.500000
Si Si3 0.847809 0.663307 0.400418
Si Si4 0.544161 0.771549 0.736157
Si Si5 0.501083 0.987590 0.162980
Si Si6 0.146782 0.660973 0.640325
O O1 0.250000 0.750000 0.891383
O O2 0.432414 0.620582 0.884273
O O3 0.423586 0.905453 0.881786
O O4 0.374070 0.750000 0.000000
O O5 0.435962 0.142740 0.539276
O O6 0.587646 0.197949 0.434448
O O7 0.750000 0.750000 0.426908
O O8 0.891286 0.763621 0.336263
O O9 0.826453 0.507931 0.365847
O O10 0.554233 0.622543 0.780477
O O11 0.428573 0.798154 0.706488
O O12 0.567649 0.903792 0.789119
O O13 0.250000 0.750000 0.645567
#
# Coordination Sequence:
#
# PCOD9396960 Si02
#       6
#     8   4   8   8   8   8
#     4  10  22  41  68  99 132 171 215 259 308 373
#     4  10  24  42  62  82 118 156 210 258 314 376
#     4  11  24  39  60  88 119 157 205 259 316 372
#     4  10  22  40  59  88 125 159 205 256 309 373
#     4  10  21  40  66  92 131 171 207 258 318 370
#     4  11  24  40  63  87 118 160 207 259 317 378
#
# _framework density 19.753301
#
# number of rings (size 3 to 8) (size 9 to 14) (size 15 to 20)
#    0.000    1.636    1.818    1.636    2.545    8.727 
#    0.000    2.727    0.000    9.818    0.000    0.000 
#    0.000    0.000    0.000    0.000    0.000    0.000 
#
# Total GULP energy -245477.189089 kJ/mol
# GULP energy per Si atom -5579.027025 kJ/mol
# Density = 1.970834 g / cm^3
# Si number density = 19.753301 Si / 1000 Ang^3
#
#
#
# Elastic Constant Matrix: (Units=GPa)
#
#
# Indices 1 2 3 4 5 6 
#
# 1 126.4443 58.8135 46.8976 0.0000 0.0000 0.0000
# 2 58.8135 120.8596 35.8943 0.0000 0.0000 0.0000
# 3 46.8976 35.8943 94.1777 0.0000 0.0000 0.0000
# 4 0.0000 0.0000 0.0000 16.8506 0.0000 0.0000
# 5 0.0000 0.0000 0.0000 0.0000 12.4906 0.0000
# 6 0.0000 0.0000 0.0000 0.0000 0.0000 20.4376
#
#
#
# Elastic Compliance Matrix: (Units=1/GPa)
#
#
# Indices 1 2 3 4 5 6 
#
# 1 0.011435 -0.004368 -0.004029 0.000000 0.000000 0.000000
# 2 -0.004368 0.010999 -0.002017 0.000000 0.000000 0.000000
# 3 -0.004029 -0.002017 0.013393 0.000000 0.000000 0.000000
# 4 0.000000 0.000000 0.000000 0.059345 0.000000 0.000000
# 5 0.000000 0.000000 0.000000 0.000000 0.080060 0.000000
# 6 0.000000 0.000000 0.000000 0.000000 0.000000 0.048929
#
#
# Mechanical properties :
#
#
# Convention : Reuss Voigt Hill
#
# Bulk Modulus (GPa) = 66.67316 69.41027 68.04172
# Shear Modulus (GPa) = 20.00088 23.28084 21.64086
#
# Velocity S-wave (km/s) = 3.18548 3.43677 3.31351
# Velocity P-wave (km/s) = 6.88157 7.13886 7.01139
#
# Compressibility (1/GPa) = 0.01499854
#
# Stress axis : x y z
#
# Youngs Moduli (GPa) = 87.45313 90.92128 74.66317
#
# Poissons Ratio (x) = 0.39712 0.30085
# Poissons Ratio (y) = 0.38197 0.15059
# Poissons Ratio (z) = 0.35239 0.18338
#
# Static dielectric constant tensor:
#      x y z
#    x 1.688030 0.000000 0.000000 
#    y 0.000000 1.693200 0.000000 
#    z 0.000000 0.000000 1.703700 
# 
# From -- ./inp_files/29408.got.cif
#   From: 2010.05.17/outbox.cif.g08.bks.cpg/sg50_15_cif.got.tgz:29408.got - 2010.06.03 11:33:33.
