data_PCOD9396845
_publ_section_title
;
Structure prediction by ZEFSAII (Michael W. Deem and Ramdas Pophale) SiO2 
 PCOD9396845
Probable space group: P B A N
;
_chemical_formula_sum "Si O2"
_cell_formula_units_Z 60
_cell_length_a 20.654187
_cell_length_b 11.214999
_cell_length_c 13.843974
_cell_angle_alpha 90.000000
_cell_angle_beta 90.000000
_cell_angle_gamma 90.000000
_cell_volume 3206.772266
_symmetry_space_group_name_H-M "P B A N"
_symmetry_group_IT_number 50
_space_group.IT_coordinate_system_code '2'
_symmetry_cell_setting 'orthorhombic'
loop_
_space_group_symop_operation_xyz
x,y,z
1/2-x,1/2-y,z
x,1/2-y,-z
1/2-x,y,-z
-x,-y,-z
1/2+x,1/2+y,-z
-x,1/2+y,z
1/2+x,-y,z
loop_
_atom_site_type_symbol
_atom_site_label
_atom_site_fract_x
_atom_site_fract_y
_atom_site_fract_z
Si Si1 0.631595 0.896520 0.838083
Si Si2 0.822597 0.303033 0.100196
Si Si3 0.054631 0.179738 0.222668
Si Si4 0.416540 0.879340 0.460313
Si Si5 0.750000 0.750000 0.157434
Si Si6 0.901262 0.350307 0.761767
Si Si7 0.648721 0.923613 0.064995
Si Si8 0.073215 0.370912 0.556097
O O1 0.572967 0.817579 0.796954
O O2 0.695999 0.834146 0.793991
O O3 0.625905 0.033476 0.813745
O O4 0.632312 0.894016 0.954503
O O5 0.750000 0.250000 0.109836
O O6 0.864213 0.261236 0.191805
O O7 0.826181 0.443496 0.083487
O O8 0.850528 0.250000 0.000000
O O9 0.089782 0.106479 0.137523
O O10 0.081367 0.142891 0.328405
O O11 0.977947 0.162685 0.221296
O O12 0.395559 0.750000 0.500000
O O13 0.392511 0.876623 0.350812
O O14 0.495249 0.876705 0.459493
O O15 0.399408 0.003061 0.515311
O O16 0.706572 0.838283 0.095937
O O17 0.095352 0.250000 0.500000
#
# Coordination Sequence:
#
# PCOD9396845 Si02
#       8
#     8   8   8   8   4   8   8   8
#     4  11  21  38  56  86 117 156 198 237 289 346
#     4  11  24  40  59  86 115 157 205 249 289 345
#     4  10  23  34  57  89 121 155 190 237 304 358
#     4   9  19  33  56  81 112 152 196 240 292 345
#     4  10  21  38  64  80 107 150 205 246 270 324
#     4  11  23  37  58  86 123 158 190 240 302 364
#     4  11  22  38  58  85 118 153 198 243 286 353
#     4   9  17  34  54  81 113 151 197 245 283 344
#
# _framework density 18.710402999999999
#
# number of rings (size 3 to 8) (size 9 to 14) (size 15 to 20)
#    0.000    1.733    1.333    4.000    5.600    3.733 
#    0.000    0.000    0.000    0.400    0.000   26.133 
#    0.000    0.000    0.000    0.000    0.000    0.000 
#
# Total GULP energy -334574.296994 kJ/mol
# GULP energy per Si atom -5576.238283 kJ/mol
# Density = 1.866782 g / cm^3
# Si number density = 18.710403 Si / 1000 Ang^3
#
#
#
# Elastic Constant Matrix: (Units=GPa)
#
#
# Indices 1 2 3 4 5 6 
#
# 1 46.4220 14.4185 25.8761 0.0000 0.0000 0.0000
# 2 14.4185 127.7667 28.4854 0.0000 0.0000 0.0000
# 3 25.8761 28.4854 70.9991 0.0000 0.0000 0.0000
# 4 0.0000 0.0000 0.0000 29.1091 0.0000 0.0000
# 5 0.0000 0.0000 0.0000 0.0000 17.1667 0.0000
# 6 0.0000 0.0000 0.0000 0.0000 0.0000 6.2036
#
#
#
# Elastic Compliance Matrix: (Units=1/GPa)
#
#
# Indices 1 2 3 4 5 6 
#
# 1 0.027136 -0.000942 -0.009512 0.000000 0.000000 0.000000
# 2 -0.000942 0.008628 -0.003119 0.000000 0.000000 0.000000
# 3 -0.009512 -0.003119 0.018803 0.000000 0.000000 0.000000
# 4 0.000000 0.000000 0.000000 0.034354 0.000000 0.000000
# 5 0.000000 0.000000 0.000000 0.000000 0.058252 0.000000
# 6 0.000000 0.000000 0.000000 0.000000 0.000000 0.161197
#
#
# Mechanical properties :
#
#
# Convention : Reuss Voigt Hill
#
# Bulk Modulus (GPa) = 36.46651 42.52753 39.49702
# Shear Modulus (GPa) = 14.50722 22.25639 18.38180
#
# Velocity S-wave (km/s) = 2.78754 3.45268 3.13779
# Velocity P-wave (km/s) = 5.46743 6.21879 5.85518
#
# Compressibility (1/GPa) = 0.02742242
#
# Stress axis : x y z
#
# Youngs Moduli (GPa) = 36.85120 115.89758 53.18395
#
# Poissons Ratio (x) = 0.10913 0.50590
# Poissons Ratio (y) = 0.03470 0.16586
# Poissons Ratio (z) = 0.35054 0.36143
#
# Static dielectric constant tensor:
#      x y z
#    x 1.636560 0.000000 0.000000 
#    y 0.000000 1.672470 0.000000 
#    z 0.000000 0.000000 1.684740 
# 
# From -- ./inp_files/22438.got.cif
#   From: 2010.05.17/outbox.cif.g08.bks.cpg/sg50_12_cif.got.tgz:22438.got - 2010.06.03 11:33:33.
