data_PCOD9396174
_publ_section_title
;
Structure prediction by ZEFSAII (Michael W. Deem and Ramdas Pophale) SiO2 
 PCOD9396174
Probable space group: P B A N
;
_chemical_formula_sum "Si O2"
_cell_formula_units_Z 40
_cell_length_a 11.901069
_cell_length_b 17.718726
_cell_length_c 9.095654
_cell_angle_alpha 90.000000
_cell_angle_beta 90.000000
_cell_angle_gamma 90.000000
_cell_volume 1918.016756
_symmetry_space_group_name_H-M "P B A N"
_symmetry_group_IT_number 50
_space_group.IT_coordinate_system_code '2'
_symmetry_cell_setting 'orthorhombic'
loop_
_space_group_symop_operation_xyz
x,y,z
1/2-x,1/2-y,z
x,1/2-y,-z
1/2-x,y,-z
-x,-y,-z
1/2+x,1/2+y,-z
-x,1/2+y,z
1/2+x,-y,z
loop_
_atom_site_type_symbol
_atom_site_label
_atom_site_fract_x
_atom_site_fract_y
_atom_site_fract_z
Si Si1 0.843069 0.606060 0.627473
Si Si2 0.683240 0.320950 0.846291
Si Si3 0.205671 0.562577 0.335118
Si Si4 0.922224 0.771532 0.162689
Si Si5 0.014798 0.674321 0.411550
O O1 0.750000 0.617378 0.500000
O O2 0.831842 0.522569 0.693543
O O3 0.845973 0.665953 0.758736
O O4 0.955998 0.622642 0.534607
O O5 0.750000 0.250000 0.772395
O O6 0.699420 0.399866 0.764612
O O7 0.552119 0.300830 0.856091
O O8 0.750000 0.328674 0.000000
O O9 0.250000 0.561945 0.500000
O O10 0.105316 0.622579 0.332337
O O11 0.933034 0.705101 0.283698
O O12 0.884714 0.750000 0.000000
O O13 0.054312 0.750000 0.500000
#
# Coordination Sequence:
#
# PCOD9396174 Si02
#       5
#     8   8   8   8   8
#     4  10  24  42  56  84 131 170 210 263 312 364
#     4  11  20  37  64  97 134 150 199 267 330 379
#     4  11  21  35  60  92 125 163 207 261 323 380
#     4  11  21  40  68  95 118 168 215 263 319 387
#     4  10  20  34  59  86 119 162 210 260 310 364
#
# _framework density 20.854873999999999
#
# number of rings (size 3 to 8) (size 9 to 14) (size 15 to 20)
#    0.000    1.400    4.000    3.000    0.000    5.200 
#    0.000   10.000    0.000    0.000    0.000    0.000 
#    0.000    0.000    0.000    0.000    0.000    0.000 
#
# Total GULP energy -223286.963552 kJ/mol
# GULP energy per Si atom -5582.174089 kJ/mol
# Density = 2.080741 g / cm^3
# Si number density = 20.854874 Si / 1000 Ang^3
#
#
#
# Elastic Constant Matrix: (Units=GPa)
#
#
# Indices 1 2 3 4 5 6 
#
# 1 67.3074 37.7587 5.7964 0.0000 0.0000 0.0000
# 2 37.7587 143.4330 53.5644 0.0000 0.0000 0.0000
# 3 5.7964 53.5644 108.3731 0.0000 0.0000 0.0000
# 4 0.0000 0.0000 0.0000 -22.9947 0.0000 0.0000
# 5 0.0000 0.0000 0.0000 0.0000 27.7774 0.0000
# 6 0.0000 0.0000 0.0000 0.0000 0.0000 28.0547
#
#
#
# Elastic Compliance Matrix: (Units=1/GPa)
#
#
# Indices 1 2 3 4 5 6 
#
# 1 0.017672 -0.005272 0.001661 0.000000 0.000000 0.000000
# 2 -0.005272 0.010123 -0.004721 0.000000 0.000000 0.000000
# 3 0.001661 -0.004721 0.011472 0.000000 0.000000 0.000000
# 4 0.000000 0.000000 0.000000 -0.043488 0.000000 0.000000
# 5 0.000000 0.000000 0.000000 0.000000 0.036000 0.000000
# 6 0.000000 0.000000 0.000000 0.000000 0.000000 0.035645
#
#
# Mechanical properties :
#
#
# Convention : Reuss Voigt Hill
#
# Bulk Modulus (GPa) = 44.24572 57.03916 50.64244
# Shear Modulus (GPa) = 54.57103 21.36707 37.96905
#
# Velocity S-wave (km/s) = 5.12092 3.20435 4.27152
# Velocity P-wave (km/s) = 7.49848 6.41096 6.97594
#
# Compressibility (1/GPa) = 0.02260106
#
# Stress axis : x y z
#
# Youngs Moduli (GPa) = 56.58700 98.78470 87.16751
#
# Poissons Ratio (x) = 0.52082 -0.14476
# Poissons Ratio (y) = 0.29834 0.41155
# Poissons Ratio (z) = -0.09397 0.46640
#
# Static dielectric constant tensor:
#      x y z
#    x 1.834340 0.000000 0.000000 
#    y 0.000000 1.778560 0.000000 
#    z 0.000000 0.000000 1.756500 
# 
# From -- ./inp_files/11012.got.cif
#   From: 2010.05.17/outbox.cif.g08.bks.cpg/sg50_6_cif.got.tgz:11012.got - 2010.06.03 11:33:33.
