data_PCOD9396705
_publ_section_title
;
Structure prediction by ZEFSAII (Michael W. Deem and Ramdas Pophale) SiO2 
 PCOD9396705
Probable space group: P B A N
;
_chemical_formula_sum "Si O2"
_cell_formula_units_Z 56
_cell_length_a 12.828310
_cell_length_b 21.399418
_cell_length_c 10.895796
_cell_angle_alpha 90.000000
_cell_angle_beta 90.000000
_cell_angle_gamma 90.000000
_cell_volume 2991.096135
_symmetry_space_group_name_H-M "P B A N"
_symmetry_group_IT_number 50
_space_group.IT_coordinate_system_code '2'
_symmetry_cell_setting 'orthorhombic'
loop_
_space_group_symop_operation_xyz
x,y,z
1/2-x,1/2-y,z
x,1/2-y,-z
1/2-x,y,-z
-x,-y,-z
1/2+x,1/2+y,-z
-x,1/2+y,z
1/2+x,-y,z
loop_
_atom_site_type_symbol
_atom_site_label
_atom_site_fract_x
_atom_site_fract_y
_atom_site_fract_z
Si Si1 0.657638 0.675578 0.284021
Si Si2 0.641461 0.907698 0.929820
Si Si3 0.922264 0.589538 0.520572
Si Si4 0.404180 0.309761 0.309416
Si Si5 0.220289 0.537273 0.144573
Si Si6 0.902815 0.485598 0.334247
Si Si7 0.995642 0.410409 0.844527
O O1 0.615871 0.650561 0.155222
O O2 0.651101 0.620026 0.380305
O O3 0.590489 0.735337 0.326933
O O4 0.781342 0.685583 0.277715
O O5 0.668900 0.968179 0.848115
O O6 0.750000 0.894403 0.000000
O O7 0.549516 0.922997 0.024346
O O8 0.937310 0.646399 0.423439
O O9 0.873346 0.531601 0.446619
O O10 0.022754 0.564829 0.597892
O O11 0.463925 0.342926 0.198491
O O12 0.311684 0.540732 0.245898
O O13 0.128024 0.586169 0.161862
O O14 0.250000 0.541425 0.000000
O O15 0.963554 0.534473 0.245343
#
# Coordination Sequence:
#
# PCOD9396705 Si02
#       7
#     8   8   8   8   8   8   8
#     4  11  21  35  60  84 118 158 195 245 302 356
#     4  11  19  35  58  88 120 159 200 243 299 372
#     4  10  21  36  59  84 121 153 201 243 301 364
#     4  10  22  38  53  86 118 156 196 245 297 363
#     4  11  22  35  60  89 126 160 199 247 308 367
#     4  10  21  38  57  89 118 159 194 248 305 366
#     4  11  21  37  55  85 126 154 200 246 302 367
#
# _framework density 18.722234
#
# number of rings (size 3 to 8) (size 9 to 14) (size 15 to 20)
#    0.000    1.429    4.286    3.000    2.000    2.857 
#    0.000    7.143    0.000    0.857    0.000    4.000 
#    0.000    0.000    0.000    0.000    0.000    0.000 
#
# Total GULP energy -311995.122105 kJ/mol
# GULP energy per Si atom -5571.341466 kJ/mol
# Density = 1.867962 g / cm^3
# Si number density = 18.722234 Si / 1000 Ang^3
#
#
#
# Elastic Constant Matrix: (Units=GPa)
#
#
# Indices 1 2 3 4 5 6 
#
# 1 90.3267 38.1039 39.3227 0.0000 0.0000 0.0000
# 2 38.1039 74.7185 35.2887 0.0000 0.0000 0.0000
# 3 39.3227 35.2887 82.6511 0.0000 0.0000 0.0000
# 4 0.0000 0.0000 0.0000 8.9864 0.0000 0.0000
# 5 0.0000 0.0000 0.0000 0.0000 26.6969 0.0000
# 6 0.0000 0.0000 0.0000 0.0000 0.0000 16.0122
#
#
#
# Elastic Compliance Matrix: (Units=1/GPa)
#
#
# Indices 1 2 3 4 5 6 
#
# 1 0.015624 -0.005583 -0.005050 0.000000 0.000000 0.000000
# 2 -0.005583 0.018759 -0.005353 0.000000 0.000000 0.000000
# 3 -0.005050 -0.005353 0.016787 0.000000 0.000000 0.000000
# 4 0.000000 0.000000 0.000000 0.111279 0.000000 0.000000
# 5 0.000000 0.000000 0.000000 0.000000 0.037458 0.000000
# 6 0.000000 0.000000 0.000000 0.000000 0.000000 0.062452
#
#
# Mechanical properties :
#
#
# Convention : Reuss Voigt Hill
#
# Bulk Modulus (GPa) = 52.08706 52.56965 52.32835
# Shear Modulus (GPa) = 16.62616 19.33784 17.98200
#
# Velocity S-wave (km/s) = 2.98324 3.21733 3.10249
# Velocity P-wave (km/s) = 6.30457 6.47621 6.39097
#
# Compressibility (1/GPa) = 0.01919863
#
# Stress axis : x y z
#
# Youngs Moduli (GPa) = 64.00206 53.30808 59.56915
#
# Poissons Ratio (x) = 0.29761 0.30082
# Poissons Ratio (y) = 0.35732 0.31888
# Poissons Ratio (z) = 0.32321 0.28536
#
# Static dielectric constant tensor:
#      x y z
#    x 1.641200 0.000000 0.000000 
#    y 0.000000 1.680730 0.000000 
#    z 0.000000 0.000000 1.826920 
# 
# From -- ./inp_files/20388.got.cif
#   From: 2010.05.17/outbox.cif.g08.bks.cpg/sg50_11_cif.got.tgz:20388.got - 2010.06.03 11:33:33.
