data_PCOD9396221
_publ_section_title
;
Structure prediction by ZEFSAII (Michael W. Deem and Ramdas Pophale) SiO2 
 PCOD9396221
Probable space group: P B A N
;
_chemical_formula_sum "Si O2"
_cell_formula_units_Z 56
_cell_length_a 17.491091
_cell_length_b 32.982359
_cell_length_c 5.001715
_cell_angle_alpha 90.000000
_cell_angle_beta 90.000000
_cell_angle_gamma 90.000000
_cell_volume 2885.476592
_symmetry_space_group_name_H-M "P B A N"
_symmetry_group_IT_number 50
_space_group.IT_coordinate_system_code '2'
_symmetry_cell_setting 'orthorhombic'
loop_
_space_group_symop_operation_xyz
x,y,z
1/2-x,1/2-y,z
x,1/2-y,-z
1/2-x,y,-z
-x,-y,-z
1/2+x,1/2+y,-z
-x,1/2+y,z
1/2+x,-y,z
loop_
_atom_site_type_symbol
_atom_site_label
_atom_site_fract_x
_atom_site_fract_y
_atom_site_fract_z
Si Si1 0.947698 0.488749 0.256475
Si Si2 0.840849 0.364206 0.014314
Si Si3 0.695849 0.638988 0.753488
Si Si4 0.458976 0.335067 0.525806
Si Si5 0.196976 0.453333 0.761794
Si Si6 0.416294 0.598716 0.504906
Si Si7 0.965749 0.297520 0.959681
O O1 0.874446 0.517519 0.257448
O O2 0.923337 0.443415 0.344667
O O3 0.000000 0.500000 0.500000
O O4 0.000000 0.500000 0.000000
O O5 0.879737 0.396207 0.801510
O O6 0.886605 0.322291 0.972910
O O7 0.750000 0.362243 0.000000
O O8 0.861110 0.375774 0.315807
O O9 0.750000 0.635050 0.500000
O O10 0.623212 0.661533 0.620583
O O11 0.672010 0.592953 0.830075
O O12 0.750000 0.654687 0.000000
O O13 0.501391 0.378673 0.499558
O O14 0.504515 0.304625 0.337788
O O15 0.474423 0.318802 0.827544
O O16 0.250000 0.453293 0.500000
O O17 0.250000 0.468208 0.000000
O O18 0.958349 0.250000 0.000000
#
# Coordination Sequence:
#
# PCOD9396221 Si02
#       7
#     8   8   8   8   8   8   8
#     4  12  24  38  58  83 114 153 199 244 291 343
#     4  10  21  38  59  86 118 154 199 242 285 346
#     4  10  20  35  58  83 108 142 186 233 281 335
#     4  10  20  37  59  83 116 148 189 237 286 352
#     4  10  22  38  55  81 115 150 190 241 294 340
#     4  10  22  37  56  83 115 157 196 240 293 344
#     4  10  21  37  60  88 117 153 190 232 289 346
#
# _framework density 19.407540000000001
#
# number of rings (size 3 to 8) (size 9 to 14) (size 15 to 20)
#    0.000    1.714    0.000    4.286    0.000    6.571 
#    0.000    0.000    0.000   11.571    0.000    0.000 
#    0.000    0.000    0.000    0.000    0.000    0.000 
#
# Total GULP energy -311855.015210 kJ/mol
# GULP energy per Si atom -5568.839557 kJ/mol
# Density = 1.936337 g / cm^3
# Si number density = 19.407540 Si / 1000 Ang^3
#
#
#
# Elastic Constant Matrix: (Units=GPa)
#
#
# Indices 1 2 3 4 5 6 
#
# 1 96.8126 21.2979 18.6252 0.0000 0.0000 0.0000
# 2 21.2979 62.4131 -10.2146 0.0000 0.0000 0.0000
# 3 18.6252 -10.2146 111.2109 0.0000 0.0000 0.0000
# 4 0.0000 0.0000 0.0000 12.5852 0.0000 0.0000
# 5 0.0000 0.0000 0.0000 0.0000 29.4091 0.0000
# 6 0.0000 0.0000 0.0000 0.0000 0.0000 -0.0701
#
#
#
# Elastic Compliance Matrix: (Units=1/GPa)
#
#
# Indices 1 2 3 4 5 6 
#
# 1 0.011753 -0.004399 -0.002372 0.000000 0.000000 0.000000
# 2 -0.004399 0.017913 0.002382 0.000000 0.000000 0.000000
# 3 -0.002372 0.002382 0.009608 0.000000 0.000000 0.000000
# 4 0.000000 0.000000 0.000000 0.079458 0.000000 0.000000
# 5 0.000000 0.000000 0.000000 0.000000 0.034003 0.000000
# 6 0.000000 0.000000 0.000000 0.000000 0.000000-14.271843
#
#
# Mechanical properties :
#
#
# Convention : Reuss Voigt Hill
#
# Bulk Modulus (GPa) = 32.79138 36.65040 34.72089
# Shear Modulus (GPa) = -0.35461 24.43339 12.03939
#
# Velocity S-wave (km/s) = -0.42792 3.55204 2.49338
# Velocity P-wave (km/s) = 4.08518 5.97898 5.12040
#
# Compressibility (1/GPa) = 0.03049582
#
# Stress axis : x y z
#
# Youngs Moduli (GPa) = 85.08176 55.82463 104.07942
#
# Poissons Ratio (x) = 0.24557 0.24692
# Poissons Ratio (y) = 0.37428 -0.24792
# Poissons Ratio (z) = 0.20185 -0.13298
#
# Static dielectric constant tensor:
#      x y z
#    x 1.597990 0.000000 0.000000 
#    y 0.000000 1.511260 0.000000 
#    z 0.000000 0.000000 1.648830 
# 
# From -- ./inp_files/3739.got.cif
#   From: 2010.05.17/outbox.cif.g08.bks.cpg/sg50_2_cif.got.tgz:3739.got - 2010.06.03 11:33:33.
