data_PCOD9396870
_publ_section_title
;
Structure prediction by ZEFSAII (Michael W. Deem and Ramdas Pophale) SiO2 
 PCOD9396870
Probable space group: P B A N
;
_chemical_formula_sum "Si O2"
_cell_formula_units_Z 48
_cell_length_a 29.750398
_cell_length_b 9.906068
_cell_length_c 8.926820
_cell_angle_alpha 90.000000
_cell_angle_beta 90.000000
_cell_angle_gamma 90.000000
_cell_volume 2630.818352
_symmetry_space_group_name_H-M "P B A N"
_symmetry_group_IT_number 50
_space_group.IT_coordinate_system_code '2'
_symmetry_cell_setting 'orthorhombic'
loop_
_space_group_symop_operation_xyz
x,y,z
1/2-x,1/2-y,z
x,1/2-y,-z
1/2-x,y,-z
-x,-y,-z
1/2+x,1/2+y,-z
-x,1/2+y,z
1/2+x,-y,z
loop_
_atom_site_type_symbol
_atom_site_label
_atom_site_fract_x
_atom_site_fract_y
_atom_site_fract_z
Si Si1 0.330172 0.167022 0.357285
Si Si2 0.477192 0.115497 0.903717
Si Si3 0.476826 0.620050 0.586046
Si Si4 0.625461 0.572787 0.807050
Si Si5 0.873913 0.096472 0.510063
Si Si6 0.702627 0.906758 0.955666
O O1 0.310171 0.250000 0.500000
O O2 0.360490 0.283701 0.273781
O O3 0.300992 0.103705 0.223378
O O4 0.353142 0.032845 0.424455
O O5 0.506736 0.128168 0.754595
O O6 0.425460 0.085040 0.863407
O O7 0.478078 0.250000 0.000000
O O8 0.500000 0.000000 0.000000
O O9 0.493838 0.750000 0.500000
O O10 0.500000 0.500000 0.500000
O O11 0.423686 0.609611 0.560242
O O12 0.626338 0.455241 0.681971
O O13 0.660081 0.544297 0.944687
O O14 0.854319 0.250000 0.500000
O O15 0.704611 0.750000 0.000000
O O16 0.750000 0.972975 0.000000
#
# Coordination Sequence:
#
# PCOD9396870 Si02
#       6
#     8   8   8   8   8   8
#     4   9  19  36  63  88 114 154 193 242 297 356
#     4  12  26  38  56  88 123 157 204 250 298 354
#     4  11  23  38  57  79 115 162 205 247 292 347
#     4  10  21  39  59  86 117 155 195 245 302 357
#     4  10  22  38  58  82 115 157 204 244 290 348
#     4   9  18  36  62  92 121 147 189 250 306 357
#
# _framework density 18.245274999999999
#
# number of rings (size 3 to 8) (size 9 to 14) (size 15 to 20)
#    0.000    1.833    1.667    2.500    9.333    0.000 
#    0.000   15.000    0.000    3.000    0.000    0.000 
#    0.000    0.000    0.000    0.000    0.000    0.000 
#
# Total GULP energy -267242.093465 kJ/mol
# GULP energy per Si atom -5567.543614 kJ/mol
# Density = 1.820375 g / cm^3
# Si number density = 18.245275 Si / 1000 Ang^3
#
#
#
# Elastic Constant Matrix: (Units=GPa)
#
#
# Indices 1 2 3 4 5 6 
#
# 1 75.4081 23.0932 59.1562 0.0000 0.0000 0.0000
# 2 23.0932 127.7523 54.1391 0.0000 0.0000 0.0000
# 3 59.1562 54.1391 168.9612 0.0000 0.0000 0.0000
# 4 0.0000 0.0000 0.0000 31.6968 0.0000 0.0000
# 5 0.0000 0.0000 0.0000 0.0000 15.8979 0.0000
# 6 0.0000 0.0000 0.0000 0.0000 0.0000 6.7743
#
#
#
# Elastic Compliance Matrix: (Units=1/GPa)
#
#
# Indices 1 2 3 4 5 6 
#
# 1 0.018335 -0.000687 -0.006199 0.000000 0.000000 0.000000
# 2 -0.000687 0.009083 -0.002670 0.000000 0.000000 0.000000
# 3 -0.006199 -0.002670 0.008944 0.000000 0.000000 0.000000
# 4 0.000000 0.000000 0.000000 0.031549 0.000000 0.000000
# 5 0.000000 0.000000 0.000000 0.000000 0.062901 0.000000
# 6 0.000000 0.000000 0.000000 0.000000 0.000000 0.147617
#
#
# Mechanical properties :
#
#
# Convention : Reuss Voigt Hill
#
# Bulk Modulus (GPa) = 57.97091 71.65539 64.81315
# Shear Modulus (GPa) = 16.48575 26.58934 21.53754
#
# Velocity S-wave (km/s) = 3.00919 3.82164 3.43949
# Velocity P-wave (km/s) = 6.62690 7.67019 7.16755
#
# Compressibility (1/GPa) = 0.01725003
#
# Stress axis : x y z
#
# Youngs Moduli (GPa) = 54.54143 110.09175 111.80147
#
# Poissons Ratio (x) = 0.07566 0.69307
# Poissons Ratio (y) = 0.03748 0.29850
# Poissons Ratio (z) = 0.33811 0.29393
#
# Static dielectric constant tensor:
#      x y z
#    x 1.658820 0.000000 0.000000 
#    y 0.000000 1.609260 0.000000 
#    z 0.000000 0.000000 1.660980 
# 
# From -- ./inp_files/10067.got.cif
#   From: 2010.05.17/outbox.cif.g08.bks.cpg/sg50_6_cif.got.tgz:10067.got - 2010.06.03 11:33:33.
