data_PCOD9396894
_publ_section_title
;
Structure prediction by ZEFSAII (Michael W. Deem and Ramdas Pophale) SiO2 
 PCOD9396894
Probable space group: P B A N
;
_chemical_formula_sum "Si O2"
_cell_formula_units_Z 64
_cell_length_a 21.517106
_cell_length_b 8.672835
_cell_length_c 17.459148
_cell_angle_alpha 90.000000
_cell_angle_beta 90.000000
_cell_angle_gamma 90.000000
_cell_volume 3258.126857
_symmetry_space_group_name_H-M "P B A N"
_symmetry_group_IT_number 50
_space_group.IT_coordinate_system_code '2'
_symmetry_cell_setting 'orthorhombic'
loop_
_space_group_symop_operation_xyz
x,y,z
1/2-x,1/2-y,z
x,1/2-y,-z
1/2-x,y,-z
-x,-y,-z
1/2+x,1/2+y,-z
-x,1/2+y,z
1/2+x,-y,z
loop_
_atom_site_type_symbol
_atom_site_label
_atom_site_fract_x
_atom_site_fract_y
_atom_site_fract_z
Si Si1 0.317913 0.933007 0.479002
Si Si2 0.821688 0.196122 0.084828
Si Si3 0.769432 0.577094 0.830542
Si Si4 0.945426 0.040893 0.558645
Si Si5 0.643647 0.559092 0.317005
Si Si6 0.362475 0.922143 0.791678
Si Si7 0.566985 0.230445 0.679956
Si Si8 0.061348 0.160624 0.290776
O O1 0.317655 0.750000 0.500000
O O2 0.250000 0.994139 0.500000
O O3 0.378551 0.996914 0.522499
O O4 0.325845 0.981283 0.390975
O O5 0.750000 0.250000 0.093884
O O6 0.865402 0.289223 0.143729
O O7 0.810960 0.016792 0.107028
O O8 0.839996 0.250000 0.000000
O O9 0.750000 0.750000 0.853665
O O10 0.810144 0.570522 0.753852
O O11 0.704796 0.494549 0.806952
O O12 0.943285 0.216172 0.592171
O O13 0.955220 0.948165 0.637431
O O14 0.000000 0.000000 0.500000
O O15 0.586633 0.443162 0.304229
O O16 0.614173 0.727224 0.323586
O O17 0.375312 0.829865 0.712944
O O18 0.411230 0.062343 0.779995
O O19 0.502204 0.252801 0.724738
#
# Coordination Sequence:
#
# PCOD9396894 Si02
#       8
#     8   8   8   8   8   8   8   8
#     4  11  25  39  58  85 116 163 218 274 330 396
#     4   9  19  39  68 100 131 170 208 247 317 401
#     4  11  22  39  66  99 136 169 209 268 324 387
#     4  11  24  43  61  83 123 168 226 281 341 394
#     4  12  23  38  61  89 125 162 213 274 330 385
#     4  10  21  39  63  93 128 167 210 259 321 394
#     4  11  22  39  63  88 116 173 221 270 322 390
#     4  11  24  39  61  90 122 166 222 279 324 381
#
# _framework density 19.643189
#
# number of rings (size 3 to 8) (size 9 to 14) (size 15 to 20)
#    0.000    1.250    3.750    3.000    3.500    1.500 
#    0.000    6.250    0.000    0.750    0.000    0.000 
#    0.000    0.000    0.000    0.000    0.000    0.000 
#
# Total GULP energy -356480.495188 kJ/mol
# GULP energy per Si atom -5570.007737 kJ/mol
# Density = 1.959848 g / cm^3
# Si number density = 19.643189 Si / 1000 Ang^3
#
#
#
# Elastic Constant Matrix: (Units=GPa)
#
#
# Indices 1 2 3 4 5 6 
#
# 1 104.6190 26.6054 35.3635 0.0000 0.0000 0.0000
# 2 26.6054 103.0489 45.4778 0.0000 0.0000 0.0000
# 3 35.3635 45.4778 85.2125 0.0000 0.0000 0.0000
# 4 0.0000 0.0000 0.0000 -0.8523 0.0000 0.0000
# 5 0.0000 0.0000 0.0000 0.0000 21.4615 0.0000
# 6 0.0000 0.0000 0.0000 0.0000 0.0000 27.1189
#
#
#
# Elastic Compliance Matrix: (Units=1/GPa)
#
#
# Indices 1 2 3 4 5 6 
#
# 1 0.011213 -0.001101 -0.004066 0.000000 0.000000 0.000000
# 2 -0.001101 0.012802 -0.006376 0.000000 0.000000 0.000000
# 3 -0.004066 -0.006376 0.016825 0.000000 0.000000 0.000000
# 4 0.000000 0.000000 0.000000 -1.173332 0.000000 0.000000
# 5 0.000000 0.000000 0.000000 0.000000 0.046595 0.000000
# 6 0.000000 0.000000 0.000000 0.000000 0.000000 0.036875
#
#
# Mechanical properties :
#
#
# Convention : Reuss Voigt Hill
#
# Bulk Modulus (GPa) = 56.31957 56.41932 56.36944
# Shear Modulus (GPa) = -4.90187 21.90786 8.50300
#
# Velocity S-wave (km/s) = -1.58141 3.34322 2.08282
# Velocity P-wave (km/s) = 5.03975 6.60963 5.87734
#
# Compressibility (1/GPa) = 0.01775582
#
# Stress axis : x y z
#
# Youngs Moduli (GPa) = 89.18414 78.11278 59.43374
#
# Poissons Ratio (x) = 0.08596 0.24166
# Poissons Ratio (y) = 0.09815 0.37893
# Poissons Ratio (z) = 0.36262 0.49802
#
# Static dielectric constant tensor:
#      x y z
#    x 1.741720 0.000000 0.000000 
#    y 0.000000 1.812710 0.000000 
#    z 0.000000 0.000000 1.696880 
# 
# From -- ./inp_files/29879.got.cif
#   From: 2010.05.17/outbox.cif.g08.bks.cpg/sg50_15_cif.got.tgz:29879.got - 2010.06.03 11:33:33.
