data_PCOD9396640
_publ_section_title
;
Structure prediction by ZEFSAII (Michael W. Deem and Ramdas Pophale) SiO2 
 PCOD9396640
Probable space group: P B A N
;
_chemical_formula_sum "Si O2"
_cell_formula_units_Z 48
_cell_length_a 5.187839
_cell_length_b 28.876660
_cell_length_c 16.151092
_cell_angle_alpha 90.000000
_cell_angle_beta 90.000000
_cell_angle_gamma 90.000000
_cell_volume 2419.554116
_symmetry_space_group_name_H-M "P B A N"
_symmetry_group_IT_number 50
_space_group.IT_coordinate_system_code '2'
_symmetry_cell_setting 'orthorhombic'
loop_
_space_group_symop_operation_xyz
x,y,z
1/2-x,1/2-y,z
x,1/2-y,-z
1/2-x,y,-z
-x,-y,-z
1/2+x,1/2+y,-z
-x,1/2+y,z
1/2+x,-y,z
loop_
_atom_site_type_symbol
_atom_site_label
_atom_site_fract_x
_atom_site_fract_y
_atom_site_fract_z
Si Si1 0.217514 0.171124 0.296133
Si Si2 0.280177 0.613209 0.274411
Si Si3 0.781801 0.467436 0.407369
Si Si4 0.680324 0.698669 0.887744
Si Si5 0.176305 0.861059 0.087163
Si Si6 0.992627 0.802104 0.536050
O O1 0.506433 0.150995 0.306062
O O2 0.212840 0.198290 0.211064
O O3 0.014222 0.129480 0.285481
O O4 0.080376 0.200193 0.368438
O O5 0.305597 0.568962 0.332880
O O6 0.320557 0.610795 0.174229
O O7 0.750000 0.445761 0.500000
O O8 0.531851 0.500070 0.401574
O O9 0.750000 0.750000 0.915783
O O10 0.394267 0.679335 0.904530
O O11 0.897456 0.662860 0.918961
O O12 0.250000 0.885288 0.000000
O O13 0.996222 0.750000 0.500000
O O14 0.250000 0.823788 0.500000
O O15 0.750000 0.829288 0.500000
#
# Coordination Sequence:
#
# PCOD9396640 Si02
#       6
#     8   8   8   8   8   8
#     4  10  21  36  52  75 110 147 191 233 275 331
#     4  10  21  38  59  83 111 145 183 227 278 336
#     4  10  21  38  62  89 114 143 175 221 277 334
#     4  10  21  34  53  78 105 149 192 244 285 328
#     4  10  21  37  55  81 111 146 188 232 290 336
#     4  10  21  34  47  70  98 144 191 233 279 326
#
# _framework density 19.838366000000001
#
# number of rings (size 3 to 8) (size 9 to 14) (size 15 to 20)
#    0.000    2.000    0.000    3.000    2.333    4.000 
#    6.000    0.000    0.000    1.000    0.000    0.000 
#    0.000    0.000    0.000    0.000    0.000    0.000 
#
# Total GULP energy -267431.829702 kJ/mol
# GULP energy per Si atom -5571.496452 kJ/mol
# Density = 1.979321 g / cm^3
# Si number density = 19.838366 Si / 1000 Ang^3
#
#
#
# Elastic Constant Matrix: (Units=GPa)
#
#
# Indices 1 2 3 4 5 6 
#
# 1 137.3498 8.4613 22.5156 0.0000 0.0000 0.0000
# 2 8.4613 53.8977 48.0822 0.0000 0.0000 0.0000
# 3 22.5156 48.0822 186.8207 0.0000 0.0000 0.0000
# 4 0.0000 0.0000 0.0000-6138.0966 0.0000 0.0000
# 5 0.0000 0.0000 0.0000 0.0000 36.7070 0.0000
# 6 0.0000 0.0000 0.0000 0.0000 0.0000 -23.4902
#
#
#
# Elastic Compliance Matrix: (Units=1/GPa)
#
#
# Indices 1 2 3 4 5 6 
#
# 1 0.007437 -0.000478 -0.000773 0.000000 0.000000 0.000000
# 2 -0.000478 0.024114 -0.006149 0.000000 0.000000 0.000000
# 3 -0.000773 -0.006149 0.007028 0.000000 0.000000 0.000000
# 4 0.000000 0.000000 0.000000 -0.000163 0.000000 0.000000
# 5 0.000000 0.000000 0.000000 0.000000 0.027243 0.000000
# 6 0.000000 0.000000 0.000000 0.000000 0.000000 -0.042571
#
#
# Mechanical properties :
#
#
# Convention : Reuss Voigt Hill
#
# Bulk Modulus (GPa) = 42.05222 59.57625 50.81423
# Shear Modulus (GPa) = 109.13732 -1205.04203 -547.95236
#
# Velocity S-wave (km/s) = 7.42514 -24.67283 -16.63755
# Velocity P-wave (km/s) = 9.73415 27.95656 18.53126
#
# Compressibility (1/GPa) = 0.02377996
#
# Stress axis : x y z
#
# Youngs Moduli (GPa) = 134.46497 41.46998 142.27970
#
# Poissons Ratio (x) = 0.01980 0.11004
# Poissons Ratio (y) = 0.06422 0.87483
# Poissons Ratio (z) = 0.10399 0.25498
#
# Static dielectric constant tensor:
#      x y z
#    x 1.786520 0.000000 0.000000 
#    y 0.000000 1.668060 0.000000 
#    z 0.000000 0.000000 1.883730 
# 
# From -- ./inp_files/24086.got.cif
#   From: 2010.05.17/outbox.cif.g08.bks.cpg/sg50_13_cif.got.tgz:24086.got - 2010.06.03 11:33:33.
