data_PCOD9396660
_publ_section_title
;
Structure prediction by ZEFSAII (Michael W. Deem and Ramdas Pophale) SiO2 
 PCOD9396660
Probable space group: P B A N
;
_chemical_formula_sum "Si O2"
_cell_formula_units_Z 40
_cell_length_a 28.394725
_cell_length_b 12.655434
_cell_length_c 4.874613
_cell_angle_alpha 90.000000
_cell_angle_beta 90.000000
_cell_angle_gamma 90.000000
_cell_volume 1751.680327
_symmetry_space_group_name_H-M "P B A N"
_symmetry_group_IT_number 50
_space_group.IT_coordinate_system_code '2'
_symmetry_cell_setting 'orthorhombic'
loop_
_space_group_symop_operation_xyz
x,y,z
1/2-x,1/2-y,z
x,1/2-y,-z
1/2-x,y,-z
-x,-y,-z
1/2+x,1/2+y,-z
-x,1/2+y,z
1/2+x,-y,z
loop_
_atom_site_type_symbol
_atom_site_label
_atom_site_fract_x
_atom_site_fract_y
_atom_site_fract_z
Si Si1 0.445770 0.174003 0.251176
Si Si2 0.805029 0.637526 0.563812
Si Si3 0.950587 0.364280 0.358226
Si Si4 0.304137 0.497956 0.059843
Si Si5 0.400519 0.541544 0.851738
O O1 0.429761 0.250000 0.500000
O O2 0.493419 0.116679 0.355865
O O3 0.411225 0.084345 0.131859
O O4 0.459461 0.250000 0.000000
O O5 0.827375 0.750000 0.500000
O O6 0.750000 0.646074 0.500000
O O7 0.817278 0.538294 0.367458
O O8 0.807488 0.608710 0.880266
O O9 0.945109 0.250000 0.500000
O O10 0.917131 0.435213 0.545624
O O11 0.932991 0.388542 0.052117
O O12 0.250000 0.535957 0.000000
O O13 0.346707 0.565966 0.935260
#
# Coordination Sequence:
#
# PCOD9396660 Si02
#       5
#     8   8   8   8   8
#     4  11  23  40  62  95 131 159 193 245 307 377
#     4   9  17  31  50  73 107 153 198 236 282 346
#     4  11  23  42  64  88 117 156 207 259 309 361
#     4  10  21  35  53  81 116 156 199 246 297 349
#     4  12  23  39  64  90 121 163 204 247 304 367
#
# _framework density 22.835218000000001
#
# number of rings (size 3 to 8) (size 9 to 14) (size 15 to 20)
#    0.000    1.400    0.000    7.200    0.000    4.800 
#    0.000    0.000    0.000    3.600    0.000    0.000 
#    0.000    0.000    0.000    0.000    0.000    0.000 
#
# Total GULP energy -223116.174827 kJ/mol
# GULP energy per Si atom -5577.904371 kJ/mol
# Density = 2.278324 g / cm^3
# Si number density = 22.835218 Si / 1000 Ang^3
#
#
#
# Elastic Constant Matrix: (Units=GPa)
#
#
# Indices 1 2 3 4 5 6 
#
# 1 172.8401 25.6032 4.6313 0.0000 0.0000 0.0000
# 2 25.6032 37.1679 4.4552 0.0000 0.0000 0.0000
# 3 4.6313 4.4552 89.9554 0.0000 0.0000 0.0000
# 4 0.0000 0.0000 0.0000 -50.0446 0.0000 0.0000
# 5 0.0000 0.0000 0.0000 0.0000 3.7286 0.0000
# 6 0.0000 0.0000 0.0000 0.0000 0.0000 2.0944
#
#
#
# Elastic Compliance Matrix: (Units=1/GPa)
#
#
# Indices 1 2 3 4 5 6 
#
# 1 0.006444 -0.004426 -0.000113 0.000000 0.000000 0.000000
# 2 -0.004426 0.030105 -0.001263 0.000000 0.000000 0.000000
# 3 -0.000113 -0.001263 0.011185 0.000000 0.000000 0.000000
# 4 0.000000 0.000000 0.000000 -0.019982 0.000000 0.000000
# 5 0.000000 0.000000 0.000000 0.000000 0.268196 0.000000
# 6 0.000000 0.000000 0.000000 0.000000 0.000000 0.477457
#
#
# Mechanical properties :
#
#
# Convention : Reuss Voigt Hill
#
# Bulk Modulus (GPa) = 27.67672 41.03808 34.35740
# Shear Modulus (GPa) = 6.27312 8.84060 7.55686
#
# Velocity S-wave (km/s) = 1.65924 1.96974 1.82112
# Velocity P-wave (km/s) = 3.97710 4.81493 4.41593
#
# Compressibility (1/GPa) = 0.03613145
#
# Stress axis : x y z
#
# Youngs Moduli (GPa) = 155.17588 33.21706 89.40564
#
# Poissons Ratio (x) = 0.14701 0.01007
# Poissons Ratio (y) = 0.68676 0.11293
# Poissons Ratio (z) = 0.01747 0.04196
#
# Static dielectric constant tensor:
#      x y z
#    x 1.906460 0.000000 0.000000 
#    y 0.000000 1.900770 0.000000 
#    z 0.000000 0.000000 1.871690 
# 
# From -- ./inp_files/6419.got.cif
#   From: 2010.05.17/outbox.cif.g08.bks.cpg/sg50_4_cif.got.tgz:6419.got - 2010.06.03 11:33:33.
