data_PCOD9396134
_publ_section_title
;
Structure prediction by ZEFSAII (Michael W. Deem and Ramdas Pophale) SiO2 
 PCOD9396134
Probable space group: P B A N
;
_chemical_formula_sum "Si O2"
_cell_formula_units_Z 64
_cell_length_a 16.869677
_cell_length_b 23.840313
_cell_length_c 9.519407
_cell_angle_alpha 90.000000
_cell_angle_beta 90.000000
_cell_angle_gamma 90.000000
_cell_volume 3828.499685
_symmetry_space_group_name_H-M "P B A N"
_symmetry_group_IT_number 50
_space_group.IT_coordinate_system_code '2'
_symmetry_cell_setting 'orthorhombic'
loop_
_space_group_symop_operation_xyz
x,y,z
1/2-x,1/2-y,z
x,1/2-y,-z
1/2-x,y,-z
-x,-y,-z
1/2+x,1/2+y,-z
-x,1/2+y,z
1/2+x,-y,z
loop_
_atom_site_type_symbol
_atom_site_label
_atom_site_fract_x
_atom_site_fract_y
_atom_site_fract_z
Si Si1 0.367129 0.820952 0.363309
Si Si2 0.968697 0.894999 0.340970
Si Si3 0.085408 0.701414 0.675017
Si Si4 0.816748 0.539312 0.613047
Si Si5 0.938416 0.059211 0.389488
Si Si6 0.969203 0.489452 0.155976
Si Si7 0.774514 0.155816 0.836833
Si Si8 0.782936 0.023644 0.843611
O O1 0.364334 0.814738 0.533071
O O2 0.421958 0.768292 0.321409
O O3 0.400390 0.882910 0.336393
O O4 0.288025 0.816338 0.270686
O O5 0.876145 0.909561 0.353797
O O6 0.003343 0.832441 0.335753
O O7 0.009404 0.924347 0.476396
O O8 0.002717 0.928286 0.207382
O O9 0.139160 0.680447 0.803302
O O10 0.750000 0.553123 0.500000
O O11 0.872174 0.486489 0.566530
O O12 0.770905 0.515327 0.747137
O O13 0.989479 0.031498 0.265985
O O14 0.874744 0.492966 0.163598
O O15 0.000000 0.500000 0.000000
O O16 0.776256 0.089302 0.803182
O O17 0.750000 0.163302 0.000000
O O18 0.750000 0.019335 0.000000
#
# Coordination Sequence:
#
# PCOD9396134 Si02
#       8
#     8   8   8   8   8   8   8   8
#     4  10  21  35  54  75 100 144 185 223 258 315
#     4  10  20  35  51  74 104 139 178 221 263 314
#     4  10  21  37  53  72 104 145 187 221 259 313
#     4  11  20  31  53  78 104 136 173 220 268 319
#     4  10  20  34  51  76 104 135 174 218 265 316
#     4  11  21  34  53  74 105 139 173 213 268 325
#     4  11  22  33  49  74 110 142 178 218 261 311
#     4  11  21  33  48  75 105 140 171 209 263 315
#
# _framework density 16.716730999999999
#
# number of rings (size 3 to 8) (size 9 to 14) (size 15 to 20)
#    0.000    1.500    2.500    5.250    3.500    2.000 
#    0.000    0.000    0.000    0.000    0.000   14.875 
#    0.000    1.000    0.000    0.000    0.000    0.000 
#
# Total GULP energy -357135.221902 kJ/mol
# GULP energy per Si atom -5580.237842 kJ/mol
# Density = 1.667868 g / cm^3
# Si number density = 16.716731 Si / 1000 Ang^3
#
#
#
# Elastic Constant Matrix: (Units=GPa)
#
#
# Indices 1 2 3 4 5 6 
#
# 1 102.2178 37.1432 17.0252 0.0000 0.0000 0.0000
# 2 37.1432 83.3482 10.7017 0.0000 0.0000 0.0000
# 3 17.0252 10.7017 45.2964 0.0000 0.0000 0.0000
# 4 0.0000 0.0000 0.0000 -0.1467 0.0000 0.0000
# 5 0.0000 0.0000 0.0000 0.0000 23.9203 0.0000
# 6 0.0000 0.0000 0.0000 0.0000 0.0000 14.4869
#
#
#
# Elastic Compliance Matrix: (Units=1/GPa)
#
#
# Indices 1 2 3 4 5 6 
#
# 1 0.012159 -0.004983 -0.003393 0.000000 0.000000 0.000000
# 2 -0.004983 0.014415 -0.001533 0.000000 0.000000 0.000000
# 3 -0.003393 -0.001533 0.023714 0.000000 0.000000 0.000000
# 4 0.000000 0.000000 0.000000 -6.814669 0.000000 0.000000
# 5 0.000000 0.000000 0.000000 0.000000 0.041805 0.000000
# 6 0.000000 0.000000 0.000000 0.000000 0.000000 0.069028
#
#
# Mechanical properties :
#
#
# Convention : Reuss Voigt Hill
#
# Bulk Modulus (GPa) = 32.81781 40.06693 36.44237
# Shear Modulus (GPa) = -0.75488 18.71826 8.98169
#
# Velocity S-wave (km/s) = -0.67272 3.34987 2.32046
# Velocity P-wave (km/s) = 4.36703 6.24359 5.38764
#
# Compressibility (1/GPa) = 0.03047126
#
# Stress axis : x y z
#
# Youngs Moduli (GPa) = 82.24538 69.37117 42.16882
#
# Poissons Ratio (x) = 0.34566 0.14307
# Poissons Ratio (y) = 0.40981 0.06464
# Poissons Ratio (z) = 0.27904 0.10634
#
# Static dielectric constant tensor:
#      x y z
#    x 1.569330 0.000000 0.000000 
#    y 0.000000 1.576450 0.000000 
#    z 0.000000 0.000000 1.575630 
# 
# From -- ./inp_files/14676.got.cif
#   From: 2010.05.17/outbox.cif.g08.bks.cpg/sg50_8_cif.got.tgz:14676.got - 2010.06.03 11:33:33.
