data_PCOD9396362
_publ_section_title
;
Structure prediction by ZEFSAII (Michael W. Deem and Ramdas Pophale) SiO2 
 PCOD9396362
Probable space group: P B A N
;
_chemical_formula_sum "Si O2"
_cell_formula_units_Z 64
_cell_length_a 22.190419
_cell_length_b 15.532331
_cell_length_c 8.936201
_cell_angle_alpha 90.000000
_cell_angle_beta 90.000000
_cell_angle_gamma 90.000000
_cell_volume 3080.030863
_symmetry_space_group_name_H-M "P B A N"
_symmetry_group_IT_number 50
_space_group.IT_coordinate_system_code '2'
_symmetry_cell_setting 'orthorhombic'
loop_
_space_group_symop_operation_xyz
x,y,z
1/2-x,1/2-y,z
x,1/2-y,-z
1/2-x,y,-z
-x,-y,-z
1/2+x,1/2+y,-z
-x,1/2+y,z
1/2+x,-y,z
loop_
_atom_site_type_symbol
_atom_site_label
_atom_site_fract_x
_atom_site_fract_y
_atom_site_fract_z
Si Si1 0.571828 0.827170 0.881687
Si Si2 0.631161 0.450342 0.820581
Si Si3 0.809453 0.984400 0.393088
Si Si4 0.068246 0.392960 0.419948
Si Si5 0.677882 0.346163 0.529748
Si Si6 0.955233 0.352151 0.978982
Si Si7 0.488912 0.052600 0.704475
Si Si8 0.191977 0.430386 0.055661
O O1 0.567003 0.817282 0.703274
O O2 0.512820 0.881281 0.923086
O O3 0.632112 0.877373 0.916116
O O4 0.571469 0.750000 0.000000
O O5 0.659247 0.390704 0.688307
O O6 0.603419 0.391247 0.949473
O O7 0.574420 0.508148 0.760307
O O8 0.677740 0.507560 0.915168
O O9 0.750000 0.976856 0.500000
O O10 0.861749 0.918249 0.442163
O O11 0.795928 0.971556 0.218566
O O12 0.838871 0.078834 0.413915
O O13 0.033025 0.383486 0.573303
O O14 0.033493 0.477033 0.352003
O O15 0.653076 0.250000 0.500000
O O16 0.750000 0.339434 0.500000
O O17 0.950570 0.250000 0.000000
O O18 0.973818 0.390000 0.820657
O O19 0.250000 0.378088 0.000000
#
# Coordination Sequence:
#
# PCOD9396362 Si02
#       8
#     8   8   8   8   8   8   8   8
#     4  10  21  40  62  93 133 165 215 275 344 390
#     4  12  22  41  65  96 129 169 227 273 326 396
#     4  10  20  37  59  91 126 161 221 268 318 383
#     4  10  21  37  66  94 120 176 214 269 328 397
#     4  10  22  40  62  88 131 175 208 272 333 386
#     4  11  23  40  62  93 136 176 207 276 337 397
#     4  11  21  39  65  93 129 168 223 271 323 397
#     4  11  23  37  66  94 120 175 227 274 326 393
#
# _framework density 20.779012000000002
#
# number of rings (size 3 to 8) (size 9 to 14) (size 15 to 20)
#    0.000    1.375    3.750    3.375    0.000    2.250 
#    0.000    2.500    0.000    3.750    0.000    3.500 
#    0.000    0.000    0.000    0.000    0.000    0.000 
#
# Total GULP energy -356452.567847 kJ/mol
# GULP energy per Si atom -5569.571373 kJ/mol
# Density = 2.073172 g / cm^3
# Si number density = 20.779012 Si / 1000 Ang^3
#
#
#
# Elastic Constant Matrix: (Units=GPa)
#
#
# Indices 1 2 3 4 5 6 
#
# 1 87.4212 10.2428 30.0495 0.0000 0.0000 0.0000
# 2 10.2428 53.3929 45.8976 0.0000 0.0000 0.0000
# 3 30.0495 45.8976 108.4615 0.0000 0.0000 0.0000
# 4 0.0000 0.0000 0.0000 17.2923 0.0000 0.0000
# 5 0.0000 0.0000 0.0000 0.0000 34.9140 0.0000
# 6 0.0000 0.0000 0.0000 0.0000 0.0000 200.4420
#
#
#
# Elastic Compliance Matrix: (Units=1/GPa)
#
#
# Indices 1 2 3 4 5 6 
#
# 1 0.012672 0.000923 -0.003901 0.000000 0.000000 0.000000
# 2 0.000923 0.029505 -0.012741 0.000000 0.000000 0.000000
# 3 -0.003901 -0.012741 0.015692 0.000000 0.000000 0.000000
# 4 0.000000 0.000000 0.000000 0.057829 0.000000 0.000000
# 5 0.000000 0.000000 0.000000 0.000000 0.028642 0.000000
# 6 0.000000 0.000000 0.000000 0.000000 0.000000 0.004989
#
#
# Mechanical properties :
#
#
# Convention : Reuss Voigt Hill
#
# Bulk Modulus (GPa) = 37.83669 46.85061 42.34365
# Shear Modulus (GPa) = 26.37445 61.40204 43.88824
#
# Velocity S-wave (km/s) = 3.56657 5.44189 4.60079
# Velocity P-wave (km/s) = 5.93373 7.87919 6.97462
#
# Compressibility (1/GPa) = 0.02642937
#
# Stress axis : x y z
#
# Youngs Moduli (GPa) = 78.91587 33.89309 63.72560
#
# Poissons Ratio (x) = -0.03127 0.24860
# Poissons Ratio (y) = -0.07280 0.81193
# Poissons Ratio (z) = 0.30786 0.43183
#
# Static dielectric constant tensor:
#      x y z
#    x 1.803190 0.000000 0.000000 
#    y 0.000000 1.858920 0.000000 
#    z 0.000000 0.000000 1.787640 
# 
# From -- ./inp_files/16129.got.cif
#   From: 2010.05.17/outbox.cif.g08.bks.cpg/sg50_9_cif.got.tgz:16129.got - 2010.06.03 11:33:33.
