data_PCOD9396378
_publ_section_title
;
Structure prediction by ZEFSAII (Michael W. Deem and Ramdas Pophale) SiO2 
 PCOD9396378
Probable space group: P B A N
;
_chemical_formula_sum "Si O2"
_cell_formula_units_Z 48
_cell_length_a 17.441731
_cell_length_b 14.737681
_cell_length_c 9.060704
_cell_angle_alpha 90.000000
_cell_angle_beta 90.000000
_cell_angle_gamma 90.000000
_cell_volume 2329.060012
_symmetry_space_group_name_H-M "P B A N"
_symmetry_group_IT_number 50
_space_group.IT_coordinate_system_code '2'
_symmetry_cell_setting 'orthorhombic'
loop_
_space_group_symop_operation_xyz
x,y,z
1/2-x,1/2-y,z
x,1/2-y,-z
1/2-x,y,-z
-x,-y,-z
1/2+x,1/2+y,-z
-x,1/2+y,z
1/2+x,-y,z
loop_
_atom_site_type_symbol
_atom_site_label
_atom_site_fract_x
_atom_site_fract_y
_atom_site_fract_z
Si Si1 0.824138 0.482481 0.083313
Si Si2 0.607421 0.633088 0.093398
Si Si3 0.616268 0.984847 0.373756
Si Si4 0.557901 0.152629 0.948854
Si Si5 0.064825 0.970262 0.689511
Si Si6 0.659859 0.775410 0.337507
O O1 0.826890 0.467865 0.258023
O O2 0.750000 0.446602 0.000000
O O3 0.834995 0.586527 0.024770
O O4 0.897842 0.427313 0.030915
O O5 0.595874 0.552614 0.211626
O O6 0.628108 0.720251 0.194758
O O7 0.529397 0.647863 0.003811
O O8 0.525995 0.988795 0.331490
O O9 0.643029 0.881773 0.346547
O O10 0.613051 0.022970 0.538941
O O11 0.567592 0.124716 0.778018
O O12 0.588116 0.250000 0.000000
O O13 0.750000 0.750000 0.337819
O O14 0.627039 0.750000 0.500000
#
# Coordination Sequence:
#
# PCOD9396378 Si02
#       6
#     8   8   8   8   8   8
#     4  11  23  39  61  90 122 165 212 265 327 394
#     4  11  20  40  59  86 123 164 211 258 322 396
#     4  11  20  38  59  90 127 159 214 260 323 393
#     4  11  22  41  62  86 118 163 216 267 325 385
#     4  10  20  37  62  87 120 164 209 267 317 390
#     4  11  23  36  55  90 130 169 203 262 337 410
#
# _framework density 20.609172000000001
#
# number of rings (size 3 to 8) (size 9 to 14) (size 15 to 20)
#    0.000    1.167    5.000    3.000    0.000    0.333 
#    0.000    2.500    0.000    0.000    0.000    4.667 
#    0.000    0.000    0.000    0.000    0.000    0.000 
#
# Total GULP energy -267445.685042 kJ/mol
# GULP energy per Si atom -5571.785105 kJ/mol
# Density = 2.056226 g / cm^3
# Si number density = 20.609172 Si / 1000 Ang^3
#
#
#
# Elastic Constant Matrix: (Units=GPa)
#
#
# Indices 1 2 3 4 5 6 
#
# 1 66.9592 16.7592 38.3949 0.0000 0.0000 0.0000
# 2 16.7592 71.0598 53.6393 0.0000 0.0000 0.0000
# 3 38.3949 53.6393 178.0094 0.0000 0.0000 0.0000
# 4 0.0000 0.0000 0.0000 39.5699 0.0000 0.0000
# 5 0.0000 0.0000 0.0000 0.0000 43.3447 0.0000
# 6 0.0000 0.0000 0.0000 0.0000 0.0000 -151.1052
#
#
#
# Elastic Compliance Matrix: (Units=1/GPa)
#
#
# Indices 1 2 3 4 5 6 
#
# 1 0.017186 -0.001625 -0.003217 0.000000 0.000000 0.000000
# 2 -0.001625 0.018370 -0.005185 0.000000 0.000000 0.000000
# 3 -0.003217 -0.005185 0.007874 0.000000 0.000000 0.000000
# 4 0.000000 0.000000 0.000000 0.025272 0.000000 0.000000
# 5 0.000000 0.000000 0.000000 0.000000 0.023071 0.000000
# 6 0.000000 0.000000 0.000000 0.000000 0.000000 -0.006618
#
#
# Mechanical properties :
#
#
# Convention : Reuss Voigt Hill
#
# Bulk Modulus (GPa) = 42.77921 59.29060 51.03490
# Shear Modulus (GPa) = 44.24787 0.17754 22.21271
#
# Velocity S-wave (km/s) = 4.63860 0.29383 3.28656
# Velocity P-wave (km/s) = 7.03500 5.38020 6.26250
#
# Compressibility (1/GPa) = 0.02337584
#
# Stress axis : x y z
#
# Youngs Moduli (GPa) = 58.18714 54.43776 127.00091
#
# Poissons Ratio (x) = 0.08844 0.40860
# Poissons Ratio (y) = 0.09454 0.65848
# Poissons Ratio (z) = 0.18720 0.28225
#
# Static dielectric constant tensor:
#      x y z
#    x 1.719420 0.000000 0.000000 
#    y 0.000000 1.790300 0.000000 
#    z 0.000000 0.000000 1.773400 
# 
# From -- ./inp_files/14252.got.cif
#   From: 2010.05.17/outbox.cif.g08.bks.cpg/sg50_8_cif.got.tgz:14252.got - 2010.06.03 11:33:33.
