data_PCOD9396872
_publ_section_title
;
Structure prediction by ZEFSAII (Michael W. Deem and Ramdas Pophale) SiO2 
 PCOD9396872
Probable space group: P B A N
;
_chemical_formula_sum "Si O2"
_cell_formula_units_Z 64
_cell_length_a 15.460146
_cell_length_b 25.215514
_cell_length_c 8.080423
_cell_angle_alpha 90.000000
_cell_angle_beta 90.000000
_cell_angle_gamma 90.000000
_cell_volume 3150.035966
_symmetry_space_group_name_H-M "P B A N"
_symmetry_group_IT_number 50
_space_group.IT_coordinate_system_code '2'
_symmetry_cell_setting 'orthorhombic'
loop_
_space_group_symop_operation_xyz
x,y,z
1/2-x,1/2-y,z
x,1/2-y,-z
1/2-x,y,-z
-x,-y,-z
1/2+x,1/2+y,-z
-x,1/2+y,z
1/2+x,-y,z
loop_
_atom_site_type_symbol
_atom_site_label
_atom_site_fract_x
_atom_site_fract_y
_atom_site_fract_z
Si Si1 0.098441 0.998569 0.431813
Si Si2 0.349483 0.624362 0.044773
Si Si3 0.646405 0.491818 0.957380
Si Si4 0.349041 0.394300 0.937187
Si Si5 0.997038 0.811057 0.450767
Si Si6 0.011645 0.310075 0.050857
Si Si7 0.155490 0.882603 0.443738
Si Si8 0.844478 0.885949 0.454457
O O1 0.117027 0.995244 0.234432
O O2 0.141108 0.053832 0.485852
O O3 0.138047 0.943332 0.499147
O O4 0.000000 0.000000 0.500000
O O5 0.379194 0.566376 0.978902
O O6 0.418784 0.667920 0.991388
O O7 0.350165 0.618956 0.244212
O O8 0.250000 0.635104 0.000000
O O9 0.750000 0.492773 0.000000
O O10 0.613780 0.546650 0.033373
O O11 0.412544 0.349576 0.008456
O O12 0.348290 0.387184 0.742155
O O13 0.250000 0.390688 0.000000
O O14 0.995300 0.750000 0.500000
O O15 0.992010 0.812705 0.250761
O O16 0.083061 0.842064 0.505580
O O17 0.917471 0.845965 0.517564
O O18 0.026929 0.250000 0.000000
O O19 0.250000 0.866458 0.500000
O O20 0.750000 0.866856 0.500000
#
# Coordination Sequence:
#
# PCOD9396872 Si02
#       8
#     8   8   8   8   8   8   8   8
#     4  11  21  38  62  94 128 160 201 253 310 372
#     4   9  20  39  59  84 117 153 195 242 293 355
#     4   9  19  37  61  88 124 159 199 246 301 372
#     4  10  22  40  59  88 121 155 197 247 298 360
#     4  10  23  42  60  84 120 154 203 256 299 361
#     4  10  23  41  59  82 114 156 199 249 297 350
#     4  10  21  39  60  87 123 156 195 245 302 362
#     4  11  22  39  64  88 123 161 197 250 307 365
#
# _framework density 20.317228
#
# number of rings (size 3 to 8) (size 9 to 14) (size 15 to 20)
#    0.000    2.000    1.250    1.875    1.750    7.500 
#    2.250    5.000    0.000    0.000    0.000    0.000 
#    0.000    0.000    0.000    0.000    0.000    0.000 
#
# Total GULP energy -357118.790683 kJ/mol
# GULP energy per Si atom -5579.981104 kJ/mol
# Density = 2.027099 g / cm^3
# Si number density = 20.317228 Si / 1000 Ang^3
#
#
#
# Elastic Constant Matrix: (Units=GPa)
#
#
# Indices 1 2 3 4 5 6 
#
# 1 109.4358 32.2252 15.4949 0.0000 0.0000 0.0000
# 2 32.2252 108.9929 4.3356 0.0000 0.0000 0.0000
# 3 15.4949 4.3356 30.4395 0.0000 0.0000 0.0000
# 4 0.0000 0.0000 0.0000 1144.8774 0.0000 0.0000
# 5 0.0000 0.0000 0.0000 0.0000 28.7019 0.0000
# 6 0.0000 0.0000 0.0000 0.0000 0.0000 14.3918
#
#
#
# Elastic Compliance Matrix: (Units=1/GPa)
#
#
# Indices 1 2 3 4 5 6 
#
# 1 0.010726 -0.002971 -0.005037 0.000000 0.000000 0.000000
# 2 -0.002971 0.010050 0.000081 0.000000 0.000000 0.000000
# 3 -0.005037 0.000081 0.035404 0.000000 0.000000 0.000000
# 4 0.000000 0.000000 0.000000 0.000873 0.000000 0.000000
# 5 0.000000 0.000000 0.000000 0.000000 0.034841 0.000000
# 6 0.000000 0.000000 0.000000 0.000000 0.000000 0.069484
#
#
# Mechanical properties :
#
#
# Convention : Reuss Voigt Hill
#
# Bulk Modulus (GPa) = 24.79741 39.21995 32.00868
# Shear Modulus (GPa) = 26.22273 250.71504 138.46889
#
# Velocity S-wave (km/s) = 3.59648 11.12062 8.26447
# Velocity P-wave (km/s) = 5.42935 13.57338 10.33717
#
# Compressibility (1/GPa) = 0.04032679
#
# Stress axis : x y z
#
# Youngs Moduli (GPa) = 93.23375 99.50189 28.24506
#
# Poissons Ratio (x) = 0.29560 0.14226
# Poissons Ratio (y) = 0.27698 -0.00228
# Poissons Ratio (z) = 0.46959 -0.00804
#
# Static dielectric constant tensor:
#      x y z
#    x 1.723330 0.000000 0.000000 
#    y 0.000000 1.712490 0.000000 
#    z 0.000000 0.000000 1.747400 
# 
# From -- ./inp_files/13464.got.cif
#   From: 2010.05.17/outbox.cif.g08.bks.cpg/sg50_7_cif.got.tgz:13464.got - 2010.06.03 11:33:33.
