data_PCOD9396481
_publ_section_title
;
Structure prediction by ZEFSAII (Michael W. Deem and Ramdas Pophale) SiO2 
 PCOD9396481
Probable space group: P B A N
;
_chemical_formula_sum "Si O2"
_cell_formula_units_Z 40
_cell_length_a 8.289971
_cell_length_b 16.621606
_cell_length_c 12.298529
_cell_angle_alpha 90.000000
_cell_angle_beta 90.000000
_cell_angle_gamma 90.000000
_cell_volume 1694.646677
_symmetry_space_group_name_H-M "P B A N"
_symmetry_group_IT_number 50
_space_group.IT_coordinate_system_code '2'
_symmetry_cell_setting 'orthorhombic'
loop_
_space_group_symop_operation_xyz
x,y,z
1/2-x,1/2-y,z
x,1/2-y,-z
1/2-x,y,-z
-x,-y,-z
1/2+x,1/2+y,-z
-x,1/2+y,z
1/2+x,-y,z
loop_
_atom_site_type_symbol
_atom_site_label
_atom_site_fract_x
_atom_site_fract_y
_atom_site_fract_z
Si Si1 0.098576 0.560088 0.350271
Si Si2 0.011180 0.104550 0.919489
Si Si3 0.633271 0.323002 0.724789
Si Si4 0.876818 0.933026 0.859200
Si Si5 0.086077 0.119179 0.556077
O O1 0.265657 0.596889 0.307512
O O2 0.114090 0.466647 0.383091
O O3 0.965877 0.573615 0.255783
O O4 0.042301 0.603564 0.460263
O O5 0.187688 0.086462 0.866897
O O6 0.926930 0.171550 0.847597
O O7 0.036866 0.119650 0.046702
O O8 0.905980 0.023890 0.901955
O O9 0.750000 0.250000 0.706400
O O10 0.483180 0.320186 0.643872
O O11 0.250000 0.144407 0.500000
#
# Coordination Sequence:
#
# PCOD9396481 Si02
#       5
#     8   8   8   8   8
#     4  11  22  39  67 101 136 185 238 296 356 423
#     4  10  21  38  64 104 142 187 233 292 360 424
#     4  12  26  44  67 102 150 190 236 299 372 438
#     4  10  20  38  69 102 140 181 241 299 346 423
#     4  11  23  41  68  97 133 184 243 300 351 426
#
# _framework density 23.603739000000001
#
# number of rings (size 3 to 8) (size 9 to 14) (size 15 to 20)
#    0.000    1.200    2.000    5.400    0.000    4.000 
#    0.000    7.000    0.000    2.400    0.000    0.000 
#    0.000    0.000    0.000    0.000    0.000    0.000 
#
# Total GULP energy -224150.377697 kJ/mol
# GULP energy per Si atom -5603.759442 kJ/mol
# Density = 2.355002 g / cm^3
# Si number density = 23.603739 Si / 1000 Ang^3
#
#
#
# Elastic Constant Matrix: (Units=GPa)
#
#
# Indices 1 2 3 4 5 6 
#
# 1 92.9757 28.9575 21.7741 0.0000 0.0000 0.0000
# 2 28.9575 44.5328 28.0095 0.0000 0.0000 0.0000
# 3 21.7741 28.0095 133.5935 0.0000 0.0000 0.0000
# 4 0.0000 0.0000 0.0000 -0.8326 0.0000 0.0000
# 5 0.0000 0.0000 0.0000 0.0000 50.5063 0.0000
# 6 0.0000 0.0000 0.0000 0.0000 0.0000 20.9196
#
#
#
# Elastic Compliance Matrix: (Units=1/GPa)
#
#
# Indices 1 2 3 4 5 6 
#
# 1 0.013507 -0.008522 -0.000415 0.000000 0.000000 0.000000
# 2 -0.008522 0.031243 -0.005162 0.000000 0.000000 0.000000
# 3 -0.000415 -0.005162 0.008635 0.000000 0.000000 0.000000
# 4 0.000000 0.000000 0.000000 -1.201024 0.000000 0.000000
# 5 0.000000 0.000000 0.000000 0.000000 0.019800 0.000000
# 6 0.000000 0.000000 0.000000 0.000000 0.000000 0.047802
#
#
# Mechanical properties :
#
#
# Convention : Reuss Voigt Hill
#
# Bulk Modulus (GPa) = 39.70032 47.62047 43.66040
# Shear Modulus (GPa) = -4.79182 26.94272 11.07545
#
# Velocity S-wave (km/s) = -1.42637 3.38221 2.16851
# Velocity P-wave (km/s) = 3.76076 5.95578 4.98069
#
# Compressibility (1/GPa) = 0.02518871
#
# Stress axis : x y z
#
# Youngs Moduli (GPa) = 74.03672 32.00701 115.80551
#
# Poissons Ratio (x) = 0.27276 0.04803
# Poissons Ratio (y) = 0.63094 0.59773
# Poissons Ratio (z) = 0.03070 0.16521
#
# Static dielectric constant tensor:
#      x y z
#    x 1.895340 0.000000 0.000000 
#    y 0.000000 1.902550 0.000000 
#    z 0.000000 0.000000 1.904990 
# 
# From -- ./inp_files/18706.got.cif
#   From: 2010.05.17/outbox.cif.g08.bks.cpg/sg50_10_cif.got.tgz:18706.got - 2010.06.03 11:33:33.
