data_PCOD9396681
_publ_section_title
;
Structure prediction by ZEFSAII (Michael W. Deem and Ramdas Pophale) SiO2 
 PCOD9396681
Probable space group: P B A N
;
_chemical_formula_sum "Si O2"
_cell_formula_units_Z 48
_cell_length_a 14.905357
_cell_length_b 5.256379
_cell_length_c 29.537819
_cell_angle_alpha 90.000000
_cell_angle_beta 90.000000
_cell_angle_gamma 90.000000
_cell_volume 2314.235114
_symmetry_space_group_name_H-M "P B A N"
_symmetry_group_IT_number 50
_space_group.IT_coordinate_system_code '2'
_symmetry_cell_setting 'orthorhombic'
loop_
_space_group_symop_operation_xyz
x,y,z
1/2-x,1/2-y,z
x,1/2-y,-z
1/2-x,y,-z
-x,-y,-z
1/2+x,1/2+y,-z
-x,1/2+y,z
1/2+x,-y,z
loop_
_atom_site_type_symbol
_atom_site_label
_atom_site_fract_x
_atom_site_fract_y
_atom_site_fract_z
Si Si1 0.060487 0.901173 0.890361
Si Si2 0.558695 0.720239 0.450444
Si Si3 0.851411 0.497014 0.979845
Si Si4 0.357666 0.242962 0.645739
Si Si5 0.556533 0.426075 0.212947
Si Si6 0.857164 0.260495 0.695728
O O1 0.092356 0.903827 0.838281
O O2 0.013312 0.626413 0.896758
O O3 0.138142 0.966128 0.926296
O O4 0.602945 0.750000 0.500000
O O5 0.519578 0.434349 0.448728
O O6 0.617350 0.779005 0.406626
O O7 0.893141 0.750000 0.000000
O O8 0.750000 0.497411 0.000000
O O9 0.897392 0.250000 0.000000
O O10 0.250000 0.250000 0.649563
O O11 0.392570 0.510520 0.664684
O O12 0.391036 0.009065 0.676723
O O13 0.523743 0.717530 0.217123
O O14 0.620545 0.337953 0.253113
O O15 0.750000 0.250000 0.691411
#
# Coordination Sequence:
#
# PCOD9396681 Si02
#       6
#     8   8   8   8   8   8
#     4  10  21  37  58  83 112 145 182 225 275 325
#     4  10  21  36  54  80 112 144 185 234 282 332
#     4  10  21  37  56  81 114 141 182 227 265 322
#     4  10  21  36  56  79 112 146 188 230 273 333
#     4  10  21  37  58  83 112 143 183 227 272 330
#     4  10  21  37  55  82 112 145 184 229 278 326
#
# _framework density 20.741192999999999
#
# number of rings (size 3 to 8) (size 9 to 14) (size 15 to 20)
#    0.000    2.000    0.000    3.000    0.000    6.333 
#    3.000    0.000    7.333    6.000    0.000    0.000 
#    0.000    0.000    0.000    0.000    0.000    0.000 
#
# Total GULP energy -267749.847542 kJ/mol
# GULP energy per Si atom -5578.121824 kJ/mol
# Density = 2.069399 g / cm^3
# Si number density = 20.741193 Si / 1000 Ang^3
#
#
#
# Elastic Constant Matrix: (Units=GPa)
#
#
# Indices 1 2 3 4 5 6 
#
# 1 43.4037 6.9623 28.2676 0.0000 0.0000 0.0000
# 2 6.9623 133.6137 46.3524 0.0000 0.0000 0.0000
# 3 28.2676 46.3524 168.1168 0.0000 0.0000 0.0000
# 4 0.0000 0.0000 0.0000 30.0906 0.0000 0.0000
# 5 0.0000 0.0000 0.0000 0.0000 15.7993 0.0000
# 6 0.0000 0.0000 0.0000 0.0000 0.0000 -4.1880
#
#
#
# Elastic Compliance Matrix: (Units=1/GPa)
#
#
# Indices 1 2 3 4 5 6 
#
# 1 0.025877 0.000178 -0.004400 0.000000 0.000000 0.000000
# 2 0.000178 0.008277 -0.002312 0.000000 0.000000 0.000000
# 3 -0.004400 -0.002312 0.007326 0.000000 0.000000 0.000000
# 4 0.000000 0.000000 0.000000 0.033233 0.000000 0.000000
# 5 0.000000 0.000000 0.000000 0.000000 0.063294 0.000000
# 6 0.000000 0.000000 0.000000 0.000000 0.000000 -0.238776
#
#
# Mechanical properties :
#
#
# Convention : Reuss Voigt Hill
#
# Bulk Modulus (GPa) = 35.19749 56.47764 45.83757
# Shear Modulus (GPa) = -63.91329 25.91051 -19.00139
#
# Velocity S-wave (km/s) = -5.55712 3.53828 -3.03003
# Velocity P-wave (km/s) = 4.91617 6.63184 3.14743
#
# Compressibility (1/GPa) = 0.02841112
#
# Stress axis : x y z
#
# Youngs Moduli (GPa) = 38.64500 120.81567 136.50844
#
# Poissons Ratio (x) = -0.02151 0.60064
# Poissons Ratio (y) = -0.00688 0.31562
# Poissons Ratio (z) = 0.17004 0.27933
#
# Static dielectric constant tensor:
#      x y z
#    x 1.717790 0.000000 0.000000 
#    y 0.000000 1.763570 0.000000 
#    z 0.000000 0.000000 1.789950 
# 
# From -- ./inp_files/31823.got.cif
#   From: 2010.05.17/outbox.cif.g08.bks.cpg/sg50_16_cif.got.tgz:31823.got - 2010.06.03 11:33:33.
