data_PCOD9396573
_publ_section_title
;
Structure prediction by ZEFSAII (Michael W. Deem and Ramdas Pophale) SiO2 
 PCOD9396573
Probable space group: P B A N
;
_chemical_formula_sum "Si O2"
_cell_formula_units_Z 32
_cell_length_a 13.357952
_cell_length_b 11.418761
_cell_length_c 9.008553
_cell_angle_alpha 90.000000
_cell_angle_beta 90.000000
_cell_angle_gamma 90.000000
_cell_volume 1374.085952
_symmetry_space_group_name_H-M "P B A N"
_symmetry_group_IT_number 50
_space_group.IT_coordinate_system_code '2'
_symmetry_cell_setting 'orthorhombic'
loop_
_space_group_symop_operation_xyz
x,y,z
1/2-x,1/2-y,z
x,1/2-y,-z
1/2-x,y,-z
-x,-y,-z
1/2+x,1/2+y,-z
-x,1/2+y,z
1/2+x,-y,z
loop_
_atom_site_type_symbol
_atom_site_label
_atom_site_fract_x
_atom_site_fract_y
_atom_site_fract_z
Si Si1 0.890505 0.371454 0.271139
Si Si2 0.250000 0.750000 0.500000
Si Si3 0.077043 0.750000 0.000000
Si Si4 0.372899 0.159218 0.239202
Si Si5 0.609737 0.903039 0.072676
Si Si6 0.750000 0.750000 0.500000
O O1 0.823842 0.336318 0.409198
O O2 0.876036 0.495288 0.190634
O O3 0.011165 0.357599 0.288430
O O4 0.863824 0.276155 0.146044
O O5 0.004803 0.637926 0.033294
O O6 0.142036 0.214354 0.159620
O O7 0.312300 0.166012 0.390377
O O8 0.347844 0.078055 0.095106
#
# Coordination Sequence:
#
# PCOD9396573 Si02
#       6
#     8   2   4   8   8   2
#     4  10  20  41  61  86 125 166 211 260 306 370
#     4  12  26  36  56  94 136 172 206 262 328 378
#     4   8  16  35  66  89 106 158 218 259 300 367
#     4   9  20  38  63  92 120 161 211 255 313 380
#     4   8  17  38  66  85 112 164 217 255 299 371
#     4  12  22  36  56  94 140 156 178 274 336 356
#
# _framework density 23.288208999999998
#
# number of rings (size 3 to 8) (size 9 to 14) (size 15 to 20)
#    0.000    3.500    0.000    3.750    0.000    3.500 
#    0.000   23.750    0.000    0.000    0.000    5.250 
#    0.000    0.000    0.000    0.000    0.000    0.000 
#
# Total GULP energy -178343.059897 kJ/mol
# GULP energy per Si atom -5573.220622 kJ/mol
# Density = 2.323520 g / cm^3
# Si number density = 23.288209 Si / 1000 Ang^3
#
#
#
# Elastic Constant Matrix: (Units=GPa)
#
#
# Indices 1 2 3 4 5 6 
#
# 1 138.8785 42.1552 97.1337 0.0000 0.0000 0.0000
# 2 42.1552 90.6693 62.3220 0.0000 0.0000 0.0000
# 3 97.1337 62.3220 192.9131 0.0000 0.0000 0.0000
# 4 0.0000 0.0000 0.0000 33.8651 0.0000 0.0000
# 5 0.0000 0.0000 0.0000 0.0000 49.8797 0.0000
# 6 0.0000 0.0000 0.0000 0.0000 0.0000 2.2069
#
#
#
# Elastic Compliance Matrix: (Units=1/GPa)
#
#
# Indices 1 2 3 4 5 6 
#
# 1 0.011322 -0.001730 -0.005142 0.000000 0.000000 0.000000
# 2 -0.001730 0.014441 -0.003795 0.000000 0.000000 0.000000
# 3 -0.005142 -0.003795 0.008999 0.000000 0.000000 0.000000
# 4 0.000000 0.000000 0.000000 0.029529 0.000000 0.000000
# 5 0.000000 0.000000 0.000000 0.000000 0.020048 0.000000
# 6 0.000000 0.000000 0.000000 0.000000 0.000000 0.453123
#
#
# Mechanical properties :
#
#
# Convention : Reuss Voigt Hill
#
# Bulk Modulus (GPa) = 74.46164 91.74254 83.10209
# Shear Modulus (GPa) = 8.87672 31.91366 20.39519
#
# Velocity S-wave (km/s) = 1.95447 3.70588 2.96256
# Velocity P-wave (km/s) = 6.09399 7.60206 6.88941
#
# Compressibility (1/GPa) = 0.01342973
#
# Stress axis : x y z
#
# Youngs Moduli (GPa) = 88.32462 69.24517 111.12913
#
# Poissons Ratio (x) = 0.11977 0.57142
# Poissons Ratio (y) = 0.15277 0.42168
# Poissons Ratio (z) = 0.45416 0.26275
#
# Static dielectric constant tensor:
#      x y z
#    x 2.041750 0.000000 0.000000 
#    y 0.000000 1.961550 0.000000 
#    z 0.000000 0.000000 1.905510 
# 
# From -- ./inp_files/10762.got.cif
#   From: 2010.05.17/outbox.cif.g08.bks.cpg/sg50_6_cif.got.tgz:10762.got - 2010.06.03 11:33:33.
