data_PCOD9396747
_publ_section_title
;
Structure prediction by ZEFSAII (Michael W. Deem and Ramdas Pophale) SiO2 
 PCOD9396747
Probable space group: P B A N
;
_chemical_formula_sum "Si O2"
_cell_formula_units_Z 32
_cell_length_a 5.344594
_cell_length_b 17.496581
_cell_length_c 14.424184
_cell_angle_alpha 90.000000
_cell_angle_beta 90.000000
_cell_angle_gamma 90.000000
_cell_volume 1348.836052
_symmetry_space_group_name_H-M "P B A N"
_symmetry_group_IT_number 50
_space_group.IT_coordinate_system_code '2'
_symmetry_cell_setting 'orthorhombic'
loop_
_space_group_symop_operation_xyz
x,y,z
1/2-x,1/2-y,z
x,1/2-y,-z
1/2-x,y,-z
-x,-y,-z
1/2+x,1/2+y,-z
-x,1/2+y,z
1/2+x,-y,z
loop_
_atom_site_type_symbol
_atom_site_label
_atom_site_fract_x
_atom_site_fract_y
_atom_site_fract_z
Si Si1 0.503142 0.468812 0.104836
Si Si2 0.998832 0.293523 0.861883
Si Si3 0.327210 0.468462 0.394220
Si Si4 0.501722 0.703715 0.637641
O O1 0.253925 0.500578 0.151020
O O2 0.499996 0.378612 0.100860
O O3 0.500000 0.500000 0.000000
O O4 0.750000 0.250000 0.891307
O O5 0.250000 0.250000 0.888937
O O6 0.994451 0.298691 0.749811
O O7 0.250000 0.488755 0.500000
O O8 0.544990 0.523312 0.352902
O O9 0.449474 0.383833 0.392615
O O10 0.750000 0.750000 0.609830
O O11 0.250000 0.750000 0.608443
#
# Coordination Sequence:
#
# PCOD9396747 Si02
#       4
#     8   8   8   8
#     4  10  21  38  56  82 114 145 188 236 283 345
#     4  10  21  38  59  83 113 149 190 239 291 342
#     4  10  21  37  56  82 116 151 187 229 282 340
#     4  10  21  37  58  85 114 148 194 240 286 342
#
# _framework density 23.724160000000001
#
# number of rings (size 3 to 8) (size 9 to 14) (size 15 to 20)
#    0.000    2.000    0.000    3.000    0.000    2.500 
#    0.000   16.250    0.000    0.000    0.000    0.000 
#    0.000    0.000    0.000    0.000    0.000    0.000 
#
# Total GULP energy -178874.048931 kJ/mol
# GULP energy per Si atom -5589.814029 kJ/mol
# Density = 2.367016 g / cm^3
# Si number density = 23.724160 Si / 1000 Ang^3
#
#
#
# Elastic Constant Matrix: (Units=GPa)
#
#
# Indices 1 2 3 4 5 6 
#
# 1 293.4583 121.8532 25.8068 0.0000 0.0000 0.0000
# 2 121.8532 217.6399 12.1055 0.0000 0.0000 0.0000
# 3 25.8068 12.1055 90.2164 0.0000 0.0000 0.0000
# 4 0.0000 0.0000 0.0000 41.9139 0.0000 0.0000
# 5 0.0000 0.0000 0.0000 0.0000 7.6585 0.0000
# 6 0.0000 0.0000 0.0000 0.0000 0.0000 49.7170
#
#
#
# Elastic Compliance Matrix: (Units=1/GPa)
#
#
# Indices 1 2 3 4 5 6 
#
# 1 0.004521 -0.002478 -0.000961 0.000000 0.000000 0.000000
# 2 -0.002478 0.005987 -0.000095 0.000000 0.000000 0.000000
# 3 -0.000961 -0.000095 0.011372 0.000000 0.000000 0.000000
# 4 0.000000 0.000000 0.000000 0.023858 0.000000 0.000000
# 5 0.000000 0.000000 0.000000 0.000000 0.130575 0.000000
# 6 0.000000 0.000000 0.000000 0.000000 0.000000 0.020114
#
#
# Mechanical properties :
#
#
# Convention : Reuss Voigt Hill
#
# Bulk Modulus (GPa) = 67.50407 102.31618 84.91013
# Shear Modulus (GPa) = 23.98870 49.29447 36.64158
#
# Velocity S-wave (km/s) = 3.18331 4.56325 3.93426
# Velocity P-wave (km/s) = 6.48281 8.42528 7.51705
#
# Compressibility (1/GPa) = 0.01481392
#
# Stress axis : x y z
#
# Youngs Moduli (GPa) = 221.19059 167.02057 87.93533
#
# Poissons Ratio (x) = 0.41384 0.08449
# Poissons Ratio (y) = 0.54806 0.00832
# Poissons Ratio (z) = 0.21251 0.01580
#
# Static dielectric constant tensor:
#      x y z
#    x 1.968940 0.000000 0.000000 
#    y 0.000000 1.827910 0.000000 
#    z 0.000000 0.000000 1.465050 
# 
# From -- ./inp_files/27903.got.cif
#   From: 2010.05.17/outbox.cif.g08.bks.cpg/sg50_14_cif.got.tgz:27903.got - 2010.06.03 11:33:33.
