data_PCOD9396279
_publ_section_title
;
Structure prediction by ZEFSAII (Michael W. Deem and Ramdas Pophale) SiO2 
 PCOD9396279
Probable space group: P B A N
;
_chemical_formula_sum "Si O2"
_cell_formula_units_Z 32
_cell_length_a 5.065528
_cell_length_b 36.476131
_cell_length_c 7.321440
_cell_angle_alpha 90.000000
_cell_angle_beta 90.000000
_cell_angle_gamma 90.000000
_cell_volume 1352.788787
_symmetry_space_group_name_H-M "P B A N"
_symmetry_group_IT_number 50
_space_group.IT_coordinate_system_code '2'
_symmetry_cell_setting 'orthorhombic'
loop_
_space_group_symop_operation_xyz
x,y,z
1/2-x,1/2-y,z
x,1/2-y,-z
1/2-x,y,-z
-x,-y,-z
1/2+x,1/2+y,-z
-x,1/2+y,z
1/2+x,-y,z
loop_
_atom_site_type_symbol
_atom_site_label
_atom_site_fract_x
_atom_site_fract_y
_atom_site_fract_z
Si Si1 0.986855 0.412054 0.378607
Si Si2 0.240904 0.662603 0.220066
Si Si3 0.732563 0.791824 0.778086
Si Si4 0.666206 0.017996 0.211079
O O1 0.750000 0.427357 0.500000
O O2 0.862670 0.374365 0.302233
O O3 0.990073 0.443341 0.224738
O O4 0.250000 0.407223 0.500000
O O5 0.446328 0.693935 0.272388
O O6 0.954314 0.678143 0.276326
O O7 0.250000 0.658370 0.000000
O O8 0.750000 0.750000 0.714847
O O9 0.750000 0.790899 0.000000
O O10 0.458189 0.988869 0.292216
O O11 0.750000 0.012798 0.000000
#
# Coordination Sequence:
#
# PCOD9396279 Si02
#       4
#     8   8   8   8
#     4  12  25  39  58  85 120 158 196 241 291 352
#     4  10  20  36  58  83 115 153 192 238 293 353
#     4   9  17  31  56  88 114 141 188 247 297 342
#     4  10  22  41  64  88 115 150 195 246 298 355
#
# _framework density 23.654837000000001
#
# number of rings (size 3 to 8) (size 9 to 14) (size 15 to 20)
#    0.000    1.750    0.000    4.500    0.000    6.000 
#    0.000   10.000    0.000   11.250    0.000    0.000 
#    0.000    0.000    0.000    0.000    0.000    0.000 
#
# Total GULP energy -178458.312685 kJ/mol
# GULP energy per Si atom -5576.822271 kJ/mol
# Density = 2.360100 g / cm^3
# Si number density = 23.654837 Si / 1000 Ang^3
#
#
#
# Elastic Constant Matrix: (Units=GPa)
#
#
# Indices 1 2 3 4 5 6 
#
# 1 166.2139 37.9421 33.2783 0.0000 0.0000 0.0000
# 2 37.9421 153.5498 30.1481 0.0000 0.0000 0.0000
# 3 33.2783 30.1481 74.5880 0.0000 0.0000 0.0000
# 4 0.0000 0.0000 0.0000 10.5224 0.0000 0.0000
# 5 0.0000 0.0000 0.0000 0.0000 15.0870 0.0000
# 6 0.0000 0.0000 0.0000 0.0000 0.0000 40.6619
#
#
#
# Elastic Compliance Matrix: (Units=1/GPa)
#
#
# Indices 1 2 3 4 5 6 
#
# 1 0.006797 -0.001178 -0.002557 0.000000 0.000000 0.000000
# 2 -0.001178 0.007278 -0.002416 0.000000 0.000000 0.000000
# 3 -0.002557 -0.002416 0.015524 0.000000 0.000000 0.000000
# 4 0.000000 0.000000 0.000000 0.095035 0.000000 0.000000
# 5 0.000000 0.000000 0.000000 0.000000 0.066282 0.000000
# 6 0.000000 0.000000 0.000000 0.000000 0.000000 0.024593
#
#
# Mechanical properties :
#
#
# Convention : Reuss Voigt Hill
#
# Bulk Modulus (GPa) = 57.80925 66.34321 62.07623
# Shear Modulus (GPa) = 21.40622 32.78648 27.09635
#
# Velocity S-wave (km/s) = 3.01149 3.72699 3.38818
# Velocity P-wave (km/s) = 6.04845 6.82846 6.45026
#
# Compressibility (1/GPa) = 0.01729827
#
# Stress axis : x y z
#
# Youngs Moduli (GPa) = 147.12333 137.40144 64.41518
#
# Poissons Ratio (x) = 0.16180 0.16468
# Poissons Ratio (y) = 0.17325 0.15565
# Poissons Ratio (z) = 0.37614 0.33200
#
# Static dielectric constant tensor:
#      x y z
#    x 1.914620 0.000000 0.000000 
#    y 0.000000 1.899270 0.000000 
#    z 0.000000 0.000000 2.067950 
# 
# From -- ./inp_files/7919.got.cif
#   From: 2010.05.17/outbox.cif.g08.bks.cpg/sg50_4_cif.got.tgz:7919.got - 2010.06.03 11:33:33.
