data_PCOD9396307
_publ_section_title
;
Structure prediction by ZEFSAII (Michael W. Deem and Ramdas Pophale) SiO2 
 PCOD9396307
Probable space group: P B A N
;
_chemical_formula_sum "Si O2"
_cell_formula_units_Z 64
_cell_length_a 12.265728
_cell_length_b 23.005430
_cell_length_c 10.088103
_cell_angle_alpha 90.000000
_cell_angle_beta 90.000000
_cell_angle_gamma 90.000000
_cell_volume 2846.644228
_symmetry_space_group_name_H-M "P B A N"
_symmetry_group_IT_number 50
_space_group.IT_coordinate_system_code '2'
_symmetry_cell_setting 'orthorhombic'
loop_
_space_group_symop_operation_xyz
x,y,z
1/2-x,1/2-y,z
x,1/2-y,-z
1/2-x,y,-z
-x,-y,-z
1/2+x,1/2+y,-z
-x,1/2+y,z
1/2+x,-y,z
loop_
_atom_site_type_symbol
_atom_site_label
_atom_site_fract_x
_atom_site_fract_y
_atom_site_fract_z
Si Si1 0.801135 0.404338 0.856029
Si Si2 0.372142 0.723605 0.360986
Si Si3 0.328429 0.979722 0.653342
Si Si4 0.467211 0.821431 0.228604
Si Si5 0.163191 0.414622 0.317342
Si Si6 0.215390 0.182314 0.150808
Si Si7 0.545429 0.388551 0.510915
Si Si8 0.475604 0.498449 0.846051
O O1 0.721714 0.427936 0.743052
O O2 0.857982 0.342002 0.846972
O O3 0.902037 0.445963 0.831022
O O4 0.750000 0.413538 0.000000
O O5 0.250000 0.750000 0.343940
O O6 0.410200 0.750000 0.500000
O O7 0.449176 0.752859 0.253864
O O8 0.392857 0.656634 0.390241
O O9 0.383950 0.948141 0.525887
O O10 0.424614 0.003435 0.746480
O O11 0.245069 0.033305 0.641781
O O12 0.585389 0.828046 0.164763
O O13 0.460645 0.858233 0.367332
O O14 0.226296 0.359251 0.258709
O O15 0.090914 0.441740 0.198240
O O16 0.075841 0.399698 0.432200
O O17 0.250000 0.250000 0.172869
O O18 0.250000 0.167430 0.000000
O O19 0.500000 0.500000 0.000000
#
# Coordination Sequence:
#
# PCOD9396307 Si02
#       8
#     8   8   8   8   8   8   8   8
#     4  11  22  36  60  96 130 168 222 275 326 393
#     4   9  18  37  68  98 130 175 220 270 328 399
#     4  10  21  39  64  98 134 175 221 282 335 391
#     4  11  24  42  68 100 133 175 223 275 344 410
#     4  10  23  39  67  95 130 183 222 277 335 406
#     4  11  26  46  68  97 132 173 222 282 344 406
#     4  10  22  43  66  99 139 175 228 279 336 410
#     4  10  20  36  61  91 125 174 231 272 317 389
#
# _framework density 22.482612
#
# number of rings (size 3 to 8) (size 9 to 14) (size 15 to 20)
#    0.000    1.750    1.250    2.250    3.500    2.000 
#    0.000   16.875    0.000    0.750    0.000    0.000 
#    0.000    0.000    0.000    0.000    0.000    0.000 
#
# Total GULP energy -357327.313745 kJ/mol
# GULP energy per Si atom -5583.239277 kJ/mol
# Density = 2.243144 g / cm^3
# Si number density = 22.482612 Si / 1000 Ang^3
#
#
#
# Elastic Constant Matrix: (Units=GPa)
#
#
# Indices 1 2 3 4 5 6 
#
# 1 98.9571 44.5616 43.0164 0.0000 0.0000 0.0000
# 2 44.5616 100.5976 32.3598 0.0000 0.0000 0.0000
# 3 43.0164 32.3598 84.9010 0.0000 0.0000 0.0000
# 4 0.0000 0.0000 0.0000 22.7605 0.0000 0.0000
# 5 0.0000 0.0000 0.0000 0.0000 25.8535 0.0000
# 6 0.0000 0.0000 0.0000 0.0000 0.0000 -31.2469
#
#
#
# Elastic Compliance Matrix: (Units=1/GPa)
#
#
# Indices 1 2 3 4 5 6 
#
# 1 0.014668 -0.004681 -0.005648 0.000000 0.000000 0.000000
# 2 -0.004681 0.012823 -0.002516 0.000000 0.000000 0.000000
# 3 -0.005648 -0.002516 0.015599 0.000000 0.000000 0.000000
# 4 0.000000 0.000000 0.000000 0.043936 0.000000 0.000000
# 5 0.000000 0.000000 0.000000 0.000000 0.038679 0.000000
# 6 0.000000 0.000000 0.000000 0.000000 0.000000 -0.032003
#
#
# Mechanical properties :
#
#
# Convention : Reuss Voigt Hill
#
# Bulk Modulus (GPa) = 57.46685 58.25904 57.86294
# Shear Modulus (GPa) = 39.93845 14.44127 27.18986
#
# Velocity S-wave (km/s) = 4.21933 2.53717 3.48138
# Velocity P-wave (km/s) = 7.02517 5.87811 6.47708
#
# Compressibility (1/GPa) = 0.01740134
#
# Stress axis : x y z
#
# Youngs Moduli (GPa) = 68.17405 77.98256 64.10684
#
# Poissons Ratio (x) = 0.36502 0.36207
# Poissons Ratio (y) = 0.31911 0.16129
# Poissons Ratio (z) = 0.38504 0.19620
#
# Static dielectric constant tensor:
#      x y z
#    x 1.834570 0.000000 0.000000 
#    y 0.000000 1.916620 0.000000 
#    z 0.000000 0.000000 1.737830 
# 
# From -- ./inp_files/20522.got.cif
#   From: 2010.05.17/outbox.cif.g08.bks.cpg/sg50_11_cif.got.tgz:20522.got - 2010.06.03 11:33:33.
