data_PCOD9396168
_publ_section_title
;
Structure prediction by ZEFSAII (Michael W. Deem and Ramdas Pophale) SiO2 
 PCOD9396168
Probable space group: P B A N
;
_chemical_formula_sum "Si O2"
_cell_formula_units_Z 40
_cell_length_a 32.593745
_cell_length_b 4.983532
_cell_length_c 12.135508
_cell_angle_alpha 90.000000
_cell_angle_beta 90.000000
_cell_angle_gamma 90.000000
_cell_volume 1971.194486
_symmetry_space_group_name_H-M "P B A N"
_symmetry_group_IT_number 50
_space_group.IT_coordinate_system_code '2'
_symmetry_cell_setting 'orthorhombic'
loop_
_space_group_symop_operation_xyz
x,y,z
1/2-x,1/2-y,z
x,1/2-y,-z
1/2-x,y,-z
-x,-y,-z
1/2+x,1/2+y,-z
-x,1/2+y,z
1/2+x,-y,z
loop_
_atom_site_type_symbol
_atom_site_label
_atom_site_fract_x
_atom_site_fract_y
_atom_site_fract_z
Si Si1 0.474801 0.253515 0.367129
Si Si2 0.636554 0.986942 0.926897
Si Si3 0.382768 0.230977 0.311856
Si Si4 0.167028 0.765009 0.621861
Si Si5 0.278074 0.509228 0.820507
O O1 0.473660 0.250000 0.500000
O O2 0.508889 0.465702 0.330503
O O3 0.429141 0.320377 0.329434
O O4 0.619705 0.926277 0.804949
O O5 0.685317 0.959143 0.905659
O O6 0.619934 0.750000 0.000000
O O7 0.629169 0.250000 0.000000
O O8 0.352333 0.487236 0.329416
O O9 0.368451 0.991896 0.392789
O O10 0.185775 0.750000 0.500000
O O11 0.199337 0.885023 0.709340
O O12 0.250000 0.250000 0.801172
O O13 0.250000 0.750000 0.860789
#
# Coordination Sequence:
#
# PCOD9396168 Si02
#       5
#     8   8   8   8   8
#     4  10  20  34  57  90 123 155 189 232 294 357
#     4  11  23  40  61  82 107 149 201 250 301 346
#     4  11  22  39  61  87 121 156 201 250 291 356
#     4  11  22  38  60  86 119 162 200 235 294 367
#     4  11  23  39  57  84 115 144 189 244 297 354
#
# _framework density 20.292266000000001
#
# number of rings (size 3 to 8) (size 9 to 14) (size 15 to 20)
#    0.000    1.200    0.000    9.000    0.000    4.400 
#    0.000    3.000    0.000    3.600    0.000    0.000 
#    0.000    0.000    0.000    0.000    0.000    0.000 
#
# Total GULP energy -223159.755586 kJ/mol
# GULP energy per Si atom -5578.993890 kJ/mol
# Density = 2.024608 g / cm^3
# Si number density = 20.292266 Si / 1000 Ang^3
#
#
#
# Elastic Constant Matrix: (Units=GPa)
#
#
# Indices 1 2 3 4 5 6 
#
# 1 54.9095 23.8047 -7.9752 0.0000 0.0000 0.0000
# 2 23.8047 136.5082 36.3749 0.0000 0.0000 0.0000
# 3 -7.9752 36.3749 68.9024 0.0000 0.0000 0.0000
# 4 0.0000 0.0000 0.0000 13.4110 0.0000 0.0000
# 5 0.0000 0.0000 0.0000 0.0000 8.4975 0.0000
# 6 0.0000 0.0000 0.0000 0.0000 0.0000 34.0104
#
#
#
# Elastic Compliance Matrix: (Units=1/GPa)
#
#
# Indices 1 2 3 4 5 6 
#
# 1 0.021143 -0.005049 0.005113 0.000000 0.000000 0.000000
# 2 -0.005049 0.009731 -0.005721 0.000000 0.000000 0.000000
# 3 0.005113 -0.005721 0.018126 0.000000 0.000000 0.000000
# 4 0.000000 0.000000 0.000000 0.074565 0.000000 0.000000
# 5 0.000000 0.000000 0.000000 0.000000 0.117681 0.000000
# 6 0.000000 0.000000 0.000000 0.000000 0.000000 0.029403
#
#
# Mechanical properties :
#
#
# Convention : Reuss Voigt Hill
#
# Bulk Modulus (GPa) = 26.53661 40.52543 33.53102
# Shear Modulus (GPa) = 16.97640 25.05817 21.01729
#
# Velocity S-wave (km/s) = 2.89553 3.51787 3.22177
# Velocity P-wave (km/s) = 4.92792 6.04275 5.51358
#
# Compressibility (1/GPa) = 0.03768379
#
# Stress axis : x y z
#
# Youngs Moduli (GPa) = 47.29591 102.76756 55.17065
#
# Poissons Ratio (x) = 0.51892 -0.28209
# Poissons Ratio (y) = 0.23882 0.31566
# Poissons Ratio (z) = -0.24182 0.58798
#
# Static dielectric constant tensor:
#      x y z
#    x 1.736810 0.000000 0.000000 
#    y 0.000000 1.763850 0.000000 
#    z 0.000000 0.000000 1.659590 
# 
# From -- ./inp_files/23278.got.cif
#   From: 2010.05.17/outbox.cif.g08.bks.cpg/sg50_12_cif.got.tgz:23278.got - 2010.06.03 11:33:33.
