data_PCOD9396190
_publ_section_title
;
Structure prediction by ZEFSAII (Michael W. Deem and Ramdas Pophale) SiO2 
 PCOD9396190
Probable space group: P B A N
;
_chemical_formula_sum "Si O2"
_cell_formula_units_Z 58
_cell_length_a 11.492529
_cell_length_b 28.317072
_cell_length_c 8.204988
_cell_angle_alpha 90.000000
_cell_angle_beta 90.000000
_cell_angle_gamma 90.000000
_cell_volume 2670.188392
_symmetry_space_group_name_H-M "P B A N"
_symmetry_group_IT_number 50
_space_group.IT_coordinate_system_code '2'
_symmetry_cell_setting 'orthorhombic'
loop_
_space_group_symop_operation_xyz
x,y,z
1/2-x,1/2-y,z
x,1/2-y,-z
1/2-x,y,-z
-x,-y,-z
1/2+x,1/2+y,-z
-x,1/2+y,z
1/2+x,-y,z
loop_
_atom_site_type_symbol
_atom_site_label
_atom_site_fract_x
_atom_site_fract_y
_atom_site_fract_z
Si Si1 0.616560 0.064922 0.451458
Si Si2 0.030277 0.343612 0.423996
Si Si3 0.478496 0.996457 0.268949
Si Si4 0.315787 0.419095 0.752732
Si Si5 0.926616 0.586290 0.107131
Si Si6 0.250000 0.250000 0.000000
Si Si7 0.883946 0.259864 0.304648
Si Si8 0.065790 0.310692 0.787219
O O1 0.750000 0.061818 0.500000
O O2 0.573299 0.118518 0.451457
O O3 0.534424 0.040486 0.584735
O O4 0.583501 0.034059 0.291675
O O5 0.133152 0.376036 0.351263
O O6 0.077465 0.319360 0.590402
O O7 0.966235 0.306730 0.303051
O O8 0.492781 0.959753 0.120972
O O9 0.365953 0.029574 0.288331
O O10 0.177956 0.420467 0.762905
O O11 0.368303 0.411655 0.931804
O O12 0.970512 0.638440 0.142852
O O13 0.172012 0.284913 0.883289
O O14 0.750000 0.250000 0.257657
O O15 0.884419 0.250000 0.500000
O O16 0.956887 0.223255 0.200813
#
# Coordination Sequence:
#
# PCOD9396190 Si02
#       8
#     8   8   8   8   8   2   8   8
#     4  10  20  34  62  91 129 163 211 269 317 377
#     4  10  22  42  64  98 125 164 218 269 323 398
#     4  10  20  38  57  93 124 169 216 263 317 396
#     4  10  23  39  63  92 131 165 215 270 322 394
#     4  11  22  40  63  89 130 177 208 266 340 386
#     4  12  28  48  68  96 140 174 224 286 344 398
#     4   9  21  41  67  95 128 165 219 273 328 390
#     4  11  25  44  68  94 128 174 219 271 341 396
#
# _framework density 21.721312999999999
#
# number of rings (size 3 to 8) (size 9 to 14) (size 15 to 20)
#    0.000    1.793    1.379    2.069    7.724    0.552 
#    4.966    0.345    0.000    4.966    0.000    0.000 
#    0.000    0.000    0.000    0.000    0.000    0.000 
#
# Total GULP energy -323160.797281 kJ/mol
# GULP energy per Si atom -5571.737884 kJ/mol
# Density = 2.167187 g / cm^3
# Si number density = 21.721313 Si / 1000 Ang^3
#
#
#
# Elastic Constant Matrix: (Units=GPa)
#
#
# Indices 1 2 3 4 5 6 
#
# 1 78.5996 42.3717 26.5239 0.0000 0.0000 0.0000
# 2 42.3717 158.1966 34.3544 0.0000 0.0000 0.0000
# 3 26.5239 34.3544 56.0099 0.0000 0.0000 0.0000
# 4 0.0000 0.0000 0.0000 -3.5304 0.0000 0.0000
# 5 0.0000 0.0000 0.0000 0.0000 16.4764 0.0000
# 6 0.0000 0.0000 0.0000 0.0000 0.0000 20.5395
#
#
#
# Elastic Compliance Matrix: (Units=1/GPa)
#
#
# Indices 1 2 3 4 5 6 
#
# 1 0.016375 -0.003117 -0.005842 0.000000 0.000000 0.000000
# 2 -0.003117 0.007886 -0.003361 0.000000 0.000000 0.000000
# 3 -0.005842 -0.003361 0.022682 0.000000 0.000000 0.000000
# 4 0.000000 0.000000 0.000000 -0.283255 0.000000 0.000000
# 5 0.000000 0.000000 0.000000 0.000000 0.060693 0.000000
# 6 0.000000 0.000000 0.000000 0.000000 0.000000 0.048687
#
#
# Mechanical properties :
#
#
# Convention : Reuss Voigt Hill
#
# Bulk Modulus (GPa) = 44.83896 55.47847 50.15871
# Shear Modulus (GPa) = -52.71067 19.33417 -16.68825
#
# Velocity S-wave (km/s) = -4.93148 2.98669 -2.77481
# Velocity P-wave (km/s) = 3.42612 6.12293 3.58831
#
# Compressibility (1/GPa) = 0.02230204
#
# Stress axis : x y z
#
# Youngs Moduli (GPa) = 61.07012 126.80734 44.08750
#
# Poissons Ratio (x) = 0.39526 0.25758
# Poissons Ratio (y) = 0.19036 0.14817
# Poissons Ratio (z) = 0.35680 0.42618
#
# Static dielectric constant tensor:
#      x y z
#    x 1.809270 0.000000 0.000000 
#    y 0.000000 1.924750 0.000000 
#    z 0.000000 0.000000 1.906190 
# 
# From -- ./inp_files/11757.got.cif
#   From: 2010.05.17/outbox.cif.g08.bks.cpg/sg50_6_cif.got.tgz:11757.got - 2010.06.03 11:33:33.
