data_PCOD9396342
_publ_section_title
;
Structure prediction by ZEFSAII (Michael W. Deem and Ramdas Pophale) SiO2 
 PCOD9396342
Probable space group: P B A N
;
_chemical_formula_sum "Si O2"
_cell_formula_units_Z 48
_cell_length_a 17.102372
_cell_length_b 29.017252
_cell_length_c 5.279927
_cell_angle_alpha 90.000000
_cell_angle_beta 90.000000
_cell_angle_gamma 90.000000
_cell_volume 2620.236838
_symmetry_space_group_name_H-M "P B A N"
_symmetry_group_IT_number 50
_space_group.IT_coordinate_system_code '2'
_symmetry_cell_setting 'orthorhombic'
loop_
_space_group_symop_operation_xyz
x,y,z
1/2-x,1/2-y,z
x,1/2-y,-z
1/2-x,y,-z
-x,-y,-z
1/2+x,1/2+y,-z
-x,1/2+y,z
1/2+x,-y,z
loop_
_atom_site_type_symbol
_atom_site_label
_atom_site_fract_x
_atom_site_fract_y
_atom_site_fract_z
Si Si1 0.062774 0.383448 0.764323
Si Si2 0.514490 0.719000 0.253348
Si Si3 0.839468 0.805569 0.009155
Si Si4 0.198315 0.934219 0.249297
Si Si5 0.540468 0.376374 0.738230
Si Si6 0.198712 0.042560 0.249241
O O1 0.125046 0.424180 0.746694
O O2 0.007527 0.384219 0.520335
O O3 0.111488 0.335563 0.806270
O O4 0.010421 0.389693 0.015741
O O5 0.509415 0.750000 0.500000
O O6 0.599402 0.692836 0.243527
O O7 0.450682 0.678958 0.246516
O O8 0.508739 0.750000 0.000000
O O9 0.831564 0.750000 0.000000
O O10 0.750000 0.823104 0.000000
O O11 0.250000 0.926822 0.500000
O O12 0.121109 0.903550 0.259124
O O13 0.176514 0.988555 0.242269
O O14 0.250000 0.924636 0.000000
O O15 0.250000 0.050435 0.500000
O O16 0.250000 0.052259 0.000000
#
# Coordination Sequence:
#
# PCOD9396342 Si02
#       6
#     8   8   8   8   8   8
#     4  11  22  35  55  83 115 150 190 231 273 322
#     4  10  20  37  56  78 111 148 184 226 277 326
#     4   9  18  33  50  75 109 149 190 224 257 308
#     4  10  22  40  62  84 110 144 182 230 289 348
#     4  11  22  37  59  85 110 145 189 232 281 334
#     4  10  21  38  57  82 117 154 187 225 277 329
#
# _framework density 18.318954999999999
#
# number of rings (size 3 to 8) (size 9 to 14) (size 15 to 20)
#    0.000    1.833    0.000    5.500    0.000    2.667 
#    0.000   18.333    0.000    3.000    0.000    0.000 
#    0.000    0.000    0.000    0.000    0.000    0.000 
#
# Total GULP energy -267551.647818 kJ/mol
# GULP energy per Si atom -5573.992663 kJ/mol
# Density = 1.827726 g / cm^3
# Si number density = 18.318955 Si / 1000 Ang^3
#
#
#
# Elastic Constant Matrix: (Units=GPa)
#
#
# Indices 1 2 3 4 5 6 
#
# 1 127.6287 101.9797 79.5619 0.0000 0.0000 0.0000
# 2 101.9797 116.0293 78.2601 0.0000 0.0000 0.0000
# 3 79.5619 78.2601 180.7004 0.0000 0.0000 0.0000
# 4 0.0000 0.0000 0.0000 22.9091 0.0000 0.0000
# 5 0.0000 0.0000 0.0000 0.0000 15.9296 0.0000
# 6 0.0000 0.0000 0.0000 0.0000 0.0000 35.4594
#
#
#
# Elastic Compliance Matrix: (Units=1/GPa)
#
#
# Indices 1 2 3 4 5 6 
#
# 1 0.026962 -0.022165 -0.002272 0.000000 0.000000 0.000000
# 2 -0.022165 0.030396 -0.003405 0.000000 0.000000 0.000000
# 3 -0.002272 -0.003405 0.008009 0.000000 0.000000 0.000000
# 4 0.000000 0.000000 0.000000 0.043651 0.000000 0.000000
# 5 0.000000 0.000000 0.000000 0.000000 0.062776 0.000000
# 6 0.000000 0.000000 0.000000 0.000000 0.000000 0.028201
#
#
# Mechanical properties :
#
#
# Convention : Reuss Voigt Hill
#
# Bulk Modulus (GPa) = 103.26970 104.88465 104.07717
# Shear Modulus (GPa) = 19.31190 25.83008 22.57099
#
# Velocity S-wave (km/s) = 3.25037 3.75910 3.51395
# Velocity P-wave (km/s) = 8.40131 8.73041 8.56744
#
# Compressibility (1/GPa) = 0.00968338
#
# Stress axis : x y z
#
# Youngs Moduli (GPa) = 37.08921 32.89858 124.85792
#
# Poissons Ratio (x) = 0.72920 0.28365
# Poissons Ratio (y) = 0.82208 0.42518
# Poissons Ratio (z) = 0.08426 0.11203
#
# Static dielectric constant tensor:
#      x y z
#    x 1.621780 0.000000 0.000000 
#    y 0.000000 1.684890 0.000000 
#    z 0.000000 0.000000 1.642510 
# 
# From -- ./inp_files/3578.got.cif
#   From: 2010.05.17/outbox.cif.g08.bks.cpg/sg50_2_cif.got.tgz:3578.got - 2010.06.03 11:33:33.
