data_PCOD9396664
_publ_section_title
;
Structure prediction by ZEFSAII (Michael W. Deem and Ramdas Pophale) SiO2 
 PCOD9396664
Probable space group: P B A N
;
_chemical_formula_sum "Si O2"
_cell_formula_units_Z 40
_cell_length_a 21.069667
_cell_length_b 9.167366
_cell_length_c 8.889970
_cell_angle_alpha 90.000000
_cell_angle_beta 90.000000
_cell_angle_gamma 90.000000
_cell_volume 1717.127477
_symmetry_space_group_name_H-M "P B A N"
_symmetry_group_IT_number 50
_space_group.IT_coordinate_system_code '2'
_symmetry_cell_setting 'orthorhombic'
loop_
_space_group_symop_operation_xyz
x,y,z
1/2-x,1/2-y,z
x,1/2-y,-z
1/2-x,y,-z
-x,-y,-z
1/2+x,1/2+y,-z
-x,1/2+y,z
1/2+x,-y,z
loop_
_atom_site_type_symbol
_atom_site_label
_atom_site_fract_x
_atom_site_fract_y
_atom_site_fract_z
Si Si1 0.464246 0.353380 0.781382
Si Si2 0.583692 0.521490 0.743629
Si Si3 0.084943 0.893796 0.571508
Si Si4 0.343208 0.409593 0.985946
Si Si5 0.316613 0.682088 0.834199
O O1 0.536472 0.398608 0.814928
O O2 0.449661 0.183405 0.745492
O O3 0.451361 0.474138 0.652459
O O4 0.414046 0.393879 0.911480
O O5 0.607008 0.475175 0.579536
O O6 0.644199 0.530211 0.849699
O O7 0.050957 0.750000 0.500000
O O8 0.133880 0.829670 0.695685
O O9 0.305134 0.514219 0.879099
O O10 0.317378 0.250000 0.000000
O O11 0.250000 0.750000 0.788591
O O12 0.336137 0.750000 0.000000
#
# Coordination Sequence:
#
# PCOD9396664 Si02
#       5
#     8   8   8   8   8
#     4  10  21  35  56  89 131 174 207 238 291 368
#     4  11  20  35  57  90 128 168 206 245 294 367
#     4  11  22  36  57  85 120 160 202 254 308 362
#     4   9  20  38  62  90 125 164 204 251 308 370
#     4  10  22  42  64  87 111 147 203 267 327 383
#
# _framework density 23.294718
#
# number of rings (size 3 to 8) (size 9 to 14) (size 15 to 20)
#    0.000    1.800    0.000    4.200    0.000    2.000 
#    0.000    4.000    0.000    0.000    0.000   16.800 
#    0.000    0.000    0.000    0.000    0.000    0.000 
#
# Total GULP energy -223144.098448 kJ/mol
# GULP energy per Si atom -5578.602461 kJ/mol
# Density = 2.324170 g / cm^3
# Si number density = 23.294718 Si / 1000 Ang^3
#
#
#
# Elastic Constant Matrix: (Units=GPa)
#
#
# Indices 1 2 3 4 5 6 
#
# 1 93.7041 39.9166 29.1595 0.0000 0.0000 0.0000
# 2 39.9166 156.2113 38.5218 0.0000 0.0000 0.0000
# 3 29.1595 38.5218 96.4436 0.0000 0.0000 0.0000
# 4 0.0000 0.0000 0.0000 49.3187 0.0000 0.0000
# 5 0.0000 0.0000 0.0000 0.0000 12.2328 0.0000
# 6 0.0000 0.0000 0.0000 0.0000 0.0000 27.5201
#
#
#
# Elastic Compliance Matrix: (Units=1/GPa)
#
#
# Indices 1 2 3 4 5 6 
#
# 1 0.012624 -0.002534 -0.002805 0.000000 0.000000 0.000000
# 2 -0.002534 0.007610 -0.002273 0.000000 0.000000 0.000000
# 3 -0.002805 -0.002273 0.012125 0.000000 0.000000 0.000000
# 4 0.000000 0.000000 0.000000 0.020276 0.000000 0.000000
# 5 0.000000 0.000000 0.000000 0.000000 0.081748 0.000000
# 6 0.000000 0.000000 0.000000 0.000000 0.000000 0.036337
#
#
# Mechanical properties :
#
#
# Convention : Reuss Voigt Hill
#
# Bulk Modulus (GPa) = 58.36237 62.39497 60.37867
# Shear Modulus (GPa) = 26.08848 33.73173 29.91010
#
# Velocity S-wave (km/s) = 3.35017 3.80944 3.58716
# Velocity P-wave (km/s) = 6.33033 6.79649 6.56755
#
# Compressibility (1/GPa) = 0.01713433
#
# Stress axis : x y z
#
# Youngs Moduli (GPa) = 79.21286 131.41035 82.47595
#
# Poissons Ratio (x) = 0.33302 0.23132
# Poissons Ratio (y) = 0.20074 0.18749
# Poissons Ratio (z) = 0.22217 0.29873
#
# Static dielectric constant tensor:
#      x y z
#    x 1.930830 0.000000 0.000000 
#    y 0.000000 1.976570 0.000000 
#    z 0.000000 0.000000 1.887030 
# 
# From -- ./inp_files/9534.got.cif
#   From: 2010.05.17/outbox.cif.g08.bks.cpg/sg50_5_cif.got.tgz:9534.got - 2010.06.03 11:33:33.
