data_PCOD9396183
_publ_section_title
;
Structure prediction by ZEFSAII (Michael W. Deem and Ramdas Pophale) SiO2 
 PCOD9396183
Probable space group: P B A N
;
_chemical_formula_sum "Si O2"
_cell_formula_units_Z 34
_cell_length_a 24.084180
_cell_length_b 9.001203
_cell_length_c 8.746746
_cell_angle_alpha 90.000000
_cell_angle_beta 90.000000
_cell_angle_gamma 90.000000
_cell_volume 1896.177268
_symmetry_space_group_name_H-M "P B A N"
_symmetry_group_IT_number 50
_space_group.IT_coordinate_system_code '2'
_symmetry_cell_setting 'orthorhombic'
loop_
_space_group_symop_operation_xyz
x,y,z
1/2-x,1/2-y,z
x,1/2-y,-z
1/2-x,y,-z
-x,-y,-z
1/2+x,1/2+y,-z
-x,1/2+y,z
1/2+x,-y,z
loop_
_atom_site_type_symbol
_atom_site_label
_atom_site_fract_x
_atom_site_fract_y
_atom_site_fract_z
Si Si1 0.055218 0.419718 0.947013
Si Si2 0.184709 0.576204 0.469664
Si Si3 0.655216 0.922260 0.832413
Si Si4 0.897685 0.652534 0.360592
Si Si5 0.750000 0.750000 0.000000
O O1 0.063225 0.426510 0.763894
O O2 0.048983 0.250000 0.000000
O O3 0.110491 0.470768 0.039611
O O4 0.000000 0.500000 0.000000
O O5 0.175107 0.750000 0.500000
O O6 0.250000 0.543348 0.500000
O O7 0.169083 0.543599 0.294169
O O8 0.146018 0.465546 0.569844
O O9 0.631948 0.778835 0.741180
O O10 0.710603 0.859004 0.906286
O O11 0.923356 0.750000 0.500000
#
# Coordination Sequence:
#
# PCOD9396183 Si02
#       5
#     8   8   8   8   2
#     4  10  21  39  57  84 117 150 199 245 293 356
#     4  10  21  35  53  82 123 152 187 238 305 366
#     4  10  20  34  60  87 111 151 195 243 294 346
#     4   9  18  37  58  83 110 147 204 238 290 351
#     4  12  16  32  66  90 116 136 214 248 292 348
#
# _framework density 17.930810999999999
#
# number of rings (size 3 to 8) (size 9 to 14) (size 15 to 20)
#    0.000    2.118    3.529    1.412    0.000    5.176 
#    0.000   11.765    0.000    0.000    0.000    0.000 
#    0.000    0.000    0.000    0.000    0.000    0.000 
#
# Total GULP energy -189414.975691 kJ/mol
# GULP energy per Si atom -5571.028697 kJ/mol
# Density = 1.789000 g / cm^3
# Si number density = 17.930811 Si / 1000 Ang^3
#
#
#
# Elastic Constant Matrix: (Units=GPa)
#
#
# Indices 1 2 3 4 5 6 
#
# 1 103.3929 35.7355 74.2582 0.0000 0.0000 0.0000
# 2 35.7355 68.9627 45.5023 0.0000 0.0000 0.0000
# 3 74.2582 45.5023 148.9276 0.0000 0.0000 0.0000
# 4 0.0000 0.0000 0.0000 22.5544 0.0000 0.0000
# 5 0.0000 0.0000 0.0000 0.0000 -45.2228 0.0000
# 6 0.0000 0.0000 0.0000 0.0000 0.0000 10.5947
#
#
#
# Elastic Compliance Matrix: (Units=1/GPa)
#
#
# Indices 1 2 3 4 5 6 
#
# 1 0.015804 -0.003745 -0.006736 0.000000 0.000000 0.000000
# 2 -0.003745 0.019049 -0.003953 0.000000 0.000000 0.000000
# 3 -0.006736 -0.003953 0.011281 0.000000 0.000000 0.000000
# 4 0.000000 0.000000 0.000000 0.044337 0.000000 0.000000
# 5 0.000000 0.000000 0.000000 0.000000 -0.022113 0.000000
# 6 0.000000 0.000000 0.000000 0.000000 0.000000 0.094386
#
#
# Mechanical properties :
#
#
# Convention : Reuss Voigt Hill
#
# Bulk Modulus (GPa) = 57.91458 70.25282 64.08370
# Shear Modulus (GPa) = 25.33326 8.63774 16.98550
#
# Velocity S-wave (km/s) = 3.76285 2.19721 3.08113
# Velocity P-wave (km/s) = 7.15875 6.76032 6.96239
#
# Compressibility (1/GPa) = 0.01726681
#
# Stress axis : x y z
#
# Youngs Moduli (GPa) = 63.27462 52.49519 88.64357
#
# Poissons Ratio (x) = 0.19659 0.59711
# Poissons Ratio (y) = 0.23696 0.35040
# Poissons Ratio (z) = 0.42622 0.20751
#
# Static dielectric constant tensor:
#      x y z
#    x 1.538770 0.000000 0.000000 
#    y 0.000000 1.586320 0.000000 
#    z 0.000000 0.000000 1.643630 
# 
# From -- ./inp_files/9207.got.cif
#   From: 2010.05.17/outbox.cif.g08.bks.cpg/sg50_5_cif.got.tgz:9207.got - 2010.06.03 11:33:33.
