data_PCOD9396064
_publ_section_title
;
Structure prediction by ZEFSAII (Michael W. Deem and Ramdas Pophale) SiO2 
 PCOD9396064
Probable space group: P B A N
;
_chemical_formula_sum "Si O2"
_cell_formula_units_Z 36
_cell_length_a 16.830337
_cell_length_b 14.437034
_cell_length_c 8.662670
_cell_angle_alpha 90.000000
_cell_angle_beta 90.000000
_cell_angle_gamma 90.000000
_cell_volume 2104.856834
_symmetry_space_group_name_H-M "P B A N"
_symmetry_group_IT_number 50
_space_group.IT_coordinate_system_code '2'
_symmetry_cell_setting 'orthorhombic'
loop_
_space_group_symop_operation_xyz
x,y,z
1/2-x,1/2-y,z
x,1/2-y,-z
1/2-x,y,-z
-x,-y,-z
1/2+x,1/2+y,-z
-x,1/2+y,z
1/2+x,-y,z
loop_
_atom_site_type_symbol
_atom_site_label
_atom_site_fract_x
_atom_site_fract_y
_atom_site_fract_z
Si Si1 0.750000 0.104246 0.000000
Si Si2 0.012016 0.155087 0.035238
Si Si3 0.903198 0.022074 0.836432
Si Si4 0.135906 0.698970 0.247694
Si Si5 0.840505 0.387372 0.445112
O O1 0.679048 0.045204 0.074916
O O2 0.794380 0.162979 0.134105
O O3 0.941436 0.194992 0.142549
O O4 0.058570 0.250000 0.000000
O O5 0.968035 0.097645 0.897574
O O6 0.063815 0.077929 0.120336
O O7 0.882057 0.035452 0.657566
O O8 0.118817 0.631980 0.391902
O O9 0.155383 0.795858 0.333905
O O10 0.750000 0.403612 0.500000
#
# Coordination Sequence:
#
# PCOD9396064 Si02
#       5
#     4   8   8   8   8
#     4  10  20  33  51  80 108 150 181 234 287 334
#     4  10  20  37  54  78 108 154 192 235 276 344
#     4  10  21  34  55  79 113 143 192 233 285 338
#     4  10  20  30  53  78 116 147 182 229 294 340
#     4  11  20  31  50  87 114 144 178 233 294 354
#
# _framework density 17.103300999999998
#
# number of rings (size 3 to 8) (size 9 to 14) (size 15 to 20)
#    0.000    1.778    4.444    1.333    0.000    1.778 
#    0.000    0.556    0.000    0.000    0.000    0.000 
#    0.000    0.000    0.000    0.000    0.000    0.000 
#
# Total GULP energy -200552.539545 kJ/mol
# GULP energy per Si atom -5570.903876 kJ/mol
# Density = 1.706437 g / cm^3
# Si number density = 17.103301 Si / 1000 Ang^3
#
#
#
# Elastic Constant Matrix: (Units=GPa)
#
#
# Indices 1 2 3 4 5 6 
#
# 1 53.7334 37.8763 27.5631 0.0000 0.0000 0.0000
# 2 37.8763 123.9694 41.5722 0.0000 0.0000 0.0000
# 3 27.5631 41.5722 113.6679 0.0000 0.0000 0.0000
# 4 0.0000 0.0000 0.0000 19.2668 0.0000 0.0000
# 5 0.0000 0.0000 0.0000 0.0000 26.9603 0.0000
# 6 0.0000 0.0000 0.0000 0.0000 0.0000 -2.0327
#
#
#
# Elastic Compliance Matrix: (Units=1/GPa)
#
#
# Indices 1 2 3 4 5 6 
#
# 1 0.025034 -0.006397 -0.003731 0.000000 0.000000 0.000000
# 2 -0.006397 0.010829 -0.002409 0.000000 0.000000 0.000000
# 3 -0.003731 -0.002409 0.010583 0.000000 0.000000 0.000000
# 4 0.000000 0.000000 0.000000 0.051903 0.000000 0.000000
# 5 0.000000 0.000000 0.000000 0.000000 0.037092 0.000000
# 6 0.000000 0.000000 0.000000 0.000000 0.000000 -0.491951
#
#
# Mechanical properties :
#
#
# Convention : Reuss Voigt Hill
#
# Bulk Modulus (GPa) = 46.79158 56.15488 51.47323
# Shear Modulus (GPa) = -15.41722 21.12949 2.85613
#
# Velocity S-wave (km/s) = -3.00562 3.51864 1.29366
# Velocity P-wave (km/s) = 3.92079 7.02936 5.69142
#
# Compressibility (1/GPa) = 0.02137137
#
# Stress axis : x y z
#
# Youngs Moduli (GPa) = 39.94639 92.34428 94.48837
#
# Poissons Ratio (x) = 0.59077 0.35249
# Poissons Ratio (y) = 0.25556 0.22765
# Poissons Ratio (z) = 0.14902 0.22248
#
# Static dielectric constant tensor:
#      x y z
#    x 1.588530 0.000000 0.000000 
#    y 0.000000 1.626230 0.000000 
#    z 0.000000 0.000000 1.622850 
# 
# From -- ./inp_files/14028.got.cif
#   From: 2010.05.17/outbox.cif.g08.bks.cpg/sg50_8_cif.got.tgz:14028.got - 2010.06.03 11:33:33.
