data_PCOD9396957
_publ_section_title
;
Structure prediction by ZEFSAII (Michael W. Deem and Ramdas Pophale) SiO2 
 PCOD9396957
Probable space group: P B A N
;
_chemical_formula_sum "Si O2"
_cell_formula_units_Z 32
_cell_length_a 9.254803
_cell_length_b 18.882588
_cell_length_c 7.351822
_cell_angle_alpha 90.000000
_cell_angle_beta 90.000000
_cell_angle_gamma 90.000000
_cell_volume 1284.764949
_symmetry_space_group_name_H-M "P B A N"
_symmetry_group_IT_number 50
_space_group.IT_coordinate_system_code '2'
_symmetry_cell_setting 'orthorhombic'
loop_
_space_group_symop_operation_xyz
x,y,z
1/2-x,1/2-y,z
x,1/2-y,-z
1/2-x,y,-z
-x,-y,-z
1/2+x,1/2+y,-z
-x,1/2+y,z
1/2+x,-y,z
loop_
_atom_site_type_symbol
_atom_site_label
_atom_site_fract_x
_atom_site_fract_y
_atom_site_fract_z
Si Si1 0.900296 0.895354 0.815093
Si Si2 0.904747 0.275521 0.787422
Si Si3 0.401357 0.153425 0.235705
Si Si4 0.886749 0.037324 0.629253
O O1 0.760595 0.866001 0.706738
O O2 0.051278 0.857501 0.756087
O O3 0.879234 0.979765 0.793767
O O4 0.895405 0.867663 0.021846
O O5 0.750000 0.250000 0.712014
O O6 0.046204 0.232306 0.725318
O O7 0.897584 0.250000 0.000000
O O8 0.535277 0.107691 0.307094
O O9 0.750000 0.046226 0.500000
O O10 0.000000 0.000000 0.500000
#
# Coordination Sequence:
#
# PCOD9396957 Si02
#       4
#     8   8   8   8
#     4  10  21  40  65  92 122 164 213 264 316 380
#     4   9  19  35  62  95 122 152 206 269 315 365
#     4  10  21  40  65  92 122 164 213 262 320 378
#     4  12  25  42  61  88 131 169 208 258 317 384
#
# _framework density 24.90728
#
# number of rings (size 3 to 8) (size 9 to 14) (size 15 to 20)
#    0.000    1.750    2.500    1.500    3.500    3.000 
#    0.000    1.250    0.000    0.000    0.000    0.000 
#    0.000    0.000    0.000    0.000    0.000    0.000 
#
# Total GULP energy -178448.679151 kJ/mol
# GULP energy per Si atom -5576.521223 kJ/mol
# Density = 2.485059 g / cm^3
# Si number density = 24.907280 Si / 1000 Ang^3
#
#
#
# Elastic Constant Matrix: (Units=GPa)
#
#
# Indices 1 2 3 4 5 6 
#
# 1 152.9514 15.5559 19.1200 0.0000 0.0000 0.0000
# 2 15.5559 88.4753 6.9486 0.0000 0.0000 0.0000
# 3 19.1200 6.9486 84.4594 0.0000 0.0000 0.0000
# 4 0.0000 0.0000 0.0000 102.4990 0.0000 0.0000
# 5 0.0000 0.0000 0.0000 0.0000 16.8411 0.0000
# 6 0.0000 0.0000 0.0000 0.0000 0.0000 -24.2312
#
#
#
# Elastic Compliance Matrix: (Units=1/GPa)
#
#
# Indices 1 2 3 4 5 6 
#
# 1 0.006831 -0.001087 -0.001457 0.000000 0.000000 0.000000
# 2 -0.001087 0.011549 -0.000704 0.000000 0.000000 0.000000
# 3 -0.001457 -0.000704 0.012228 0.000000 0.000000 0.000000
# 4 0.000000 0.000000 0.000000 0.009756 0.000000 0.000000
# 5 0.000000 0.000000 0.000000 0.000000 0.059378 0.000000
# 6 0.000000 0.000000 0.000000 0.000000 0.000000 -0.041269
#
#
# Mechanical properties :
#
#
# Convention : Reuss Voigt Hill
#
# Bulk Modulus (GPa) = 41.47309 45.45946 43.46628
# Shear Modulus (GPa) = 68.48803 37.97258 53.23030
#
# Velocity S-wave (km/s) = 5.24947 3.90879 4.62793
# Velocity P-wave (km/s) = 7.30956 6.21793 6.78573
#
# Compressibility (1/GPa) = 0.02411202
#
# Stress axis : x y z
#
# Youngs Moduli (GPa) = 146.39870 86.58810 81.78109
#
# Poissons Ratio (x) = 0.09408 0.11915
# Poissons Ratio (y) = 0.15907 0.05759
# Poissons Ratio (z) = 0.21329 0.06097
#
# Static dielectric constant tensor:
#      x y z
#    x 2.002290 0.000000 0.000000 
#    y 0.000000 2.013330 0.000000 
#    z 0.000000 0.000000 2.161460 
# 
# From -- ./inp_files/9037.got.cif
#   From: 2010.05.17/outbox.cif.g08.bks.cpg/sg50_5_cif.got.tgz:9037.got - 2010.06.03 11:33:33.
