data_PCOD9396695
_publ_section_title
;
Structure prediction by ZEFSAII (Michael W. Deem and Ramdas Pophale) SiO2 
 PCOD9396695
Probable space group: P B A N
;
_chemical_formula_sum "Si O2"
_cell_formula_units_Z 40
_cell_length_a 5.252633
_cell_length_b 14.554125
_cell_length_c 23.991443
_cell_angle_alpha 90.000000
_cell_angle_beta 90.000000
_cell_angle_gamma 90.000000
_cell_volume 1834.085293
_symmetry_space_group_name_H-M "P B A N"
_symmetry_group_IT_number 50
_space_group.IT_coordinate_system_code '2'
_symmetry_cell_setting 'orthorhombic'
loop_
_space_group_symop_operation_xyz
x,y,z
1/2-x,1/2-y,z
x,1/2-y,-z
1/2-x,y,-z
-x,-y,-z
1/2+x,1/2+y,-z
-x,1/2+y,z
1/2+x,-y,z
loop_
_atom_site_type_symbol
_atom_site_label
_atom_site_fract_x
_atom_site_fract_y
_atom_site_fract_z
Si Si1 0.504759 0.646718 0.524950
Si Si2 0.242352 0.138395 0.245273
Si Si3 0.287129 0.559163 0.939872
Si Si4 0.851710 0.559563 0.367350
Si Si5 0.746754 0.359712 0.819764
O O1 0.504061 0.750000 0.500000
O O2 0.750000 0.598417 0.500000
O O3 0.553356 0.639498 0.590596
O O4 0.250000 0.605471 0.500000
O O5 0.250000 0.250000 0.250101
O O6 0.166394 0.096990 0.304719
O O7 0.513661 0.108791 0.219556
O O8 0.019441 0.109545 0.203178
O O9 0.576806 0.522553 0.939117
O O10 0.224089 0.613787 0.884065
O O11 0.250000 0.607058 0.000000
O O12 0.569820 0.517698 0.376704
O O13 0.750000 0.250000 0.815977
#
# Coordination Sequence:
#
# PCOD9396695 Si02
#       5
#     8   8   8   8   8
#     4  10  23  43  66  92 119 165 204 236 299 380
#     4  10  23  41  62  88 123 165 202 247 305 375
#     4  10  21  36  57  87 121 162 206 252 311 369
#     4  12  26  42  65  98 126 154 202 259 306 358
#     4  10  21  39  60  89 120 161 211 253 300 359
#
# _framework density 21.809235999999999
#
# number of rings (size 3 to 8) (size 9 to 14) (size 15 to 20)
#    0.000    1.600    0.000    3.600    2.800    7.600 
#    7.200    0.000    0.000    7.200    0.000    0.000 
#    0.000    0.000    0.000    0.000    0.000    0.000 
#
# Total GULP energy -223286.646498 kJ/mol
# GULP energy per Si atom -5582.166162 kJ/mol
# Density = 2.175960 g / cm^3
# Si number density = 21.809236 Si / 1000 Ang^3
#
#
#
# Elastic Constant Matrix: (Units=GPa)
#
#
# Indices 1 2 3 4 5 6 
#
# 1 162.8819 9.1048 41.8288 0.0000 0.0000 0.0000
# 2 9.1048 70.8360 27.4419 0.0000 0.0000 0.0000
# 3 41.8288 27.4419 185.8252 0.0000 0.0000 0.0000
# 4 0.0000 0.0000 0.0000 42.5243 0.0000 0.0000
# 5 0.0000 0.0000 0.0000 0.0000 36.8907 0.0000
# 6 0.0000 0.0000 0.0000 0.0000 0.0000 -8.6245
#
#
#
# Elastic Compliance Matrix: (Units=1/GPa)
#
#
# Indices 1 2 3 4 5 6 
#
# 1 0.006522 -0.000286 -0.001426 0.000000 0.000000 0.000000
# 2 -0.000286 0.014986 -0.002149 0.000000 0.000000 0.000000
# 3 -0.001426 -0.002149 0.006020 0.000000 0.000000 0.000000
# 4 0.000000 0.000000 0.000000 0.023516 0.000000 0.000000
# 5 0.000000 0.000000 0.000000 0.000000 0.027107 0.000000
# 6 0.000000 0.000000 0.000000 0.000000 0.000000 -0.115949
#
#
# Mechanical properties :
#
#
# Convention : Reuss Voigt Hill
#
# Bulk Modulus (GPa) = 50.48810 64.03269 57.26039
# Shear Modulus (GPa) = -212.98939 36.90260 -88.04339
#
# Velocity S-wave (km/s) = -9.89304 4.11793 -6.36061
# Velocity P-wave (km/s) = 10.35838 7.21345 5.25653
#
# Compressibility (1/GPa) = 0.01980665
#
# Stress axis : x y z
#
# Youngs Moduli (GPa) = 153.33799 66.72765 166.12237
#
# Poissons Ratio (x) = 0.01908 0.23685
# Poissons Ratio (y) = 0.04384 0.35696
# Poissons Ratio (z) = 0.21862 0.14338
#
# Static dielectric constant tensor:
#      x y z
#    x 1.753280 0.000000 0.000000 
#    y 0.000000 1.809940 0.000000 
#    z 0.000000 0.000000 1.841840 
# 
# From -- ./inp_files/28076.got.cif
#   From: 2010.05.17/outbox.cif.g08.bks.cpg/sg50_15_cif.got.tgz:28076.got - 2010.06.03 11:33:33.
