data_PCOD9396295
_publ_section_title
;
Structure prediction by ZEFSAII (Michael W. Deem and Ramdas Pophale) SiO2 
 PCOD9396295
Probable space group: P B A N
;
_chemical_formula_sum "Si O2"
_cell_formula_units_Z 56
_cell_length_a 20.115888
_cell_length_b 10.868168
_cell_length_c 15.075320
_cell_angle_alpha 90.000000
_cell_angle_beta 90.000000
_cell_angle_gamma 90.000000
_cell_volume 3295.809427
_symmetry_space_group_name_H-M "P B A N"
_symmetry_group_IT_number 50
_space_group.IT_coordinate_system_code '2'
_symmetry_cell_setting 'orthorhombic'
loop_
_space_group_symop_operation_xyz
x,y,z
1/2-x,1/2-y,z
x,1/2-y,-z
1/2-x,y,-z
-x,-y,-z
1/2+x,1/2+y,-z
-x,1/2+y,z
1/2+x,-y,z
loop_
_atom_site_type_symbol
_atom_site_label
_atom_site_fract_x
_atom_site_fract_y
_atom_site_fract_z
Si Si1 0.552732 0.888056 0.500000
Si Si2 0.126868 0.035555 0.677114
Si Si3 0.325369 0.250000 0.194642
Si Si4 0.373132 0.035555 0.677114
Si Si5 0.537723 0.750000 0.896284
Si Si6 0.500000 1.000000 0.793406
Si Si7 0.250000 0.604309 0.399041
O O1 0.522551 0.750000 0.500000
O O2 0.597042 0.903194 0.411804
O O3 0.500000 0.000000 0.500000
O O4 0.597042 0.903194 0.588196
O O5 0.183449 0.941317 0.648462
O O6 0.064258 0.982120 0.730919
O O7 0.160920 0.134126 0.741742
O O8 0.250000 0.250000 0.161650
O O9 0.339080 0.365873 0.258259
O O10 0.382780 0.250000 0.120906
O O11 0.435741 0.982120 0.730919
O O12 0.316550 0.941317 0.648462
O O13 0.511026 0.624633 0.850158
O O14 0.511026 0.875366 0.850157
O O15 0.522129 0.750000 0.000000
O O16 0.250000 0.750000 0.402101
O O17 0.250000 0.555131 0.500000
#
# Coordination Sequence:
#
# PCOD9396295 Si02
#       7
#     8   8   8   8   8   8   8
#     4  12  24  35  56  85 123 163 203 249 288 326
#     4  11  21  37  56  82 117 155 201 236 278 339
#     4  10  20  36  60  86 110 143 190 233 285 348
#     4  11  21  37  56  82 117 155 201 236 278 339
#     4  10  22  41  63  88 113 141 186 241 304 364
#     4  10  23  37  62  88 112 150 190 239 295 344
#     4  11  24  35  51  81 118 164 202 240 280 326
#
# _framework density 16.991274000000001
#
# number of rings (size 3 to 8) (size 9 to 14) (size 15 to 20)
#    0.000    1.286    5.714    0.429    2.000    1.429 
#    0.000    2.143    0.000    0.000    0.000    1.000 
#    0.000    0.000    0.000    0.000    0.000    0.000 
#
# Total GULP energy -312493.731592 kJ/mol
# GULP energy per Si atom -5580.245207 kJ/mol
# Density = 1.695260 g / cm^3
# Si number density = 16.991274 Si / 1000 Ang^3
#
#
#
# Elastic Constant Matrix: (Units=GPa)
#
#
# Indices 1 2 3 4 5 6 
#
# 1 134.4450 61.7904 49.5739 0.0000 0.0000 0.0000
# 2 61.7904 108.1026 41.4025 0.0000 0.0000 0.0000
# 3 49.5739 41.4025 103.9327 0.0000 0.0000 0.0000
# 4 0.0000 0.0000 0.0000 13.0940 0.0000 0.0000
# 5 0.0000 0.0000 0.0000 0.0000 7.1125 0.0000
# 6 0.0000 0.0000 0.0000 0.0000 0.0000 29.9936
#
#
#
# Elastic Compliance Matrix: (Units=1/GPa)
#
#
# Indices 1 2 3 4 5 6 
#
# 1 0.010928 -0.005015 -0.003215 0.000000 0.000000 0.000000
# 2 -0.005015 0.013218 -0.002873 0.000000 0.000000 0.000000
# 3 -0.003215 -0.002873 0.012300 0.000000 0.000000 0.000000
# 4 0.000000 0.000000 0.000000 0.076371 0.000000 0.000000
# 5 0.000000 0.000000 0.000000 0.000000 0.140597 0.000000
# 6 0.000000 0.000000 0.000000 0.000000 0.000000 0.033340
#
#
# Mechanical properties :
#
#
# Convention : Reuss Voigt Hill
#
# Bulk Modulus (GPa) = 70.22917 72.44600 71.33758
# Shear Modulus (GPa) = 15.93847 22.95426 19.44636
#
# Velocity S-wave (km/s) = 3.06606 3.67951 3.38670
# Velocity P-wave (km/s) = 7.34551 7.79624 7.57423
#
# Compressibility (1/GPa) = 0.01423910
#
# Stress axis : x y z
#
# Youngs Moduli (GPa) = 91.50486 75.65679 81.30409
#
# Poissons Ratio (x) = 0.37944 0.26137
# Poissons Ratio (y) = 0.45893 0.23360
# Poissons Ratio (z) = 0.29416 0.21737
#
# Static dielectric constant tensor:
#      x y z
#    x 1.568220 0.000000 0.000000 
#    y 0.000000 1.563680 0.000000 
#    z 0.000000 0.000000 1.553720 
# 
# From -- ./inp_files/27246.got.cif
#   From: 2010.05.17/outbox.cif.g08.bks.cpg/sg50_14_cif.got.tgz:27246.got - 2010.06.03 11:33:33.
