data_PCOD9396276
_publ_section_title
;
Structure prediction by ZEFSAII (Michael W. Deem and Ramdas Pophale) SiO2 
 PCOD9396276
Probable space group: P B A N
;
_chemical_formula_sum "Si O2"
_cell_formula_units_Z 64
_cell_length_a 8.862214
_cell_length_b 15.025108
_cell_length_c 25.074665
_cell_angle_alpha 90.000000
_cell_angle_beta 90.000000
_cell_angle_gamma 90.000000
_cell_volume 3338.835134
_symmetry_space_group_name_H-M "P B A N"
_symmetry_group_IT_number 50
_space_group.IT_coordinate_system_code '2'
_symmetry_cell_setting 'orthorhombic'
loop_
_space_group_symop_operation_xyz
x,y,z
1/2-x,1/2-y,z
x,1/2-y,-z
1/2-x,y,-z
-x,-y,-z
1/2+x,1/2+y,-z
-x,1/2+y,z
1/2+x,-y,z
loop_
_atom_site_type_symbol
_atom_site_label
_atom_site_fract_x
_atom_site_fract_y
_atom_site_fract_z
Si Si1 0.434100 0.093080 0.885908
Si Si2 0.932154 0.400887 0.499118
Si Si3 0.931912 0.250339 0.584021
Si Si4 0.382956 0.071654 0.770739
Si Si5 0.413299 0.646805 0.992811
Si Si6 0.423149 0.099286 0.100567
Si Si7 0.071008 0.269783 0.700097
Si Si8 0.029955 0.119249 0.783792
O O1 0.448759 0.118736 0.824235
O O2 0.521799 0.138219 0.933842
O O3 0.256997 0.096537 0.898787
O O4 0.501506 0.994834 0.887681
O O5 0.750000 0.408403 0.500000
O O6 0.975809 0.337230 0.549006
O O7 0.975231 0.339887 0.447916
O O8 0.000000 0.500000 0.500000
O O9 0.750000 0.250000 0.586738
O O10 0.000483 0.255609 0.642428
O O11 0.443609 0.129166 0.721485
O O12 0.202279 0.084279 0.775135
O O13 0.426362 0.967480 0.772443
O O14 0.393249 0.750000 0.000000
O O15 0.250000 0.600186 0.000000
O O16 0.521748 0.620591 0.041266
O O17 0.475478 0.151871 0.154096
O O18 0.250000 0.250000 0.698026
O O19 0.004223 0.199487 0.742826
#
# Coordination Sequence:
#
# PCOD9396276 Si02
#       8
#     8   8   8   8   8   8   8   8
#     4  10  20  36  58  77 100 135 175 219 271 333
#     4   9  19  37  60  84 116 153 191 231 274 320
#     4   9  20  38  56  82 117 153 189 228 274 327
#     4   9  20  37  57  80 109 143 184 229 276 330
#     4  11  24  37  50  75 107 133 168 221 274 331
#     4  10  20  36  58  77 100 135 175 219 271 333
#     4  10  21  37  57  83 115 150 186 232 275 320
#     4   9  20  37  57  80 109 143 184 229 276 330
#
# _framework density 19.168361000000001
#
# number of rings (size 3 to 8) (size 9 to 14) (size 15 to 20)
#    0.000    2.375    0.000    2.250    1.750    5.000 
#    0.000    6.250    0.000    0.000    0.000    0.000 
#    0.000    0.000    0.000    0.000    0.000    0.000 
#
# Total GULP energy -356592.003329 kJ/mol
# GULP energy per Si atom -5571.750052 kJ/mol
# Density = 1.912473 g / cm^3
# Si number density = 19.168361 Si / 1000 Ang^3
#
#
#
# Elastic Constant Matrix: (Units=GPa)
#
#
# Indices 1 2 3 4 5 6 
#
# 1 29.8578 1.3721 14.5482 0.0000 0.0000 0.0000
# 2 1.3721 52.8615 3.6732 0.0000 0.0000 0.0000
# 3 14.5482 3.6732 88.1157 0.0000 0.0000 0.0000
# 4 0.0000 0.0000 0.0000 22.6569 0.0000 0.0000
# 5 0.0000 0.0000 0.0000 0.0000 32.0689 0.0000
# 6 0.0000 0.0000 0.0000 0.0000 0.0000 17.3152
#
#
#
# Elastic Compliance Matrix: (Units=1/GPa)
#
#
# Indices 1 2 3 4 5 6 
#
# 1 0.036437 -0.000529 -0.005994 0.000000 0.000000 0.000000
# 2 -0.000529 0.018980 -0.000704 0.000000 0.000000 0.000000
# 3 -0.005994 -0.000704 0.012368 0.000000 0.000000 0.000000
# 4 0.000000 0.000000 0.000000 0.044137 0.000000 0.000000
# 5 0.000000 0.000000 0.000000 0.000000 0.031183 0.000000
# 6 0.000000 0.000000 0.000000 0.000000 0.000000 0.057753
#
#
# Mechanical properties :
#
#
# Convention : Reuss Voigt Hill
#
# Bulk Modulus (GPa) = 18.75090 23.33577 21.04334
# Shear Modulus (GPa) = 21.45120 24.49099 22.97109
#
# Velocity S-wave (km/s) = 3.34892 3.57834 3.46553
# Velocity P-wave (km/s) = 4.97565 5.41047 5.19761
#
# Compressibility (1/GPa) = 0.05333078
#
# Stress axis : x y z
#
# Youngs Moduli (GPa) = 27.44474 52.68704 80.85614
#
# Poissons Ratio (x) = 0.02788 0.48463
# Poissons Ratio (y) = 0.01453 0.05691
# Poissons Ratio (z) = 0.16450 0.03708
#
# Static dielectric constant tensor:
#      x y z
#    x 1.656550 0.000000 0.000000 
#    y 0.000000 1.661510 0.000000 
#    z 0.000000 0.000000 1.808940 
# 
# From -- ./inp_files/31607.got.cif
#   From: 2010.05.17/outbox.cif.g08.bks.cpg/sg50_16_cif.got.tgz:31607.got - 2010.06.03 11:33:33.
