data_PCOD9396296
_publ_section_title
;
Structure prediction by ZEFSAII (Michael W. Deem and Ramdas Pophale) SiO2 
 PCOD9396296
Probable space group: P B A N
;
_chemical_formula_sum "Si O2"
_cell_formula_units_Z 48
_cell_length_a 21.225996
_cell_length_b 14.334815
_cell_length_c 7.814776
_cell_angle_alpha 90.000000
_cell_angle_beta 90.000000
_cell_angle_gamma 90.000000
_cell_volume 2377.807566
_symmetry_space_group_name_H-M "P B A N"
_symmetry_group_IT_number 50
_space_group.IT_coordinate_system_code '2'
_symmetry_cell_setting 'orthorhombic'
loop_
_space_group_symop_operation_xyz
x,y,z
1/2-x,1/2-y,z
x,1/2-y,-z
1/2-x,y,-z
-x,-y,-z
1/2+x,1/2+y,-z
-x,1/2+y,z
1/2+x,-y,z
loop_
_atom_site_type_symbol
_atom_site_label
_atom_site_fract_x
_atom_site_fract_y
_atom_site_fract_z
Si Si1 0.020356 0.362697 0.156215
Si Si2 0.488861 0.923766 0.193385
Si Si3 0.370361 0.333693 0.633207
Si Si4 0.245437 0.363519 0.802483
Si Si5 0.420852 0.648792 0.462831
Si Si6 0.120906 0.460521 0.654711
O O1 0.084147 0.307476 0.209142
O O2 0.038929 0.473164 0.159513
O O3 0.971896 0.342536 0.309598
O O4 0.987892 0.355614 0.970555
O O5 0.456512 0.883710 0.363565
O O6 0.563093 0.945070 0.218336
O O7 0.356714 0.250000 0.500000
O O8 0.308118 0.385343 0.697607
O O9 0.404282 0.407915 0.513534
O O10 0.250000 0.250000 0.797095
O O11 0.183759 0.410079 0.721302
O O12 0.250000 0.391303 0.000000
O O13 0.392633 0.750000 0.500000
O O14 0.373956 0.568298 0.396992
#
# Coordination Sequence:
#
# PCOD9396296 Si02
#       6
#     8   8   8   8   8   8
#     4  10  20  36  60  88 124 157 201 250 302 354
#     4  10  20  37  59  87 121 164 200 244 305 357
#     4  12  21  36  59  87 118 160 198 247 311 369
#     4  11  24  38  57  89 120 157 202 249 316 383
#     4  11  22  39  59  87 124 167 208 248 297 364
#     4  11  21  39  58  85 126 158 199 257 303 360
#
# _framework density 20.186661999999998
#
# number of rings (size 3 to 8) (size 9 to 14) (size 15 to 20)
#    0.000    1.167    5.000    3.000    0.000    0.667 
#    0.000    0.000    0.000    2.000    0.000    1.167 
#    0.000    0.000    0.000    0.000    0.000    0.000 
#
# Total GULP energy -267721.206122 kJ/mol
# GULP energy per Si atom -5577.525128 kJ/mol
# Density = 2.014072 g / cm^3
# Si number density = 20.186662 Si / 1000 Ang^3
#
#
#
# Elastic Constant Matrix: (Units=GPa)
#
#
# Indices 1 2 3 4 5 6 
#
# 1 75.2320 22.7663 36.6156 0.0000 0.0000 0.0000
# 2 22.7663 106.6741 28.8793 0.0000 0.0000 0.0000
# 3 36.6156 28.8793 144.1531 0.0000 0.0000 0.0000
# 4 0.0000 0.0000 0.0000 20.7009 0.0000 0.0000
# 5 0.0000 0.0000 0.0000 0.0000 26.0416 0.0000
# 6 0.0000 0.0000 0.0000 0.0000 0.0000 19.5544
#
#
#
# Elastic Compliance Matrix: (Units=1/GPa)
#
#
# Indices 1 2 3 4 5 6 
#
# 1 0.015730 -0.002406 -0.003514 0.000000 0.000000 0.000000
# 2 -0.002406 0.010280 -0.001448 0.000000 0.000000 0.000000
# 3 -0.003514 -0.001448 0.008120 0.000000 0.000000 0.000000
# 4 0.000000 0.000000 0.000000 0.048307 0.000000 0.000000
# 5 0.000000 0.000000 0.000000 0.000000 0.038400 0.000000
# 6 0.000000 0.000000 0.000000 0.000000 0.000000 0.051139
#
#
# Mechanical properties :
#
#
# Convention : Reuss Voigt Hill
#
# Bulk Modulus (GPa) = 51.56168 55.84239 53.70203
# Shear Modulus (GPa) = 25.88301 29.11259 27.49780
#
# Velocity S-wave (km/s) = 3.58464 3.80171 3.69477
# Velocity P-wave (km/s) = 6.53688 6.85520 6.69793
#
# Compressibility (1/GPa) = 0.01939425
#
# Stress axis : x y z
#
# Youngs Moduli (GPa) = 63.57133 97.27701 123.15741
#
# Poissons Ratio (x) = 0.23404 0.43272
# Poissons Ratio (y) = 0.15295 0.17837
# Poissons Ratio (z) = 0.22336 0.14089
#
# Static dielectric constant tensor:
#      x y z
#    x 1.717000 0.000000 0.000000 
#    y 0.000000 1.800880 0.000000 
#    z 0.000000 0.000000 1.797210 
# 
# From -- ./inp_files/15247.got.cif
#   From: 2010.05.17/outbox.cif.g08.bks.cpg/sg50_8_cif.got.tgz:15247.got - 2010.06.03 11:33:33.
