data_PCOD9396139
_publ_section_title
;
Structure prediction by ZEFSAII (Michael W. Deem and Ramdas Pophale) SiO2 
 PCOD9396139
Probable space group: P B A N
;
_chemical_formula_sum "Si O2"
_cell_formula_units_Z 58
_cell_length_a 11.574324
_cell_length_b 9.037366
_cell_length_c 29.798607
_cell_angle_alpha 90.000000
_cell_angle_beta 90.000000
_cell_angle_gamma 90.000000
_cell_volume 3116.976076
_symmetry_space_group_name_H-M "P B A N"
_symmetry_group_IT_number 50
_space_group.IT_coordinate_system_code '2'
_symmetry_cell_setting 'orthorhombic'
loop_
_space_group_symop_operation_xyz
x,y,z
1/2-x,1/2-y,z
x,1/2-y,-z
1/2-x,y,-z
-x,-y,-z
1/2+x,1/2+y,-z
-x,1/2+y,z
1/2+x,-y,z
loop_
_atom_site_type_symbol
_atom_site_label
_atom_site_fract_x
_atom_site_fract_y
_atom_site_fract_z
Si Si1 0.250000 0.750000 0.500000
Si Si2 0.886037 0.726694 0.949281
Si Si3 0.877988 0.229057 0.838988
Si Si4 0.877464 0.679757 0.295704
Si Si5 0.490432 0.523083 0.891256
Si Si6 0.374620 0.669447 0.266699
Si Si7 0.947996 0.069173 0.545599
Si Si8 0.379736 0.284650 0.402636
O O1 0.166235 0.845313 0.469090
O O2 0.750000 0.750000 0.950221
O O3 0.911636 0.568293 0.926312
O O4 0.940533 0.854603 0.918869
O O5 0.931103 0.750000 0.000000
O O6 0.750000 0.250000 0.855868
O O7 0.935545 0.386260 0.849887
O O8 0.875389 0.180685 0.787328
O O9 0.934169 0.102349 0.868374
O O10 0.750000 0.750000 0.280798
O O11 0.875128 0.502770 0.283698
O O12 0.883774 0.712629 0.348935
O O13 0.001264 0.751343 0.279259
O O14 0.250000 0.750000 0.280761
O O15 0.037237 0.173046 0.571312
O O16 0.915092 0.943510 0.580005
O O17 0.000000 0.000000 0.500000
O O18 0.250000 0.250000 0.416831
#
# Coordination Sequence:
#
# PCOD9396139 Si02
#       8
#     2   8   8   8   8   8   8   8
#     4  12  24  40  64  92 120 156 202 242 296 348
#     4  10  20  34  53  78 111 151 192 236 289 347
#     4  10  21  37  58  85 114 149 192 243 299 355
#     4  11  24  44  65  94 126 164 208 255 310 377
#     4  10  20  35  55  81 113 147 192 241 291 349
#     4  11  23  42  66  92 125 163 206 258 316 377
#     4  12  23  43  65  92 123 160 200 246 297 352
#     4  11  25  43  64  91 124 160 201 246 297 356
#
# _framework density 18.607778
#
# number of rings (size 3 to 8) (size 9 to 14) (size 15 to 20)
#    0.000    1.241    1.379    4.552    0.000    2.759 
#    2.483    3.448    0.000    6.621    0.000    0.000 
#    0.000    0.000    0.000    0.000    0.000    0.000 
#
# Total GULP energy -323193.502823 kJ/mol
# GULP energy per Si atom -5572.301773 kJ/mol
# Density = 1.856543 g / cm^3
# Si number density = 18.607778 Si / 1000 Ang^3
#
#
#
# Elastic Constant Matrix: (Units=GPa)
#
#
# Indices 1 2 3 4 5 6 
#
# 1 140.1442 74.2753 30.5413 0.0000 0.0000 0.0000
# 2 74.2753 136.8645 29.3380 0.0000 0.0000 0.0000
# 3 30.5413 29.3380 61.1304 0.0000 0.0000 0.0000
# 4 0.0000 0.0000 0.0000 53.5046 0.0000 0.0000
# 5 0.0000 0.0000 0.0000 0.0000 -32.2644 0.0000
# 6 0.0000 0.0000 0.0000 0.0000 0.0000 25.1204
#
#
#
# Elastic Compliance Matrix: (Units=1/GPa)
#
#
# Indices 1 2 3 4 5 6 
#
# 1 0.010423 -0.005061 -0.002779 0.000000 0.000000 0.000000
# 2 -0.005061 0.010602 -0.002559 0.000000 0.000000 0.000000
# 3 -0.002779 -0.002559 0.018975 0.000000 0.000000 0.000000
# 4 0.000000 0.000000 0.000000 0.018690 0.000000 0.000000
# 5 0.000000 0.000000 0.000000 0.000000 -0.030994 0.000000
# 6 0.000000 0.000000 0.000000 0.000000 0.000000 0.039808
#
#
# Mechanical properties :
#
#
# Convention : Reuss Voigt Hill
#
# Bulk Modulus (GPa) = 52.07859 67.38315 59.73087
# Shear Modulus (GPa) = 52.79626 22.87107 37.83367
#
# Velocity S-wave (km/s) = 5.33243 3.50967 4.51401
# Velocity P-wave (km/s) = 8.12166 7.26049 7.70312
#
# Compressibility (1/GPa) = 0.01920175
#
# Stress axis : x y z
#
# Youngs Moduli (GPa) = 95.93823 94.32425 52.70065
#
# Poissons Ratio (x) = 0.47738 0.14644
# Poissons Ratio (y) = 0.48555 0.13489
# Poissons Ratio (z) = 0.26658 0.24142
#
# Static dielectric constant tensor:
#      x y z
#    x 1.654660 0.000000 0.000000 
#    y 0.000000 1.645040 0.000000 
#    z 0.000000 0.000000 1.617300 
# 
# From -- ./inp_files/32192.got.cif
#   From: 2010.05.17/outbox.cif.g08.bks.cpg/sg50_17_cif.got.tgz:32192.got - 2010.06.03 11:33:33.
