data_PCOD9396540
_publ_section_title
;
Structure prediction by ZEFSAII (Michael W. Deem and Ramdas Pophale) SiO2 
 PCOD9396540
Probable space group: P B A N
;
_chemical_formula_sum "Si O2"
_cell_formula_units_Z 58
_cell_length_a 16.720825
_cell_length_b 10.745072
_cell_length_c 14.597353
_cell_angle_alpha 90.000000
_cell_angle_beta 90.000000
_cell_angle_gamma 90.000000
_cell_volume 2622.654863
_symmetry_space_group_name_H-M "P B A N"
_symmetry_group_IT_number 50
_space_group.IT_coordinate_system_code '2'
_symmetry_cell_setting 'orthorhombic'
loop_
_space_group_symop_operation_xyz
x,y,z
1/2-x,1/2-y,z
x,1/2-y,-z
1/2-x,y,-z
-x,-y,-z
1/2+x,1/2+y,-z
-x,1/2+y,z
1/2+x,-y,z
loop_
_atom_site_type_symbol
_atom_site_label
_atom_site_fract_x
_atom_site_fract_y
_atom_site_fract_z
Si Si1 0.191438 0.447848 0.801747
Si Si2 0.603199 0.148715 0.735185
Si Si3 0.343466 0.612835 0.032467
Si Si4 0.750000 0.250000 0.500000
Si Si5 0.064660 0.262939 0.251874
Si Si6 0.518097 0.957283 0.605107
Si Si7 0.661228 0.107392 0.350177
Si Si8 0.143561 0.454522 0.125661
O O1 0.133153 0.337255 0.770670
O O2 0.215504 0.511719 0.705394
O O3 0.267547 0.400542 0.859544
O O4 0.153610 0.560159 0.863688
O O5 0.518930 0.200190 0.769825
O O6 0.654601 0.262029 0.700922
O O7 0.575685 0.058749 0.652104
O O8 0.647001 0.081675 0.817121
O O9 0.379629 0.497601 0.974623
O O10 0.373864 0.750000 0.000000
O O11 0.250000 0.613736 0.000000
O O12 0.694020 0.153671 0.445872
O O13 0.056006 0.325936 0.354520
O O14 0.080622 0.372967 0.180296
O O15 0.428002 0.949905 0.645594
O O16 0.500000 0.000000 0.500000
#
# Coordination Sequence:
#
# PCOD9396540 Si02
#       8
#     8   8   8   2   8   8   8   8
#     4  11  21  39  63  92 127 164 206 264 329 380
#     4  10  20  40  62  89 122 167 212 254 319 386
#     4   9  19  36  62  95 124 163 215 259 314 393
#     4  12  24  36  56  96 120 152 222 272 316 370
#     4  10  22  38  61  90 126 163 209 254 323 385
#     4  10  21  39  64  84 115 166 214 252 308 391
#     4  11  22  37  60  86 120 157 200 265 316 370
#     4  10  21  38  64  90 125 167 210 262 317 388
#
# _framework density 22.114996999999999
#
# number of rings (size 3 to 8) (size 9 to 14) (size 15 to 20)
#    0.000    1.793    1.379    2.897    0.000    5.517 
#    0.000    2.759    6.069    0.000    0.000    0.000 
#    0.000    0.000    0.000    0.000    0.000    0.000 
#
# Total GULP energy -323141.241601 kJ/mol
# GULP energy per Si atom -5571.400717 kJ/mol
# Density = 2.206466 g / cm^3
# Si number density = 22.114997 Si / 1000 Ang^3
#
#
#
# Elastic Constant Matrix: (Units=GPa)
#
#
# Indices 1 2 3 4 5 6 
#
# 1 45.9756 9.3632 8.1646 0.0000 0.0000 0.0000
# 2 9.3632 71.7176 32.7222 0.0000 0.0000 0.0000
# 3 8.1646 32.7222 101.2949 0.0000 0.0000 0.0000
# 4 0.0000 0.0000 0.0000 23.5890 0.0000 0.0000
# 5 0.0000 0.0000 0.0000 0.0000 19.1752 0.0000
# 6 0.0000 0.0000 0.0000 0.0000 0.0000 29.5023
#
#
#
# Elastic Compliance Matrix: (Units=1/GPa)
#
#
# Indices 1 2 3 4 5 6 
#
# 1 0.022433 -0.002467 -0.001011 0.000000 0.000000 0.000000
# 2 -0.002467 0.016625 -0.005172 0.000000 0.000000 0.000000
# 3 -0.001011 -0.005172 0.011624 0.000000 0.000000 0.000000
# 4 0.000000 0.000000 0.000000 0.042393 0.000000 0.000000
# 5 0.000000 0.000000 0.000000 0.000000 0.052151 0.000000
# 6 0.000000 0.000000 0.000000 0.000000 0.000000 0.033896
#
#
# Mechanical properties :
#
#
# Convention : Reuss Voigt Hill
#
# Bulk Modulus (GPa) = 29.95630 35.49868 32.72749
# Shear Modulus (GPa) = 24.09065 25.70250 24.89658
#
# Velocity S-wave (km/s) = 3.30409 3.41283 3.35890
# Velocity P-wave (km/s) = 5.30388 5.62287 5.46570
#
# Compressibility (1/GPa) = 0.03338196
#
# Stress axis : x y z
#
# Youngs Moduli (GPa) = 44.57771 60.14886 86.02631
#
# Poissons Ratio (x) = 0.14841 0.08698
# Poissons Ratio (y) = 0.10999 0.44491
# Poissons Ratio (z) = 0.04507 0.31108
#
# Static dielectric constant tensor:
#      x y z
#    x 1.874960 0.000000 0.000000 
#    y 0.000000 1.857140 0.000000 
#    z 0.000000 0.000000 1.913380 
# 
# From -- ./inp_files/26980.got.cif
#   From: 2010.05.17/outbox.cif.g08.bks.cpg/sg50_14_cif.got.tgz:26980.got - 2010.06.03 11:33:33.
