data_PCOD9396857
_publ_section_title
;
Structure prediction by ZEFSAII (Michael W. Deem and Ramdas Pophale) SiO2 
 PCOD9396857
Probable space group: P B A N
;
_chemical_formula_sum "Si O2"
_cell_formula_units_Z 64
_cell_length_a 4.940746
_cell_length_b 29.296655
_cell_length_c 19.368291
_cell_angle_alpha 90.000000
_cell_angle_beta 90.000000
_cell_angle_gamma 90.000000
_cell_volume 2803.508428
_symmetry_space_group_name_H-M "P B A N"
_symmetry_group_IT_number 50
_space_group.IT_coordinate_system_code '2'
_symmetry_cell_setting 'orthorhombic'
loop_
_space_group_symop_operation_xyz
x,y,z
1/2-x,1/2-y,z
x,1/2-y,-z
1/2-x,y,-z
-x,-y,-z
1/2+x,1/2+y,-z
-x,1/2+y,z
1/2+x,-y,z
loop_
_atom_site_type_symbol
_atom_site_label
_atom_site_fract_x
_atom_site_fract_y
_atom_site_fract_z
Si Si1 0.276897 0.303564 0.137395
Si Si2 0.342450 0.887023 0.169626
Si Si3 0.228390 0.855952 0.318400
Si Si4 0.983045 0.605845 0.455501
Si Si5 0.375960 0.028764 0.635745
Si Si6 0.737091 0.801344 0.295702
Si Si7 0.490637 0.377961 0.952686
Si Si8 0.795231 0.532668 0.206733
O O1 0.250000 0.250000 0.119667
O O2 0.543880 0.336513 0.147566
O O3 0.163671 0.304462 0.215959
O O4 0.121062 0.331061 0.078876
O O5 0.232229 0.886084 0.248353
O O6 0.587435 0.923200 0.167934
O O7 0.117228 0.901898 0.114814
O O8 0.379458 0.874925 0.385352
O O9 0.424908 0.814462 0.297617
O O10 0.930568 0.837197 0.333658
O O11 0.250000 0.595556 0.500000
O O12 0.816469 0.563044 0.425275
O O13 0.750000 0.631909 0.500000
O O14 0.310249 0.046499 0.712135
O O15 0.189679 0.984276 0.630415
O O16 0.750000 0.750000 0.321362
O O17 0.250000 0.398475 0.000000
O O18 0.750000 0.370729 0.000000
O O19 0.007742 0.491058 0.195428
#
# Coordination Sequence:
#
# PCOD9396857 Si02
#       8
#     8   8   8   8   8   8   8   8
#     4  10  23  42  66 102 137 178 225 269 331 417
#     4  11  23  44  71  94 137 182 228 285 342 394
#     4  11  22  40  65  92 124 173 216 269 330 394
#     4  12  25  40  60  93 131 173 213 262 327 405
#     4  10  21  39  59  91 129 169 215 262 320 402
#     4  10  21  38  66  96 124 160 220 279 324 382
#     4  12  25  44  63  99 137 184 221 268 333 415
#     4  10  23  39  68 101 129 168 233 291 339 394
#
# _framework density 22.828537000000001
#
# number of rings (size 3 to 8) (size 9 to 14) (size 15 to 20)
#    0.000    1.250    3.750    1.875    1.750    2.250 
#    2.250    0.000    0.000    7.875    0.000    0.000 
#    0.000    0.000    0.000    0.000    0.000    0.000 
#
# Total GULP energy -357047.474356 kJ/mol
# GULP energy per Si atom -5578.866787 kJ/mol
# Density = 2.277658 g / cm^3
# Si number density = 22.828537 Si / 1000 Ang^3
#
#
#
# Elastic Constant Matrix: (Units=GPa)
#
#
# Indices 1 2 3 4 5 6 
#
# 1 109.8608 9.7217 38.7011 0.0000 0.0000 0.0000
# 2 9.7217 42.4061 23.5870 0.0000 0.0000 0.0000
# 3 38.7011 23.5870 114.2294 0.0000 0.0000 0.0000
# 4 0.0000 0.0000 0.0000 17.7900 0.0000 0.0000
# 5 0.0000 0.0000 0.0000 0.0000 38.9560 0.0000
# 6 0.0000 0.0000 0.0000 0.0000 0.0000 25.4842
#
#
#
# Elastic Compliance Matrix: (Units=1/GPa)
#
#
# Indices 1 2 3 4 5 6 
#
# 1 0.010345 -0.000477 -0.003406 0.000000 0.000000 0.000000
# 2 -0.000477 0.026663 -0.005344 0.000000 0.000000 0.000000
# 3 -0.003406 -0.005344 0.011012 0.000000 0.000000 0.000000
# 4 0.000000 0.000000 0.000000 0.056211 0.000000 0.000000
# 5 0.000000 0.000000 0.000000 0.000000 0.025670 0.000000
# 6 0.000000 0.000000 0.000000 0.000000 0.000000 0.039240
#
#
# Mechanical properties :
#
#
# Convention : Reuss Voigt Hill
#
# Bulk Modulus (GPa) = 33.82351 45.61289 39.71820
# Shear Modulus (GPa) = 25.32278 29.41181 27.36729
#
# Velocity S-wave (km/s) = 3.33417 3.59329 3.46615
# Velocity P-wave (km/s) = 5.44708 6.10243 5.78405
#
# Compressibility (1/GPa) = 0.02956523
#
# Stress axis : x y z
#
# Youngs Moduli (GPa) = 96.66908 37.50471 90.81121
#
# Poissons Ratio (x) = 0.01789 0.30933
# Poissons Ratio (y) = 0.04610 0.48530
# Poissons Ratio (z) = 0.32928 0.20043
#
# Static dielectric constant tensor:
#      x y z
#    x 1.914770 0.000000 0.000000 
#    y 0.000000 1.877820 0.000000 
#    z 0.000000 0.000000 1.927600 
# 
# From -- ./inp_files/28440.got.cif
#   From: 2010.05.17/outbox.cif.g08.bks.cpg/sg50_15_cif.got.tgz:28440.got - 2010.06.03 11:33:33.
