data_PCOD9396774
_publ_section_title
;
Structure prediction by ZEFSAII (Michael W. Deem and Ramdas Pophale) SiO2 
 PCOD9396774
Probable space group: P B A N
;
_chemical_formula_sum "Si O2"
_cell_formula_units_Z 32
_cell_length_a 5.058507
_cell_length_b 36.679472
_cell_length_c 7.632978
_cell_angle_alpha 90.000000
_cell_angle_beta 90.000000
_cell_angle_gamma 90.000000
_cell_volume 1416.248430
_symmetry_space_group_name_H-M "P B A N"
_symmetry_group_IT_number 50
_space_group.IT_coordinate_system_code '2'
_symmetry_cell_setting 'orthorhombic'
loop_
_space_group_symop_operation_xyz
x,y,z
1/2-x,1/2-y,z
x,1/2-y,-z
1/2-x,y,-z
-x,-y,-z
1/2+x,1/2+y,-z
-x,1/2+y,z
1/2+x,-y,z
loop_
_atom_site_type_symbol
_atom_site_label
_atom_site_fract_x
_atom_site_fract_y
_atom_site_fract_z
Si Si1 0.234026 0.791554 0.786547
Si Si2 0.759442 0.662559 0.789040
Si Si3 0.229836 0.978533 0.789529
Si Si4 0.005162 0.407969 0.610992
O O1 0.250000 0.750000 0.724320
O O2 0.458513 0.820818 0.734827
O O3 0.951967 0.807107 0.736708
O O4 0.250000 0.790311 0.000000
O O5 0.651619 0.624953 0.710880
O O6 0.750000 0.658774 0.000000
O O7 0.122799 0.939689 0.728113
O O8 0.517937 0.991186 0.729896
O O9 0.250000 0.978008 0.000000
O O10 0.250000 0.423746 0.500000
O O11 0.750000 0.394678 0.500000
#
# Coordination Sequence:
#
# PCOD9396774 Si02
#       4
#     8   8   8   8
#     4   9  17  32  58  91 120 151 203 266 314 357
#     4  10  21  37  60  88 122 164 207 254 310 373
#     4  10  23  43  67  93 122 161 210 261 312 372
#     4  12  26  41  62  93 132 170 206 257 314 375
#
# _framework density 22.594904
#
# number of rings (size 3 to 8) (size 9 to 14) (size 15 to 20)
#    0.000    1.750    0.000    3.750    0.000   14.000 
#    0.000    0.000    0.000   11.250    0.000    0.000 
#    0.000    0.000    0.000    0.000    0.000    0.000 
#
# Total GULP energy -178813.214611 kJ/mol
# GULP energy per Si atom -5587.912957 kJ/mol
# Density = 2.254348 g / cm^3
# Si number density = 22.594904 Si / 1000 Ang^3
#
#
#
# Elastic Constant Matrix: (Units=GPa)
#
#
# Indices 1 2 3 4 5 6 
#
# 1 145.3757 43.1494 46.0326 0.0000 0.0000 0.0000
# 2 43.1494 157.4373 46.8207 0.0000 0.0000 0.0000
# 3 46.0326 46.8207 46.8407 0.0000 0.0000 0.0000
# 4 0.0000 0.0000 0.0000 35.2305 0.0000 0.0000
# 5 0.0000 0.0000 0.0000 0.0000 22.1308 0.0000
# 6 0.0000 0.0000 0.0000 0.0000 0.0000 42.1573
#
#
#
# Elastic Compliance Matrix: (Units=1/GPa)
#
#
# Indices 1 2 3 4 5 6 
#
# 1 0.009994 0.000259 -0.010080 0.000000 0.000000 0.000000
# 2 0.000259 0.009045 -0.009296 0.000000 0.000000 0.000000
# 3 -0.010080 -0.009296 0.040547 0.000000 0.000000 0.000000
# 4 0.000000 0.000000 0.000000 0.028384 0.000000 0.000000
# 5 0.000000 0.000000 0.000000 0.000000 0.045186 0.000000
# 6 0.000000 0.000000 0.000000 0.000000 0.000000 0.023721
#
#
# Mechanical properties :
#
#
# Convention : Reuss Voigt Hill
#
# Bulk Modulus (GPa) = 46.83415 69.07322 57.95369
# Shear Modulus (GPa) = 24.72461 34.14712 29.43586
#
# Velocity S-wave (km/s) = 3.31154 3.89173 3.61330
# Velocity P-wave (km/s) = 5.94933 7.12957 6.56602
#
# Compressibility (1/GPa) = 0.02135194
#
# Stress axis : x y z
#
# Youngs Moduli (GPa) = 100.06298 110.55467 24.66296
#
# Poissons Ratio (x) = -0.02860 0.24860
# Poissons Ratio (y) = -0.02588 0.22926
# Poissons Ratio (z) = 1.00862 1.02768
#
# Static dielectric constant tensor:
#      x y z
#    x 1.788700 0.000000 0.000000 
#    y 0.000000 1.810820 0.000000 
#    z 0.000000 0.000000 1.892030 
# 
# From -- ./inp_files/8007.got.cif
#   From: 2010.05.17/outbox.cif.g08.bks.cpg/sg50_5_cif.got.tgz:8007.got - 2010.06.03 11:33:33.
