data_PCOD9396418
_publ_section_title
;
Structure prediction by ZEFSAII (Michael W. Deem and Ramdas Pophale) SiO2 
 PCOD9396418
Probable space group: P B A N
;
_chemical_formula_sum "Si O2"
_cell_formula_units_Z 40
_cell_length_a 15.127495
_cell_length_b 12.876600
_cell_length_c 8.353138
_cell_angle_alpha 90.000000
_cell_angle_beta 90.000000
_cell_angle_gamma 90.000000
_cell_volume 1627.113616
_symmetry_space_group_name_H-M "P B A N"
_symmetry_group_IT_number 50
_space_group.IT_coordinate_system_code '2'
_symmetry_cell_setting 'orthorhombic'
loop_
_space_group_symop_operation_xyz
x,y,z
1/2-x,1/2-y,z
x,1/2-y,-z
1/2-x,y,-z
-x,-y,-z
1/2+x,1/2+y,-z
-x,1/2+y,z
1/2+x,-y,z
loop_
_atom_site_type_symbol
_atom_site_label
_atom_site_fract_x
_atom_site_fract_y
_atom_site_fract_z
Si Si1 0.770501 0.871739 0.813050
Si Si2 0.250000 0.750000 0.500000
Si Si3 0.568066 0.494623 0.738103
Si Si4 0.523780 0.750000 0.500000
Si Si5 0.750000 0.250000 0.000000
Si Si6 0.881188 0.224404 0.754193
Si Si7 0.112814 0.458720 0.383002
O O1 0.750000 0.750000 0.775946
O O2 0.707421 0.943107 0.700291
O O3 0.871364 0.910172 0.793249
O O4 0.750000 0.886829 0.000000
O O5 0.188057 0.810297 0.381539
O O6 0.589583 0.385894 0.826682
O O7 0.462030 0.500594 0.738040
O O8 0.595614 0.482287 0.549812
O O9 0.460481 0.773497 0.347381
O O10 0.582573 0.843583 0.562134
O O11 0.822830 0.206012 0.125883
#
# Coordination Sequence:
#
# PCOD9396418 Si02
#       7
#     8   2   8   4   2   8   8
#     4  11  25  43  65  97 137 179 223 273 345 415
#     4   8  16  30  52  82 116 162 198 260 304 378
#     4  10  22  39  63  98 122 170 225 281 323 397
#     4   9  18  39  61  90 125 170 220 275 325 393
#     4  10  20  38  56  94 130 174 202 258 348 418
#     4   9  19  34  58  89 126 162 213 258 325 394
#     4  10  21  40  66  95 128 171 227 282 333 381
#
# _framework density 24.583407999999999
#
# number of rings (size 3 to 8) (size 9 to 14) (size 15 to 20)
#    0.000    2.200    0.000    1.800    4.200    1.600 
#    3.600   12.000    0.000    0.000    0.000    0.000 
#    0.000    0.000    0.000    0.000    0.000    0.000 
#
# Total GULP energy -222734.590258 kJ/mol
# GULP energy per Si atom -5568.364756 kJ/mol
# Density = 2.452746 g / cm^3
# Si number density = 24.583408 Si / 1000 Ang^3
#
#
#
# Elastic Constant Matrix: (Units=GPa)
#
#
# Indices 1 2 3 4 5 6 
#
# 1 85.8577 23.7621 18.6090 0.0000 0.0000 0.0000
# 2 23.7621 86.3688 -10.2915 0.0000 0.0000 0.0000
# 3 18.6090 -10.2915 68.5816 0.0000 0.0000 0.0000
# 4 0.0000 0.0000 0.0000 18.1585 0.0000 0.0000
# 5 0.0000 0.0000 0.0000 0.0000 33.1853 0.0000
# 6 0.0000 0.0000 0.0000 0.0000 0.0000 19.2405
#
#
#
# Elastic Compliance Matrix: (Units=1/GPa)
#
#
# Indices 1 2 3 4 5 6 
#
# 1 0.013794 -0.004318 -0.004391 0.000000 0.000000 0.000000
# 2 -0.004318 0.013141 0.003144 0.000000 0.000000 0.000000
# 3 -0.004391 0.003144 0.016244 0.000000 0.000000 0.000000
# 4 0.000000 0.000000 0.000000 0.055071 0.000000 0.000000
# 5 0.000000 0.000000 0.000000 0.000000 0.030134 0.000000
# 6 0.000000 0.000000 0.000000 0.000000 0.000000 0.051974
#
#
# Mechanical properties :
#
#
# Convention : Reuss Voigt Hill
#
# Bulk Modulus (GPa) = 31.20292 33.88528 32.54410
# Shear Modulus (GPa) = 24.73149 28.03206 26.38178
#
# Velocity S-wave (km/s) = 3.17523 3.38047 3.27946
# Velocity P-wave (km/s) = 5.11498 5.38985 5.25421
#
# Compressibility (1/GPa) = 0.03204828
#
# Stress axis : x y z
#
# Youngs Moduli (GPa) = 72.49523 76.09824 61.55985
#
# Poissons Ratio (x) = 0.32861 0.27030
# Poissons Ratio (y) = 0.31305 -0.19352
# Poissons Ratio (z) = 0.31832 -0.23923
#
# Static dielectric constant tensor:
#      x y z
#    x 1.961430 0.000000 0.000000 
#    y 0.000000 2.040060 0.000000 
#    z 0.000000 0.000000 1.922850 
# 
# From -- ./inp_files/12644.got.cif
#   From: 2010.05.17/outbox.cif.g08.bks.cpg/sg50_7_cif.got.tgz:12644.got - 2010.06.03 11:33:33.
