data_PCOD9396105
_publ_section_title
;
Structure prediction by ZEFSAII (Michael W. Deem and Ramdas Pophale) SiO2 
 PCOD9396105
Probable space group: P B A N
;
_chemical_formula_sum "Si O2"
_cell_formula_units_Z 34
_cell_length_a 5.424324
_cell_length_b 14.162440
_cell_length_c 20.169970
_cell_angle_alpha 90.000000
_cell_angle_beta 90.000000
_cell_angle_gamma 90.000000
_cell_volume 1549.490642
_symmetry_space_group_name_H-M "P B A N"
_symmetry_group_IT_number 50
_space_group.IT_coordinate_system_code '2'
_symmetry_cell_setting 'orthorhombic'
loop_
_space_group_symop_operation_xyz
x,y,z
1/2-x,1/2-y,z
x,1/2-y,-z
1/2-x,y,-z
-x,-y,-z
1/2+x,1/2+y,-z
-x,1/2+y,z
1/2+x,-y,z
loop_
_atom_site_type_symbol
_atom_site_label
_atom_site_fract_x
_atom_site_fract_y
_atom_site_fract_z
Si Si1 0.249203 0.865913 0.788090
Si Si2 0.749850 0.861136 0.282616
Si Si3 0.358203 0.642656 0.933457
Si Si4 0.752242 0.938033 0.427428
Si Si5 0.750000 0.750000 0.000000
O O1 0.250000 0.750000 0.789955
O O2 0.506182 0.896332 0.755345
O O3 0.208620 0.900498 0.863404
O O4 0.012331 0.895270 0.745182
O O5 0.750000 0.750000 0.270197
O O6 0.764554 0.877755 0.360976
O O7 0.250000 0.750000 0.933002
O O8 0.250000 0.595512 0.000000
O O9 0.635338 0.673205 0.948712
O O10 0.750000 0.889293 0.500000
O O11 0.497242 0.996994 0.425192
#
# Coordination Sequence:
#
# PCOD9396105 Si02
#       5
#     8   8   8   8   2
#     4   9  18  28  44  67 105 139 168 208 257 305
#     4  10  20  33  51  78 107 137 168 209 261 309
#     4   8  15  22  35  58  90 137 177 204 244 303
#     4  10  21  38  59  79 103 135 171 211 254 305
#     4   8  14  20  36  54  88 136 184 204 242 304
#
# _framework density 21.942695000000001
#
# number of rings (size 3 to 8) (size 9 to 14) (size 15 to 20)
#    0.000    3.059    0.000    1.412   11.529    0.471 
#    0.000    0.000    0.000    8.471    0.000    0.000 
#    0.000   18.824    0.000    0.000    0.000    0.000 
#
# Total GULP energy -189323.235989 kJ/mol
# GULP energy per Si atom -5568.330470 kJ/mol
# Density = 2.189275 g / cm^3
# Si number density = 21.942695 Si / 1000 Ang^3
#
#
#
# Elastic Constant Matrix: (Units=GPa)
#
#
# Indices 1 2 3 4 5 6 
#
# 1 151.2184 11.0334 75.0026 0.0000 0.0000 0.0000
# 2 11.0334 47.4445 7.8162 0.0000 0.0000 0.0000
# 3 75.0026 7.8162 200.8129 0.0000 0.0000 0.0000
# 4 0.0000 0.0000 0.0000 -538.9024 0.0000 0.0000
# 5 0.0000 0.0000 0.0000 0.0000 49.7616 0.0000
# 6 0.0000 0.0000 0.0000 0.0000 0.0000 -16.5324
#
#
#
# Elastic Compliance Matrix: (Units=1/GPa)
#
#
# Indices 1 2 3 4 5 6 
#
# 1 0.008210 -0.001413 -0.003011 0.000000 0.000000 0.000000
# 2 -0.001413 0.021456 -0.000307 0.000000 0.000000 0.000000
# 3 -0.003011 -0.000307 0.006116 0.000000 0.000000 0.000000
# 4 0.000000 0.000000 0.000000 -0.001856 0.000000 0.000000
# 5 0.000000 0.000000 0.000000 0.000000 0.020096 0.000000
# 6 0.000000 0.000000 0.000000 0.000000 0.000000 -0.060487
#
#
# Mechanical properties :
#
#
# Convention : Reuss Voigt Hill
#
# Bulk Modulus (GPa) = 37.99521 65.24225 51.61873
# Shear Modulus (GPa) = 424.73990 -80.75975 171.99008
#
# Velocity S-wave (km/s) = 13.92796 -6.07328 8.86294
# Velocity P-wave (km/s) = 16.61337 4.40251 11.32744
#
# Compressibility (1/GPa) = 0.02631911
#
# Stress axis : x y z
#
# Youngs Moduli (GPa) = 121.80861 46.60593 163.49472
#
# Poissons Ratio (x) = 0.06586 0.49232
# Poissons Ratio (y) = 0.17213 0.05025
# Poissons Ratio (z) = 0.36680 0.01432
#
# Static dielectric constant tensor:
#      x y z
#    x 1.393110 0.000000 0.000000 
#    y 0.000000 1.808070 0.000000 
#    z 0.000000 0.000000 1.723560 
# 
# From -- ./inp_files/23828.got.cif
#   From: 2010.05.17/outbox.cif.g08.bks.cpg/sg50_12_cif.got.tgz:23828.got - 2010.06.03 11:33:33.
