data_PCOD9396360
_publ_section_title
;
Structure prediction by ZEFSAII (Michael W. Deem and Ramdas Pophale) SiO2 
 PCOD9396360
Probable space group: P B A N
;
_chemical_formula_sum "Si O2"
_cell_formula_units_Z 24
_cell_length_a 14.250548
_cell_length_b 8.400892
_cell_length_c 8.049812
_cell_angle_alpha 90.000000
_cell_angle_beta 90.000000
_cell_angle_gamma 90.000000
_cell_volume 963.701876
_symmetry_space_group_name_H-M "P B A N"
_symmetry_group_IT_number 50
_space_group.IT_coordinate_system_code '2'
_symmetry_cell_setting 'orthorhombic'
loop_
_space_group_symop_operation_xyz
x,y,z
1/2-x,1/2-y,z
x,1/2-y,-z
1/2-x,y,-z
-x,-y,-z
1/2+x,1/2+y,-z
-x,1/2+y,z
1/2+x,-y,z
loop_
_atom_site_type_symbol
_atom_site_label
_atom_site_fract_x
_atom_site_fract_y
_atom_site_fract_z
Si Si1 0.310774 0.584290 0.697841
Si Si2 0.625902 0.962709 0.336931
Si Si3 0.514145 0.254038 0.184386
O O1 0.250000 0.750000 0.684062
O O2 0.229810 0.459507 0.742002
O O3 0.355656 0.527327 0.523156
O O4 0.397650 0.622580 0.815139
O O5 0.562510 0.092880 0.243922
O O6 0.566179 0.804941 0.312518
O O7 0.474775 0.250000 0.000000
#
# Coordination Sequence:
#
# PCOD9396360 Si02
#       3
#     8   8   8
#     4   9  19  37  61  85 116 165 210 238 290 374
#     4  10  20  37  59  84 117 158 204 244 291 359
#     4  11  21  35  58  89 118 153 199 252 303 353
#
# _framework density 24.903967000000002
#
# number of rings (size 3 to 8) (size 9 to 14) (size 15 to 20)
#    0.000    2.000    0.000    9.000    0.000    6.000 
#    0.000    1.667    0.000   22.000    0.000    0.000 
#    0.000    0.000    0.000    0.000    0.000    0.000 
#
# Total GULP energy -134186.995468 kJ/mol
# GULP energy per Si atom -5591.124811 kJ/mol
# Density = 2.484728 g / cm^3
# Si number density = 24.903967 Si / 1000 Ang^3
#
#
#
# Elastic Constant Matrix: (Units=GPa)
#
#
# Indices 1 2 3 4 5 6 
#
# 1 117.3580 34.9523 37.1017 0.0000 0.0000 0.0000
# 2 34.9523 38.0094 34.8974 0.0000 0.0000 0.0000
# 3 37.1017 34.8974 82.0876 0.0000 0.0000 0.0000
# 4 0.0000 0.0000 0.0000 11.4912 0.0000 0.0000
# 5 0.0000 0.0000 0.0000 0.0000 11.9128 0.0000
# 6 0.0000 0.0000 0.0000 0.0000 0.0000 26.2038
#
#
#
# Elastic Compliance Matrix: (Units=1/GPa)
#
#
# Indices 1 2 3 4 5 6 
#
# 1 0.011804 -0.009770 -0.001182 0.000000 0.000000 0.000000
# 2 -0.009770 0.051238 -0.017367 0.000000 0.000000 0.000000
# 3 -0.001182 -0.017367 0.020099 0.000000 0.000000 0.000000
# 4 0.000000 0.000000 0.000000 0.087023 0.000000 0.000000
# 5 0.000000 0.000000 0.000000 0.000000 0.083943 0.000000
# 6 0.000000 0.000000 0.000000 0.000000 0.000000 0.038162
#
#
# Mechanical properties :
#
#
# Convention : Reuss Voigt Hill
#
# Bulk Modulus (GPa) = 37.72896 50.15086 43.93991
# Shear Modulus (GPa) = 13.97651 18.62179 16.29915
#
# Velocity S-wave (km/s) = 2.37157 2.73746 2.56106
# Velocity P-wave (km/s) = 4.76254 5.49299 5.14076
#
# Compressibility (1/GPa) = 0.02650484
#
# Stress axis : x y z
#
# Youngs Moduli (GPa) = 84.71523 19.51664 49.75261
#
# Poissons Ratio (x) = 0.19067 0.05880
# Poissons Ratio (y) = 0.82764 0.86405
# Poissons Ratio (z) = 0.10013 0.33895
#
# Static dielectric constant tensor:
#      x y z
#    x 1.976830 0.000000 0.000000 
#    y 0.000000 2.097820 0.000000 
#    z 0.000000 0.000000 1.902120 
# 
# From -- ./inp_files/11977.got.cif
#   From: 2010.05.17/outbox.cif.g08.bks.cpg/sg50_6_cif.got.tgz:11977.got - 2010.06.03 11:33:33.
