data_PCOD9396620
_publ_section_title
;
Structure prediction by ZEFSAII (Michael W. Deem and Ramdas Pophale) SiO2 
 PCOD9396620
Probable space group: P B A N
;
_chemical_formula_sum "Si O2"
_cell_formula_units_Z 64
_cell_length_a 22.756637
_cell_length_b 12.080677
_cell_length_c 12.285735
_cell_angle_alpha 90.000000
_cell_angle_beta 90.000000
_cell_angle_gamma 90.000000
_cell_volume 3377.539978
_symmetry_space_group_name_H-M "P B A N"
_symmetry_group_IT_number 50
_space_group.IT_coordinate_system_code '2'
_symmetry_cell_setting 'orthorhombic'
loop_
_space_group_symop_operation_xyz
x,y,z
1/2-x,1/2-y,z
x,1/2-y,-z
1/2-x,y,-z
-x,-y,-z
1/2+x,1/2+y,-z
-x,1/2+y,z
1/2+x,-y,z
loop_
_atom_site_type_symbol
_atom_site_label
_atom_site_fract_x
_atom_site_fract_y
_atom_site_fract_z
Si Si1 0.829903 0.157067 0.407542
Si Si2 0.187626 0.723710 0.174572
Si Si3 0.813830 0.594737 0.542175
Si Si4 0.040738 0.639509 0.435171
Si Si5 0.181626 0.982299 0.963160
Si Si6 0.919265 0.554493 0.398552
Si Si7 0.224148 0.128094 0.777695
Si Si8 0.840423 0.478346 0.200917
O O1 0.820693 0.250000 0.500000
O O2 0.798542 0.172193 0.293121
O O3 0.898616 0.159151 0.372228
O O4 0.814486 0.039198 0.457673
O O5 0.250000 0.750000 0.122107
O O6 0.159981 0.629184 0.098007
O O7 0.160801 0.844371 0.196591
O O8 0.750000 0.630574 0.500000
O O9 0.870090 0.622805 0.467681
O O10 0.814121 0.630525 0.667622
O O11 0.027441 0.750000 0.500000
O O12 0.060151 0.545572 0.522034
O O13 0.981375 0.611145 0.372886
O O14 0.185292 0.080535 0.875850
O O15 0.250000 0.967050 0.000000
O O16 0.148782 0.010181 0.074940
O O17 0.887107 0.514044 0.290617
O O18 0.250000 0.250000 0.798678
O O19 0.279030 0.040836 0.766310
#
# Coordination Sequence:
#
# PCOD9396620 Si02
#       8
#     8   8   8   8   8   8   8   8
#     4  10  21  31  56  88 118 149 181 237 299 360
#     4  12  19  31  56  87 120 149 179 233 302 364
#     4  11  20  35  51  82 120 146 185 230 299 355
#     4   9  19  38  57  80 113 152 200 238 292 354
#     4  10  21  35  53  79 115 157 191 233 281 357
#     4  10  21  36  58  84 113 152 192 244 293 356
#     4  11  23  37  51  74 116 163 197 227 275 351
#     4  11  21  34  54  82 114 146 199 236 289 343
#
# _framework density 18.948702000000001
#
# number of rings (size 3 to 8) (size 9 to 14) (size 15 to 20)
#    0.000    1.500    5.000    2.625    1.750    3.500 
#    0.000    0.000    0.000    0.750    0.000    0.000 
#    0.000    0.000    0.000    0.000    0.000    0.000 
#
# Total GULP energy -356748.335459 kJ/mol
# GULP energy per Si atom -5574.192742 kJ/mol
# Density = 1.890557 g / cm^3
# Si number density = 18.948702 Si / 1000 Ang^3
#
#
#
# Elastic Constant Matrix: (Units=GPa)
#
#
# Indices 1 2 3 4 5 6 
#
# 1 87.6803 22.6660 42.9986 0.0000 0.0000 0.0000
# 2 22.6660 95.5339 28.4023 0.0000 0.0000 0.0000
# 3 42.9986 28.4023 117.8558 0.0000 0.0000 0.0000
# 4 0.0000 0.0000 0.0000 10.2504 0.0000 0.0000
# 5 0.0000 0.0000 0.0000 0.0000 29.7902 0.0000
# 6 0.0000 0.0000 0.0000 0.0000 0.0000 13.8432
#
#
#
# Elastic Compliance Matrix: (Units=1/GPa)
#
#
# Indices 1 2 3 4 5 6 
#
# 1 0.014228 -0.001974 -0.004715 0.000000 0.000000 0.000000
# 2 -0.001974 0.011549 -0.002063 0.000000 0.000000 0.000000
# 3 -0.004715 -0.002063 0.010702 0.000000 0.000000 0.000000
# 4 0.000000 0.000000 0.000000 0.097557 0.000000 0.000000
# 5 0.000000 0.000000 0.000000 0.000000 0.033568 0.000000
# 6 0.000000 0.000000 0.000000 0.000000 0.000000 0.072238
#
#
# Mechanical properties :
#
#
# Convention : Reuss Voigt Hill
#
# Bulk Modulus (GPa) = 52.70073 54.35598 53.52836
# Shear Modulus (GPa) = 18.96302 24.57698 21.77000
#
# Velocity S-wave (km/s) = 3.16690 3.60533 3.39321
# Velocity P-wave (km/s) = 6.42223 6.78818 6.60774
#
# Compressibility (1/GPa) = 0.01897507
#
# Stress axis : x y z
#
# Youngs Moduli (GPa) = 70.28585 86.58647 93.43684
#
# Poissons Ratio (x) = 0.17090 0.44057
# Poissons Ratio (y) = 0.13873 0.19277
# Poissons Ratio (z) = 0.33141 0.17864
#
# Static dielectric constant tensor:
#      x y z
#    x 1.701880 0.000000 0.000000 
#    y 0.000000 1.735330 0.000000 
#    z 0.000000 0.000000 1.635510 
# 
# From -- ./inp_files/23206.got.cif
#   From: 2010.05.17/outbox.cif.g08.bks.cpg/sg50_12_cif.got.tgz:23206.got - 2010.06.03 11:33:33.
