data_PCOD9396775
_publ_section_title
;
Structure prediction by ZEFSAII (Michael W. Deem and Ramdas Pophale) SiO2 
 PCOD9396775
Probable space group: P B A N
;
_chemical_formula_sum "Si O2"
_cell_formula_units_Z 64
_cell_length_a 8.553552
_cell_length_b 21.180129
_cell_length_c 18.375834
_cell_angle_alpha 90.000000
_cell_angle_beta 90.000000
_cell_angle_gamma 90.000000
_cell_volume 3329.064118
_symmetry_space_group_name_H-M "P B A N"
_symmetry_group_IT_number 50
_space_group.IT_coordinate_system_code '2'
_symmetry_cell_setting 'orthorhombic'
loop_
_space_group_symop_operation_xyz
x,y,z
1/2-x,1/2-y,z
x,1/2-y,-z
1/2-x,y,-z
-x,-y,-z
1/2+x,1/2+y,-z
-x,1/2+y,z
1/2+x,-y,z
loop_
_atom_site_type_symbol
_atom_site_label
_atom_site_fract_x
_atom_site_fract_y
_atom_site_fract_z
Si Si1 0.965323 0.130398 0.665788
Si Si2 0.649544 0.544409 0.071089
Si Si3 0.245589 0.677541 0.785797
Si Si4 0.829232 0.084720 0.431735
Si Si5 0.796450 0.409110 0.074091
Si Si6 0.699578 0.949649 0.764629
Si Si7 0.549674 0.425756 0.283214
Si Si8 0.927106 0.675930 0.516299
O O1 0.892704 0.174554 0.726949
O O2 0.817417 0.102517 0.620574
O O3 0.073808 0.082801 0.711095
O O4 0.055647 0.165556 0.602273
O O5 0.681306 0.469450 0.078258
O O6 0.468528 0.561475 0.064175
O O7 0.692537 0.570712 0.150971
O O8 0.750000 0.565111 0.000000
O O9 0.250000 0.750000 0.808450
O O10 0.212833 0.634122 0.855523
O O11 0.389584 0.643384 0.742481
O O12 0.750000 0.048581 0.500000
O O13 0.941155 0.058268 0.369425
O O14 0.935536 0.138703 0.471874
O O15 0.750000 0.373668 0.000000
O O16 0.873178 0.935834 0.739421
O O17 0.660852 0.023747 0.756812
O O18 0.941951 0.750000 0.500000
O O19 0.750000 0.654259 0.500000
#
# Coordination Sequence:
#
# PCOD9396775 Si02
#       8
#     8   8   8   8   8   8   8   8
#     4  10  22  39  61  91 127 160 217 268 318 383
#     4  11  22  37  65 100 125 160 209 269 324 383
#     4  11  24  41  61  93 125 173 219 257 314 391
#     4   9  20  38  57  85 120 162 211 252 315 377
#     4  11  22  39  65  95 130 162 210 269 325 388
#     4  12  22  41  66  96 128 163 207 274 330 384
#     4  11  23  38  65  91 126 164 211 263 327 384
#     4  10  21  37  60  88 124 168 217 267 319 381
#
# _framework density 19.224622
#
# number of rings (size 3 to 8) (size 9 to 14) (size 15 to 20)
#    0.000    1.375    2.500    4.500    5.250    2.000 
#    0.000    6.250    0.000    0.000    0.000    0.000 
#    0.000    0.000    0.000    0.000    0.000    0.000 
#
# Total GULP energy -356529.617398 kJ/mol
# GULP energy per Si atom -5570.775272 kJ/mol
# Density = 1.918087 g / cm^3
# Si number density = 19.224622 Si / 1000 Ang^3
#
#
#
# Elastic Constant Matrix: (Units=GPa)
#
#
# Indices 1 2 3 4 5 6 
#
# 1 103.9259 46.0150 60.3511 0.0000 0.0000 0.0000
# 2 46.0150 61.5000 31.7133 0.0000 0.0000 0.0000
# 3 60.3511 31.7133 193.2555 0.0000 0.0000 0.0000
# 4 0.0000 0.0000 0.0000 -26.5569 0.0000 0.0000
# 5 0.0000 0.0000 0.0000 0.0000 25.8830 0.0000
# 6 0.0000 0.0000 0.0000 0.0000 0.0000 16.8592
#
#
#
# Elastic Compliance Matrix: (Units=1/GPa)
#
#
# Indices 1 2 3 4 5 6 
#
# 1 0.016151 -0.010360 -0.003344 0.000000 0.000000 0.000000
# 2 -0.010360 0.024409 -0.000770 0.000000 0.000000 0.000000
# 3 -0.003344 -0.000770 0.006345 0.000000 0.000000 0.000000
# 4 0.000000 0.000000 0.000000 -0.037655 0.000000 0.000000
# 5 0.000000 0.000000 0.000000 0.000000 0.038635 0.000000
# 6 0.000000 0.000000 0.000000 0.000000 0.000000 0.059315
#
#
# Mechanical properties :
#
#
# Convention : Reuss Voigt Hill
#
# Bulk Modulus (GPa) = 55.68854 70.53780 63.11317
# Shear Modulus (GPa) = 35.17806 17.94386 26.56096
#
# Velocity S-wave (km/s) = 4.28231 3.05844 3.72104
# Velocity P-wave (km/s) = 7.31308 7.01734 7.16674
#
# Compressibility (1/GPa) = 0.01795701
#
# Stress axis : x y z
#
# Youngs Moduli (GPa) = 61.91529 40.96864 157.60288
#
# Poissons Ratio (x) = 0.42444 0.52697
# Poissons Ratio (y) = 0.64146 0.12138
# Poissons Ratio (z) = 0.20702 0.03155
#
# Static dielectric constant tensor:
#      x y z
#    x 1.691790 0.000000 0.000000 
#    y 0.000000 1.675950 0.000000 
#    z 0.000000 0.000000 1.740100 
# 
# From -- ./inp_files/28953.got.cif
#   From: 2010.05.17/outbox.cif.g08.bks.cpg/sg50_15_cif.got.tgz:28953.got - 2010.06.03 11:33:33.
