data_PCOD9396095
_publ_section_title
;
Structure prediction by ZEFSAII (Michael W. Deem and Ramdas Pophale) SiO2 
 PCOD9396095
Probable space group: P B A N
;
_chemical_formula_sum "Si O2"
_cell_formula_units_Z 26
_cell_length_a 28.156590
_cell_length_b 5.436979
_cell_length_c 7.153600
_cell_angle_alpha 90.000000
_cell_angle_beta 90.000000
_cell_angle_gamma 90.000000
_cell_volume 1095.121651
_symmetry_space_group_name_H-M "P B A N"
_symmetry_group_IT_number 50
_space_group.IT_coordinate_system_code '2'
_symmetry_cell_setting 'orthorhombic'
loop_
_space_group_symop_operation_xyz
x,y,z
1/2-x,1/2-y,z
x,1/2-y,-z
1/2-x,y,-z
-x,-y,-z
1/2+x,1/2+y,-z
-x,1/2+y,z
1/2+x,-y,z
loop_
_atom_site_type_symbol
_atom_site_label
_atom_site_fract_x
_atom_site_fract_y
_atom_site_fract_z
Si Si1 0.624528 0.476947 0.225537
Si Si2 0.018004 0.699021 0.283546
Si Si3 0.162464 0.018960 0.193133
Si Si4 0.250000 0.250000 0.000000
O O1 0.571058 0.404962 0.272323
O O2 0.656568 0.245140 0.285983
O O3 0.640692 0.744172 0.294754
O O4 0.633014 0.497125 0.001802
O O5 0.004504 0.750000 0.500000
O O6 0.986104 0.475897 0.202661
O O7 0.215459 0.085733 0.127546
#
# Coordination Sequence:
#
# PCOD9396095 Si02
#       4
#     8   8   8   2
#     4   9  17  31  44  68  95 117 152 189 230 274
#     4  10  20  33  49  66  88 123 164 197 224 267
#     4   9  18  29  48  70  95 120 146 186 232 280
#     4   8  16  30  48  74  94 118 152 178 220 284
#
# _framework density 23.741657
#
# number of rings (size 3 to 8) (size 9 to 14) (size 15 to 20)
#    0.000    3.077    0.000    1.846    0.000    9.846 
#    0.000   18.462    0.000    0.000    0.000   25.846 
#    0.000    0.000    0.000    0.000    0.000    0.000 
#
# Total GULP energy -145041.740807 kJ/mol
# GULP energy per Si atom -5578.528493 kJ/mol
# Density = 2.368762 g / cm^3
# Si number density = 23.741657 Si / 1000 Ang^3
#
#
#
# Elastic Constant Matrix: (Units=GPa)
#
#
# Indices 1 2 3 4 5 6 
#
# 1 130.7030 72.8822 -7.2451 0.0000 0.0000 0.0000
# 2 72.8822 272.5062 23.6636 0.0000 0.0000 0.0000
# 3 -7.2451 23.6636 85.2834 0.0000 0.0000 0.0000
# 4 0.0000 0.0000 0.0000 -15.8986 0.0000 0.0000
# 5 0.0000 0.0000 0.0000 0.0000 258.1635 0.0000
# 6 0.0000 0.0000 0.0000 0.0000 0.0000 -264.6484
#
#
#
# Elastic Compliance Matrix: (Units=1/GPa)
#
#
# Indices 1 2 3 4 5 6 
#
# 1 0.009175 -0.002584 0.001496 0.000000 0.000000 0.000000
# 2 -0.002584 0.004488 -0.001465 0.000000 0.000000 0.000000
# 3 0.001496 -0.001465 0.012259 0.000000 0.000000 0.000000
# 4 0.000000 0.000000 0.000000 -0.062899 0.000000 0.000000
# 5 0.000000 0.000000 0.000000 0.000000 0.003874 0.000000
# 6 0.000000 0.000000 0.000000 0.000000 0.000000 -0.003779
#
#
# Mechanical properties :
#
#
# Convention : Reuss Voigt Hill
#
# Bulk Modulus (GPa) = 48.03685 74.12156 61.07920
# Shear Modulus (GPa) = -201.29890 22.13607 -89.58142
#
# Velocity S-wave (km/s) = -9.21799 3.05679 -6.14928
# Velocity P-wave (km/s) = 9.64458 6.61411 4.96344
#
# Compressibility (1/GPa) = 0.02081735
#
# Stress axis : x y z
#
# Youngs Moduli (GPa) = 108.99669 222.82386 81.57167
#
# Poissons Ratio (x) = 0.57571 -0.12206
# Poissons Ratio (y) = 0.28161 0.11948
# Poissons Ratio (z) = -0.16309 0.32638
#
# Static dielectric constant tensor:
#      x y z
#    x 1.846630 0.000000 0.000000 
#    y 0.000000 -3.516380 0.000000 
#    z 0.000000 0.000000 2.100170 
# 
# From -- ./inp_files/7859.got.cif
#   From: 2010.05.17/outbox.cif.g08.bks.cpg/sg50_4_cif.got.tgz:7859.got - 2010.06.03 11:33:33.
