data_PCOD9396595
_publ_section_title
;
Structure prediction by ZEFSAII (Michael W. Deem and Ramdas Pophale) SiO2 
 PCOD9396595
Probable space group: P B A N
;
_chemical_formula_sum "Si O2"
_cell_formula_units_Z 28
_cell_length_a 8.293976
_cell_length_b 27.111740
_cell_length_c 5.426409
_cell_angle_alpha 90.000000
_cell_angle_beta 90.000000
_cell_angle_gamma 90.000000
_cell_volume 1220.204689
_symmetry_space_group_name_H-M "P B A N"
_symmetry_group_IT_number 50
_space_group.IT_coordinate_system_code '2'
_symmetry_cell_setting 'orthorhombic'
loop_
_space_group_symop_operation_xyz
x,y,z
1/2-x,1/2-y,z
x,1/2-y,-z
1/2-x,y,-z
-x,-y,-z
1/2+x,1/2+y,-z
-x,1/2+y,z
1/2+x,-y,z
loop_
_atom_site_type_symbol
_atom_site_label
_atom_site_fract_x
_atom_site_fract_y
_atom_site_fract_z
Si Si1 0.750000 0.962956 0.000000
Si Si2 0.750000 0.250000 0.000000
Si Si3 0.999397 0.298098 0.667910
Si Si4 0.250000 0.250000 0.000000
Si Si5 0.568373 0.909202 0.385269
Si Si6 0.750000 0.471019 0.500000
O O1 0.895343 0.927411 0.898389
O O2 0.734950 0.998059 0.757545
O O3 0.653969 0.212262 0.832161
O O4 0.000705 0.250000 0.500000
O O5 0.150539 0.287397 0.837328
O O6 0.011299 0.353108 0.575647
O O7 0.750000 0.911446 0.500000
O O8 0.420995 0.941399 0.498170
#
# Coordination Sequence:
#
# PCOD9396595 Si02
#       6
#     4   2   8   2   8   4
#     4  12  27  57  76 119 161 210 269 337 394 476
#     4  10  26  44  72 104 166 198 248 318 388 464
#     4  11  24  46  72 110 153 197 257 318 391 482
#     4  10  20  42  68 100 150 194 242 320 384 460
#     4  12  28  47  81 115 156 211 266 324 414 472
#     4  12  30  50  81 116 161 206 272 338 394 470
#
# _framework density 22.946971999999999
#
# number of rings (size 3 to 8) (size 9 to 14) (size 15 to 20)
#    0.000    0.571    1.429    5.143    8.000    3.429 
#    0.000    0.000    0.000    0.000    0.000    0.000 
#    0.000    0.000    0.000    0.000    0.000    0.000 
#
# Total GULP energy -156006.141848 kJ/mol
# GULP energy per Si atom -5571.647923 kJ/mol
# Density = 2.289474 g / cm^3
# Si number density = 22.946972 Si / 1000 Ang^3
#
#
#
# Elastic Constant Matrix: (Units=GPa)
#
#
# Indices 1 2 3 4 5 6 
#
# 1 142.0886 69.7164 57.0000 0.0000 0.0000 0.0000
# 2 69.7164 198.4789 77.1566 0.0000 0.0000 0.0000
# 3 57.0000 77.1566 134.2055 0.0000 0.0000 0.0000
# 4 0.0000 0.0000 0.0000 16.6419 0.0000 0.0000
# 5 0.0000 0.0000 0.0000 0.0000 101.3028 0.0000
# 6 0.0000 0.0000 0.0000 0.0000 0.0000 69.2792
#
#
#
# Elastic Compliance Matrix: (Units=1/GPa)
#
#
# Indices 1 2 3 4 5 6 
#
# 1 0.009172 -0.002199 -0.002632 0.000000 0.000000 0.000000
# 2 -0.002199 0.007016 -0.003099 0.000000 0.000000 0.000000
# 3 -0.002632 -0.003099 0.010351 0.000000 0.000000 0.000000
# 4 0.000000 0.000000 0.000000 0.060089 0.000000 0.000000
# 5 0.000000 0.000000 0.000000 0.000000 0.009871 0.000000
# 6 0.000000 0.000000 0.000000 0.000000 0.000000 0.014434
#
#
# Mechanical properties :
#
#
# Convention : Reuss Voigt Hill
#
# Bulk Modulus (GPa) = 93.64086 98.05766 95.84926
# Shear Modulus (GPa) = 38.35735 55.50478 46.93107
#
# Velocity S-wave (km/s) = 4.09291 4.92349 4.52729
# Velocity P-wave (km/s) = 7.95186 8.66869 8.31800
#
# Compressibility (1/GPa) = 0.01067910
#
# Stress axis : x y z
#
# Youngs Moduli (GPa) = 109.02263 142.54064 96.61036
#
# Poissons Ratio (x) = 0.31342 0.25424
# Poissons Ratio (y) = 0.23972 0.29944
# Poissons Ratio (z) = 0.28690 0.44180
#
# Static dielectric constant tensor:
#      x y z
#    x 1.891750 0.000000 0.000000 
#    y 0.000000 233.236490 0.000000 
#    z 0.000000 0.000000 1.649180 
# 
# From -- ./inp_files/1051.got.cif
#   From: 2010.05.17/outbox.cif.g08.bks.cpg/sg50_1_cif.got.tgz:1051.got - 2010.06.03 11:33:33.
