data_PCOD9396012
_publ_section_title
;
Structure prediction by ZEFSAII (Michael W. Deem and Ramdas Pophale) SiO2 
 PCOD9396012
Probable space group: P B A N
;
_chemical_formula_sum "Si O2"
_cell_formula_units_Z 56
_cell_length_a 12.734076
_cell_length_b 15.959751
_cell_length_c 13.654635
_cell_angle_alpha 90.000000
_cell_angle_beta 90.000000
_cell_angle_gamma 90.000000
_cell_volume 2775.068095
_symmetry_space_group_name_H-M "P B A N"
_symmetry_group_IT_number 50
_space_group.IT_coordinate_system_code '2'
_symmetry_cell_setting 'orthorhombic'
loop_
_space_group_symop_operation_xyz
x,y,z
1/2-x,1/2-y,z
x,1/2-y,-z
1/2-x,y,-z
-x,-y,-z
1/2+x,1/2+y,-z
-x,1/2+y,z
1/2+x,-y,z
loop_
_atom_site_type_symbol
_atom_site_label
_atom_site_fract_x
_atom_site_fract_y
_atom_site_fract_z
Si Si1 0.252790 0.850727 0.384670
Si Si2 0.412645 0.941073 0.751495
Si Si3 0.395144 0.348621 0.794225
Si Si4 0.123391 0.250301 0.387041
Si Si5 0.974006 0.385581 0.716918
Si Si6 0.715588 0.547946 0.899478
Si Si7 0.550604 0.693121 0.907740
O O1 0.250000 0.750000 0.375043
O O2 0.250000 0.871495 0.500000
O O3 0.153390 0.892338 0.330360
O O4 0.361713 0.879328 0.334725
O O5 0.488945 0.881917 0.813928
O O6 0.483186 0.019564 0.715085
O O7 0.333224 0.982733 0.826279
O O8 0.399384 0.332626 0.677659
O O9 0.307614 0.407965 0.837950
O O10 0.381713 0.259017 0.844273
O O11 0.250000 0.250000 0.383320
O O12 0.090782 0.250000 0.500000
O O13 0.060507 0.173363 0.337465
O O14 0.971240 0.349056 0.828876
O O15 0.630475 0.618203 0.933470
O O16 0.750000 0.506498 0.000000
O O17 0.514085 0.750000 0.000000
#
# Coordination Sequence:
#
# PCOD9396012 Si02
#       7
#     8   8   8   8   8   8   8
#     4  11  25  46  73  94 128 188 238 276 338 419
#     4  11  25  43  60  97 134 173 215 284 335 394
#     4  11  21  37  64  88 129 164 211 269 323 391
#     4  10  21  38  63  96 129 163 210 278 341 396
#     4  10  23  41  65  98 136 170 227 280 342 400
#     4  11  22  39  66  95 129 169 216 271 339 399
#     4  10  19  37  65  98 122 163 218 266 324 396
#
# _framework density 20.179684000000002
#
# number of rings (size 3 to 8) (size 9 to 14) (size 15 to 20)
#    0.000    1.429    1.429    5.571    4.000    1.143 
#    7.714    0.000    0.000    0.000    0.000    0.000 
#    0.000    0.000    0.000    0.000    0.000    0.000 
#
# Total GULP energy -312414.484857 kJ/mol
# GULP energy per Si atom -5578.830087 kJ/mol
# Density = 2.013375 g / cm^3
# Si number density = 20.179684 Si / 1000 Ang^3
#
#
#
# Elastic Constant Matrix: (Units=GPa)
#
#
# Indices 1 2 3 4 5 6 
#
# 1 63.6772 19.1065 30.3531 0.0000 0.0000 0.0000
# 2 19.1065 54.3853 37.4160 0.0000 0.0000 0.0000
# 3 30.3531 37.4160 111.0072 0.0000 0.0000 0.0000
# 4 0.0000 0.0000 0.0000 3.2967 0.0000 0.0000
# 5 0.0000 0.0000 0.0000 0.0000 -5.1689 0.0000
# 6 0.0000 0.0000 0.0000 0.0000 0.0000 20.9357
#
#
#
# Elastic Compliance Matrix: (Units=1/GPa)
#
#
# Indices 1 2 3 4 5 6 
#
# 1 0.018694 -0.003972 -0.003773 0.000000 0.000000 0.000000
# 2 -0.003972 0.024782 -0.007267 0.000000 0.000000 0.000000
# 3 -0.003773 -0.007267 0.012489 0.000000 0.000000 0.000000
# 4 0.000000 0.000000 0.000000 0.303332 0.000000 0.000000
# 5 0.000000 0.000000 0.000000 0.000000 -0.193466 0.000000
# 6 0.000000 0.000000 0.000000 0.000000 0.000000 0.047765
#
#
# Mechanical properties :
#
#
# Convention : Reuss Voigt Hill
#
# Bulk Modulus (GPa) = 38.54693 44.75787 41.65240
# Shear Modulus (GPa) = 19.82014 13.29232 16.55623
#
# Velocity S-wave (km/s) = 3.13738 2.56930 2.86744
# Velocity P-wave (km/s) = 5.68045 5.57042 5.62570
#
# Compressibility (1/GPa) = 0.02594240
#
# Stress axis : x y z
#
# Youngs Moduli (GPa) = 53.49180 40.35131 80.06737
#
# Poissons Ratio (x) = 0.16028 0.30209
# Poissons Ratio (y) = 0.21247 0.58185
# Poissons Ratio (z) = 0.20182 0.29323
#
# Static dielectric constant tensor:
#      x y z
#    x 1.748260 0.000000 0.000000 
#    y 0.000000 1.754240 0.000000 
#    z 0.000000 0.000000 1.754100 
# 
# From -- ./inp_files/25956.got.cif
#   From: 2010.05.17/outbox.cif.g08.bks.cpg/sg50_13_cif.got.tgz:25956.got - 2010.06.03 11:33:33.
