data_PCOD9396848
_publ_section_title
;
Structure prediction by ZEFSAII (Michael W. Deem and Ramdas Pophale) SiO2 
 PCOD9396848
Probable space group: P B A N
;
_chemical_formula_sum "Si O2"
_cell_formula_units_Z 40
_cell_length_a 9.052144
_cell_length_b 12.104390
_cell_length_c 17.180649
_cell_angle_alpha 90.000000
_cell_angle_beta 90.000000
_cell_angle_gamma 90.000000
_cell_volume 1882.495416
_symmetry_space_group_name_H-M "P B A N"
_symmetry_group_IT_number 50
_space_group.IT_coordinate_system_code '2'
_symmetry_cell_setting 'orthorhombic'
loop_
_space_group_symop_operation_xyz
x,y,z
1/2-x,1/2-y,z
x,1/2-y,-z
1/2-x,y,-z
-x,-y,-z
1/2+x,1/2+y,-z
-x,1/2+y,z
1/2+x,-y,z
loop_
_atom_site_type_symbol
_atom_site_label
_atom_site_fract_x
_atom_site_fract_y
_atom_site_fract_z
Si Si1 0.191754 0.085120 0.785486
Si Si2 0.712146 0.409913 0.089846
Si Si3 0.994289 0.405271 0.704267
Si Si4 0.947814 0.255392 0.174360
Si Si5 0.423541 0.120344 0.525129
O O1 0.355318 0.086171 0.753115
O O2 0.103536 0.195158 0.803139
O O3 0.189198 0.024269 0.868244
O O4 0.097052 0.016172 0.721504
O O5 0.841068 0.349637 0.140117
O O6 0.566299 0.337178 0.107469
O O7 0.750000 0.412324 0.000000
O O8 0.041363 0.381045 0.616984
O O9 0.902289 0.307978 0.746395
O O10 0.467280 0.250000 0.500000
O O11 0.250000 0.111556 0.500000
O O12 0.500000 0.000000 0.500000
#
# Coordination Sequence:
#
# PCOD9396848 Si02
#       5
#     8   8   8   8   8
#     4  11  22  41  67 100 123 181 226 271 342 402
#     4  10  22  43  62  95 142 170 219 287 338 396
#     4  11  24  41  71  92 138 169 230 282 330 428
#     4  10  21  38  64  92 126 177 222 261 344 389
#     4  11  27  47  72 108 145 186 232 295 369 422
#
# _framework density 21.248391000000002
#
# number of rings (size 3 to 8) (size 9 to 14) (size 15 to 20)
#    0.000    1.400    2.000    3.000    8.400    1.200 
#    3.600    0.000    0.000    0.000    0.000    0.000 
#    0.000    0.000    0.000    0.000    0.000    0.000 
#
# Total GULP energy -222704.557111 kJ/mol
# GULP energy per Si atom -5567.613928 kJ/mol
# Density = 2.120003 g / cm^3
# Si number density = 21.248391 Si / 1000 Ang^3
#
#
#
# Elastic Constant Matrix: (Units=GPa)
#
#
# Indices 1 2 3 4 5 6 
#
# 1 94.7183 35.5471 20.3661 0.0000 0.0000 0.0000
# 2 35.5471 117.3975 43.8755 0.0000 0.0000 0.0000
# 3 20.3661 43.8755 145.8957 0.0000 0.0000 0.0000
# 4 0.0000 0.0000 0.0000 -6.2522 0.0000 0.0000
# 5 0.0000 0.0000 0.0000 0.0000 43.1981 0.0000
# 6 0.0000 0.0000 0.0000 0.0000 0.0000 25.9320
#
#
#
# Elastic Compliance Matrix: (Units=1/GPa)
#
#
# Indices 1 2 3 4 5 6 
#
# 1 0.011966 -0.003379 -0.000654 0.000000 0.000000 0.000000
# 2 -0.003379 0.010551 -0.002701 0.000000 0.000000 0.000000
# 3 -0.000654 -0.002701 0.007758 0.000000 0.000000 0.000000
# 4 0.000000 0.000000 0.000000 -0.159944 0.000000 0.000000
# 5 0.000000 0.000000 0.000000 0.000000 0.023149 0.000000
# 6 0.000000 0.000000 0.000000 0.000000 0.000000 0.038562
#
#
# Mechanical properties :
#
#
# Convention : Reuss Voigt Hill
#
# Bulk Modulus (GPa) = 59.50183 61.95432 60.72808
# Shear Modulus (GPa) = -102.27831 29.79042 -36.24394
#
# Velocity S-wave (km/s) = -6.94544 3.74840 -4.13452
# Velocity P-wave (km/s) = 6.02122 6.92492 2.41862
#
# Compressibility (1/GPa) = 0.01680620
#
# Stress axis : x y z
#
# Youngs Moduli (GPa) = 83.56770 94.78040 128.90063
#
# Poissons Ratio (x) = 0.32024 0.08434
# Poissons Ratio (y) = 0.28236 0.34820
# Poissons Ratio (z) = 0.05468 0.25603
#
# Static dielectric constant tensor:
#      x y z
#    x 1.804570 0.000000 0.000000 
#    y 0.000000 2.027900 0.000000 
#    z 0.000000 0.000000 1.720770 
# 
# From -- ./inp_files/28504.got.cif
#   From: 2010.05.17/outbox.cif.g08.bks.cpg/sg50_15_cif.got.tgz:28504.got - 2010.06.03 11:33:33.
