data_PCOD9396452
_publ_section_title
;
Structure prediction by ZEFSAII (Michael W. Deem and Ramdas Pophale) SiO2 
 PCOD9396452
Probable space group: P B A N
;
_chemical_formula_sum "Si O2"
_cell_formula_units_Z 56
_cell_length_a 14.787487
_cell_length_b 20.709798
_cell_length_c 8.213546
_cell_angle_alpha 90.000000
_cell_angle_beta 90.000000
_cell_angle_gamma 90.000000
_cell_volume 2515.364530
_symmetry_space_group_name_H-M "P B A N"
_symmetry_group_IT_number 50
_space_group.IT_coordinate_system_code '2'
_symmetry_cell_setting 'orthorhombic'
loop_
_space_group_symop_operation_xyz
x,y,z
1/2-x,1/2-y,z
x,1/2-y,-z
1/2-x,y,-z
-x,-y,-z
1/2+x,1/2+y,-z
-x,1/2+y,z
1/2+x,-y,z
loop_
_atom_site_type_symbol
_atom_site_label
_atom_site_fract_x
_atom_site_fract_y
_atom_site_fract_z
Si Si1 0.851710 0.655989 0.031978
Si Si2 0.313903 0.940150 0.629125
Si Si3 0.083543 0.302164 0.614711
Si Si4 0.520566 0.286616 0.838265
Si Si5 0.570522 0.529296 0.874557
Si Si6 0.512362 0.425638 0.441468
Si Si7 0.282869 0.821806 0.814518
O O1 0.868831 0.678574 0.217608
O O2 0.865745 0.579403 0.033181
O O3 0.750000 0.674859 0.000000
O O4 0.926693 0.682443 0.904248
O O5 0.250000 0.978234 0.500000
O O6 0.391827 0.909719 0.516067
O O7 0.254403 0.884070 0.711771
O O8 0.365626 0.982839 0.765641
O O9 0.131576 0.250000 0.500000
O O10 0.998592 0.261774 0.689606
O O11 0.055369 0.366573 0.515807
O O12 0.607936 0.328774 0.802997
O O13 0.553183 0.250000 0.000000
O O14 0.505596 0.568955 0.750357
O O15 0.500000 0.500000 0.000000
O O16 0.500000 0.500000 0.500000
O O17 0.250000 0.750000 0.760217
O O18 0.250000 0.828600 0.000000
#
# Coordination Sequence:
#
# PCOD9396452 Si02
#       7
#     8   8   8   8   8   8   8
#     4  10  23  42  67  98 137 173 229 299 357 411
#     4  11  25  39  62  99 138 177 227 298 360 425
#     4  10  21  38  68  96 128 178 226 277 350 425
#     4  10  20  38  62  91 131 173 224 281 349 403
#     4  10  22  44  73  96 127 189 244 287 356 438
#     4   9  21  43  65  95 138 179 227 280 356 433
#     4  11  23  40  62  95 139 184 237 289 345 431
#
# _framework density 22.263176000000001
#
# number of rings (size 3 to 8) (size 9 to 14) (size 15 to 20)
#    0.000    1.857    1.429    1.714    2.000    8.000 
#    0.000    5.714    0.000    3.429    0.000    0.000 
#    0.000    0.000    0.000    0.000    0.000    0.000 
#
# Total GULP energy -311930.396136 kJ/mol
# GULP energy per Si atom -5570.185645 kJ/mol
# Density = 2.221250 g / cm^3
# Si number density = 22.263176 Si / 1000 Ang^3
#
#
#
# Elastic Constant Matrix: (Units=GPa)
#
#
# Indices 1 2 3 4 5 6 
#
# 1 114.1968 41.5579 41.6448 0.0000 0.0000 0.0000
# 2 41.5579 119.8133 44.9717 0.0000 0.0000 0.0000
# 3 41.6448 44.9717 69.0303 0.0000 0.0000 0.0000
# 4 0.0000 0.0000 0.0000 41.1600 0.0000 0.0000
# 5 0.0000 0.0000 0.0000 0.0000 22.2262 0.0000
# 6 0.0000 0.0000 0.0000 0.0000 0.0000 22.0546
#
#
#
# Elastic Compliance Matrix: (Units=1/GPa)
#
#
# Indices 1 2 3 4 5 6 
#
# 1 0.011524 -0.001837 -0.005756 0.000000 0.000000 0.000000
# 2 -0.001837 0.011341 -0.006280 0.000000 0.000000 0.000000
# 3 -0.005756 -0.006280 0.022050 0.000000 0.000000 0.000000
# 4 0.000000 0.000000 0.000000 0.024295 0.000000 0.000000
# 5 0.000000 0.000000 0.000000 0.000000 0.044992 0.000000
# 6 0.000000 0.000000 0.000000 0.000000 0.000000 0.045342
#
#
# Mechanical properties :
#
#
# Convention : Reuss Voigt Hill
#
# Bulk Modulus (GPa) = 58.24208 62.15433 60.19821
# Shear Modulus (GPa) = 25.90503 28.74590 27.32546
#
# Velocity S-wave (km/s) = 3.41483 3.59721 3.50720
# Velocity P-wave (km/s) = 6.46263 6.72546 6.59536
#
# Compressibility (1/GPa) = 0.01716972
#
# Stress axis : x y z
#
# Youngs Moduli (GPa) = 86.77369 88.17852 45.35145
#
# Poissons Ratio (x) = 0.16197 0.26103
# Poissons Ratio (y) = 0.15939 0.28481
# Poissons Ratio (z) = 0.49944 0.55376
#
# Static dielectric constant tensor:
#      x y z
#    x 1.856190 0.000000 0.000000 
#    y 0.000000 1.905300 0.000000 
#    z 0.000000 0.000000 1.657520 
# 
# From -- ./inp_files/13296.got.cif
#   From: 2010.05.17/outbox.cif.g08.bks.cpg/sg50_7_cif.got.tgz:13296.got - 2010.06.03 11:33:33.
