data_PCOD9396863
_publ_section_title
;
Structure prediction by ZEFSAII (Michael W. Deem and Ramdas Pophale) SiO2 
 PCOD9396863
Probable space group: P B A N
;
_chemical_formula_sum "Si O2"
_cell_formula_units_Z 64
_cell_length_a 14.564103
_cell_length_b 25.007479
_cell_length_c 8.643299
_cell_angle_alpha 90.000000
_cell_angle_beta 90.000000
_cell_angle_gamma 90.000000
_cell_volume 3147.988893
_symmetry_space_group_name_H-M "P B A N"
_symmetry_group_IT_number 50
_space_group.IT_coordinate_system_code '2'
_symmetry_cell_setting 'orthorhombic'
loop_
_space_group_symop_operation_xyz
x,y,z
1/2-x,1/2-y,z
x,1/2-y,-z
1/2-x,y,-z
-x,-y,-z
1/2+x,1/2+y,-z
-x,1/2+y,z
1/2+x,-y,z
loop_
_atom_site_type_symbol
_atom_site_label
_atom_site_fract_x
_atom_site_fract_y
_atom_site_fract_z
Si Si1 0.014844 0.054640 0.815129
Si Si2 0.853723 0.303779 0.065107
Si Si3 0.488227 0.825845 0.688932
Si Si4 0.686667 0.005485 0.730132
Si Si5 0.914160 0.090956 0.105666
Si Si6 0.353459 0.259407 0.314537
Si Si7 0.380214 0.017016 0.608651
Si Si8 0.548492 0.633612 0.633199
O O1 0.009798 0.115596 0.756980
O O2 0.119753 0.036067 0.814400
O O3 0.960298 0.015659 0.695564
O O4 0.967092 0.054367 0.982220
O O5 0.889103 0.308191 0.242277
O O6 0.898741 0.250000 0.000000
O O7 0.750000 0.302058 0.000000
O O8 0.889447 0.356437 0.985133
O O9 0.567207 0.782785 0.735563
O O10 0.495287 0.836038 0.505274
O O11 0.646938 0.009777 0.554865
O O12 0.790686 0.987538 0.716117
O O13 0.672161 0.060549 0.820941
O O14 0.979835 0.109303 0.242643
O O15 0.250000 0.250000 0.252347
O O16 0.347715 0.250000 0.500000
O O17 0.386167 0.320716 0.294560
O O18 0.400175 0.079636 0.575987
#
# Coordination Sequence:
#
# PCOD9396863 Si02
#       8
#     8   8   8   8   8   8   8   8
#     4  11  22  41  60  88 126 172 212 262 332 387
#     4  10  23  44  67  92 122 166 221 274 340 401
#     4  10  21  38  68  88 129 167 211 270 329 388
#     4  11  23  38  60  91 126 164 216 266 322 390
#     4  11  24  39  63  88 125 169 216 267 325 402
#     4   9  20  35  63  98 126 163 217 270 320 390
#     4  11  24  38  62  93 129 169 213 270 327 399
#     4  11  21  40  62  93 129 170 216 262 330 396
#
# _framework density 20.330441
#
# number of rings (size 3 to 8) (size 9 to 14) (size 15 to 20)
#    0.000    1.500    2.500    2.250    5.250    1.000 
#    0.000    0.000    0.000    6.375    0.000    0.000 
#    0.000    0.000    0.000    0.000    0.000    0.000 
#
# Total GULP energy -356893.366132 kJ/mol
# GULP energy per Si atom -5576.458846 kJ/mol
# Density = 2.028417 g / cm^3
# Si number density = 20.330441 Si / 1000 Ang^3
#
#
#
# Elastic Constant Matrix: (Units=GPa)
#
#
# Indices 1 2 3 4 5 6 
#
# 1 89.5646 23.8083 19.9310 0.0000 0.0000 0.0000
# 2 23.8083 124.8028 17.6486 0.0000 0.0000 0.0000
# 3 19.9310 17.6486 56.1228 0.0000 0.0000 0.0000
# 4 0.0000 0.0000 0.0000 35.9197 0.0000 0.0000
# 5 0.0000 0.0000 0.0000 0.0000 15.7016 0.0000
# 6 0.0000 0.0000 0.0000 0.0000 0.0000 26.5388
#
#
#
# Elastic Compliance Matrix: (Units=1/GPa)
#
#
# Indices 1 2 3 4 5 6 
#
# 1 0.012515 -0.001841 -0.003865 0.000000 0.000000 0.000000
# 2 -0.001841 0.008656 -0.002068 0.000000 0.000000 0.000000
# 3 -0.003865 -0.002068 0.019841 0.000000 0.000000 0.000000
# 4 0.000000 0.000000 0.000000 0.027840 0.000000 0.000000
# 5 0.000000 0.000000 0.000000 0.000000 0.063688 0.000000
# 6 0.000000 0.000000 0.000000 0.000000 0.000000 0.037681
#
#
# Mechanical properties :
#
#
# Convention : Reuss Voigt Hill
#
# Bulk Modulus (GPa) = 39.27280 43.69624 41.48452
# Shear Modulus (GPa) = 25.73902 29.57216 27.65559
#
# Velocity S-wave (km/s) = 3.56200 3.81803 3.69223
# Velocity P-wave (km/s) = 6.02298 6.40126 6.21500
#
# Compressibility (1/GPa) = 0.02546291
#
# Stress axis : x y z
#
# Youngs Moduli (GPa) = 79.90646 115.52295 50.40006
#
# Poissons Ratio (x) = 0.21265 0.19482
# Poissons Ratio (y) = 0.14709 0.10425
# Poissons Ratio (z) = 0.30888 0.23895
#
# Static dielectric constant tensor:
#      x y z
#    x 1.593940 0.000000 0.000000 
#    y 0.000000 1.760610 0.000000 
#    z 0.000000 0.000000 1.920240 
# 
# From -- ./inp_files/13488.got.cif
#   From: 2010.05.17/outbox.cif.g08.bks.cpg/sg50_7_cif.got.tgz:13488.got - 2010.06.03 11:33:33.
