data_PCOD9396244
_publ_section_title
;
Structure prediction by ZEFSAII (Michael W. Deem and Ramdas Pophale) SiO2 
 PCOD9396244
Probable space group: P B A N
;
_chemical_formula_sum "Si O2"
_cell_formula_units_Z 52
_cell_length_a 15.179754
_cell_length_b 17.039355
_cell_length_c 8.948036
_cell_angle_alpha 90.000000
_cell_angle_beta 90.000000
_cell_angle_gamma 90.000000
_cell_volume 2314.438299
_symmetry_space_group_name_H-M "P B A N"
_symmetry_group_IT_number 50
_space_group.IT_coordinate_system_code '2'
_symmetry_cell_setting 'orthorhombic'
loop_
_space_group_symop_operation_xyz
x,y,z
1/2-x,1/2-y,z
x,1/2-y,-z
1/2-x,y,-z
-x,-y,-z
1/2+x,1/2+y,-z
-x,1/2+y,z
1/2+x,-y,z
loop_
_atom_site_type_symbol
_atom_site_label
_atom_site_fract_x
_atom_site_fract_y
_atom_site_fract_z
Si Si1 0.875746 0.781794 0.148984
Si Si2 0.533776 0.018030 0.164443
Si Si3 0.431228 0.136271 0.643572
Si Si4 0.927840 0.318067 0.112646
Si Si5 0.750000 0.457014 0.500000
Si Si6 0.142400 0.077471 0.662840
Si Si7 0.107256 0.671727 0.548921
O O1 0.899127 0.712627 0.265925
O O2 0.826826 0.852436 0.230930
O O3 0.967561 0.818645 0.085359
O O4 0.834431 0.750000 0.000000
O O5 0.599914 0.090416 0.121817
O O6 0.452221 0.046897 0.272278
O O7 0.566261 0.939311 0.247061
O O8 0.500000 0.000000 0.000000
O O9 0.372395 0.113985 0.501204
O O10 0.525942 0.152748 0.562493
O O11 0.922280 0.300680 0.287383
O O12 0.891801 0.250000 0.000000
O O13 0.711201 0.508505 0.364752
O O14 0.830296 0.402821 0.447792
O O15 0.156064 0.750000 0.500000
#
# Coordination Sequence:
#
# PCOD9396244 Si02
#       7
#     8   8   8   8   4   8   8
#     4  10  20  37  66 104 128 155 213 294 351 393
#     4  11  21  33  60  96 130 164 208 283 344 388
#     4  12  19  39  68  98 123 163 227 290 336 396
#     4  10  20  35  60  96 128 159 209 276 339 395
#     4  12  27  40  61  92 140 182 228 272 329 432
#     4  11  22  40  62  96 129 169 222 270 339 404
#     4  12  22  40  65  93 130 172 224 279 341 404
#
# _framework density 22.467655000000001
#
# number of rings (size 3 to 8) (size 9 to 14) (size 15 to 20)
#    0.000    0.923    6.154    4.846    0.000    0.000 
#    0.000    1.538    0.000   19.385    0.000    0.000 
#    0.000    0.000    0.000    0.000    0.000    0.000 
#
# Total GULP energy -289818.213245 kJ/mol
# GULP energy per Si atom -5573.427178 kJ/mol
# Density = 2.241652 g / cm^3
# Si number density = 22.467655 Si / 1000 Ang^3
#
#
#
# Elastic Constant Matrix: (Units=GPa)
#
#
# Indices 1 2 3 4 5 6 
#
# 1 56.9055 24.9630 12.9597 0.0000 0.0000 0.0000
# 2 24.9630 173.7655 66.7310 0.0000 0.0000 0.0000
# 3 12.9597 66.7310 138.4435 0.0000 0.0000 0.0000
# 4 0.0000 0.0000 0.0000 59.8725 0.0000 0.0000
# 5 0.0000 0.0000 0.0000 0.0000 -5.2251 0.0000
# 6 0.0000 0.0000 0.0000 0.0000 0.0000 15.4913
#
#
#
# Elastic Compliance Matrix: (Units=1/GPa)
#
#
# Indices 1 2 3 4 5 6 
#
# 1 0.018790 -0.002484 -0.000562 0.000000 0.000000 0.000000
# 2 -0.002484 0.007390 -0.003330 0.000000 0.000000 0.000000
# 3 -0.000562 -0.003330 0.008881 0.000000 0.000000 0.000000
# 4 0.000000 0.000000 0.000000 0.016702 0.000000 0.000000
# 5 0.000000 0.000000 0.000000 0.000000 -0.191385 0.000000
# 6 0.000000 0.000000 0.000000 0.000000 0.000000 0.064552
#
#
# Mechanical properties :
#
#
# Convention : Reuss Voigt Hill
#
# Bulk Modulus (GPa) = 44.82068 64.26909 54.54488
# Shear Modulus (GPa) = -91.10541 31.65845 -29.72348
#
# Velocity S-wave (km/s) = -6.37476 3.75783 -3.64118
# Velocity P-wave (km/s) = 5.84732 6.89171 2.57919
#
# Compressibility (1/GPa) = 0.02231113
#
# Stress axis : x y z
#
# Youngs Moduli (GPa) = 53.21844 135.31059 112.60341
#
# Poissons Ratio (x) = 0.33607 0.06326
# Poissons Ratio (y) = 0.13218 0.37494
# Poissons Ratio (z) = 0.02990 0.45055
#
# Static dielectric constant tensor:
#      x y z
#    x 1.886620 0.000000 0.000000 
#    y 0.000000 1.936420 0.000000 
#    z 0.000000 0.000000 1.869700 
# 
# From -- ./inp_files/14423.got.cif
#   From: 2010.05.17/outbox.cif.g08.bks.cpg/sg50_8_cif.got.tgz:14423.got - 2010.06.03 11:33:33.
