data_PCOD9396206
_publ_section_title
;
Structure prediction by ZEFSAII (Michael W. Deem and Ramdas Pophale) SiO2 
 PCOD9396206
Probable space group: P B A N
;
_chemical_formula_sum "Si O2"
_cell_formula_units_Z 44
_cell_length_a 28.419154
_cell_length_b 15.664800
_cell_length_c 5.192433
_cell_angle_alpha 90.000000
_cell_angle_beta 90.000000
_cell_angle_gamma 90.000000
_cell_volume 2311.569211
_symmetry_space_group_name_H-M "P B A N"
_symmetry_group_IT_number 50
_space_group.IT_coordinate_system_code '2'
_symmetry_cell_setting 'orthorhombic'
loop_
_space_group_symop_operation_xyz
x,y,z
1/2-x,1/2-y,z
x,1/2-y,-z
1/2-x,y,-z
-x,-y,-z
1/2+x,1/2+y,-z
-x,1/2+y,z
1/2+x,-y,z
loop_
_atom_site_type_symbol
_atom_site_label
_atom_site_fract_x
_atom_site_fract_y
_atom_site_fract_z
Si Si1 0.697297 0.841757 0.601173
Si Si2 0.917995 0.592580 0.106466
Si Si3 0.123225 0.016601 0.593538
Si Si4 0.979032 0.149308 0.017525
Si Si5 0.352724 0.250000 0.000000
Si Si6 0.583677 0.150135 0.483059
O O1 0.676921 0.750000 0.500000
O O2 0.750000 0.846393 0.500000
O O3 0.668952 0.926272 0.532873
O O4 0.685051 0.820832 0.895707
O O5 0.914841 0.552291 0.389228
O O6 0.890820 0.683660 0.123468
O O7 0.971421 0.602143 0.014006
O O8 0.891988 0.537685 0.884853
O O9 0.125449 0.916546 0.534408
O O10 0.953175 0.133648 0.286895
O O11 0.990035 0.250000 0.000000
O O12 0.943107 0.132393 0.784473
O O13 0.597012 0.250000 0.500000
#
# Coordination Sequence:
#
# PCOD9396206 Si02
#       6
#     8   8   8   8   4   8
#     4  10  21  38  58  83 113 145 179 225 280 351
#     4  11  21  34  56  79 117 146 187 227 274 331
#     4  11  23  37  55  82 110 146 188 231 281 333
#     4  10  20  35  55  80 108 152 192 232 273 325
#     4  10  20  37  54  84 118 158 180 220 281 338
#     4  10  22  38  55  76 109 149 194 235 279 319
#
# _framework density 19.034689
#
# number of rings (size 3 to 8) (size 9 to 14) (size 15 to 20)
#    0.000    1.636    2.727    2.182    0.000    5.818 
#    0.000    0.000    0.000    0.545    0.000    0.000 
#    0.000    7.636    0.000    0.000    0.000    1.273 
#
# Total GULP energy -244980.017852 kJ/mol
# GULP energy per Si atom -5567.727678 kJ/mol
# Density = 1.899137 g / cm^3
# Si number density = 19.034689 Si / 1000 Ang^3
#
#
#
# Elastic Constant Matrix: (Units=GPa)
#
#
# Indices 1 2 3 4 5 6 
#
# 1 68.0585 66.3355 4.4502 0.0000 0.0000 0.0000
# 2 66.3355 103.3516 11.0497 0.0000 0.0000 0.0000
# 3 4.4502 11.0497 70.6154 0.0000 0.0000 0.0000
# 4 0.0000 0.0000 0.0000 16.6428 0.0000 0.0000
# 5 0.0000 0.0000 0.0000 0.0000 14.7352 0.0000
# 6 0.0000 0.0000 0.0000 0.0000 0.0000 12.8732
#
#
#
# Elastic Compliance Matrix: (Units=1/GPa)
#
#
# Indices 1 2 3 4 5 6 
#
# 1 0.039400 -0.025449 0.001499 0.000000 0.000000 0.000000
# 2 -0.025449 0.026278 -0.002508 0.000000 0.000000 0.000000
# 3 0.001499 -0.002508 0.014459 0.000000 0.000000 0.000000
# 4 0.000000 0.000000 0.000000 0.060086 0.000000 0.000000
# 5 0.000000 0.000000 0.000000 0.000000 0.067864 0.000000
# 6 0.000000 0.000000 0.000000 0.000000 0.000000 0.077681
#
#
# Mechanical properties :
#
#
# Convention : Reuss Voigt Hill
#
# Bulk Modulus (GPa) = 36.73566 45.07737 40.90651
# Shear Modulus (GPa) = 14.37788 19.52961 16.95374
#
# Velocity S-wave (km/s) = 2.75135 3.20660 2.98766
# Velocity P-wave (km/s) = 5.42535 6.11905 5.78261
#
# Compressibility (1/GPa) = 0.02722151
#
# Stress axis : x y z
#
# Youngs Moduli (GPa) = 25.38103 38.05485 69.16008
#
# Poissons Ratio (x) = 0.96844 -0.10368
# Poissons Ratio (y) = 0.64591 0.17346
# Poissons Ratio (z) = -0.03805 0.09545
#
# Static dielectric constant tensor:
#      x y z
#    x 1.643640 0.000000 0.000000 
#    y 0.000000 1.788150 0.000000 
#    z 0.000000 0.000000 3.844410 
# 
# From -- ./inp_files/3512.got.cif
#   From: 2010.05.17/outbox.cif.g08.bks.cpg/sg50_2_cif.got.tgz:3512.got - 2010.06.03 11:33:33.
