data_PCOD9396921
_publ_section_title
;
Structure prediction by ZEFSAII (Michael W. Deem and Ramdas Pophale) SiO2 
 PCOD9396921
Probable space group: P B A N
;
_chemical_formula_sum "Si O2"
_cell_formula_units_Z 40
_cell_length_a 7.790870
_cell_length_b 25.024320
_cell_length_c 8.537366
_cell_angle_alpha 90.000000
_cell_angle_beta 90.000000
_cell_angle_gamma 90.000000
_cell_volume 1664.455325
_symmetry_space_group_name_H-M "P B A N"
_symmetry_group_IT_number 50
_space_group.IT_coordinate_system_code '2'
_symmetry_cell_setting 'orthorhombic'
loop_
_space_group_symop_operation_xyz
x,y,z
1/2-x,1/2-y,z
x,1/2-y,-z
1/2-x,y,-z
-x,-y,-z
1/2+x,1/2+y,-z
-x,1/2+y,z
1/2+x,-y,z
loop_
_atom_site_type_symbol
_atom_site_label
_atom_site_fract_x
_atom_site_fract_y
_atom_site_fract_z
Si Si1 0.504582 0.835487 0.849757
Si Si2 0.976169 0.481315 0.821023
Si Si3 0.454801 0.264713 0.332989
Si Si4 0.595769 0.632477 0.818045
Si Si5 0.341489 0.929898 0.668347
O O1 0.476697 0.773734 0.804673
O O2 0.708065 0.848498 0.833581
O O3 0.403430 0.872856 0.729764
O O4 0.482044 0.853574 0.028724
O O5 0.792269 0.455085 0.791707
O O6 0.097816 0.430307 0.790598
O O7 0.003832 0.528162 0.694622
O O8 0.000000 0.500000 0.000000
O O9 0.250000 0.250000 0.336492
O O10 0.528930 0.250000 0.500000
O O11 0.477391 0.327724 0.311319
O O12 0.250000 0.929078 0.500000
#
# Coordination Sequence:
#
# PCOD9396921 Si02
#       5
#     8   8   8   8   8
#     4  10  21  40  67  99 135 172 233 279 344 404
#     4  12  25  44  69  97 135 178 234 282 348 423
#     4   9  19  37  64 100 136 174 224 281 339 404
#     4  10  21  39  70  99 131 180 226 289 331 411
#     4  12  27  45  67 100 140 181 228 293 354 420
#
# _framework density 24.031887000000001
#
# number of rings (size 3 to 8) (size 9 to 14) (size 15 to 20)
#    0.000    1.400    2.000    3.000    5.600    2.400 
#    3.600    1.000    0.000    2.400    0.000    0.000 
#    0.000    0.000    0.000    0.000    0.000    0.000 
#
# Total GULP energy -223531.045226 kJ/mol
# GULP energy per Si atom -5588.276131 kJ/mol
# Density = 2.397719 g / cm^3
# Si number density = 24.031887 Si / 1000 Ang^3
#
#
#
# Elastic Constant Matrix: (Units=GPa)
#
#
# Indices 1 2 3 4 5 6 
#
# 1 45.9130 5.6055 24.7495 0.0000 0.0000 0.0000
# 2 5.6055 102.0643 39.2483 0.0000 0.0000 0.0000
# 3 24.7495 39.2483 119.0268 0.0000 0.0000 0.0000
# 4 0.0000 0.0000 0.0000 34.1447 0.0000 0.0000
# 5 0.0000 0.0000 0.0000 0.0000 24.9043 0.0000
# 6 0.0000 0.0000 0.0000 0.0000 0.0000 20.9915
#
#
#
# Elastic Compliance Matrix: (Units=1/GPa)
#
#
# Indices 1 2 3 4 5 6 
#
# 1 0.024574 0.000705 -0.005342 0.000000 0.000000 0.000000
# 2 0.000705 0.011241 -0.003853 0.000000 0.000000 0.000000
# 3 -0.005342 -0.003853 0.010783 0.000000 0.000000 0.000000
# 4 0.000000 0.000000 0.000000 0.029287 0.000000 0.000000
# 5 0.000000 0.000000 0.000000 0.000000 0.040154 0.000000
# 6 0.000000 0.000000 0.000000 0.000000 0.000000 0.047638
#
#
# Mechanical properties :
#
#
# Convention : Reuss Voigt Hill
#
# Bulk Modulus (GPa) = 33.76504 45.13451 39.44977
# Shear Modulus (GPa) = 26.24263 29.16816 27.70539
#
# Velocity S-wave (km/s) = 3.30812 3.48764 3.39906
# Velocity P-wave (km/s) = 5.35463 5.91946 5.64412
#
# Compressibility (1/GPa) = 0.02961644
#
# Stress axis : x y z
#
# Youngs Moduli (GPa) = 40.69356 88.96222 92.74052
#
# Poissons Ratio (x) = -0.06268 0.49542
# Poissons Ratio (y) = -0.02867 0.35734
# Poissons Ratio (z) = 0.21739 0.34278
#
# Static dielectric constant tensor:
#      x y z
#    x 2.063740 0.000000 0.000000 
#    y 0.000000 1.968240 0.000000 
#    z 0.000000 0.000000 1.952280 
# 
# From -- ./inp_files/9551.got.cif
#   From: 2010.05.17/outbox.cif.g08.bks.cpg/sg50_5_cif.got.tgz:9551.got - 2010.06.03 11:33:33.
