data_PCOD9396795
_publ_section_title
;
Structure prediction by ZEFSAII (Michael W. Deem and Ramdas Pophale) SiO2 
 PCOD9396795
Probable space group: P B A N
;
_chemical_formula_sum "Si O2"
_cell_formula_units_Z 40
_cell_length_a 4.951112
_cell_length_b 18.672424
_cell_length_c 17.978797
_cell_angle_alpha 90.000000
_cell_angle_beta 90.000000
_cell_angle_gamma 90.000000
_cell_volume 1662.126524
_symmetry_space_group_name_H-M "P B A N"
_symmetry_group_IT_number 50
_space_group.IT_coordinate_system_code '2'
_symmetry_cell_setting 'orthorhombic'
loop_
_space_group_symop_operation_xyz
x,y,z
1/2-x,1/2-y,z
x,1/2-y,-z
1/2-x,y,-z
-x,-y,-z
1/2+x,1/2+y,-z
-x,1/2+y,z
1/2+x,-y,z
loop_
_atom_site_type_symbol
_atom_site_label
_atom_site_fract_x
_atom_site_fract_y
_atom_site_fract_z
Si Si1 0.889443 0.326096 0.617796
Si Si2 0.750000 0.250000 0.000000
Si Si3 0.750000 0.750000 0.500000
Si Si4 0.750000 0.750000 0.895802
Si Si5 0.028883 0.541192 0.790537
Si Si6 0.018644 0.958592 0.389303
Si Si7 0.401104 0.826316 0.216005
O O1 0.750000 0.250000 0.630178
O O2 0.671126 0.385078 0.593528
O O3 0.003865 0.345497 0.700049
O O4 0.093091 0.304300 0.553930
O O5 0.513735 0.277707 0.942528
O O6 0.635782 0.687653 0.842845
O O7 0.229348 0.477386 0.816274
O O8 0.012649 0.539862 0.700579
O O9 0.187466 0.613650 0.807303
O O10 0.217427 0.023136 0.414207
O O11 0.250000 0.750000 0.219525
#
# Coordination Sequence:
#
# PCOD9396795 Si02
#       7
#     8   2   2   4   8   8   8
#     4  10  23  40  62  89 122 166 208 262 318 375
#     4  10  24  38  60  90 140 164 200 246 322 358
#     4  12  24  40  58  82 124 170 212 260 324 384
#     4  11  21  40  59  97 128 166 202 257 305 368
#     4   9  19  33  53  87 128 161 192 247 316 368
#     4   9  19  37  60  85 116 154 202 256 310 369
#     4  10  21  37  65  96 125 158 213 266 305 360
#
# _framework density 24.065556999999998
#
# number of rings (size 3 to 8) (size 9 to 14) (size 15 to 20)
#    0.000    2.200    1.000    0.900    5.600    0.000 
#    0.000    1.000    0.000    0.000    0.000   14.000 
#    0.000    0.000    0.000    0.000    0.000    0.000 
#
# Total GULP energy -223293.798705 kJ/mol
# GULP energy per Si atom -5582.344968 kJ/mol
# Density = 2.401078 g / cm^3
# Si number density = 24.065557 Si / 1000 Ang^3
#
#
#
# Elastic Constant Matrix: (Units=GPa)
#
#
# Indices 1 2 3 4 5 6 
#
# 1 133.7685 8.0260 30.2591 0.0000 0.0000 0.0000
# 2 8.0260 98.6407 -4.3682 0.0000 0.0000 0.0000
# 3 30.2591 -4.3682 98.4867 0.0000 0.0000 0.0000
# 4 0.0000 0.0000 0.0000 1.6979 0.0000 0.0000
# 5 0.0000 0.0000 0.0000 0.0000 45.4242 0.0000
# 6 0.0000 0.0000 0.0000 0.0000 0.0000 45.2170
#
#
#
# Elastic Compliance Matrix: (Units=1/GPa)
#
#
# Indices 1 2 3 4 5 6 
#
# 1 0.008092 -0.000770 -0.002520 0.000000 0.000000 0.000000
# 2 -0.000770 0.010231 0.000690 0.000000 0.000000 0.000000
# 3 -0.002520 0.000690 0.010959 0.000000 0.000000 0.000000
# 4 0.000000 0.000000 0.000000 0.588964 0.000000 0.000000
# 5 0.000000 0.000000 0.000000 0.000000 0.022015 0.000000
# 6 0.000000 0.000000 0.000000 0.000000 0.000000 0.022116
#
#
# Mechanical properties :
#
#
# Convention : Reuss Voigt Hill
#
# Bulk Modulus (GPa) = 41.52545 44.30329 42.91437
# Shear Modulus (GPa) = 7.40080 38.26642 22.83361
#
# Velocity S-wave (km/s) = 1.75555 3.99192 3.08362
# Velocity P-wave (km/s) = 4.62621 6.30053 5.52714
#
# Compressibility (1/GPa) = 0.02408162
#
# Stress axis : x y z
#
# Youngs Moduli (GPa) = 123.58017 97.74192 91.25235
#
# Poissons Ratio (x) = 0.07526 0.22999
# Poissons Ratio (y) = 0.09516 -0.06300
# Poissons Ratio (z) = 0.31146 -0.06748
#
# Static dielectric constant tensor:
#      x y z
#    x 2.001610 0.000000 0.000000 
#    y 0.000000 1.964260 0.000000 
#    z 0.000000 0.000000 1.999480 
# 
# From -- ./inp_files/28218.got.cif
#   From: 2010.05.17/outbox.cif.g08.bks.cpg/sg50_15_cif.got.tgz:28218.got - 2010.06.03 11:33:33.
