data_PCOD9396964
_publ_section_title
;
Structure prediction by ZEFSAII (Michael W. Deem and Ramdas Pophale) SiO2 
 PCOD9396964
Probable space group: P B A N
;
_chemical_formula_sum "Si O2"
_cell_formula_units_Z 56
_cell_length_a 18.209128
_cell_length_b 16.427229
_cell_length_c 8.321144
_cell_angle_alpha 90.000000
_cell_angle_beta 90.000000
_cell_angle_gamma 90.000000
_cell_volume 2489.066489
_symmetry_space_group_name_H-M "P B A N"
_symmetry_group_IT_number 50
_space_group.IT_coordinate_system_code '2'
_symmetry_cell_setting 'orthorhombic'
loop_
_space_group_symop_operation_xyz
x,y,z
1/2-x,1/2-y,z
x,1/2-y,-z
1/2-x,y,-z
-x,-y,-z
1/2+x,1/2+y,-z
-x,1/2+y,z
1/2+x,-y,z
loop_
_atom_site_type_symbol
_atom_site_label
_atom_site_fract_x
_atom_site_fract_y
_atom_site_fract_z
Si Si1 0.128446 0.759342 0.817330
Si Si2 0.240036 0.472670 0.685188
Si Si3 0.548117 0.741731 0.176557
Si Si4 0.351846 0.335629 0.411923
Si Si5 0.372593 0.561923 0.841318
Si Si6 0.548154 0.928274 0.663251
Si Si7 0.888584 0.085325 0.776504
O O1 0.148529 0.850190 0.766958
O O2 0.147578 0.673455 0.737032
O O3 0.039347 0.756386 0.816717
O O4 0.155763 0.750000 0.000000
O O5 0.250000 0.500977 0.500000
O O6 0.219595 0.377448 0.666287
O O7 0.304045 0.501470 0.805612
O O8 0.167085 0.514064 0.747401
O O9 0.587758 0.806743 0.285567
O O10 0.562878 0.648948 0.222699
O O11 0.576340 0.750000 0.000000
O O12 0.335493 0.250000 0.500000
O O13 0.396029 0.402716 0.520539
O O14 0.434576 0.514923 0.741740
O O15 0.399238 0.579789 0.026179
O O16 0.459433 0.924357 0.661232
#
# Coordination Sequence:
#
# PCOD9396964 Si02
#       7
#     8   8   8   8   8   8   8
#     4   8  18  38  64  93 130 164 209 267 342 389
#     4  12  26  43  60  91 132 175 223 264 337 403
#     4   9  19  37  65 102 127 163 219 282 332 397
#     4  10  23  43  64  89 133 180 217 273 343 415
#     4  11  22  41  65  95 132 174 217 274 330 411
#     4  10  21  40  66  97 129 167 222 274 346 394
#     4  10  23  41  67  97 125 172 223 279 330 399
#
# _framework density 22.498394999999999
#
# number of rings (size 3 to 8) (size 9 to 14) (size 15 to 20)
#    0.000    2.000    1.429    1.714    4.000    2.571 
#    0.000    5.000    0.000    0.857    0.000    0.000 
#    0.000    0.000    0.000    0.000    0.000    0.000 
#
# Total GULP energy -311996.770131 kJ/mol
# GULP energy per Si atom -5571.370895 kJ/mol
# Density = 2.244719 g / cm^3
# Si number density = 22.498395 Si / 1000 Ang^3
#
#
#
# Elastic Constant Matrix: (Units=GPa)
#
#
# Indices 1 2 3 4 5 6 
#
# 1 46.2973 21.5239 6.8052 0.0000 0.0000 0.0000
# 2 21.5239 114.5759 13.2226 0.0000 0.0000 0.0000
# 3 6.8052 13.2226 36.3332 0.0000 0.0000 0.0000
# 4 0.0000 0.0000 0.0000 28.9418 0.0000 0.0000
# 5 0.0000 0.0000 0.0000 0.0000 36.0150 0.0000
# 6 0.0000 0.0000 0.0000 0.0000 0.0000 -22.2898
#
#
#
# Elastic Compliance Matrix: (Units=1/GPa)
#
#
# Indices 1 2 3 4 5 6 
#
# 1 0.023971 -0.004160 -0.002976 0.000000 0.000000 0.000000
# 2 -0.004160 0.009832 -0.002799 0.000000 0.000000 0.000000
# 3 -0.002976 -0.002799 0.029099 0.000000 0.000000 0.000000
# 4 0.000000 0.000000 0.000000 0.034552 0.000000 0.000000
# 5 0.000000 0.000000 0.000000 0.000000 0.027766 0.000000
# 6 0.000000 0.000000 0.000000 0.000000 0.000000 -0.044864
#
#
# Mechanical properties :
#
#
# Convention : Reuss Voigt Hill
#
# Bulk Modulus (GPa) = 23.23810 31.14555 27.19182
# Shear Modulus (GPa) = 43.64121 18.91038 31.27579
#
# Velocity S-wave (km/s) = 4.40903 2.90232 3.73250
# Velocity P-wave (km/s) = 6.02251 5.01047 5.53965
#
# Compressibility (1/GPa) = 0.04303278
#
# Stress axis : x y z
#
# Youngs Moduli (GPa) = 41.71743 101.70567 34.36527
#
# Poissons Ratio (x) = 0.42306 0.10227
# Poissons Ratio (y) = 0.17353 0.09619
# Poissons Ratio (z) = 0.12415 0.28469
#
# Static dielectric constant tensor:
#      x y z
#    x 1.891240 0.000000 0.000000 
#    y 0.000000 1.891900 0.000000 
#    z 0.000000 0.000000 1.477420 
# 
# From -- ./inp_files/15374.got.cif
#   From: 2010.05.17/outbox.cif.g08.bks.cpg/sg50_8_cif.got.tgz:15374.got - 2010.06.03 11:33:33.
