data_PCOD9396474
_publ_section_title
;
Structure prediction by ZEFSAII (Michael W. Deem and Ramdas Pophale) SiO2 
 PCOD9396474
Probable space group: P B A N
;
_chemical_formula_sum "Si O2"
_cell_formula_units_Z 30
_cell_length_a 14.483651
_cell_length_b 10.670634
_cell_length_c 9.269161
_cell_angle_alpha 90.000000
_cell_angle_beta 90.000000
_cell_angle_gamma 90.000000
_cell_volume 1432.546411
_symmetry_space_group_name_H-M "P B A N"
_symmetry_group_IT_number 50
_space_group.IT_coordinate_system_code '2'
_symmetry_cell_setting 'orthorhombic'
loop_
_space_group_symop_operation_xyz
x,y,z
1/2-x,1/2-y,z
x,1/2-y,-z
1/2-x,y,-z
-x,-y,-z
1/2+x,1/2+y,-z
-x,1/2+y,z
1/2+x,-y,z
loop_
_atom_site_type_symbol
_atom_site_label
_atom_site_fract_x
_atom_site_fract_y
_atom_site_fract_z
Si Si1 0.642718 0.392909 0.749082
Si Si2 0.463024 0.117442 0.410324
Si Si3 0.750000 0.250000 0.500000
Si Si4 0.750000 0.750000 0.000000
Si Si5 0.750000 0.250000 0.000000
Si Si6 0.775511 0.618122 0.729429
O O1 0.534100 0.374067 0.724724
O O2 0.686846 0.328872 0.607537
O O3 0.685390 0.330650 0.892580
O O4 0.685956 0.532018 0.742374
O O5 0.460750 0.250000 0.500000
O O6 0.362895 0.071747 0.356382
O O7 0.500000 0.000000 0.500000
O O8 0.804919 0.660466 0.891232
O O9 0.750000 0.750000 0.659934
#
# Coordination Sequence:
#
# PCOD9396474 Si02
#       6
#     8   8   2   2   2   8
#     4  11  22  44  66 103 136 177 231 285 344 412
#     4  12  26  43  70 107 134 180 236 285 351 414
#     4  10  20  38  66  86 146 170 212 288 336 394
#     4   8  22  46  66  94 132 192 232 248 370 408
#     4  10  26  40  70  98 142 180 228 286 364 378
#     4  10  23  45  70  94 139 181 225 283 341 418
#
# _framework density 20.941731000000001
#
# number of rings (size 3 to 8) (size 9 to 14) (size 15 to 20)
#    0.800    0.533    1.333    4.000    3.733    3.733 
#    0.000    2.667    0.000    0.000    0.000    0.000 
#    0.000    0.000    0.000    0.000    0.000    0.000 
#
# Total GULP energy -167202.168762 kJ/mol
# GULP energy per Si atom -5573.405625 kJ/mol
# Density = 2.089407 g / cm^3
# Si number density = 20.941731 Si / 1000 Ang^3
#
#
#
# Elastic Constant Matrix: (Units=GPa)
#
#
# Indices 1 2 3 4 5 6 
#
# 1 67.4110 -9.0568 8.0979 0.0000 0.0000 0.0000
# 2 -9.0568 81.1771 20.5768 0.0000 0.0000 0.0000
# 3 8.0979 20.5768 110.0561 0.0000 0.0000 0.0000
# 4 0.0000 0.0000 0.0000 27.1722 0.0000 0.0000
# 5 0.0000 0.0000 0.0000 0.0000 12.8466 0.0000
# 6 0.0000 0.0000 0.0000 0.0000 0.0000 23.5948
#
#
#
# Elastic Compliance Matrix: (Units=1/GPa)
#
#
# Indices 1 2 3 4 5 6 
#
# 1 0.015297 0.002091 -0.001517 0.000000 0.000000 0.000000
# 2 0.002091 0.013217 -0.002625 0.000000 0.000000 0.000000
# 3 -0.001517 -0.002625 0.009689 0.000000 0.000000 0.000000
# 4 0.000000 0.000000 0.000000 0.036802 0.000000 0.000000
# 5 0.000000 0.000000 0.000000 0.000000 0.077842 0.000000
# 6 0.000000 0.000000 0.000000 0.000000 0.000000 0.042382
#
#
# Mechanical properties :
#
#
# Convention : Reuss Voigt Hill
#
# Bulk Modulus (GPa) = 29.32328 33.09778 31.21053
# Shear Modulus (GPa) = 23.73060 28.65779 26.19420
#
# Velocity S-wave (km/s) = 3.36992 3.70328 3.54052
# Velocity P-wave (km/s) = 5.40134 5.84163 5.62580
#
# Compressibility (1/GPa) = 0.03410259
#
# Stress axis : x y z
#
# Youngs Moduli (GPa) = 65.37020 75.65751 103.21337
#
# Poissons Ratio (x) = -0.15821 0.15653
# Poissons Ratio (y) = -0.13670 0.27094
# Poissons Ratio (z) = 0.09914 0.19861
#
# Static dielectric constant tensor:
#      x y z
#    x 1.806170 0.000000 0.000000 
#    y 0.000000 1.777320 0.000000 
#    z 0.000000 0.000000 1.800670 
# 
# From -- ./inp_files/10643.got.cif
#   From: 2010.05.17/outbox.cif.g08.bks.cpg/sg50_6_cif.got.tgz:10643.got - 2010.06.03 11:33:33.
