data_PCOD9396887
_publ_section_title
;
Structure prediction by ZEFSAII (Michael W. Deem and Ramdas Pophale) SiO2 
 PCOD9396887
Probable space group: P B A N
;
_chemical_formula_sum "Si O2"
_cell_formula_units_Z 48
_cell_length_a 23.610283
_cell_length_b 7.688337
_cell_length_c 10.737474
_cell_angle_alpha 90.000000
_cell_angle_beta 90.000000
_cell_angle_gamma 90.000000
_cell_volume 1949.107216
_symmetry_space_group_name_H-M "P B A N"
_symmetry_group_IT_number 50
_space_group.IT_coordinate_system_code '2'
_symmetry_cell_setting 'orthorhombic'
loop_
_space_group_symop_operation_xyz
x,y,z
1/2-x,1/2-y,z
x,1/2-y,-z
1/2-x,y,-z
-x,-y,-z
1/2+x,1/2+y,-z
-x,1/2+y,z
1/2+x,-y,z
loop_
_atom_site_type_symbol
_atom_site_label
_atom_site_fract_x
_atom_site_fract_y
_atom_site_fract_z
Si Si1 0.832026 0.997746 0.591752
Si Si2 0.271526 0.064724 0.832754
Si Si3 0.561238 0.901125 0.280298
Si Si4 0.119791 0.042123 0.027958
Si Si5 0.566895 0.492016 0.233756
Si Si6 0.682256 0.110450 0.666897
O O1 0.809572 0.190373 0.628200
O O2 0.811280 0.980586 0.450859
O O3 0.806747 0.889970 0.706076
O O4 0.899644 0.973033 0.607781
O O5 0.250000 0.250000 0.875698
O O6 0.316383 0.986559 0.931558
O O7 0.219236 0.949873 0.783946
O O8 0.584157 0.988027 0.153124
O O9 0.571361 0.695887 0.265491
O O10 0.494473 0.931845 0.277744
O O11 0.123515 0.250000 0.000000
O O12 0.085029 0.967258 0.911305
O O13 0.616191 0.394591 0.304429
#
# Coordination Sequence:
#
# PCOD9396887 Si02
#       6
#     8   8   8   8   8   8
#     4  10  23  42  60  87 124 162 209 255 301 363
#     4  11  22  38  63  90 120 159 203 251 305 367
#     4  10  21  39  62  90 122 159 206 252 303 364
#     4   9  20  38  60  88 122 158 198 249 304 365
#     4  11  22  38  64  91 121 161 202 252 310 366
#     4  11  23  39  62  89 123 164 203 253 310 361
#
# _framework density 24.626660999999999
#
# number of rings (size 3 to 8) (size 9 to 14) (size 15 to 20)
#    0.000    1.667    0.000    5.500    0.000    7.667 
#    0.000    6.667    0.000   14.000    0.000    0.000 
#    0.000    0.000    0.000    0.000    0.000    0.000 
#
# Total GULP energy -268401.542853 kJ/mol
# GULP energy per Si atom -5591.698809 kJ/mol
# Density = 2.457061 g / cm^3
# Si number density = 24.626661 Si / 1000 Ang^3
#
#
#
# Elastic Constant Matrix: (Units=GPa)
#
#
# Indices 1 2 3 4 5 6 
#
# 1 167.3008 8.3386 15.2485 0.0000 0.0000 0.0000
# 2 8.3386 46.1498 11.1112 0.0000 0.0000 0.0000
# 3 15.2485 11.1112 87.5763 0.0000 0.0000 0.0000
# 4 0.0000 0.0000 0.0000 11.7541 0.0000 0.0000
# 5 0.0000 0.0000 0.0000 0.0000 13.0388 0.0000
# 6 0.0000 0.0000 0.0000 0.0000 0.0000 25.5388
#
#
#
# Elastic Compliance Matrix: (Units=1/GPa)
#
#
# Indices 1 2 3 4 5 6 
#
# 1 0.006108 -0.000874 -0.000953 0.000000 0.000000 0.000000
# 2 -0.000874 0.022476 -0.002699 0.000000 0.000000 0.000000
# 3 -0.000953 -0.002699 0.011927 0.000000 0.000000 0.000000
# 4 0.000000 0.000000 0.000000 0.085077 0.000000 0.000000
# 5 0.000000 0.000000 0.000000 0.000000 0.076694 0.000000
# 6 0.000000 0.000000 0.000000 0.000000 0.000000 0.039156
#
#
# Mechanical properties :
#
#
# Convention : Reuss Voigt Hill
#
# Bulk Modulus (GPa) = 31.78778 41.15815 36.47296
# Shear Modulus (GPa) = 19.15880 27.82158 23.49019
#
# Velocity S-wave (km/s) = 2.79224 3.36480 3.09180
# Velocity P-wave (km/s) = 4.83025 5.64313 5.25244
#
# Compressibility (1/GPa) = 0.03145863
#
# Stress axis : x y z
#
# Youngs Moduli (GPa) = 163.72911 44.49098 83.84371
#
# Poissons Ratio (x) = 0.03890 0.07986
# Poissons Ratio (y) = 0.14314 0.22633
# Poissons Ratio (z) = 0.15596 0.12010
#
# Static dielectric constant tensor:
#      x y z
#    x 1.991150 0.000000 0.000000 
#    y 0.000000 1.962730 0.000000 
#    z 0.000000 0.000000 2.006830 
# 
# From -- ./inp_files/22783.got.cif
#   From: 2010.05.17/outbox.cif.g08.bks.cpg/sg50_12_cif.got.tgz:22783.got - 2010.06.03 11:33:33.
