data_PCOD9396201
_publ_section_title
;
Structure prediction by ZEFSAII (Michael W. Deem and Ramdas Pophale) SiO2 
 PCOD9396201
Probable space group: P B A N
;
_chemical_formula_sum "Si O2"
_cell_formula_units_Z 60
_cell_length_a 23.124043
_cell_length_b 27.134437
_cell_length_c 5.246703
_cell_angle_alpha 90.000000
_cell_angle_beta 90.000000
_cell_angle_gamma 90.000000
_cell_volume 3292.085183
_symmetry_space_group_name_H-M "P B A N"
_symmetry_group_IT_number 50
_space_group.IT_coordinate_system_code '2'
_symmetry_cell_setting 'orthorhombic'
loop_
_space_group_symop_operation_xyz
x,y,z
1/2-x,1/2-y,z
x,1/2-y,-z
1/2-x,y,-z
-x,-y,-z
1/2+x,1/2+y,-z
-x,1/2+y,z
1/2+x,-y,z
loop_
_atom_site_type_symbol
_atom_site_label
_atom_site_fract_x
_atom_site_fract_y
_atom_site_fract_z
Si Si1 0.750000 0.882903 0.500000
Si Si2 0.664579 0.697023 0.600571
Si Si3 0.180239 0.897170 0.506453
Si Si4 0.820010 0.457546 0.004421
Si Si5 0.979871 0.308094 0.986758
Si Si6 0.903969 0.192327 0.515438
Si Si7 0.183761 0.068628 0.896971
Si Si8 0.105653 0.338597 0.078412
O O1 0.784321 0.841772 0.664264
O O2 0.800112 0.918603 0.395847
O O3 0.684638 0.750000 0.500000
O O4 0.628128 0.698372 0.858688
O O5 0.626500 0.677089 0.361240
O O6 0.250000 0.892223 0.500000
O O7 0.162291 0.925121 0.763451
O O8 0.149527 0.844570 0.502203
O O9 0.162849 0.931046 0.265611
O O10 0.837069 0.514326 0.964947
O O11 0.750000 0.458870 0.000000
O O12 0.949269 0.317034 0.715318
O O13 0.037064 0.339229 0.044651
O O14 0.996294 0.250000 0.000000
O O15 0.934700 0.316097 0.214270
O O16 0.887267 0.250000 0.500000
O O17 0.250000 0.074982 0.000000
O O18 0.137255 0.109341 0.974266
#
# Coordination Sequence:
#
# PCOD9396201 Si02
#       8
#     4   8   8   8   8   8   8   8
#     4  10  21  32  48  74 108 140 187 232 280 344
#     4  11  21  33  48  72 106 145 181 235 291 327
#     4  10  20  37  57  90 114 139 173 210 274 332
#     4   9  20  32  57  80 113 148 176 224 264 331
#     4  10  20  36  56  80 106 147 192 224 266 321
#     4  10  21  37  61  84 112 144 175 217 265 330
#     4  10  20  35  54  78 110 144 196 236 287 323
#     4  11  22  35  55  77 106 146 196 240 272 323
#
# _framework density 18.225532000000001
#
# number of rings (size 3 to 8) (size 9 to 14) (size 15 to 20)
#    0.000    1.867    1.333    3.000    4.667    1.333 
#    0.000    1.333    0.000    9.600    0.000    0.000 
#    0.000    0.000    0.000    0.000    0.000    0.000 
#
# Total GULP energy -334287.613827 kJ/mol
# GULP energy per Si atom -5571.460230 kJ/mol
# Density = 1.818405 g / cm^3
# Si number density = 18.225532 Si / 1000 Ang^3
#
#
#
# Elastic Constant Matrix: (Units=GPa)
#
#
# Indices 1 2 3 4 5 6 
#
# 1 51.3949 53.3006 13.3865 0.0000 0.0000 0.0000
# 2 53.3006 128.6501 39.1704 0.0000 0.0000 0.0000
# 3 13.3865 39.1704 90.2072 0.0000 0.0000 0.0000
# 4 0.0000 0.0000 0.0000 20.3418 0.0000 0.0000
# 5 0.0000 0.0000 0.0000 0.0000 9.3909 0.0000
# 6 0.0000 0.0000 0.0000 0.0000 0.0000 20.8397
#
#
#
# Elastic Compliance Matrix: (Units=1/GPa)
#
#
# Indices 1 2 3 4 5 6 
#
# 1 0.034236 -0.014563 0.001243 0.000000 0.000000 0.000000
# 2 -0.014563 0.015152 -0.004418 0.000000 0.000000 0.000000
# 3 0.001243 -0.004418 0.012820 0.000000 0.000000 0.000000
# 4 0.000000 0.000000 0.000000 0.049160 0.000000 0.000000
# 5 0.000000 0.000000 0.000000 0.000000 0.106486 0.000000
# 6 0.000000 0.000000 0.000000 0.000000 0.000000 0.047985
#
#
# Mechanical properties :
#
#
# Convention : Reuss Voigt Hill
#
# Bulk Modulus (GPa) = 37.40899 53.55190 45.48045
# Shear Modulus (GPa) = 16.11732 21.07412 18.59572
#
# Velocity S-wave (km/s) = 2.97699 3.40412 3.19770
# Velocity P-wave (km/s) = 5.69094 6.70056 6.21628
#
# Compressibility (1/GPa) = 0.02673154
#
# Stress axis : x y z
#
# Youngs Moduli (GPa) = 29.20899 65.99943 78.00533
#
# Poissons Ratio (x) = 0.96113 -0.09696
# Poissons Ratio (y) = 0.42536 0.34464
# Poissons Ratio (z) = -0.03631 0.29160
#
# Static dielectric constant tensor:
#      x y z
#    x 1.618210 0.000000 0.000000 
#    y 0.000000 1.621830 0.000000 
#    z 0.000000 0.000000 1.775990 
# 
# From -- ./inp_files/5488.got.cif
#   From: 2010.05.17/outbox.cif.g08.bks.cpg/sg50_3_cif.got.tgz:5488.got - 2010.06.03 11:33:33.
