data_PCOD9396161
_publ_section_title
;
Structure prediction by ZEFSAII (Michael W. Deem and Ramdas Pophale) SiO2 
 PCOD9396161
Probable space group: P B A N
;
_chemical_formula_sum "Si O2"
_cell_formula_units_Z 40
_cell_length_a 12.627326
_cell_length_b 19.680460
_cell_length_c 9.749335
_cell_angle_alpha 90.000000
_cell_angle_beta 90.000000
_cell_angle_gamma 90.000000
_cell_volume 2422.822686
_symmetry_space_group_name_H-M "P B A N"
_symmetry_group_IT_number 50
_space_group.IT_coordinate_system_code '2'
_symmetry_cell_setting 'orthorhombic'
loop_
_space_group_symop_operation_xyz
x,y,z
1/2-x,1/2-y,z
x,1/2-y,-z
1/2-x,y,-z
-x,-y,-z
1/2+x,1/2+y,-z
-x,1/2+y,z
1/2+x,-y,z
loop_
_atom_site_type_symbol
_atom_site_label
_atom_site_fract_x
_atom_site_fract_y
_atom_site_fract_z
Si Si1 0.250000 0.537541 0.000000
Si Si2 0.315601 0.179186 0.375890
Si Si3 0.485922 0.750000 0.500000
Si Si4 0.068495 0.639240 0.966476
Si Si5 0.837451 0.905502 0.102745
Si Si6 0.875133 0.265738 0.783333
O O1 0.160258 0.585045 0.936028
O O2 0.193342 0.485174 0.104640
O O3 0.250000 0.250000 0.345583
O O4 0.250000 0.146461 0.500000
O O5 0.431590 0.196699 0.433765
O O6 0.325415 0.132005 0.245711
O O7 0.416726 0.775275 0.371227
O O8 0.096034 0.672422 0.114470
O O9 0.072079 0.700196 0.856302
O O10 0.953617 0.605653 0.958790
O O11 0.750000 0.874570 0.000000
O O12 0.750000 0.250000 0.785383
#
# Coordination Sequence:
#
# PCOD9396161 Si02
#       6
#     4   8   4   8   8   8
#     4  10  22  39  59  80 118 158 188 244 278 340
#     4   9  20  36  55  84 120 144 181 240 296 339
#     4  10  20  34  56  86 116 146 176 238 298 340
#     4  11  20  39  59  87 115 143 202 239 290 331
#     4  10  23  34  61  86 110 154 195 231 289 348
#     4  11  21  35  62  86 113 150 187 250 289 339
#
# _framework density 16.509668999999999
#
# number of rings (size 3 to 8) (size 9 to 14) (size 15 to 20)
#    0.600    1.400    4.000    1.500    5.600    0.400 
#    0.000    0.000    4.400    2.400    0.000    0.000 
#    0.000    0.000    0.000    0.000    0.000    0.000 
#
# Total GULP energy -222706.390347 kJ/mol
# GULP energy per Si atom -5567.659759 kJ/mol
# Density = 1.647209 g / cm^3
# Si number density = 16.509669 Si / 1000 Ang^3
#
#
#
# Elastic Constant Matrix: (Units=GPa)
#
#
# Indices 1 2 3 4 5 6 
#
# 1 126.1482 36.4821 34.8984 0.0000 0.0000 0.0000
# 2 36.4821 78.8950 38.9152 0.0000 0.0000 0.0000
# 3 34.8984 38.9152 111.1464 0.0000 0.0000 0.0000
# 4 0.0000 0.0000 0.0000 -0.5667 0.0000 0.0000
# 5 0.0000 0.0000 0.0000 0.0000 25.0878 0.0000
# 6 0.0000 0.0000 0.0000 0.0000 0.0000 -3.5546
#
#
#
# Elastic Compliance Matrix: (Units=1/GPa)
#
#
# Indices 1 2 3 4 5 6 
#
# 1 0.009419 -0.003501 -0.001731 0.000000 0.000000 0.000000
# 2 -0.003501 0.016623 -0.004721 0.000000 0.000000 0.000000
# 3 -0.001731 -0.004721 0.011194 0.000000 0.000000 0.000000
# 4 0.000000 0.000000 0.000000 -1.764749 0.000000 0.000000
# 5 0.000000 0.000000 0.000000 0.000000 0.039860 0.000000
# 6 0.000000 0.000000 0.000000 0.000000 0.000000 -0.281323
#
#
# Mechanical properties :
#
#
# Convention : Reuss Voigt Hill
#
# Bulk Modulus (GPa) = 57.70955 59.64233 58.67594
# Shear Modulus (GPa) = -2.57295 17.91956 7.67330
#
# Velocity S-wave (km/s) = -1.24973 3.29811 2.15821
# Velocity P-wave (km/s) = 5.74007 7.12092 6.46746
#
# Compressibility (1/GPa) = 0.01732815
#
# Stress axis : x y z
#
# Youngs Moduli (GPa) = 106.17106 60.15910 89.33662
#
# Poissons Ratio (x) = 0.21064 0.15468
# Poissons Ratio (y) = 0.37174 0.42173
# Poissons Ratio (z) = 0.18383 0.28399
#
# Static dielectric constant tensor:
#      x y z
#    x 1.578940 0.000000 0.000000 
#    y 0.000000 1.558400 0.000000 
#    z 0.000000 0.000000 1.542170 
# 
# From -- ./inp_files/11363.got.cif
#   From: 2010.05.17/outbox.cif.g08.bks.cpg/sg50_6_cif.got.tgz:11363.got - 2010.06.03 11:33:33.
