data_PCOD9396220
_publ_section_title
;
Structure prediction by ZEFSAII (Michael W. Deem and Ramdas Pophale) SiO2 
 PCOD9396220
Probable space group: P B A N
;
_chemical_formula_sum "Si O2"
_cell_formula_units_Z 56
_cell_length_a 14.270753
_cell_length_b 14.549451
_cell_length_c 12.507832
_cell_angle_alpha 90.000000
_cell_angle_beta 90.000000
_cell_angle_gamma 90.000000
_cell_volume 2597.021440
_symmetry_space_group_name_H-M "P B A N"
_symmetry_group_IT_number 50
_space_group.IT_coordinate_system_code '2'
_symmetry_cell_setting 'orthorhombic'
loop_
_space_group_symop_operation_xyz
x,y,z
1/2-x,1/2-y,z
x,1/2-y,-z
1/2-x,y,-z
-x,-y,-z
1/2+x,1/2+y,-z
-x,1/2+y,z
1/2+x,-y,z
loop_
_atom_site_type_symbol
_atom_site_label
_atom_site_fract_x
_atom_site_fract_y
_atom_site_fract_z
Si Si1 0.346407 0.891920 0.952885
Si Si2 0.517400 0.121804 0.842785
Si Si3 0.848144 0.976660 0.434723
Si Si4 0.590077 0.566753 0.214507
Si Si5 0.847147 0.897319 0.973320
Si Si6 0.067808 0.697502 0.745782
Si Si7 0.461547 0.857998 0.523719
O O1 0.377516 0.839747 0.847872
O O2 0.332250 0.999683 0.927003
O O3 0.250000 0.856389 0.000000
O O4 0.421043 0.882610 0.048531
O O5 0.416905 0.149838 0.890803
O O6 0.560485 0.193994 0.760715
O O7 0.520051 0.021045 0.790676
O O8 0.750000 0.965780 0.500000
O O9 0.835988 0.957658 0.307062
O O10 0.936119 0.908852 0.468862
O O11 0.894581 0.077302 0.452600
O O12 0.537354 0.658634 0.246715
O O13 0.614646 0.582459 0.091626
O O14 0.750000 0.850648 0.000000
O O15 0.096899 0.651901 0.635207
O O16 0.477752 0.750000 0.500000
#
# Coordination Sequence:
#
# PCOD9396220 Si02
#       7
#     8   8   8   8   8   8   8
#     4  10  20  35  57  88 122 159 200 247 304 374
#     4  11  20  36  59  85 129 163 196 253 308 376
#     4  10  23  43  68  93 126 170 220 278 332 394
#     4  10  20  40  58  88 121 161 206 249 317 373
#     4  10  20  36  59  89 123 162 203 250 303 376
#     4  11  21  36  63  87 122 164 206 251 318 380
#     4  10  23  44  65  95 127 165 221 278 331 389
#
# _framework density 21.563164
#
# number of rings (size 3 to 8) (size 9 to 14) (size 15 to 20)
#    0.000    1.714    2.857    2.143    0.000    5.143 
#    5.143    2.857    0.000    0.000    0.000    0.000 
#    0.000    0.000    0.000    0.000    0.000    0.000 
#
# Total GULP energy -311961.459419 kJ/mol
# GULP energy per Si atom -5570.740347 kJ/mol
# Density = 2.151408 g / cm^3
# Si number density = 21.563164 Si / 1000 Ang^3
#
#
#
# Elastic Constant Matrix: (Units=GPa)
#
#
# Indices 1 2 3 4 5 6 
#
# 1 70.1818 2.9498 11.5249 0.0000 0.0000 0.0000
# 2 2.9498 102.4819 16.4889 0.0000 0.0000 0.0000
# 3 11.5249 16.4889 78.7036 0.0000 0.0000 0.0000
# 4 0.0000 0.0000 0.0000 -203.8568 0.0000 0.0000
# 5 0.0000 0.0000 0.0000 0.0000 34.6860 0.0000
# 6 0.0000 0.0000 0.0000 0.0000 0.0000 77.7734
#
#
#
# Elastic Compliance Matrix: (Units=1/GPa)
#
#
# Indices 1 2 3 4 5 6 
#
# 1 0.014600 -0.000079 -0.002121 0.000000 0.000000 0.000000
# 2 -0.000079 0.010099 -0.002104 0.000000 0.000000 0.000000
# 3 -0.002121 -0.002104 0.013457 0.000000 0.000000 0.000000
# 4 0.000000 0.000000 0.000000 -0.004905 0.000000 0.000000
# 5 0.000000 0.000000 0.000000 0.000000 0.028830 0.000000
# 6 0.000000 0.000000 0.000000 0.000000 0.000000 0.012858
#
#
# Mechanical properties :
#
#
# Convention : Reuss Voigt Hill
#
# Bulk Modulus (GPa) = 33.84401 34.81050 34.32725
# Shear Modulus (GPa) = 53.53477 -3.58591 24.97443
#
# Velocity S-wave (km/s) = 4.98807 -1.29096 3.40692
# Velocity P-wave (km/s) = 6.99313 3.73583 5.60626
#
# Compressibility (1/GPa) = 0.02954733
#
# Stress axis : x y z
#
# Youngs Moduli (GPa) = 68.49129 99.02313 74.30856
#
# Poissons Ratio (x) = 0.00781 0.15764
# Poissons Ratio (y) = 0.00540 0.15636
# Poissons Ratio (z) = 0.14530 0.20836
#
# Static dielectric constant tensor:
#      x y z
#    x 1.843540 0.000000 0.000000 
#    y 0.000000 1.779690 0.000000 
#    z 0.000000 0.000000 1.856220 
# 
# From -- ./inp_files/21181.got.cif
#   From: 2010.05.17/outbox.cif.g08.bks.cpg/sg50_11_cif.got.tgz:21181.got - 2010.06.03 11:33:33.
