data_PCOD9396865
_publ_section_title
;
Structure prediction by ZEFSAII (Michael W. Deem and Ramdas Pophale) SiO2 
 PCOD9396865
Probable space group: P B A N
;
_chemical_formula_sum "Si O2"
_cell_formula_units_Z 30
_cell_length_a 11.759227
_cell_length_b 10.833074
_cell_length_c 12.181866
_cell_angle_alpha 90.000000
_cell_angle_beta 90.000000
_cell_angle_gamma 90.000000
_cell_volume 1551.830566
_symmetry_space_group_name_H-M "P B A N"
_symmetry_group_IT_number 50
_space_group.IT_coordinate_system_code '2'
_symmetry_cell_setting 'orthorhombic'
loop_
_space_group_symop_operation_xyz
x,y,z
1/2-x,1/2-y,z
x,1/2-y,-z
1/2-x,y,-z
-x,-y,-z
1/2+x,1/2+y,-z
-x,1/2+y,z
1/2+x,-y,z
loop_
_atom_site_type_symbol
_atom_site_label
_atom_site_fract_x
_atom_site_fract_y
_atom_site_fract_z
Si Si1 0.202729 0.909592 0.197154
Si Si2 0.750000 0.455569 0.500000
Si Si3 0.103235 0.813819 0.673962
Si Si4 0.250000 0.750000 0.000000
Si Si5 0.340331 0.139714 0.686279
O O1 0.142684 0.823212 0.290028
O O2 0.336255 0.896805 0.230686
O O3 0.183490 0.840988 0.082493
O O4 0.165970 0.049550 0.208308
O O5 0.658071 0.371064 0.436188
O O6 0.806794 0.548265 0.412823
O O7 0.968658 0.816601 0.670595
O O8 0.250000 0.250000 0.691535
#
# Coordination Sequence:
#
# PCOD9396865 Si02
#       5
#     8   4   8   2   8
#     4   9  21  39  65  83 113 159 190 256 294 358
#     4  10  21  39  56  90 115 169 200 238 282 345
#     4   9  20  38  59  84 117 158 203 233 292 347
#     4   8  16  44  66  90 106 148 216 230 308 364
#     4  11  23  37  56  89 127 156 194 247 294 340
#
# _framework density 19.332007000000001
#
# number of rings (size 3 to 8) (size 9 to 14) (size 15 to 20)
#    0.000    2.667    0.000    1.200    7.467    8.533 
#   19.200    6.000    0.000    0.000    0.000    0.000 
#    0.000    0.000    0.000    0.000    0.000    0.000 
#
# Total GULP energy -167142.867425 kJ/mol
# GULP energy per Si atom -5571.428914 kJ/mol
# Density = 1.928801 g / cm^3
# Si number density = 19.332007 Si / 1000 Ang^3
#
#
#
# Elastic Constant Matrix: (Units=GPa)
#
#
# Indices 1 2 3 4 5 6 
#
# 1 168.3446 75.2639 30.8534 0.0000 0.0000 0.0000
# 2 75.2639 142.5638 62.0069 0.0000 0.0000 0.0000
# 3 30.8534 62.0069 94.4743 0.0000 0.0000 0.0000
# 4 0.0000 0.0000 0.0000 -5.2166 0.0000 0.0000
# 5 0.0000 0.0000 0.0000 0.0000 7.7583 0.0000
# 6 0.0000 0.0000 0.0000 0.0000 0.0000 13.7962
#
#
#
# Elastic Compliance Matrix: (Units=1/GPa)
#
#
# Indices 1 2 3 4 5 6 
#
# 1 0.007779 -0.004201 0.000217 0.000000 0.000000 0.000000
# 2 -0.004201 0.012085 -0.006560 0.000000 0.000000 0.000000
# 3 0.000217 -0.006560 0.014820 0.000000 0.000000 0.000000
# 4 0.000000 0.000000 0.000000 -0.191696 0.000000 0.000000
# 5 0.000000 0.000000 0.000000 0.000000 0.128894 0.000000
# 6 0.000000 0.000000 0.000000 0.000000 0.000000 0.072484
#
#
# Mechanical properties :
#
#
# Convention : Reuss Voigt Hill
#
# Bulk Modulus (GPa) = 73.55442 82.40345 77.97893
# Shear Modulus (GPa) = 71.44258 19.08482 45.26370
#
# Velocity S-wave (km/s) = 6.08571 3.14540 4.84404
# Velocity P-wave (km/s) = 9.35477 7.47726 8.46821
#
# Compressibility (1/GPa) = 0.01359538
#
# Stress axis : x y z
#
# Youngs Moduli (GPa) = 128.55793 82.74379 67.47741
#
# Poissons Ratio (x) = 0.34760 -0.01463
# Poissons Ratio (y) = 0.54006 0.44267
# Poissons Ratio (z) = -0.02788 0.54282
#
# Static dielectric constant tensor:
#      x y z
#    x 1.672160 0.000000 0.000000 
#    y 0.000000 1.700770 0.000000 
#    z 0.000000 0.000000 1.756900 
# 
# From -- ./inp_files/19708.got.cif
#   From: 2010.05.17/outbox.cif.g08.bks.cpg/sg50_10_cif.got.tgz:19708.got - 2010.06.03 11:33:33.
