data_PCOD9396648
_publ_section_title
;
Structure prediction by ZEFSAII (Michael W. Deem and Ramdas Pophale) SiO2 
 PCOD9396648
Probable space group: P B A N
;
_chemical_formula_sum "Si O2"
_cell_formula_units_Z 58
_cell_length_a 5.030696
_cell_length_b 27.060980
_cell_length_c 18.397868
_cell_angle_alpha 90.000000
_cell_angle_beta 90.000000
_cell_angle_gamma 90.000000
_cell_volume 2504.604134
_symmetry_space_group_name_H-M "P B A N"
_symmetry_group_IT_number 50
_space_group.IT_coordinate_system_code '2'
_symmetry_cell_setting 'orthorhombic'
loop_
_space_group_symop_operation_xyz
x,y,z
1/2-x,1/2-y,z
x,1/2-y,-z
1/2-x,y,-z
-x,-y,-z
1/2+x,1/2+y,-z
-x,1/2+y,z
1/2+x,-y,z
loop_
_atom_site_type_symbol
_atom_site_label
_atom_site_fract_x
_atom_site_fract_y
_atom_site_fract_z
Si Si1 0.018307 0.280593 0.214759
Si Si2 0.096794 0.142580 0.668941
Si Si3 0.798301 0.828778 0.919837
Si Si4 0.538213 0.974250 0.686121
Si Si5 0.199138 0.608743 0.918387
Si Si6 0.417232 0.517945 0.849530
Si Si7 0.750000 0.750000 0.500000
Si Si8 0.879082 0.197371 0.383357
O O1 0.250000 0.250000 0.256652
O O2 0.974608 0.330742 0.259649
O O3 0.173169 0.296394 0.142656
O O4 0.750000 0.250000 0.201555
O O5 0.097288 0.083596 0.678898
O O6 0.394533 0.164243 0.657382
O O7 0.882928 0.162654 0.609224
O O8 0.606801 0.876627 0.915176
O O9 0.104986 0.843773 0.911698
O O10 0.750000 0.808022 0.000000
O O11 0.261697 0.990732 0.652700
O O12 0.523753 0.993482 0.770619
O O13 0.296212 0.571970 0.856014
O O14 0.250000 0.588792 0.000000
O O15 0.700308 0.516189 0.887291
O O16 0.551299 0.717207 0.548908
O O17 0.750000 0.250000 0.353545
#
# Coordination Sequence:
#
# PCOD9396648 Si02
#       8
#     8   8   8   8   8   8   2   8
#     4  12  26  41  64  98 127 179 232 285 364 440
#     4  12  25  41  70 101 153 196 227 297 359 412
#     4  10  23  42  62  85 120 167 232 291 351 429
#     4  10  23  40  61  96 134 190 242 284 341 415
#     4  10  21  37  60  86 114 161 216 288 366 424
#     4  10  21  34  56  82 122 154 217 280 336 416
#     4  12  26  44  82 116 158 188 232 284 330 432
#     4  12  24  44  72 112 156 189 228 280 344 421
#
# _framework density 23.157354000000002
#
# number of rings (size 3 to 8) (size 9 to 14) (size 15 to 20)
#    0.000    1.103    1.379    4.759    7.724    0.828 
#    0.000    0.690    0.000    0.000    0.000    9.655 
#    0.000    0.000    0.000    0.000    0.000    0.000 
#
# Total GULP energy -323395.418817 kJ/mol
# GULP energy per Si atom -5575.783083 kJ/mol
# Density = 2.310465 g / cm^3
# Si number density = 23.157354 Si / 1000 Ang^3
#
#
#
# Elastic Constant Matrix: (Units=GPa)
#
#
# Indices 1 2 3 4 5 6 
#
# 1 117.4899 -17.7618 -3.7797 0.0000 0.0000 0.0000
# 2 -17.7618 68.0614 9.8637 0.0000 0.0000 0.0000
# 3 -3.7797 9.8637 51.5048 0.0000 0.0000 0.0000
# 4 0.0000 0.0000 0.0000 24.1528 0.0000 0.0000
# 5 0.0000 0.0000 0.0000 0.0000 42.7563 0.0000
# 6 0.0000 0.0000 0.0000 0.0000 0.0000 36.2165
#
#
#
# Elastic Compliance Matrix: (Units=1/GPa)
#
#
# Indices 1 2 3 4 5 6 
#
# 1 0.008863 0.002282 0.000213 0.000000 0.000000 0.000000
# 2 0.002282 0.015700 -0.002839 0.000000 0.000000 0.000000
# 3 0.000213 -0.002839 0.019975 0.000000 0.000000 0.000000
# 4 0.000000 0.000000 0.000000 0.041403 0.000000 0.000000
# 5 0.000000 0.000000 0.000000 0.000000 0.023388 0.000000
# 6 0.000000 0.000000 0.000000 0.000000 0.000000 0.027612
#
#
# Mechanical properties :
#
#
# Convention : Reuss Voigt Hill
#
# Bulk Modulus (GPa) = 22.80475 23.74451 23.27463
# Shear Modulus (GPa) = 32.84172 37.20737 35.02454
#
# Velocity S-wave (km/s) = 3.76998 4.01274 3.89325
# Velocity P-wave (km/s) = 5.36838 5.63429 5.50294
#
# Compressibility (1/GPa) = 0.04385051
#
# Stress axis : x y z
#
# Youngs Moduli (GPa) = 112.82561 63.69570 50.06246
#
# Poissons Ratio (x) = -0.14536 -0.01068
# Poissons Ratio (y) = -0.25748 0.14214
# Poissons Ratio (z) = -0.02407 0.18084
#
# Static dielectric constant tensor:
#      x y z
#    x 2.001380 0.000000 0.000000 
#    y 0.000000 1.925190 0.000000 
#    z 0.000000 0.000000 2.052510 
# 
# From -- ./inp_files/28386.got.cif
#   From: 2010.05.17/outbox.cif.g08.bks.cpg/sg50_15_cif.got.tgz:28386.got - 2010.06.03 11:33:33.
