data_PCOD9396742
_publ_section_title
;
Structure prediction by ZEFSAII (Michael W. Deem and Ramdas Pophale) SiO2 
 PCOD9396742
Probable space group: P B A N
;
_chemical_formula_sum "Si O2"
_cell_formula_units_Z 58
_cell_length_a 31.065332
_cell_length_b 8.808697
_cell_length_c 10.583723
_cell_angle_alpha 90.000000
_cell_angle_beta 90.000000
_cell_angle_gamma 90.000000
_cell_volume 2896.183905
_symmetry_space_group_name_H-M "P B A N"
_symmetry_group_IT_number 50
_space_group.IT_coordinate_system_code '2'
_symmetry_cell_setting 'orthorhombic'
loop_
_space_group_symop_operation_xyz
x,y,z
1/2-x,1/2-y,z
x,1/2-y,-z
1/2-x,y,-z
-x,-y,-z
1/2+x,1/2+y,-z
-x,1/2+y,z
1/2+x,-y,z
loop_
_atom_site_type_symbol
_atom_site_label
_atom_site_fract_x
_atom_site_fract_y
_atom_site_fract_z
Si Si1 0.077266 0.924665 0.036219
Si Si2 0.878747 0.812007 0.637311
Si Si3 0.750000 0.250000 0.000000
Si Si4 0.986681 0.152177 0.310498
Si Si5 0.698775 0.752475 0.794870
Si Si6 0.439250 0.945953 0.667195
Si Si7 0.446859 0.360203 0.814330
Si Si8 0.323607 0.494947 0.991997
O O1 0.062666 0.947082 0.179893
O O2 0.128600 0.942666 0.015811
O O3 0.066045 0.750000 0.000000
O O4 0.059420 0.064683 0.951417
O O5 0.889292 0.750000 0.500000
O O6 0.829485 0.784580 0.672873
O O7 0.892962 0.988170 0.632552
O O8 0.906822 0.726768 0.747707
O O9 0.712439 0.379594 0.002148
O O10 0.956319 0.280941 0.368237
O O11 0.026137 0.070266 0.382769
O O12 0.013141 0.245864 0.202965
O O13 0.958248 0.011549 0.265428
O O14 0.750000 0.750000 0.776475
O O15 0.686525 0.625656 0.898129
O O16 0.682361 0.908339 0.858750
#
# Coordination Sequence:
#
# PCOD9396742 Si02
#       8
#     8   8   2   8   8   8   8   8
#     4  12  21  31  59  90 122 160 188 232 294 367
#     4  11  24  41  62  83 112 156 205 250 291 334
#     4  12  20  34  56  96 126 142 180 236 284 348
#     4   9  20  36  57  83 120 156 192 239 298 352
#     4  11  21  38  61  89 120 149 184 232 293 353
#     4  10  21  37  55  86 120 152 198 241 292 356
#     4  10  21  37  55  86 120 152 198 241 292 356
#     4  11  21  34  57  93 121 154 184 224 291 352
#
# _framework density 20.026353
#
# number of rings (size 3 to 8) (size 9 to 14) (size 15 to 20)
#    0.000    1.379    6.207    0.414    0.000    5.793 
#    0.000   11.724    0.000    0.000    0.000    0.966 
#    0.000    0.000    0.000    0.000    0.000    0.000 
#
# Total GULP energy -323046.339022 kJ/mol
# GULP energy per Si atom -5569.764466 kJ/mol
# Density = 1.998077 g / cm^3
# Si number density = 20.026353 Si / 1000 Ang^3
#
#
#
# Elastic Constant Matrix: (Units=GPa)
#
#
# Indices 1 2 3 4 5 6 
#
# 1 85.9758 23.6044 11.4667 0.0000 0.0000 0.0000
# 2 23.6044 116.6802 0.6879 0.0000 0.0000 0.0000
# 3 11.4667 0.6879 61.6690 0.0000 0.0000 0.0000
# 4 0.0000 0.0000 0.0000 4.5542 0.0000 0.0000
# 5 0.0000 0.0000 0.0000 0.0000 -11.5160 0.0000
# 6 0.0000 0.0000 0.0000 0.0000 0.0000 26.6929
#
#
#
# Elastic Compliance Matrix: (Units=1/GPa)
#
#
# Indices 1 2 3 4 5 6 
#
# 1 0.012639 -0.002543 -0.002322 0.000000 0.000000 0.000000
# 2 -0.002543 0.009083 0.000372 0.000000 0.000000 0.000000
# 3 -0.002322 0.000372 0.016643 0.000000 0.000000 0.000000
# 4 0.000000 0.000000 0.000000 0.219579 0.000000 0.000000
# 5 0.000000 0.000000 0.000000 0.000000 -0.086836 0.000000
# 6 0.000000 0.000000 0.000000 0.000000 0.000000 0.037463
#
#
# Mechanical properties :
#
#
# Convention : Reuss Voigt Hill
#
# Bulk Modulus (GPa) = 34.03882 37.31590 35.67736
# Shear Modulus (GPa) = 21.99247 19.18395 20.58821
#
# Velocity S-wave (km/s) = 3.31747 3.09841 3.20981
# Velocity P-wave (km/s) = 5.63099 5.61017 5.62059
#
# Compressibility (1/GPa) = 0.02937822
#
# Stress axis : x y z
#
# Youngs Moduli (GPa) = 79.11985 110.09907 60.08479
#
# Poissons Ratio (x) = 0.28000 0.13950
# Poissons Ratio (y) = 0.20122 -0.02233
# Poissons Ratio (z) = 0.18369 -0.04091
#
# Static dielectric constant tensor:
#      x y z
#    x 1.711740 0.000000 0.000000 
#    y 0.000000 1.727630 0.000000 
#    z 0.000000 0.000000 1.742070 
# 
# From -- ./inp_files/23376.got.cif
#   From: 2010.05.17/outbox.cif.g08.bks.cpg/sg50_12_cif.got.tgz:23376.got - 2010.06.03 11:33:33.
