data_PCOD9396860
_publ_section_title
;
Structure prediction by ZEFSAII (Michael W. Deem and Ramdas Pophale) SiO2 
 PCOD9396860
Probable space group: P B A N
;
_chemical_formula_sum "Si O2"
_cell_formula_units_Z 40
_cell_length_a 26.666829
_cell_length_b 8.633752
_cell_length_c 7.769241
_cell_angle_alpha 90.000000
_cell_angle_beta 90.000000
_cell_angle_gamma 90.000000
_cell_volume 1788.749556
_symmetry_space_group_name_H-M "P B A N"
_symmetry_group_IT_number 50
_space_group.IT_coordinate_system_code '2'
_symmetry_cell_setting 'orthorhombic'
loop_
_space_group_symop_operation_xyz
x,y,z
1/2-x,1/2-y,z
x,1/2-y,-z
1/2-x,y,-z
-x,-y,-z
1/2+x,1/2+y,-z
-x,1/2+y,z
1/2+x,-y,z
loop_
_atom_site_type_symbol
_atom_site_label
_atom_site_fract_x
_atom_site_fract_y
_atom_site_fract_z
Si Si1 0.697951 0.686713 0.302840
Si Si2 0.893962 0.866119 0.860112
Si Si3 0.565567 0.174806 0.684429
Si Si4 0.489243 0.538191 0.198188
Si Si5 0.336012 0.604936 0.895031
O O1 0.750000 0.750000 0.224436
O O2 0.699334 0.750000 0.500000
O O3 0.647202 0.765105 0.236393
O O4 0.694356 0.507319 0.237528
O O5 0.938058 0.945960 0.754264
O O6 0.917505 0.750000 0.000000
O O7 0.861936 0.995058 0.962146
O O8 0.573013 0.250000 0.500000
O O9 0.526148 0.285227 0.780445
O O10 0.617386 0.168934 0.784726
O O11 0.537155 0.010624 0.689689
O O12 0.500000 0.500000 0.000000
O O13 0.312300 0.750000 0.000000
#
# Coordination Sequence:
#
# PCOD9396860 Si02
#       5
#     8   8   8   8   8
#     4  10  25  47  73 104 140 178 230 298 378 444
#     4  10  21  38  67  94 132 180 231 276 352 419
#     4  12  26  39  61  98 140 179 234 291 353 417
#     4  12  22  41  63  92 137 185 236 275 347 423
#     4  11  22  43  70 100 134 183 233 293 346 424
#
# _framework density 22.361991
#
# number of rings (size 3 to 8) (size 9 to 14) (size 15 to 20)
#    0.000    1.000    4.000    2.400    5.600    4.400 
#    0.000    2.000    0.000    2.400    0.000    0.000 
#    0.000    0.000    0.000    0.000    0.000    0.000 
#
# Total GULP energy -223345.550959 kJ/mol
# GULP energy per Si atom -5583.638774 kJ/mol
# Density = 2.231109 g / cm^3
# Si number density = 22.361991 Si / 1000 Ang^3
#
#
#
# Elastic Constant Matrix: (Units=GPa)
#
#
# Indices 1 2 3 4 5 6 
#
# 1 89.6438 26.5872 18.4437 0.0000 0.0000 0.0000
# 2 26.5872 117.4782 36.9694 0.0000 0.0000 0.0000
# 3 18.4437 36.9694 80.7913 0.0000 0.0000 0.0000
# 4 0.0000 0.0000 0.0000 29.2634 0.0000 0.0000
# 5 0.0000 0.0000 0.0000 0.0000 -4.3645 0.0000
# 6 0.0000 0.0000 0.0000 0.0000 0.0000 12.8842
#
#
#
# Elastic Compliance Matrix: (Units=1/GPa)
#
#
# Indices 1 2 3 4 5 6 
#
# 1 0.012172 -0.002197 -0.001774 0.000000 0.000000 0.000000
# 2 -0.002197 0.010341 -0.004230 0.000000 0.000000 0.000000
# 3 -0.001774 -0.004230 0.014718 0.000000 0.000000 0.000000
# 4 0.000000 0.000000 0.000000 0.034172 0.000000 0.000000
# 5 0.000000 0.000000 0.000000 0.000000 -0.229124 0.000000
# 6 0.000000 0.000000 0.000000 0.000000 0.000000 0.077614
#
#
# Mechanical properties :
#
#
# Convention : Reuss Voigt Hill
#
# Bulk Modulus (GPa) = 48.00845 50.21266 49.11056
# Shear Modulus (GPa) = -88.08576 21.28417 -33.40080
#
# Velocity S-wave (km/s) = -6.28302 3.08847 -3.86896
# Velocity P-wave (km/s) = 5.57851 5.93477 1.43208
#
# Compressibility (1/GPa) = 0.02082967
#
# Stress axis : x y z
#
# Youngs Moduli (GPa) = 82.15836 96.70648 67.94307
#
# Poissons Ratio (x) = 0.21242 0.12050
# Poissons Ratio (y) = 0.18046 0.28742
# Poissons Ratio (z) = 0.14571 0.40910
#
# Static dielectric constant tensor:
#      x y z
#    x 1.813510 0.000000 0.000000 
#    y 0.000000 1.948880 0.000000 
#    z 0.000000 0.000000 1.912350 
# 
# From -- ./inp_files/16355.got.cif
#   From: 2010.05.17/outbox.cif.g08.bks.cpg/sg50_9_cif.got.tgz:16355.got - 2010.06.03 11:33:33.
