data_PCOD9396094
_publ_section_title
;
Structure prediction by ZEFSAII (Michael W. Deem and Ramdas Pophale) SiO2 
 PCOD9396094
Probable space group: P B A N
;
_chemical_formula_sum "Si O2"
_cell_formula_units_Z 38
_cell_length_a 21.667171
_cell_length_b 5.214363
_cell_length_c 15.769470
_cell_angle_alpha 90.000000
_cell_angle_beta 90.000000
_cell_angle_gamma 90.000000
_cell_volume 1781.642523
_symmetry_space_group_name_H-M "P B A N"
_symmetry_group_IT_number 50
_space_group.IT_coordinate_system_code '2'
_symmetry_cell_setting 'orthorhombic'
loop_
_space_group_symop_operation_xyz
x,y,z
1/2-x,1/2-y,z
x,1/2-y,-z
1/2-x,y,-z
-x,-y,-z
1/2+x,1/2+y,-z
-x,1/2+y,z
1/2+x,-y,z
loop_
_atom_site_type_symbol
_atom_site_label
_atom_site_fract_x
_atom_site_fract_y
_atom_site_fract_z
Si Si1 0.355816 0.938663 0.580504
Si Si2 0.044302 0.250000 0.500000
Si Si3 0.250000 0.250000 0.643478
Si Si4 0.359258 0.949060 0.077420
Si Si5 0.042423 0.250000 0.000000
Si Si6 0.320250 0.644173 0.740665
Si Si7 0.250000 0.250000 0.000000
O O1 0.363044 0.750000 0.500000
O O2 0.359147 0.782659 0.667701
O O3 0.406176 0.165144 0.572232
O O4 0.286568 0.050341 0.585679
O O5 0.000000 0.500000 0.500000
O O6 0.303289 0.364497 0.703937
O O7 0.354165 0.834412 0.170186
O O8 0.409424 0.177751 0.074397
O O9 0.371833 0.750000 0.000000
O O10 0.293486 0.074478 0.056832
O O11 0.000000 0.500000 0.000000
O O12 0.250000 0.750000 0.749621
#
# Coordination Sequence:
#
# PCOD9396094 Si02
#       7
#     8   4   4   8   4   8   2
#     4  11  24  43  69  99 136 181 230 281 354 405
#     4  12  26  47  72  97 138 184 240 290 338 404
#     4  10  23  39  67 105 150 172 221 283 349 423
#     4  11  22  40  71  97 140 181 226 284 346 411
#     4  11  24  47  70  99 134 187 240 290 336 401
#     4  10  22  39  63 105 144 174 223 281 352 424
#     4  10  20  32  62 106 136 178 218 268 362 412
#
# _framework density 21.328634000000001
#
# number of rings (size 3 to 8) (size 9 to 14) (size 15 to 20)
#    0.000    1.263    2.105    3.474    0.000   15.158 
#    0.000    2.105    0.000    0.000    0.000    0.000 
#    0.000    0.000    0.000    0.000    0.000    0.000 
#
# Total GULP energy -211848.660134 kJ/mol
# GULP energy per Si atom -5574.964740 kJ/mol
# Density = 2.128009 g / cm^3
# Si number density = 21.328634 Si / 1000 Ang^3
#
#
#
# Elastic Constant Matrix: (Units=GPa)
#
#
# Indices 1 2 3 4 5 6 
#
# 1 92.6166 40.0979 52.0738 0.0000 0.0000 0.0000
# 2 40.0979 118.7824 60.5198 0.0000 0.0000 0.0000
# 3 52.0738 60.5198 172.8919 0.0000 0.0000 0.0000
# 4 0.0000 0.0000 0.0000 22.9101 0.0000 0.0000
# 5 0.0000 0.0000 0.0000 0.0000 -3.9849 0.0000
# 6 0.0000 0.0000 0.0000 0.0000 0.0000 -17.4619
#
#
#
# Elastic Compliance Matrix: (Units=1/GPa)
#
#
# Indices 1 2 3 4 5 6 
#
# 1 0.013883 -0.003111 -0.003092 0.000000 0.000000 0.000000
# 2 -0.003111 0.010943 -0.002894 0.000000 0.000000 0.000000
# 3 -0.003092 -0.002894 0.007728 0.000000 0.000000 0.000000
# 4 0.000000 0.000000 0.000000 0.043649 0.000000 0.000000
# 5 0.000000 0.000000 0.000000 0.000000 -0.250946 0.000000
# 6 0.000000 0.000000 0.000000 0.000000 0.000000 -0.057268
#
#
# Mechanical properties :
#
#
# Convention : Reuss Voigt Hill
#
# Bulk Modulus (GPa) = 69.63610 76.63044 73.13327
# Shear Modulus (GPa) = -23.92006 15.73261 -4.09373
#
# Velocity S-wave (km/s) = -3.35251 2.71888 -1.38691
# Velocity P-wave (km/s) = 4.21120 6.77221 5.63902
#
# Compressibility (1/GPa) = 0.01436037
#
# Stress axis : x y z
#
# Youngs Moduli (GPa) = 72.03175 91.38078 129.39467
#
# Poissons Ratio (x) = 0.28427 0.40015
# Poissons Ratio (y) = 0.22408 0.37442
# Poissons Ratio (z) = 0.22276 0.26442
#
# Static dielectric constant tensor:
#      x y z
#    x 1.783240 0.000000 0.000000 
#    y 0.000000 1.927990 0.000000 
#    z 0.000000 0.000000 1.768310 
# 
# From -- ./inp_files/27408.got.cif
#   From: 2010.05.17/outbox.cif.g08.bks.cpg/sg50_14_cif.got.tgz:27408.got - 2010.06.03 11:33:33.
