data_PCOD9396265
_publ_section_title
;
Structure prediction by ZEFSAII (Michael W. Deem and Ramdas Pophale) SiO2 
 PCOD9396265
Probable space group: P B A N
;
_chemical_formula_sum "Si O2"
_cell_formula_units_Z 56
_cell_length_a 12.755348
_cell_length_b 21.904911
_cell_length_c 10.950363
_cell_angle_alpha 90.000000
_cell_angle_beta 90.000000
_cell_angle_gamma 90.000000
_cell_volume 3059.583576
_symmetry_space_group_name_H-M "P B A N"
_symmetry_group_IT_number 50
_space_group.IT_coordinate_system_code '2'
_symmetry_cell_setting 'orthorhombic'
loop_
_space_group_symop_operation_xyz
x,y,z
1/2-x,1/2-y,z
x,1/2-y,-z
1/2-x,y,-z
-x,-y,-z
1/2+x,1/2+y,-z
-x,1/2+y,z
1/2+x,-y,z
loop_
_atom_site_type_symbol
_atom_site_label
_atom_site_fract_x
_atom_site_fract_y
_atom_site_fract_z
Si Si1 0.628066 0.137089 0.161462
Si Si2 0.956205 0.407527 0.419370
Si Si3 0.515361 0.928249 0.034780
Si Si4 0.676920 0.048627 0.813246
Si Si5 0.250000 0.750000 0.791540
Si Si6 0.250000 0.054192 0.000000
Si Si7 0.650111 0.514568 0.440058
Si Si8 0.644625 0.186562 0.567659
O O1 0.586278 0.126434 0.299421
O O2 0.731231 0.095145 0.152460
O O3 0.669388 0.205640 0.140753
O O4 0.540709 0.112700 0.068473
O O5 0.895734 0.469550 0.455990
O O6 0.942945 0.362268 0.534567
O O7 0.071206 0.433355 0.397898
O O8 0.437178 0.924823 0.150855
O O9 0.640046 0.914773 0.044099
O O10 0.500000 0.000000 0.000000
O O11 0.676516 0.028909 0.673357
O O12 0.707985 0.988713 0.890845
O O13 0.318558 0.705702 0.702055
O O14 0.750000 0.544673 0.500000
O O15 0.618929 0.250000 0.500000
O O16 0.750000 0.162189 0.500000
#
# Coordination Sequence:
#
# PCOD9396265 Si02
#       8
#     8   8   8   8   4   4   8   8
#     4  12  19  35  57  86 115 152 191 245 297 356
#     4  11  20  32  53  79 116 149 183 232 289 354
#     4  10  20  36  55  82 109 158 194 233 295 361
#     4  11  20  34  54  76 118 150 188 240 296 360
#     4  10  21  30  57  86 114 148 190 246 290 348
#     4  10  20  36  58  77 109 154 204 224 284 374
#     4  11  23  32  48  83 117 149 186 231 292 349
#     4   9  15  31  50  75 108 146 187 217 277 337
#
# _framework density 18.303145000000001
#
# number of rings (size 3 to 8) (size 9 to 14) (size 15 to 20)
#    0.000    1.571    7.143    3.000    0.000    0.000 
#    0.000    1.429    0.000    0.429    0.000    4.000 
#    0.000    0.000    0.000    0.000    0.000    0.000 
#
# Total GULP energy -312067.403340 kJ/mol
# GULP energy per Si atom -5572.632203 kJ/mol
# Density = 1.826149 g / cm^3
# Si number density = 18.303145 Si / 1000 Ang^3
#
#
#
# Elastic Constant Matrix: (Units=GPa)
#
#
# Indices 1 2 3 4 5 6 
#
# 1 134.8859 27.0310 31.7311 0.0000 0.0000 0.0000
# 2 27.0310 54.8289 10.9892 0.0000 0.0000 0.0000
# 3 31.7311 10.9892 55.6234 0.0000 0.0000 0.0000
# 4 0.0000 0.0000 0.0000 17.4796 0.0000 0.0000
# 5 0.0000 0.0000 0.0000 0.0000 18.3377 0.0000
# 6 0.0000 0.0000 0.0000 0.0000 0.0000 21.3167
#
#
#
# Elastic Compliance Matrix: (Units=1/GPa)
#
#
# Indices 1 2 3 4 5 6 
#
# 1 0.009208 -0.003631 -0.004536 0.000000 0.000000 0.000000
# 2 -0.003631 0.020422 -0.001964 0.000000 0.000000 0.000000
# 3 -0.004536 -0.001964 0.020953 0.000000 0.000000 0.000000
# 4 0.000000 0.000000 0.000000 0.057209 0.000000 0.000000
# 5 0.000000 0.000000 0.000000 0.000000 0.054532 0.000000
# 6 0.000000 0.000000 0.000000 0.000000 0.000000 0.046911
#
#
# Mechanical properties :
#
#
# Convention : Reuss Voigt Hill
#
# Bulk Modulus (GPa) = 32.97721 42.76009 37.86865
# Shear Modulus (GPa) = 20.86770 23.13261 22.00015
#
# Velocity S-wave (km/s) = 3.38022 3.55894 3.47073
# Velocity P-wave (km/s) = 5.76983 6.34830 6.06596
#
# Compressibility (1/GPa) = 0.03032397
#
# Stress axis : x y z
#
# Youngs Moduli (GPa) = 108.59841 48.96671 47.72499
#
# Poissons Ratio (x) = 0.17778 0.21646
# Poissons Ratio (y) = 0.39428 0.09371
# Poissons Ratio (z) = 0.49257 0.09615
#
# Static dielectric constant tensor:
#      x y z
#    x 1.664890 0.000000 0.000000 
#    y 0.000000 1.636610 0.000000 
#    z 0.000000 0.000000 1.697980 
# 
# From -- ./inp_files/20507.got.cif
#   From: 2010.05.17/outbox.cif.g08.bks.cpg/sg50_11_cif.got.tgz:20507.got - 2010.06.03 11:33:33.
