data_PCOD9396306
_publ_section_title
;
Structure prediction by ZEFSAII (Michael W. Deem and Ramdas Pophale) SiO2 
 PCOD9396306
Probable space group: P B A N
;
_chemical_formula_sum "Si O2"
_cell_formula_units_Z 36
_cell_length_a 23.615165
_cell_length_b 8.919428
_cell_length_c 8.284199
_cell_angle_alpha 90.000000
_cell_angle_beta 90.000000
_cell_angle_gamma 90.000000
_cell_volume 1744.932016
_symmetry_space_group_name_H-M "P B A N"
_symmetry_group_IT_number 50
_space_group.IT_coordinate_system_code '2'
_symmetry_cell_setting 'orthorhombic'
loop_
_space_group_symop_operation_xyz
x,y,z
1/2-x,1/2-y,z
x,1/2-y,-z
1/2-x,y,-z
-x,-y,-z
1/2+x,1/2+y,-z
-x,1/2+y,z
1/2+x,-y,z
loop_
_atom_site_type_symbol
_atom_site_label
_atom_site_fract_x
_atom_site_fract_y
_atom_site_fract_z
Si Si1 0.750000 0.250000 0.260220
Si Si2 0.570344 0.398900 0.258787
Si Si3 0.971319 0.067032 0.830899
Si Si4 0.250000 0.504122 0.000000
Si Si5 0.373960 0.418548 0.030438
Si Si6 0.651269 0.250000 0.500000
O O1 0.733236 0.386944 0.146522
O O2 0.696060 0.198233 0.364131
O O3 0.543310 0.241946 0.191795
O O4 0.518453 0.510776 0.292883
O O5 0.609690 0.364945 0.411118
O O6 0.608855 0.474880 0.119740
O O7 0.910761 0.985545 0.823970
O O8 0.000000 0.000000 0.000000
O O9 0.193349 0.418796 0.949355
O O10 0.393933 0.250000 0.000000
#
# Coordination Sequence:
#
# PCOD9396306 Si02
#       6
#     4   8   8   4   8   4
#     4  10  22  38  66  96 126 168 218 282 324 406
#     4  11  22  39  61  93 129 176 212 265 331 402
#     4  10  20  36  61  90 127 162 213 266 315 381
#     4  11  21  38  66  96 122 166 230 274 328 380
#     4  11  21  36  60  96 130 161 214 275 327 379
#     4  11  22  40  62  96 134 172 213 266 348 406
#
# _framework density 20.631174000000001
#
# number of rings (size 3 to 8) (size 9 to 14) (size 15 to 20)
#    0.000    1.333    2.222    7.000    3.111    0.889 
#    0.000    0.000    0.000    4.000    0.000    0.000 
#    0.000    0.000    0.000    0.000    0.000    0.000 
#
# Total GULP energy -200627.591357 kJ/mol
# GULP energy per Si atom -5572.988649 kJ/mol
# Density = 2.058422 g / cm^3
# Si number density = 20.631174 Si / 1000 Ang^3
#
#
#
# Elastic Constant Matrix: (Units=GPa)
#
#
# Indices 1 2 3 4 5 6 
#
# 1 165.3052 42.3140 30.8972 0.0000 0.0000 0.0000
# 2 42.3140 122.7804 10.5673 0.0000 0.0000 0.0000
# 3 30.8972 10.5673 63.4700 0.0000 0.0000 0.0000
# 4 0.0000 0.0000 0.0000 -9.4394 0.0000 0.0000
# 5 0.0000 0.0000 0.0000 0.0000 37.6299 0.0000
# 6 0.0000 0.0000 0.0000 0.0000 0.0000 29.7543
#
#
#
# Elastic Compliance Matrix: (Units=1/GPa)
#
#
# Indices 1 2 3 4 5 6 
#
# 1 0.007202 -0.002212 -0.003138 0.000000 0.000000 0.000000
# 2 -0.002212 0.008942 -0.000412 0.000000 0.000000 0.000000
# 3 -0.003138 -0.000412 0.017352 0.000000 0.000000 0.000000
# 4 0.000000 0.000000 0.000000 -0.105939 0.000000 0.000000
# 5 0.000000 0.000000 0.000000 0.000000 0.026575 0.000000
# 6 0.000000 0.000000 0.000000 0.000000 0.000000 0.033609
#
#
# Mechanical properties :
#
#
# Convention : Reuss Voigt Hill
#
# Bulk Modulus (GPa) = 45.51140 57.67919 51.59529
# Shear Modulus (GPa) = 758.93711 29.44076 394.18894
#
# Velocity S-wave (km/s) = 19.20047 3.78167 13.83761
# Velocity P-wave (km/s) = 22.66388 6.86192 16.74421
#
# Compressibility (1/GPa) = 0.02197252
#
# Stress axis : x y z
#
# Youngs Moduli (GPa) = 138.84823 111.82663 57.63183
#
# Poissons Ratio (x) = 0.24736 0.18083
# Poissons Ratio (y) = 0.30713 0.02375
# Poissons Ratio (z) = 0.43567 0.04608
#
# Static dielectric constant tensor:
#      x y z
#    x 1.812030 0.000000 0.000000 
#    y 0.000000 1.746600 0.000000 
#    z 0.000000 0.000000 1.810680 
# 
# From -- ./inp_files/15084.got.cif
#   From: 2010.05.17/outbox.cif.g08.bks.cpg/sg50_8_cif.got.tgz:15084.got - 2010.06.03 11:33:33.
