data_PCOD9396135
_publ_section_title
;
Structure prediction by ZEFSAII (Michael W. Deem and Ramdas Pophale) SiO2 
 PCOD9396135
Probable space group: P B A N
;
_chemical_formula_sum "Si O2"
_cell_formula_units_Z 58
_cell_length_a 31.880319
_cell_length_b 7.626419
_cell_length_c 11.078088
_cell_angle_alpha 90.000000
_cell_angle_beta 90.000000
_cell_angle_gamma 90.000000
_cell_volume 2693.445120
_symmetry_space_group_name_H-M "P B A N"
_symmetry_group_IT_number 50
_space_group.IT_coordinate_system_code '2'
_symmetry_cell_setting 'orthorhombic'
loop_
_space_group_symop_operation_xyz
x,y,z
1/2-x,1/2-y,z
x,1/2-y,-z
1/2-x,y,-z
-x,-y,-z
1/2+x,1/2+y,-z
-x,1/2+y,z
1/2+x,-y,z
loop_
_atom_site_type_symbol
_atom_site_label
_atom_site_fract_x
_atom_site_fract_y
_atom_site_fract_z
Si Si1 0.879723 0.049668 0.626621
Si Si2 0.629064 0.050181 0.110511
Si Si3 0.048625 0.042033 0.986753
Si Si4 0.750000 0.250000 0.000000
Si Si5 0.469795 0.380853 0.385032
Si Si6 0.826210 0.428766 0.878632
Si Si7 0.949191 0.556466 0.719265
Si Si8 0.861470 0.467794 0.629362
O O1 0.866225 0.970695 0.755809
O O2 0.873170 0.259851 0.631195
O O3 0.852795 0.988504 0.510615
O O4 0.929363 0.006844 0.608799
O O5 0.648322 0.244329 0.122951
O O6 0.652523 0.970906 0.992506
O O7 0.580046 0.051727 0.078420
O O8 0.058603 0.980395 0.850663
O O9 0.056195 0.250000 0.000000
O O10 0.000000 0.000000 0.000000
O O11 0.779693 0.127840 0.082117
O O12 0.470167 0.250000 0.500000
O O13 0.515045 0.462932 0.359561
O O14 0.464142 0.255859 0.268963
O O15 0.831310 0.502681 0.743458
O O16 0.904824 0.564475 0.655601
#
# Coordination Sequence:
#
# PCOD9396135 Si02
#       8
#     8   8   8   2   8   8   8   8
#     4  10  20  34  52  74 104 147 190 232 280 330
#     4   9  18  34  53  75 108 144 183 227 281 333
#     4  12  25  36  51  73 107 151 199 246 288 330
#     4   8  16  32  64  98 118 144 172 222 290 376
#     4  12  24  37  49  72 106 152 208 251 288 325
#     4   9  18  35  61  88 114 145 176 224 289 355
#     4  12  23  36  50  71 102 146 200 249 288 326
#     4  10  20  34  55  77 107 142 180 231 285 333
#
# _framework density 21.533760999999998
#
# number of rings (size 3 to 8) (size 9 to 14) (size 15 to 20)
#    0.000    1.655    2.759    3.724    3.862    1.103 
#    0.000    0.000    0.000   14.897    0.000    7.724 
#    0.000    0.000    7.448    0.000    0.000    0.000 
#
# Total GULP energy -323476.355603 kJ/mol
# GULP energy per Si atom -5577.178545 kJ/mol
# Density = 2.148475 g / cm^3
# Si number density = 21.533761 Si / 1000 Ang^3
#
#
#
# Elastic Constant Matrix: (Units=GPa)
#
#
# Indices 1 2 3 4 5 6 
#
# 1 97.4145 12.7503 50.3592 0.0000 0.0000 0.0000
# 2 12.7503 37.6815 4.6069 0.0000 0.0000 0.0000
# 3 50.3592 4.6069 204.5861 0.0000 0.0000 0.0000
# 4 0.0000 0.0000 0.0000 17.5063 0.0000 0.0000
# 5 0.0000 0.0000 0.0000 0.0000 21.1606 0.0000
# 6 0.0000 0.0000 0.0000 0.0000 0.0000 15.0769
#
#
#
# Elastic Compliance Matrix: (Units=1/GPa)
#
#
# Indices 1 2 3 4 5 6 
#
# 1 0.012281 -0.003796 -0.002937 0.000000 0.000000 0.000000
# 2 -0.003796 0.027785 0.000309 0.000000 0.000000 0.000000
# 3 -0.002937 0.000309 0.005604 0.000000 0.000000 0.000000
# 4 0.000000 0.000000 0.000000 0.057122 0.000000 0.000000
# 5 0.000000 0.000000 0.000000 0.000000 0.047258 0.000000
# 6 0.000000 0.000000 0.000000 0.000000 0.000000 0.066327
#
#
# Mechanical properties :
#
#
# Convention : Reuss Voigt Hill
#
# Bulk Modulus (GPa) = 30.46928 52.79054 41.62991
# Shear Modulus (GPa) = 20.81888 28.87980 24.84934
#
# Velocity S-wave (km/s) = 3.11272 3.66613 3.40070
# Velocity P-wave (km/s) = 5.20566 6.51837 5.89865
#
# Compressibility (1/GPa) = 0.03281994
#
# Stress axis : x y z
#
# Youngs Moduli (GPa) = 81.42758 35.99055 178.44320
#
# Poissons Ratio (x) = 0.13663 0.52417
# Poissons Ratio (y) = 0.30913 -0.05510
# Poissons Ratio (z) = 0.23919 -0.01111
#
# Static dielectric constant tensor:
#      x y z
#    x 1.733200 0.000000 0.000000 
#    y 0.000000 1.769290 0.000000 
#    z 0.000000 0.000000 1.941090 
# 
# From -- ./inp_files/23374.got.cif
#   From: 2010.05.17/outbox.cif.g08.bks.cpg/sg50_12_cif.got.tgz:23374.got - 2010.06.03 11:33:33.
