data_PCOD9396949
_publ_section_title
;
Structure prediction by ZEFSAII (Michael W. Deem and Ramdas Pophale) SiO2 
 PCOD9396949
Probable space group: P B A N
;
_chemical_formula_sum "Si O2"
_cell_formula_units_Z 52
_cell_length_a 17.482761
_cell_length_b 9.633909
_cell_length_c 14.840679
_cell_angle_alpha 90.000000
_cell_angle_beta 90.000000
_cell_angle_gamma 90.000000
_cell_volume 2499.575918
_symmetry_space_group_name_H-M "P B A N"
_symmetry_group_IT_number 50
_space_group.IT_coordinate_system_code '2'
_symmetry_cell_setting 'orthorhombic'
loop_
_space_group_symop_operation_xyz
x,y,z
1/2-x,1/2-y,z
x,1/2-y,-z
1/2-x,y,-z
-x,-y,-z
1/2+x,1/2+y,-z
-x,1/2+y,z
1/2+x,-y,z
loop_
_atom_site_type_symbol
_atom_site_label
_atom_site_fract_x
_atom_site_fract_y
_atom_site_fract_z
Si Si1 0.431367 0.032037 0.847465
Si Si2 0.165044 0.764847 0.107234
Si Si3 0.106524 0.250000 0.000000
Si Si4 0.172817 0.090705 0.668443
Si Si5 0.843279 0.091209 0.494731
Si Si6 0.146534 0.400388 0.659796
Si Si7 0.896100 0.965778 0.141600
O O1 0.369766 0.913387 0.870377
O O2 0.512464 0.955761 0.858127
O O3 0.407563 0.082765 0.747295
O O4 0.431910 0.157306 0.920514
O O5 0.250000 0.750000 0.145839
O O6 0.119469 0.629783 0.138393
O O7 0.167881 0.750000 0.000000
O O8 0.141496 0.375311 0.060681
O O9 0.153016 0.241239 0.627934
O O10 0.263883 0.068699 0.682105
O O11 0.136577 0.089135 0.765952
O O12 0.139423 0.976401 0.601443
O O13 0.867442 0.250000 0.500000
O O14 0.750000 0.085433 0.500000
O O15 0.874668 0.001916 0.578063
#
# Coordination Sequence:
#
# PCOD9396949 Si02
#       7
#     8   8   4   8   8   8   8
#     4  12  25  42  67  94 130 176 225 272 331 399
#     4  11  25  43  62  92 130 171 218 278 337 384
#     4  12  24  44  63  92 125 174 226 264 320 402
#     4  10  21  40  64  95 128 167 215 269 326 389
#     4   9  19  37  64  95 130 169 210 260 330 403
#     4  10  21  40  64  95 128 167 215 269 326 389
#     4  12  25  42  67  94 130 176 225 272 331 399
#
# _framework density 20.803528
#
# number of rings (size 3 to 8) (size 9 to 14) (size 15 to 20)
#    0.000    1.231    3.077    2.769    4.308    1.846 
#    0.000    3.846    0.000    0.000    0.000    0.000 
#    0.000    0.000    0.000    0.000    0.000    0.000 
#
# Total GULP energy -290092.191286 kJ/mol
# GULP energy per Si atom -5578.695986 kJ/mol
# Density = 2.075618 g / cm^3
# Si number density = 20.803528 Si / 1000 Ang^3
#
#
#
# Elastic Constant Matrix: (Units=GPa)
#
#
# Indices 1 2 3 4 5 6 
#
# 1 42.2664 14.0587 1.3249 0.0000 0.0000 0.0000
# 2 14.0587 99.1108 35.0119 0.0000 0.0000 0.0000
# 3 1.3249 35.0119 114.2579 0.0000 0.0000 0.0000
# 4 0.0000 0.0000 0.0000 70.9966 0.0000 0.0000
# 5 0.0000 0.0000 0.0000 0.0000 16.8567 0.0000
# 6 0.0000 0.0000 0.0000 0.0000 0.0000 16.2333
#
#
#
# Elastic Compliance Matrix: (Units=1/GPa)
#
#
# Indices 1 2 3 4 5 6 
#
# 1 0.024912 -0.003848 0.000890 0.000000 0.000000 0.000000
# 2 -0.003848 0.011909 -0.003605 0.000000 0.000000 0.000000
# 3 0.000890 -0.003605 0.009846 0.000000 0.000000 0.000000
# 4 0.000000 0.000000 0.000000 0.014085 0.000000 0.000000
# 5 0.000000 0.000000 0.000000 0.000000 0.059324 0.000000
# 6 0.000000 0.000000 0.000000 0.000000 0.000000 0.061602
#
#
# Mechanical properties :
#
#
# Convention : Reuss Voigt Hill
#
# Bulk Modulus (GPa) = 29.81346 39.60288 34.70817
# Shear Modulus (GPa) = 24.27382 34.49995 29.38689
#
# Velocity S-wave (km/s) = 3.41957 4.07673 3.76252
# Velocity P-wave (km/s) = 5.47297 6.42165 5.96619
#
# Compressibility (1/GPa) = 0.03354190
#
# Stress axis : x y z
#
# Youngs Moduli (GPa) = 40.14209 83.97054 101.56031
#
# Poissons Ratio (x) = 0.32313 -0.09042
# Poissons Ratio (y) = 0.15447 0.36609
# Poissons Ratio (z) = -0.03574 0.30268
#
# Static dielectric constant tensor:
#      x y z
#    x 1.760630 0.000000 0.000000 
#    y 0.000000 1.802470 0.000000 
#    z 0.000000 0.000000 1.720270 
# 
# From -- ./inp_files/27187.got.cif
#   From: 2010.05.17/outbox.cif.g08.bks.cpg/sg50_14_cif.got.tgz:27187.got - 2010.06.03 11:33:33.
