data_PCOD9396607
_publ_section_title
;
Structure prediction by ZEFSAII (Michael W. Deem and Ramdas Pophale) SiO2 
 PCOD9396607
Probable space group: P B A N
;
_chemical_formula_sum "Si O2"
_cell_formula_units_Z 48
_cell_length_a 9.686346
_cell_length_b 14.682244
_cell_length_c 15.179346
_cell_angle_alpha 90.000000
_cell_angle_beta 90.000000
_cell_angle_gamma 90.000000
_cell_volume 2158.765535
_symmetry_space_group_name_H-M "P B A N"
_symmetry_group_IT_number 50
_space_group.IT_coordinate_system_code '2'
_symmetry_cell_setting 'orthorhombic'
loop_
_space_group_symop_operation_xyz
x,y,z
1/2-x,1/2-y,z
x,1/2-y,-z
1/2-x,y,-z
-x,-y,-z
1/2+x,1/2+y,-z
-x,1/2+y,z
1/2+x,-y,z
loop_
_atom_site_type_symbol
_atom_site_label
_atom_site_fract_x
_atom_site_fract_y
_atom_site_fract_z
Si Si1 0.921858 0.430422 0.166653
Si Si2 0.847828 0.451449 0.914563
Si Si3 0.250000 0.250000 0.262348
Si Si4 0.898516 0.430764 0.370752
Si Si5 0.801762 0.900805 0.409524
Si Si6 0.959009 0.222281 0.174704
Si Si7 0.750000 0.250000 0.672207
O O1 0.768559 0.469909 0.158720
O O2 0.952860 0.440142 0.269574
O O3 0.919080 0.323546 0.144093
O O4 0.030505 0.477186 0.101696
O O5 0.916923 0.353972 0.895040
O O6 0.750000 0.453821 0.000000
O O7 0.210738 0.332729 0.327133
O O8 0.381383 0.276823 0.202788
O O9 0.794222 0.511439 0.392521
O O10 0.820217 0.333668 0.377835
O O11 0.039806 0.428464 0.423808
O O12 0.750000 0.856812 0.500000
O O13 0.867247 0.208195 0.262934
#
# Coordination Sequence:
#
# PCOD9396607 Si02
#       7
#     8   8   4   8   8   8   4
#     4  11  23  43  68 100 132 183 238 275 346 424
#     4  12  25  43  69 104 145 179 226 296 355 412
#     4  12  25  44  70 101 136 184 242 288 337 428
#     4  11  23  43  70 100 135 188 239 286 346 435
#     4  12  26  43  66 101 141 179 227 295 362 409
#     4  11  23  43  71  99 132 188 238 278 348 419
#     4  10  20  44  68 100 128 178 244 280 328 420
#
# _framework density 22.234928
#
# number of rings (size 3 to 8) (size 9 to 14) (size 15 to 20)
#    0.000    0.667    6.667    3.250    4.667    1.333 
#    0.000    0.417    0.000    0.000    0.000    0.000 
#    0.000    0.000    0.000    0.000    0.000    0.000 
#
# Total GULP energy -268435.744488 kJ/mol
# GULP energy per Si atom -5592.411344 kJ/mol
# Density = 2.218432 g / cm^3
# Si number density = 22.234928 Si / 1000 Ang^3
#
#
#
# Elastic Constant Matrix: (Units=GPa)
#
#
# Indices 1 2 3 4 5 6 
#
# 1 185.1404 57.5695 27.5224 0.0000 0.0000 0.0000
# 2 57.5695 121.4347 24.7833 0.0000 0.0000 0.0000
# 3 27.5224 24.7833 58.5217 0.0000 0.0000 0.0000
# 4 0.0000 0.0000 0.0000 12.5855 0.0000 0.0000
# 5 0.0000 0.0000 0.0000 0.0000 27.5562 0.0000
# 6 0.0000 0.0000 0.0000 0.0000 0.0000 35.5671
#
#
#
# Elastic Compliance Matrix: (Units=1/GPa)
#
#
# Indices 1 2 3 4 5 6 
#
# 1 0.006528 -0.002702 -0.001926 0.000000 0.000000 0.000000
# 2 -0.002702 0.010132 -0.003020 0.000000 0.000000 0.000000
# 3 -0.001926 -0.003020 0.019272 0.000000 0.000000 0.000000
# 4 0.000000 0.000000 0.000000 0.079457 0.000000 0.000000
# 5 0.000000 0.000000 0.000000 0.000000 0.036289 0.000000
# 6 0.000000 0.000000 0.000000 0.000000 0.000000 0.028116
#
#
# Mechanical properties :
#
#
# Convention : Reuss Voigt Hill
#
# Bulk Modulus (GPa) = 48.45719 64.98302 56.72011
# Shear Modulus (GPa) = 24.75635 32.15653 28.45644
#
# Velocity S-wave (km/s) = 3.34038 3.80704 3.58132
# Velocity P-wave (km/s) = 6.05955 6.97236 6.53192
#
# Compressibility (1/GPa) = 0.02063677
#
# Stress axis : x y z
#
# Youngs Moduli (GPa) = 153.19451 98.69682 51.88758
#
# Poissons Ratio (x) = 0.26664 0.09993
# Poissons Ratio (y) = 0.41387 0.15672
# Poissons Ratio (z) = 0.29502 0.29809
#
# Static dielectric constant tensor:
#      x y z
#    x 1.822980 0.000000 0.000000 
#    y 0.000000 1.815800 0.000000 
#    z 0.000000 0.000000 1.878930 
# 
# From -- ./inp_files/28760.got.cif
#   From: 2010.05.17/outbox.cif.g08.bks.cpg/sg50_15_cif.got.tgz:28760.got - 2010.06.03 11:33:33.
