data_PCOD9396199
_publ_section_title
;
Structure prediction by ZEFSAII (Michael W. Deem and Ramdas Pophale) SiO2 
 PCOD9396199
Probable space group: P B A N
;
_chemical_formula_sum "Si O2"
_cell_formula_units_Z 64
_cell_length_a 25.786006
_cell_length_b 21.819479
_cell_length_c 6.074293
_cell_angle_alpha 90.000000
_cell_angle_beta 90.000000
_cell_angle_gamma 90.000000
_cell_volume 3417.623305
_symmetry_space_group_name_H-M "P B A N"
_symmetry_group_IT_number 50
_space_group.IT_coordinate_system_code '2'
_symmetry_cell_setting 'orthorhombic'
loop_
_space_group_symop_operation_xyz
x,y,z
1/2-x,1/2-y,z
x,1/2-y,-z
1/2-x,y,-z
-x,-y,-z
1/2+x,1/2+y,-z
-x,1/2+y,z
1/2+x,-y,z
loop_
_atom_site_type_symbol
_atom_site_label
_atom_site_fract_x
_atom_site_fract_y
_atom_site_fract_z
Si Si1 0.019917 0.806409 0.646160
Si Si2 0.432668 0.611567 0.280209
Si Si3 0.304257 0.181361 0.592808
Si Si4 0.125288 0.737644 0.756404
Si Si5 0.192174 0.410832 0.950909
Si Si6 0.531708 0.882224 0.011162
Si Si7 0.113341 0.111644 0.666993
Si Si8 0.100482 0.473816 0.709796
O O1 0.000812 0.750000 0.500000
O O2 0.036994 0.864017 0.496373
O O3 0.072548 0.779036 0.755102
O O4 0.977287 0.829251 0.813297
O O5 0.392534 0.666817 0.238573
O O6 0.406277 0.546014 0.301383
O O7 0.475317 0.605018 0.088520
O O8 0.302651 0.250000 0.500000
O O9 0.250000 0.152958 0.500000
O O10 0.304568 0.157807 0.844594
O O11 0.358067 0.156075 0.499668
O O12 0.146503 0.750000 0.500000
O O13 0.150953 0.750000 0.000000
O O14 0.158072 0.452650 0.786236
O O15 0.250000 0.432378 0.000000
O O16 0.158973 0.409283 0.171253
O O17 0.560247 0.940073 0.124260
O O18 0.568749 0.860414 0.815672
O O19 0.090765 0.055469 0.528785
#
# Coordination Sequence:
#
# PCOD9396199 Si02
#       8
#     8   8   8   8   8   8   8   8
#     4   9  20  33  52  74 102 152 190 232 282 329
#     4  10  20  35  54  75 111 150 187 233 270 336
#     4  10  20  37  59  80 100 131 182 238 293 346
#     4   9  17  34  54  80 104 148 197 232 280 327
#     4  10  20  39  60  77 103 140 171 232 295 341
#     4  11  20  35  53  73 112 148 191 229 277 338
#     4  10  22  38  51  77 107 137 184 231 286 345
#     4  10  23  36  52  81 107 145 189 227 284 338
#
# _framework density 18.726462000000001
#
# number of rings (size 3 to 8) (size 9 to 14) (size 15 to 20)
#    0.000    2.375    2.500    1.125    0.000    4.500 
#    0.000   24.375    0.000    0.000    0.000    0.000 
#    0.000    0.500    2.000    0.000    0.000    0.000 
#
# Total GULP energy -356342.534169 kJ/mol
# GULP energy per Si atom -5567.852096 kJ/mol
# Density = 1.868384 g / cm^3
# Si number density = 18.726462 Si / 1000 Ang^3
#
#
#
# Elastic Constant Matrix: (Units=GPa)
#
#
# Indices 1 2 3 4 5 6 
#
# 1 33.7985 31.4728 16.8432 0.0000 0.0000 0.0000
# 2 31.4728 98.9284 27.5220 0.0000 0.0000 0.0000
# 3 16.8432 27.5220 92.7823 0.0000 0.0000 0.0000
# 4 0.0000 0.0000 0.0000 11.8324 0.0000 0.0000
# 5 0.0000 0.0000 0.0000 0.0000 5.9945 0.0000
# 6 0.0000 0.0000 0.0000 0.0000 0.0000 3.9597
#
#
#
# Elastic Compliance Matrix: (Units=1/GPa)
#
#
# Indices 1 2 3 4 5 6 
#
# 1 0.043445 -0.012673 -0.004128 0.000000 0.000000 0.000000
# 2 -0.012673 0.014714 -0.002064 0.000000 0.000000 0.000000
# 3 -0.004128 -0.002064 0.012139 0.000000 0.000000 0.000000
# 4 0.000000 0.000000 0.000000 0.084514 0.000000 0.000000
# 5 0.000000 0.000000 0.000000 0.000000 0.166820 0.000000
# 6 0.000000 0.000000 0.000000 0.000000 0.000000 0.252547
#
#
# Mechanical properties :
#
#
# Convention : Reuss Voigt Hill
#
# Bulk Modulus (GPa) = 30.70373 41.90947 36.30660
# Shear Modulus (GPa) = 8.02869 14.33539 11.18204
#
# Velocity S-wave (km/s) = 2.07284 2.76980 2.44627
# Velocity P-wave (km/s) = 4.70748 5.71467 5.23535
#
# Compressibility (1/GPa) = 0.03256934
#
# Stress axis : x y z
#
# Youngs Moduli (GPa) = 23.01745 67.96072 82.37583
#
# Poissons Ratio (x) = 0.86128 0.34001
# Poissons Ratio (y) = 0.29171 0.17003
# Poissons Ratio (z) = 0.09501 0.14028
#
# Static dielectric constant tensor:
#      x y z
#    x 1.646550 0.000000 0.000000 
#    y 0.000000 1.773270 0.000000 
#    z 0.000000 0.000000 1.764980 
# 
# From -- ./inp_files/6806.got.cif
#   From: 2010.05.17/outbox.cif.g08.bks.cpg/sg50_4_cif.got.tgz:6806.got - 2010.06.03 11:33:33.
