data_PCOD9396395
_publ_section_title
;
Structure prediction by ZEFSAII (Michael W. Deem and Ramdas Pophale) SiO2 
 PCOD9396395
Probable space group: P B A N
;
_chemical_formula_sum "Si O2"
_cell_formula_units_Z 52
_cell_length_a 8.992715
_cell_length_b 15.193417
_cell_length_c 20.340649
_cell_angle_alpha 90.000000
_cell_angle_beta 90.000000
_cell_angle_gamma 90.000000
_cell_volume 2779.144276
_symmetry_space_group_name_H-M "P B A N"
_symmetry_group_IT_number 50
_space_group.IT_coordinate_system_code '2'
_symmetry_cell_setting 'orthorhombic'
loop_
_space_group_symop_operation_xyz
x,y,z
1/2-x,1/2-y,z
x,1/2-y,-z
1/2-x,y,-z
-x,-y,-z
1/2+x,1/2+y,-z
-x,1/2+y,z
1/2+x,-y,z
loop_
_atom_site_type_symbol
_atom_site_label
_atom_site_fract_x
_atom_site_fract_y
_atom_site_fract_z
Si Si1 0.421855 0.633753 0.815691
Si Si2 0.937032 0.087399 0.336598
Si Si3 0.924735 0.745865 0.421283
Si Si4 0.750000 0.003381 0.000000
Si Si5 0.503906 0.531868 0.096207
Si Si6 0.568522 0.334612 0.802272
Si Si7 0.418288 0.602710 0.344484
O O1 0.465452 0.605826 0.741269
O O2 0.482254 0.565604 0.870638
O O3 0.467391 0.735453 0.823197
O O4 0.241581 0.640189 0.815824
O O5 0.008930 0.160563 0.384136
O O6 0.759377 0.091003 0.347259
O O7 0.003458 0.991473 0.350306
O O8 0.750000 0.750000 0.403697
O O9 0.935420 0.750000 0.500000
O O10 0.016581 0.829858 0.396635
O O11 0.631137 0.952454 0.956952
O O12 0.852301 0.049480 0.944556
O O13 0.524945 0.597267 0.155988
O O14 0.546178 0.351699 0.725569
#
# Coordination Sequence:
#
# PCOD9396395 Si02
#       7
#     8   8   8   4   8   8   8
#     4  10  20  37  63  93 121 160 209 258 313 369
#     4  11  22  39  65  98 130 165 215 267 316 378
#     4  11  25  45  65  93 135 174 209 258 321 380
#     4  10  24  38  62  84 130 164 206 240 324 374
#     4  11  20  42  60  90 121 170 198 262 303 380
#     4  10  20  37  63  93 121 160 209 258 313 369
#     4  11  22  39  65  98 130 165 215 267 316 378
#
# _framework density 18.710795999999998
#
# number of rings (size 3 to 8) (size 9 to 14) (size 15 to 20)
#    0.000    1.385    4.615    1.385    0.000    1.846 
#    2.769    5.385    0.000    0.000    0.000    0.000 
#    0.000    0.000    0.000    0.000    0.000    0.000 
#
# Total GULP energy -289984.067379 kJ/mol
# GULP energy per Si atom -5576.616680 kJ/mol
# Density = 1.866821 g / cm^3
# Si number density = 18.710796 Si / 1000 Ang^3
#
#
#
# Elastic Constant Matrix: (Units=GPa)
#
#
# Indices 1 2 3 4 5 6 
#
# 1 68.9241 28.2169 43.3249 0.0000 0.0000 0.0000
# 2 28.2169 134.4730 43.9684 0.0000 0.0000 0.0000
# 3 43.3249 43.9684 92.2857 0.0000 0.0000 0.0000
# 4 0.0000 0.0000 0.0000 9345.4097 0.0000 0.0000
# 5 0.0000 0.0000 0.0000 0.0000 30.4502 0.0000
# 6 0.0000 0.0000 0.0000 0.0000 0.0000 24.0415
#
#
#
# Elastic Compliance Matrix: (Units=1/GPa)
#
#
# Indices 1 2 3 4 5 6 
#
# 1 0.020799 -0.001388 -0.009103 0.000000 0.000000 0.000000
# 2 -0.001388 0.008901 -0.003589 0.000000 0.000000 0.000000
# 3 -0.009103 -0.003589 0.016820 0.000000 0.000000 0.000000
# 4 0.000000 0.000000 0.000000 0.000107 0.000000 0.000000
# 5 0.000000 0.000000 0.000000 0.000000 0.032840 0.000000
# 6 0.000000 0.000000 0.000000 0.000000 0.000000 0.041595
#
#
# Mechanical properties :
#
#
# Convention : Reuss Voigt Hill
#
# Bulk Modulus (GPa) = 54.46878 58.52259 56.49569
# Shear Modulus (GPa) = 32.18692 1891.99181 962.08937
#
# Velocity S-wave (km/s) = 4.15207 31.83350 22.70035
# Velocity P-wave (km/s) = 7.22221 37.18209 26.78309
#
# Compressibility (1/GPa) = 0.01835914
#
# Stress axis : x y z
#
# Youngs Moduli (GPa) = 48.07910 112.34369 59.45432
#
# Poissons Ratio (x) = 0.15592 0.54122
# Poissons Ratio (y) = 0.06673 0.21340
# Poissons Ratio (z) = 0.43767 0.40324
#
# Static dielectric constant tensor:
#      x y z
#    x 1.681040 0.000000 0.000000 
#    y 0.000000 1.626830 0.000000 
#    z 0.000000 0.000000 1.645570 
# 
# From -- ./inp_files/30605.got.cif
#   From: 2010.05.17/outbox.cif.g08.bks.cpg/sg50_16_cif.got.tgz:30605.got - 2010.06.03 11:33:33.
