data_PCOD9396153
_publ_section_title
;
Structure prediction by ZEFSAII (Michael W. Deem and Ramdas Pophale) SiO2 
 PCOD9396153
Probable space group: P B A N
;
_chemical_formula_sum "Si O2"
_cell_formula_units_Z 52
_cell_length_a 14.246214
_cell_length_b 19.877690
_cell_length_c 9.713927
_cell_angle_alpha 90.000000
_cell_angle_beta 90.000000
_cell_angle_gamma 90.000000
_cell_volume 2750.807581
_symmetry_space_group_name_H-M "P B A N"
_symmetry_group_IT_number 50
_space_group.IT_coordinate_system_code '2'
_symmetry_cell_setting 'orthorhombic'
loop_
_space_group_symop_operation_xyz
x,y,z
1/2-x,1/2-y,z
x,1/2-y,-z
1/2-x,y,-z
-x,-y,-z
1/2+x,1/2+y,-z
-x,1/2+y,z
1/2+x,-y,z
loop_
_atom_site_type_symbol
_atom_site_label
_atom_site_fract_x
_atom_site_fract_y
_atom_site_fract_z
Si Si1 0.047846 0.899755 0.567324
Si Si2 0.134926 0.892738 0.112550
Si Si3 0.991264 0.230701 0.850530
Si Si4 0.660827 0.149386 0.814591
Si Si5 0.750000 0.913502 0.500000
Si Si6 0.098267 0.190642 0.587591
Si Si7 0.607788 0.996777 0.330414
O O1 0.132026 0.878286 0.666312
O O2 0.992704 0.838350 0.495018
O O3 0.975337 0.941728 0.663418
O O4 0.080599 0.947568 0.444396
O O5 0.049081 0.844421 0.146588
O O6 0.226724 0.850944 0.166313
O O7 0.126094 0.963182 0.190280
O O8 0.136131 0.896904 0.947094
O O9 0.903712 0.283297 0.830344
O O10 0.065687 0.225599 0.728541
O O11 0.031181 0.250000 0.000000
O O12 0.827537 0.869742 0.418417
O O13 0.698131 0.958880 0.387892
O O14 0.141682 0.250000 0.500000
#
# Coordination Sequence:
#
# PCOD9396153 Si02
#       7
#     8   8   8   8   4   8   8
#     4  10  20  34  57  84 112 147 194 241 283 346
#     4  10  20  35  55  81 117 153 181 226 293 350
#     4  10  20  36  59  86 116 148 185 236 295 356
#     4  10  20  34  55  83 115 149 185 233 286 347
#     4  10  23  36  60  84 113 158 202 248 294 344
#     4  11  20  38  61  87 112 151 201 249 302 351
#     4  10  20  36  55  81 113 151 191 235 289 345
#
# _framework density 18.90354
#
# number of rings (size 3 to 8) (size 9 to 14) (size 15 to 20)
#    0.000    1.846    3.077    1.615    0.000    2.462 
#    0.000    0.000    3.385    1.846    0.000    0.000 
#    0.000    0.000    0.000    0.000    0.000    0.000 
#
# Total GULP energy -289718.840643 kJ/mol
# GULP energy per Si atom -5571.516166 kJ/mol
# Density = 1.886051 g / cm^3
# Si number density = 18.903540 Si / 1000 Ang^3
#
#
#
# Elastic Constant Matrix: (Units=GPa)
#
#
# Indices 1 2 3 4 5 6 
#
# 1 45.4342 5.0228 27.6970 0.0000 0.0000 0.0000
# 2 5.0228 67.2617 27.4545 0.0000 0.0000 0.0000
# 3 27.6970 27.4545 88.3163 0.0000 0.0000 0.0000
# 4 0.0000 0.0000 0.0000 24.2348 0.0000 0.0000
# 5 0.0000 0.0000 0.0000 0.0000 -2.5587 0.0000
# 6 0.0000 0.0000 0.0000 0.0000 0.0000 49.1358
#
#
#
# Elastic Compliance Matrix: (Units=1/GPa)
#
#
# Indices 1 2 3 4 5 6 
#
# 1 0.027376 0.001672 -0.009105 0.000000 0.000000 0.000000
# 2 0.001672 0.017130 -0.005850 0.000000 0.000000 0.000000
# 3 -0.009105 -0.005850 0.015997 0.000000 0.000000 0.000000
# 4 0.000000 0.000000 0.000000 0.041263 0.000000 0.000000
# 5 0.000000 0.000000 0.000000 0.000000 -0.390816 0.000000
# 6 0.000000 0.000000 0.000000 0.000000 0.000000 0.020352
#
#
# Mechanical properties :
#
#
# Convention : Reuss Voigt Hill
#
# Bulk Modulus (GPa) = 29.46597 35.70678 32.58637
# Shear Modulus (GPa) = -21.66175 23.55156 0.94490
#
# Velocity S-wave (km/s) = -3.38880 3.53353 0.70777
# Velocity P-wave (km/s) = 0.55625 5.96471 4.23599
#
# Compressibility (1/GPa) = 0.03393746
#
# Stress axis : x y z
#
# Youngs Moduli (GPa) = 36.52894 58.37684 62.51234
#
# Poissons Ratio (x) = -0.09762 0.56918
# Poissons Ratio (y) = -0.06108 0.36567
# Poissons Ratio (z) = 0.33260 0.34148
#
# Static dielectric constant tensor:
#      x y z
#    x 1.657240 0.000000 0.000000 
#    y 0.000000 1.659150 0.000000 
#    z 0.000000 0.000000 1.671300 
# 
# From -- ./inp_files/13207.got.cif
#   From: 2010.05.17/outbox.cif.g08.bks.cpg/sg50_7_cif.got.tgz:13207.got - 2010.06.03 11:33:33.
