data_PCOD9396401
_publ_section_title
;
Structure prediction by ZEFSAII (Michael W. Deem and Ramdas Pophale) SiO2 
 PCOD9396401
Probable space group: P B A N
;
_chemical_formula_sum "Si O2"
_cell_formula_units_Z 40
_cell_length_a 8.368347
_cell_length_b 13.113070
_cell_length_c 17.705426
_cell_angle_alpha 90.000000
_cell_angle_beta 90.000000
_cell_angle_gamma 90.000000
_cell_volume 1942.899965
_symmetry_space_group_name_H-M "P B A N"
_symmetry_group_IT_number 50
_space_group.IT_coordinate_system_code '2'
_symmetry_cell_setting 'orthorhombic'
loop_
_space_group_symop_operation_xyz
x,y,z
1/2-x,1/2-y,z
x,1/2-y,-z
1/2-x,y,-z
-x,-y,-z
1/2+x,1/2+y,-z
-x,1/2+y,z
1/2+x,-y,z
loop_
_atom_site_type_symbol
_atom_site_label
_atom_site_fract_x
_atom_site_fract_y
_atom_site_fract_z
Si Si1 0.513602 0.005722 0.820092
Si Si2 0.760520 0.135403 0.736617
Si Si3 0.674459 0.075712 0.584346
Si Si4 0.734145 0.630239 0.910159
Si Si5 0.199224 0.359046 0.587035
O O1 0.599311 0.076294 0.758563
O O2 0.427923 0.081641 0.878484
O O3 0.394987 0.930333 0.777012
O O4 0.633137 0.934854 0.866671
O O5 0.750000 0.250000 0.765560
O O6 0.776068 0.136547 0.646289
O O7 0.750000 0.084944 0.500000
O O8 0.490035 0.112978 0.587538
O O9 0.699770 0.958282 0.611729
O O10 0.750000 0.750000 0.892712
O O11 0.750000 0.617707 0.000000
O O12 0.250000 0.250000 0.623175
O O13 0.250000 0.350975 0.500000
#
# Coordination Sequence:
#
# PCOD9396401 Si02
#       5
#     8   8   8   8   8
#     4  10  22  40  59  88 125 156 195 241 287 357
#     4  11  24  40  60  85 118 162 200 243 305 354
#     4  11  23  41  62  87 118 154 208 265 307 362
#     4  10  20  37  64  93 121 156 194 236 287 344
#     4  10  22  39  59  84 113 146 189 251 318 369
#
# _framework density 20.587779999999999
#
# number of rings (size 3 to 8) (size 9 to 14) (size 15 to 20)
#    0.000    1.600    0.000    5.400    0.000    6.800 
#    0.000    6.000    0.000   10.800    0.000    0.000 
#    0.000    0.000    0.000    0.000    0.000    0.000 
#
# Total GULP energy -223334.424169 kJ/mol
# GULP energy per Si atom -5583.360604 kJ/mol
# Density = 2.054092 g / cm^3
# Si number density = 20.587780 Si / 1000 Ang^3
#
#
#
# Elastic Constant Matrix: (Units=GPa)
#
#
# Indices 1 2 3 4 5 6 
#
# 1 80.4410 42.9680 14.5024 0.0000 0.0000 0.0000
# 2 42.9680 166.2163 33.8684 0.0000 0.0000 0.0000
# 3 14.5024 33.8684 86.5250 0.0000 0.0000 0.0000
# 4 0.0000 0.0000 0.0000 31.1743 0.0000 0.0000
# 5 0.0000 0.0000 0.0000 0.0000 17.5455 0.0000
# 6 0.0000 0.0000 0.0000 0.0000 0.0000 68.8464
#
#
#
# Elastic Compliance Matrix: (Units=1/GPa)
#
#
# Indices 1 2 3 4 5 6 
#
# 1 0.014510 -0.003537 -0.001047 0.000000 0.000000 0.000000
# 2 -0.003537 0.007400 -0.002304 0.000000 0.000000 0.000000
# 3 -0.001047 -0.002304 0.012635 0.000000 0.000000 0.000000
# 4 0.000000 0.000000 0.000000 0.032078 0.000000 0.000000
# 5 0.000000 0.000000 0.000000 0.000000 0.056995 0.000000
# 6 0.000000 0.000000 0.000000 0.000000 0.000000 0.014525
#
#
# Mechanical properties :
#
#
# Convention : Reuss Voigt Hill
#
# Bulk Modulus (GPa) = 48.15196 57.31777 52.73486
# Shear Modulus (GPa) = 31.47790 39.63614 35.55702
#
# Velocity S-wave (km/s) = 3.91443 4.39250 4.16034
# Velocity P-wave (km/s) = 6.62343 7.32301 6.98199
#
# Compressibility (1/GPa) = 0.02076759
#
# Stress axis : x y z
#
# Youngs Moduli (GPa) = 68.91868 135.13277 79.14751
#
# Poissons Ratio (x) = 0.47803 0.08289
# Poissons Ratio (y) = 0.24380 0.18233
# Poissons Ratio (z) = 0.07218 0.31131
#
# Static dielectric constant tensor:
#      x y z
#    x 1.754610 0.000000 0.000000 
#    y 0.000000 1.802440 0.000000 
#    z 0.000000 0.000000 1.602510 
# 
# From -- ./inp_files/28494.got.cif
#   From: 2010.05.17/outbox.cif.g08.bks.cpg/sg50_15_cif.got.tgz:28494.got - 2010.06.03 11:33:33.
