data_PCOD9396781
_publ_section_title
;
Structure prediction by ZEFSAII (Michael W. Deem and Ramdas Pophale) SiO2 
 PCOD9396781
Probable space group: P B A N
;
_chemical_formula_sum "Si O2"
_cell_formula_units_Z 56
_cell_length_a 22.367586
_cell_length_b 13.125288
_cell_length_c 8.781309
_cell_angle_alpha 90.000000
_cell_angle_beta 90.000000
_cell_angle_gamma 90.000000
_cell_volume 2578.025549
_symmetry_space_group_name_H-M "P B A N"
_symmetry_group_IT_number 50
_space_group.IT_coordinate_system_code '2'
_symmetry_cell_setting 'orthorhombic'
loop_
_space_group_symop_operation_xyz
x,y,z
1/2-x,1/2-y,z
x,1/2-y,-z
1/2-x,y,-z
-x,-y,-z
1/2+x,1/2+y,-z
-x,1/2+y,z
1/2+x,-y,z
loop_
_atom_site_type_symbol
_atom_site_label
_atom_site_fract_x
_atom_site_fract_y
_atom_site_fract_z
Si Si1 0.529758 0.416976 0.389664
Si Si2 0.850665 0.183596 0.366287
Si Si3 0.812567 0.436664 0.922345
Si Si4 0.085444 0.220246 0.338425
Si Si5 0.913659 0.174071 0.881211
Si Si6 0.368301 0.134828 0.947681
Si Si7 0.035963 0.415260 0.163670
O O1 0.500000 0.500000 0.500000
O O2 0.592748 0.372857 0.444873
O O3 0.478913 0.333175 0.364142
O O4 0.547665 0.474909 0.234172
O O5 0.819916 0.250000 0.500000
O O6 0.816214 0.104681 0.252445
O O7 0.881309 0.262649 0.249241
O O8 0.750000 0.409156 0.000000
O O9 0.863678 0.381060 0.020017
O O10 0.826125 0.555397 0.963122
O O11 0.112675 0.250000 0.500000
O O12 0.126418 0.146939 0.234511
O O13 0.070016 0.326969 0.256971
O O14 0.965931 0.103160 0.822511
O O15 0.945772 0.250000 0.000000
O O16 0.355445 0.250000 0.000000
O O17 0.435073 0.100269 0.999228
#
# Coordination Sequence:
#
# PCOD9396781 Si02
#       7
#     8   8   8   8   8   8   8
#     4  12  21  32  58  92 138 175 204 258 332 408
#     4  11  23  41  65  97 132 171 216 275 345 410
#     4  11  25  46  68  93 126 178 238 287 337 401
#     4  11  21  35  55  92 138 171 208 257 325 415
#     4  10  21  37  60  91 134 173 214 271 335 400
#     4  10  23  39  64  95 130 173 219 277 336 402
#     4  11  20  35  58  93 132 171 213 257 333 420
#
# _framework density 21.722049999999999
#
# number of rings (size 3 to 8) (size 9 to 14) (size 15 to 20)
#    0.000    1.143    4.286    3.429    2.000    4.000 
#    0.000    1.429    0.000    0.000    0.000    8.000 
#    0.000    0.000    0.000    0.000    0.000    0.000 
#
# Total GULP energy -312678.008946 kJ/mol
# GULP energy per Si atom -5583.535874 kJ/mol
# Density = 2.167261 g / cm^3
# Si number density = 21.722050 Si / 1000 Ang^3
#
#
#
# Elastic Constant Matrix: (Units=GPa)
#
#
# Indices 1 2 3 4 5 6 
#
# 1 58.9737 15.9464 19.5113 0.0000 0.0000 0.0000
# 2 15.9464 93.8612 45.4306 0.0000 0.0000 0.0000
# 3 19.5113 45.4306 137.0950 0.0000 0.0000 0.0000
# 4 0.0000 0.0000 0.0000 47.6695 0.0000 0.0000
# 5 0.0000 0.0000 0.0000 0.0000 16.8492 0.0000
# 6 0.0000 0.0000 0.0000 0.0000 0.0000 8.5765
#
#
#
# Elastic Compliance Matrix: (Units=1/GPa)
#
#
# Indices 1 2 3 4 5 6 
#
# 1 0.018163 -0.002185 -0.001861 0.000000 0.000000 0.000000
# 2 -0.002185 0.012952 -0.003981 0.000000 0.000000 0.000000
# 3 -0.001861 -0.003981 0.008878 0.000000 0.000000 0.000000
# 4 0.000000 0.000000 0.000000 0.020978 0.000000 0.000000
# 5 0.000000 0.000000 0.000000 0.000000 0.059350 0.000000
# 6 0.000000 0.000000 0.000000 0.000000 0.000000 0.116597
#
#
# Mechanical properties :
#
#
# Convention : Reuss Voigt Hill
#
# Bulk Modulus (GPa) = 41.77191 50.18961 45.98076
# Shear Modulus (GPa) = 19.16055 28.55514 23.85785
#
# Velocity S-wave (km/s) = 2.97320 3.62963 3.31769
# Velocity P-wave (km/s) = 5.57302 6.38131 5.99081
#
# Compressibility (1/GPa) = 0.02393953
#
# Stress axis : x y z
#
# Youngs Moduli (GPa) = 55.05623 77.20692 112.63395
#
# Poissons Ratio (x) = 0.16871 0.20960
# Poissons Ratio (y) = 0.12030 0.44841
# Poissons Ratio (z) = 0.10245 0.30737
#
# Static dielectric constant tensor:
#      x y z
#    x 1.754950 0.000000 0.000000 
#    y 0.000000 1.875210 0.000000 
#    z 0.000000 0.000000 1.954630 
# 
# From -- ./inp_files/15368.got.cif
#   From: 2010.05.17/outbox.cif.g08.bks.cpg/sg50_8_cif.got.tgz:15368.got - 2010.06.03 11:33:33.
