data_PCOD9396548
_publ_section_title
;
Structure prediction by ZEFSAII (Michael W. Deem and Ramdas Pophale) SiO2 
 PCOD9396548
Probable space group: P B A N
;
_chemical_formula_sum "Si O2"
_cell_formula_units_Z 32
_cell_length_a 11.256587
_cell_length_b 4.630945
_cell_length_c 25.519993
_cell_angle_alpha 90.000000
_cell_angle_beta 90.000000
_cell_angle_gamma 90.000000
_cell_volume 1330.322408
_symmetry_space_group_name_H-M "P B A N"
_symmetry_group_IT_number 50
_space_group.IT_coordinate_system_code '2'
_symmetry_cell_setting 'orthorhombic'
loop_
_space_group_symop_operation_xyz
x,y,z
1/2-x,1/2-y,z
x,1/2-y,-z
1/2-x,y,-z
-x,-y,-z
1/2+x,1/2+y,-z
-x,1/2+y,z
1/2+x,-y,z
loop_
_atom_site_type_symbol
_atom_site_label
_atom_site_fract_x
_atom_site_fract_y
_atom_site_fract_z
Si Si1 0.250000 0.250000 0.500000
Si Si2 0.250000 0.750000 0.000000
Si Si3 0.750000 0.750000 0.828006
Si Si4 0.750000 0.250000 0.573728
Si Si5 0.578709 0.329225 0.335386
Si Si6 0.584168 0.442016 0.088362
Si Si7 0.750000 0.250000 0.755372
O O1 0.306638 0.490050 0.460890
O O2 0.333685 0.554641 0.962950
O O3 0.840068 0.568791 0.864050
O O4 0.694899 0.502584 0.790983
O O5 0.653078 0.112525 0.612411
O O6 0.454667 0.493332 0.335199
O O7 0.653801 0.389475 0.283518
O O8 0.460097 0.613090 0.089055
#
# Coordination Sequence:
#
# PCOD9396548 Si02
#       7
#     2   2   4   4   8   8   4
#     4  10  20  40  64  86 132 174 208 274 336 380
#     4  12  26  50  74 104 138 178 230 278 332 406
#     4  12  26  46  66 100 138 170 218 276 332 400
#     4  10  22  41  61  92 129 169 218 272 326 388
#     4  11  23  41  66  94 127 171 221 270 324 394
#     4  12  27  46  72 101 135 177 221 274 333 398
#     4  11  25  43  68  96 132 173 217 271 332 394
#
# _framework density 24.054321999999999
#
# number of rings (size 3 to 8) (size 9 to 14) (size 15 to 20)
#    0.000    0.750    0.000    7.500    0.000   13.500 
#    0.000   12.500    0.000    0.000    0.000    0.000 
#    0.000    0.000    0.000    0.000    0.000    0.000 
#
# Total GULP energy -178757.842452 kJ/mol
# GULP energy per Si atom -5586.182577 kJ/mol
# Density = 2.399957 g / cm^3
# Si number density = 24.054322 Si / 1000 Ang^3
#
#
#
# Elastic Constant Matrix: (Units=GPa)
#
#
# Indices 1 2 3 4 5 6 
#
# 1 59.7671 0.1239 36.5906 0.0000 0.0000 0.0000
# 2 0.1239 95.4105 45.0585 0.0000 0.0000 0.0000
# 3 36.5906 45.0585 147.4485 0.0000 0.0000 0.0000
# 4 0.0000 0.0000 0.0000 35.3401 0.0000 0.0000
# 5 0.0000 0.0000 0.0000 0.0000 -9.5605 0.0000
# 6 0.0000 0.0000 0.0000 0.0000 0.0000 46.5600
#
#
#
# Elastic Compliance Matrix: (Units=1/GPa)
#
#
# Indices 1 2 3 4 5 6 
#
# 1 0.020330 0.002754 -0.005886 0.000000 0.000000 0.000000
# 2 0.002754 0.012622 -0.004540 0.000000 0.000000 0.000000
# 3 -0.005886 -0.004540 0.009630 0.000000 0.000000 0.000000
# 4 0.000000 0.000000 0.000000 0.028296 0.000000 0.000000
# 5 0.000000 0.000000 0.000000 0.000000 -0.104597 0.000000
# 6 0.000000 0.000000 0.000000 0.000000 0.000000 0.021478
#
#
# Mechanical properties :
#
#
# Convention : Reuss Voigt Hill
#
# Bulk Modulus (GPa) = 36.71725 51.79688 44.25706
# Shear Modulus (GPa) = 410.38327 29.19146 219.78736
#
# Velocity S-wave (km/s) = 13.07583 3.48740 9.56920
# Velocity P-wave (km/s) = 15.59702 6.14785 11.85460
#
# Compressibility (1/GPa) = 0.02723516
#
# Stress axis : x y z
#
# Youngs Moduli (GPa) = 49.18910 79.22882 103.83927
#
# Poissons Ratio (x) = -0.21816 0.61124
# Poissons Ratio (y) = -0.13544 0.47147
# Poissons Ratio (z) = 0.28955 0.35973
#
# Static dielectric constant tensor:
#      x y z
#    x 1.868840 0.000000 0.000000 
#    y 0.000000 1.894660 0.000000 
#    z 0.000000 0.000000 1.903640 
# 
# From -- ./inp_files/31644.got.cif
#   From: 2010.05.17/outbox.cif.g08.bks.cpg/sg50_16_cif.got.tgz:31644.got - 2010.06.03 11:33:33.
