data_PCOD9396440
_publ_section_title
;
Structure prediction by ZEFSAII (Michael W. Deem and Ramdas Pophale) SiO2 
 PCOD9396440
Probable space group: P B A N
;
_chemical_formula_sum "Si O2"
_cell_formula_units_Z 40
_cell_length_a 8.478329
_cell_length_b 27.264959
_cell_length_c 8.945789
_cell_angle_alpha 90.000000
_cell_angle_beta 90.000000
_cell_angle_gamma 90.000000
_cell_volume 2067.920148
_symmetry_space_group_name_H-M "P B A N"
_symmetry_group_IT_number 50
_space_group.IT_coordinate_system_code '2'
_symmetry_cell_setting 'orthorhombic'
loop_
_space_group_symop_operation_xyz
x,y,z
1/2-x,1/2-y,z
x,1/2-y,-z
1/2-x,y,-z
-x,-y,-z
1/2+x,1/2+y,-z
-x,1/2+y,z
1/2+x,-y,z
loop_
_atom_site_type_symbol
_atom_site_label
_atom_site_fract_x
_atom_site_fract_y
_atom_site_fract_z
Si Si1 0.959560 0.980365 0.664714
Si Si2 0.250000 0.410212 0.500000
Si Si3 0.240156 0.827901 0.253062
Si Si4 0.250000 0.250000 0.500000
Si Si5 0.750000 0.250000 0.000000
Si Si6 0.732132 0.439138 0.826761
Si Si7 0.996543 0.673041 0.500863
O O1 0.813091 0.943583 0.635366
O O2 0.107312 0.952985 0.738242
O O3 0.903172 0.026624 0.759327
O O4 0.000000 0.000000 0.500000
O O5 0.103578 0.375123 0.459668
O O6 0.301430 0.790827 0.125750
O O7 0.198278 0.881403 0.190151
O O8 0.374444 0.836706 0.376000
O O9 0.089533 0.808732 0.350610
O O10 0.126603 0.288194 0.569782
O O11 0.750000 0.450895 0.000000
#
# Coordination Sequence:
#
# PCOD9396440 Si02
#       7
#     8   4   8   2   2   8   8
#     4  12  23  40  67  98 133 177 223 267 318 394
#     4  11  20  37  66 100 126 167 214 277 316 384
#     4  11  23  41  67  94 122 174 217 271 323 407
#     4  10  20  38  60  98 116 154 208 292 332 364
#     4  12  24  42  64  90 128 158 224 270 340 384
#     4  12  25  42  63  99 138 178 218 269 338 396
#     4  10  22  39  68  92 127 161 225 272 332 389
#
# _framework density 19.343108000000001
#
# number of rings (size 3 to 8) (size 9 to 14) (size 15 to 20)
#    0.000    0.800    5.000    3.000    2.800    1.600 
#    0.000    0.000    0.000   22.800    0.000    0.000 
#    0.000    0.000    0.000    0.000    0.000    0.000 
#
# Total GULP energy -222792.583057 kJ/mol
# GULP energy per Si atom -5569.814576 kJ/mol
# Density = 1.929908 g / cm^3
# Si number density = 19.343108 Si / 1000 Ang^3
#
#
#
# Elastic Constant Matrix: (Units=GPa)
#
#
# Indices 1 2 3 4 5 6 
#
# 1 66.2666 17.2374 20.3535 0.0000 0.0000 0.0000
# 2 17.2374 99.5018 18.0636 0.0000 0.0000 0.0000
# 3 20.3535 18.0636 112.5669 0.0000 0.0000 0.0000
# 4 0.0000 0.0000 0.0000 30.0798 0.0000 0.0000
# 5 0.0000 0.0000 0.0000 0.0000 18.6420 0.0000
# 6 0.0000 0.0000 0.0000 0.0000 0.0000 34.7152
#
#
#
# Elastic Compliance Matrix: (Units=1/GPa)
#
#
# Indices 1 2 3 4 5 6 
#
# 1 0.016511 -0.002388 -0.002602 0.000000 0.000000 0.000000
# 2 -0.002388 0.010697 -0.001285 0.000000 0.000000 0.000000
# 3 -0.002602 -0.001285 0.009560 0.000000 0.000000 0.000000
# 4 0.000000 0.000000 0.000000 0.033245 0.000000 0.000000
# 5 0.000000 0.000000 0.000000 0.000000 0.053642 0.000000
# 6 0.000000 0.000000 0.000000 0.000000 0.000000 0.028806
#
#
# Mechanical properties :
#
#
# Convention : Reuss Voigt Hill
#
# Bulk Modulus (GPa) = 41.29081 43.29379 42.29230
# Shear Modulus (GPa) = 28.88772 31.53279 30.21025
#
# Velocity S-wave (km/s) = 3.86869 4.04193 3.95626
# Velocity P-wave (km/s) = 6.43029 6.64933 6.54072
#
# Compressibility (1/GPa) = 0.02421847
#
# Stress axis : x y z
#
# Youngs Moduli (GPa) = 60.56584 93.48432 104.59936
#
# Poissons Ratio (x) = 0.22323 0.27219
# Poissons Ratio (y) = 0.14463 0.13439
# Poissons Ratio (z) = 0.15760 0.12011
#
# Static dielectric constant tensor:
#      x y z
#    x 1.690720 0.000000 0.000000 
#    y 0.000000 1.736690 0.000000 
#    z 0.000000 0.000000 1.592390 
# 
# From -- ./inp_files/9818.got.cif
#   From: 2010.05.17/outbox.cif.g08.bks.cpg/sg50_5_cif.got.tgz:9818.got - 2010.06.03 11:33:33.
