data_PCOD9396510
_publ_section_title
;
Structure prediction by ZEFSAII (Michael W. Deem and Ramdas Pophale) SiO2 
 PCOD9396510
Probable space group: P B A N
;
_chemical_formula_sum "Si O2"
_cell_formula_units_Z 48
_cell_length_a 14.204640
_cell_length_b 21.325751
_cell_length_c 6.892957
_cell_angle_alpha 90.000000
_cell_angle_beta 90.000000
_cell_angle_gamma 90.000000
_cell_volume 2088.046350
_symmetry_space_group_name_H-M "P B A N"
_symmetry_group_IT_number 50
_space_group.IT_coordinate_system_code '2'
_symmetry_cell_setting 'orthorhombic'
loop_
_space_group_symop_operation_xyz
x,y,z
1/2-x,1/2-y,z
x,1/2-y,-z
1/2-x,y,-z
-x,-y,-z
1/2+x,1/2+y,-z
-x,1/2+y,z
1/2+x,-y,z
loop_
_atom_site_type_symbol
_atom_site_label
_atom_site_fract_x
_atom_site_fract_y
_atom_site_fract_z
Si Si1 0.750000 0.250000 0.000000
Si Si2 0.106355 0.270087 0.720085
Si Si3 0.386500 0.705772 0.679544
Si Si4 0.409296 0.061028 0.275911
Si Si5 0.879443 0.586285 0.175538
Si Si6 0.564905 0.429668 0.430500
Si Si7 0.250000 0.425970 0.500000
Si Si8 0.250000 0.250000 0.000000
O O1 0.682640 0.288942 0.140617
O O2 0.121691 0.250000 0.500000
O O3 0.139403 0.339697 0.787948
O O4 0.992785 0.273475 0.743619
O O5 0.170887 0.224497 0.849126
O O6 0.360769 0.750000 0.500000
O O7 0.384296 0.635307 0.599939
O O8 0.515480 0.069247 0.357221
O O9 0.341746 0.105794 0.402356
O O10 0.381944 0.992559 0.366472
O O11 0.391683 0.069151 0.049737
O O12 0.798952 0.550223 0.297421
O O13 0.978007 0.571885 0.279121
#
# Coordination Sequence:
#
# PCOD9396510 Si02
#       8
#     2   8   8   8   8   8   4   2
#     4  12  24  44  68  98 124 176 236 284 348 410
#     4  10  24  40  60  91 133 176 226 276 334 409
#     4  10  23  46  67  94 131 176 224 287 342 403
#     4  10  20  39  63  96 128 174 216 268 342 408
#     4  10  21  37  63  86 130 174 212 273 331 407
#     4   9  21  41  66  94 128 168 223 274 331 415
#     4  10  22  34  53  90 131 164 212 268 330 398
#     4  12  24  32  60  94 124 180 216 276 328 414
#
# _framework density 22.987997
#
# number of rings (size 3 to 8) (size 9 to 14) (size 15 to 20)
#    0.000    2.000    0.000    2.000    4.667    6.667 
#    6.000    0.000    0.000    0.000    0.000    0.000 
#    0.000    0.000    0.000    0.000    0.000    0.000 
#
# Total GULP energy -267278.743091 kJ/mol
# GULP energy per Si atom -5568.307148 kJ/mol
# Density = 2.293568 g / cm^3
# Si number density = 22.987997 Si / 1000 Ang^3
#
#
#
# Elastic Constant Matrix: (Units=GPa)
#
#
# Indices 1 2 3 4 5 6 
#
# 1 85.4158 35.0583 69.0941 0.0000 0.0000 0.0000
# 2 35.0583 134.3052 64.3320 0.0000 0.0000 0.0000
# 3 69.0941 64.3320 233.3862 0.0000 0.0000 0.0000
# 4 0.0000 0.0000 0.0000 24.9509 0.0000 0.0000
# 5 0.0000 0.0000 0.0000 0.0000 49.1860 0.0000
# 6 0.0000 0.0000 0.0000 0.0000 0.0000 4.4481
#
#
#
# Elastic Compliance Matrix: (Units=1/GPa)
#
#
# Indices 1 2 3 4 5 6 
#
# 1 0.015933 -0.002189 -0.004114 0.000000 0.000000 0.000000
# 2 -0.002189 0.008879 -0.001800 0.000000 0.000000 0.000000
# 3 -0.004114 -0.001800 0.005999 0.000000 0.000000 0.000000
# 4 0.000000 0.000000 0.000000 0.040079 0.000000 0.000000
# 5 0.000000 0.000000 0.000000 0.000000 0.020331 0.000000
# 6 0.000000 0.000000 0.000000 0.000000 0.000000 0.224814
#
#
# Mechanical properties :
#
#
# Convention : Reuss Voigt Hill
#
# Bulk Modulus (GPa) = 68.45954 87.78622 78.12288
# Shear Modulus (GPa) = 14.83203 34.69184 24.76194
#
# Velocity S-wave (km/s) = 2.54285 3.88896 3.28558
# Velocity P-wave (km/s) = 6.20215 7.64435 6.96070
#
# Compressibility (1/GPa) = 0.01460717
#
# Stress axis : x y z
#
# Youngs Moduli (GPa) = 62.76090 112.62512 166.70365
#
# Poissons Ratio (x) = 0.24650 0.68579
# Poissons Ratio (y) = 0.13736 0.29998
# Poissons Ratio (z) = 0.25819 0.20267
#
# Static dielectric constant tensor:
#      x y z
#    x 1.906530 0.000000 0.000000 
#    y 0.000000 2.162170 0.000000 
#    z 0.000000 0.000000 1.924340 
# 
# From -- ./inp_files/3627.got.cif
#   From: 2010.05.17/outbox.cif.g08.bks.cpg/sg50_2_cif.got.tgz:3627.got - 2010.06.03 11:33:33.
