data_PCOD9396186
_publ_section_title
;
Structure prediction by ZEFSAII (Michael W. Deem and Ramdas Pophale) SiO2 
 PCOD9396186
Probable space group: P B A N
;
_chemical_formula_sum "Si O2"
_cell_formula_units_Z 48
_cell_length_a 27.203687
_cell_length_b 10.614070
_cell_length_c 8.607677
_cell_angle_alpha 90.000000
_cell_angle_beta 90.000000
_cell_angle_gamma 90.000000
_cell_volume 2485.396479
_symmetry_space_group_name_H-M "P B A N"
_symmetry_group_IT_number 50
_space_group.IT_coordinate_system_code '2'
_symmetry_cell_setting 'orthorhombic'
loop_
_space_group_symop_operation_xyz
x,y,z
1/2-x,1/2-y,z
x,1/2-y,-z
1/2-x,y,-z
-x,-y,-z
1/2+x,1/2+y,-z
-x,1/2+y,z
1/2+x,-y,z
loop_
_atom_site_type_symbol
_atom_site_label
_atom_site_fract_x
_atom_site_fract_y
_atom_site_fract_z
Si Si1 0.147096 0.259919 0.818174
Si Si2 0.640810 0.013856 0.692715
Si Si3 0.244839 0.899209 0.826385
Si Si4 0.947878 0.877540 0.896834
Si Si5 0.800229 0.566473 0.403575
Si Si6 0.557569 0.373553 0.110307
O O1 0.130398 0.122048 0.767732
O O2 0.101555 0.356555 0.800564
O O3 0.186901 0.310782 0.697259
O O4 0.162415 0.250000 0.000000
O O5 0.656047 0.982305 0.515432
O O6 0.691431 0.065330 0.764185
O O7 0.597442 0.104893 0.753624
O O8 0.250000 0.750000 0.827619
O O9 0.286326 0.958462 0.718733
O O10 0.250000 0.949990 0.000000
O O11 0.001932 0.874912 0.822073
O O12 0.948016 0.750000 0.000000
O O13 0.941774 0.004441 0.996624
O O14 0.750000 0.586223 0.500000
O O15 0.565288 0.250000 0.000000
#
# Coordination Sequence:
#
# PCOD9396186 Si02
#       6
#     8   8   8   8   8   8
#     4  11  20  38  66  87 118 163 218 262 311 377
#     4  11  22  37  59  90 125 166 203 258 321 382
#     4  10  23  40  62  87 121 161 213 260 304 379
#     4   9  18  36  60  91 123 157 213 272 309 366
#     4  10  24  41  59  90 130 166 206 264 334 380
#     4  10  20  34  61  94 124 159 212 266 317 373
#
# _framework density 19.312813999999999
#
# number of rings (size 3 to 8) (size 9 to 14) (size 15 to 20)
#    0.000    1.833    3.333    1.500    2.333    7.667 
#    0.000    5.000    0.000    0.000    0.000    0.000 
#    0.000    0.000    0.000    0.000    0.000    0.000 
#
# Total GULP energy -267545.516775 kJ/mol
# GULP energy per Si atom -5573.864933 kJ/mol
# Density = 1.926886 g / cm^3
# Si number density = 19.312814 Si / 1000 Ang^3
#
#
#
# Elastic Constant Matrix: (Units=GPa)
#
#
# Indices 1 2 3 4 5 6 
#
# 1 71.1096 21.3411 46.3610 0.0000 0.0000 0.0000
# 2 21.3411 89.8526 28.2635 0.0000 0.0000 0.0000
# 3 46.3610 28.2635 117.6985 0.0000 0.0000 0.0000
# 4 0.0000 0.0000 0.0000 -77.3824 0.0000 0.0000
# 5 0.0000 0.0000 0.0000 0.0000 32.6093 0.0000
# 6 0.0000 0.0000 0.0000 0.0000 0.0000 33.3143
#
#
#
# Elastic Compliance Matrix: (Units=1/GPa)
#
#
# Indices 1 2 3 4 5 6 
#
# 1 0.019382 -0.002382 -0.007063 0.000000 0.000000 0.000000
# 2 -0.002382 0.012331 -0.002023 0.000000 0.000000 0.000000
# 3 -0.007063 -0.002023 0.011764 0.000000 0.000000 0.000000
# 4 0.000000 0.000000 0.000000 -0.012923 0.000000 0.000000
# 5 0.000000 0.000000 0.000000 0.000000 0.030666 0.000000
# 6 0.000000 0.000000 0.000000 0.000000 0.000000 0.030017
#
#
# Mechanical properties :
#
#
# Convention : Reuss Voigt Hill
#
# Bulk Modulus (GPa) = 48.67928 52.28799 50.48363
# Shear Modulus (GPa) = 41.31528 9.88793 25.60160
#
# Velocity S-wave (km/s) = 4.63024 2.26517 3.64487
# Velocity P-wave (km/s) = 7.33798 5.82875 6.62647
#
# Compressibility (1/GPa) = 0.02054262
#
# Stress axis : x y z
#
# Youngs Moduli (GPa) = 51.59365 81.09370 85.00506
#
# Poissons Ratio (x) = 0.19316 0.60036
# Poissons Ratio (y) = 0.12289 0.17196
# Poissons Ratio (z) = 0.36439 0.16405
#
# Static dielectric constant tensor:
#      x y z
#    x 1.854150 0.000000 0.000000 
#    y 0.000000 1.676150 0.000000 
#    z 0.000000 0.000000 1.682500 
# 
# From -- ./inp_files/16482.got.cif
#   From: 2010.05.17/outbox.cif.g08.bks.cpg/sg50_9_cif.got.tgz:16482.got - 2010.06.03 11:33:33.
