data_PCOD9396721
_publ_section_title
;
Structure prediction by ZEFSAII (Michael W. Deem and Ramdas Pophale) SiO2 
 PCOD9396721
Probable space group: P B A N
;
_chemical_formula_sum "Si O2"
_cell_formula_units_Z 52
_cell_length_a 27.533885
_cell_length_b 12.568534
_cell_length_c 8.302548
_cell_angle_alpha 90.000000
_cell_angle_beta 90.000000
_cell_angle_gamma 90.000000
_cell_volume 2873.184491
_symmetry_space_group_name_H-M "P B A N"
_symmetry_group_IT_number 50
_space_group.IT_coordinate_system_code '2'
_symmetry_cell_setting 'orthorhombic'
loop_
_space_group_symop_operation_xyz
x,y,z
1/2-x,1/2-y,z
x,1/2-y,-z
1/2-x,y,-z
-x,-y,-z
1/2+x,1/2+y,-z
-x,1/2+y,z
1/2+x,-y,z
loop_
_atom_site_type_symbol
_atom_site_label
_atom_site_fract_x
_atom_site_fract_y
_atom_site_fract_z
Si Si1 0.195097 0.792570 0.328548
Si Si2 0.150991 0.484669 0.663533
Si Si3 0.886091 0.650667 0.618513
Si Si4 0.694476 0.767887 0.190886
Si Si5 0.363370 0.750000 0.000000
Si Si6 0.463675 0.357852 0.895522
Si Si7 0.570258 0.436445 0.906457
O O1 0.250000 0.750000 0.317770
O O2 0.174531 0.750000 0.500000
O O3 0.167659 0.758227 0.164610
O O4 0.189679 0.920028 0.340371
O O5 0.130656 0.447038 0.491580
O O6 0.174470 0.382799 0.753448
O O7 0.104521 0.527752 0.760769
O O8 0.895121 0.750000 0.500000
O O9 0.840384 0.682566 0.727286
O O10 0.932118 0.640848 0.733808
O O11 0.750000 0.750000 0.242726
O O12 0.691815 0.750000 0.000000
O O13 0.397373 0.645961 0.991807
O O14 0.520476 0.377047 0.860134
O O15 0.457032 0.250000 0.000000
O O16 0.444744 0.457604 0.999110
#
# Coordination Sequence:
#
# PCOD9396721 Si02
#       7
#     8   8   8   8   4   8   8
#     4  10  23  41  62  89 125 166 214 257 303 375
#     4  10  22  40  57  89 124 157 202 253 307 382
#     4  10  21  36  61  89 124 157 190 256 316 371
#     4  10  21  39  60  92 120 156 202 252 316 380
#     4  10  21  44  62  90 124 164 213 256 316 368
#     4  11  21  38  63  90 116 159 205 254 311 375
#     4  10  22  39  63  85 119 159 207 254 306 372
#
# _framework density 18.098385
#
# number of rings (size 3 to 8) (size 9 to 14) (size 15 to 20)
#    0.000    1.846    0.769    3.462    2.154    5.846 
#   11.077    3.077    0.000    0.000    0.000    0.000 
#    0.000    0.000    0.000    0.000    0.000    0.000 
#
# Total GULP energy -290133.344241 kJ/mol
# GULP energy per Si atom -5579.487389 kJ/mol
# Density = 1.805719 g / cm^3
# Si number density = 18.098385 Si / 1000 Ang^3
#
#
#
# Elastic Constant Matrix: (Units=GPa)
#
#
# Indices 1 2 3 4 5 6 
#
# 1 127.4542 57.3060 66.5701 0.0000 0.0000 0.0000
# 2 57.3060 109.0464 47.4116 0.0000 0.0000 0.0000
# 3 66.5701 47.4116 100.3398 0.0000 0.0000 0.0000
# 4 0.0000 0.0000 0.0000 21.8542 0.0000 0.0000
# 5 0.0000 0.0000 0.0000 0.0000 51.3464 0.0000
# 6 0.0000 0.0000 0.0000 0.0000 0.0000 9.6938
#
#
#
# Elastic Compliance Matrix: (Units=1/GPa)
#
#
# Indices 1 2 3 4 5 6 
#
# 1 0.013232 -0.003948 -0.006913 0.000000 0.000000 0.000000
# 2 -0.003948 0.012719 -0.003391 0.000000 0.000000 0.000000
# 3 -0.006913 -0.003391 0.016155 0.000000 0.000000 0.000000
# 4 0.000000 0.000000 0.000000 0.045758 0.000000 0.000000
# 5 0.000000 0.000000 0.000000 0.000000 0.019476 0.000000
# 6 0.000000 0.000000 0.000000 0.000000 0.000000 0.103158
#
#
# Mechanical properties :
#
#
# Convention : Reuss Voigt Hill
#
# Bulk Modulus (GPa) = 73.51712 75.49065 74.50388
# Shear Modulus (GPa) = 20.53088 27.61573 24.07330
#
# Velocity S-wave (km/s) = 3.37175 3.91047 3.65106
# Velocity P-wave (km/s) = 7.47444 7.88612 7.68304
#
# Compressibility (1/GPa) = 0.01360227
#
# Stress axis : x y z
#
# Youngs Moduli (GPa) = 75.57568 78.62032 61.90079
#
# Poissons Ratio (x) = 0.31038 0.42793
# Poissons Ratio (y) = 0.29836 0.20990
# Poissons Ratio (z) = 0.52247 0.26659
#
# Static dielectric constant tensor:
#      x y z
#    x 1.613170 0.000000 0.000000 
#    y 0.000000 1.626590 0.000000 
#    z 0.000000 0.000000 1.643710 
# 
# From -- ./inp_files/16510.got.cif
#   From: 2010.05.17/outbox.cif.g08.bks.cpg/sg50_9_cif.got.tgz:16510.got - 2010.06.03 11:33:33.
