data_PCOD9396231
_publ_section_title
;
Structure prediction by ZEFSAII (Michael W. Deem and Ramdas Pophale) SiO2 
 PCOD9396231
Probable space group: P B A N
;
_chemical_formula_sum "Si O2"
_cell_formula_units_Z 64
_cell_length_a 15.645794
_cell_length_b 8.382025
_cell_length_c 25.073197
_cell_angle_alpha 90.000000
_cell_angle_beta 90.000000
_cell_angle_gamma 90.000000
_cell_volume 3288.185217
_symmetry_space_group_name_H-M "P B A N"
_symmetry_group_IT_number 50
_space_group.IT_coordinate_system_code '2'
_symmetry_cell_setting 'orthorhombic'
loop_
_space_group_symop_operation_xyz
x,y,z
1/2-x,1/2-y,z
x,1/2-y,-z
1/2-x,y,-z
-x,-y,-z
1/2+x,1/2+y,-z
-x,1/2+y,z
1/2+x,-y,z
loop_
_atom_site_type_symbol
_atom_site_label
_atom_site_fract_x
_atom_site_fract_y
_atom_site_fract_z
Si Si1 0.598094 0.558324 0.617217
Si Si2 0.902175 0.942303 0.500000
Si Si3 0.749999 0.943221 0.811945
Si Si4 0.750000 0.439211 0.308915
Si Si5 0.849828 0.944277 0.000001
Si Si6 0.908300 0.942452 0.884330
Si Si7 0.098094 0.441676 0.382782
Si Si8 0.591697 0.557557 0.115671
O O1 0.630709 0.504980 0.557987
O O2 0.665222 0.500381 0.660835
O O3 0.500000 0.500000 0.624612
O O4 0.596233 0.750000 0.617894
O O5 0.898124 0.750000 0.500000
O O6 0.869290 0.995020 0.442013
O O7 0.000000 0.000000 0.500000
O O8 0.750000 0.750000 0.811053
O O9 0.832890 0.995655 0.845340
O O10 0.667103 0.995650 0.845336
O O11 0.750001 0.003310 0.751942
O O12 0.750000 0.250000 0.310516
O O13 0.665223 0.500382 0.339164
O O14 0.891825 0.000198 0.055032
O O15 0.853439 0.750000 0.000000
O O16 0.750000 0.987458 0.000000
O O17 0.891825 0.000203 0.944970
O O18 0.906470 0.750004 0.885668
O O19 0.999997 0.000008 0.865632
#
# Coordination Sequence:
#
# PCOD9396231 Si02
#       8
#     8   8   8   8   8   8   8   8
#     4  10  20  38  62  89 120 153 190 236 289 348
#     4   8  16  31  56  87 118 150 184 227 284 345
#     4  10  22  41  59  77 106 150 196 238 285 340
#     4  12  26  41  58  83 114 154 201 248 293 342
#     4   9  15  30  57  86 115 148 183 219 268 338
#     4  10  20  35  59  86 113 146 185 228 279 339
#     4  10  20  38  62  89 120 153 190 236 289 348
#     4  10  20  35  59  86 113 146 185 228 279 339
#
# _framework density 19.463622999999998
#
# number of rings (size 3 to 8) (size 9 to 14) (size 15 to 20)
#    0.000    2.125    1.250    2.250    0.000    3.500 
#    0.000    5.000    0.000    0.750    0.000    0.000 
#    0.000    0.000    0.000    0.000    0.000    0.000 
#
# Total GULP energy -357164.585409 kJ/mol
# GULP energy per Si atom -5580.696647 kJ/mol
# Density = 1.941932 g / cm^3
# Si number density = 19.463623 Si / 1000 Ang^3
#
#
#
# Elastic Constant Matrix: (Units=GPa)
#
#
# Indices 1 2 3 4 5 6 
#
# 1 160.4327 28.6255 102.8489 0.0000 0.0000 0.0000
# 2 28.6255 32.0857 36.0394 0.0000 0.0000 0.0000
# 3 102.8489 36.0394 193.9130 0.0000 0.0000 0.0000
# 4 0.0000 0.0000 0.0000 13.9247 0.0000 0.0000
# 5 0.0000 0.0000 0.0000 0.0000 0.9503 0.0000
# 6 0.0000 0.0000 0.0000 0.0000 0.0000 26.6988
#
#
#
# Elastic Compliance Matrix: (Units=1/GPa)
#
#
# Indices 1 2 3 4 5 6 
#
# 1 0.009773 -0.003661 -0.004503 0.000000 0.000000 0.000000
# 2 -0.003661 0.040761 -0.005634 0.000000 0.000000 0.000000
# 3 -0.004503 -0.005634 0.008592 0.000000 0.000000 0.000000
# 4 0.000000 0.000000 0.000000 0.071815 0.000000 0.000000
# 5 0.000000 0.000000 0.000000 0.000000 1.052343 0.000000
# 6 0.000000 0.000000 0.000000 0.000000 0.000000 0.037455
#
#
# Mechanical properties :
#
#
# Convention : Reuss Voigt Hill
#
# Bulk Modulus (GPa) = 31.71549 80.16210 55.93880
# Shear Modulus (GPa) = 3.97189 22.90926 13.44057
#
# Velocity S-wave (km/s) = 1.43007 3.43451 2.63068
# Velocity P-wave (km/s) = 4.36542 7.55002 6.16684
#
# Compressibility (1/GPa) = 0.03153033
#
# Stress axis : x y z
#
# Youngs Moduli (GPa) = 102.32017 24.53340 116.38204
#
# Poissons Ratio (x) = 0.08982 0.52409
# Poissons Ratio (y) = 0.37462 0.65566
# Poissons Ratio (z) = 0.46076 0.13821
#
# Static dielectric constant tensor:
#      x y z
#    x 1.654780 0.000000 0.000000 
#    y 0.000000 1.666470 0.000000 
#    z 0.000000 0.000000 1.694130 
# 
# From -- ./inp_files/31774.got.cif
#   From: 2010.05.17/outbox.cif.g08.bks.cpg/sg50_16_cif.got.tgz:31774.got - 2010.06.03 11:33:33.
