data_PCOD9396082
_publ_section_title
;
Structure prediction by ZEFSAII (Michael W. Deem and Ramdas Pophale) SiO2 
 PCOD9396082
Probable space group: P B A N
;
_chemical_formula_sum "Si O2"
_cell_formula_units_Z 40
_cell_length_a 15.115299
_cell_length_b 26.688192
_cell_length_c 4.913347
_cell_angle_alpha 90.000000
_cell_angle_beta 90.000000
_cell_angle_gamma 90.000000
_cell_volume 1982.044189
_symmetry_space_group_name_H-M "P B A N"
_symmetry_group_IT_number 50
_space_group.IT_coordinate_system_code '2'
_symmetry_cell_setting 'orthorhombic'
loop_
_space_group_symop_operation_xyz
x,y,z
1/2-x,1/2-y,z
x,1/2-y,-z
1/2-x,y,-z
-x,-y,-z
1/2+x,1/2+y,-z
-x,1/2+y,z
1/2+x,-y,z
loop_
_atom_site_type_symbol
_atom_site_label
_atom_site_fract_x
_atom_site_fract_y
_atom_site_fract_z
Si Si1 0.309583 0.030296 0.745790
Si Si2 0.041787 0.802743 0.909280
Si Si3 0.846748 0.173419 0.595770
Si Si4 0.416840 0.936178 0.522522
Si Si5 0.971972 0.911710 0.981597
O O1 0.250000 0.051499 0.500000
O O2 0.379122 0.068922 0.874001
O O3 0.363415 0.984511 0.612248
O O4 0.250000 0.012416 0.000000
O O5 0.078342 0.804623 0.604357
O O6 0.982559 0.851797 0.960103
O O7 0.001432 0.750000 0.000000
O O8 0.127752 0.810592 0.101954
O O9 0.750000 0.188340 0.500000
O O10 0.858343 0.113411 0.571570
O O11 0.452246 0.935158 0.215437
O O12 0.502507 0.929384 0.716851
#
# Coordination Sequence:
#
# PCOD9396082 Si02
#       5
#     8   8   8   8   8
#     4  12  23  35  56  84 111 141 181 228 274 319
#     4  10  21  35  53  75 101 142 184 220 268 320
#     4  10  20  32  50  78 110 139 174 219 262 313
#     4  10  20  36  55  77 110 149 180 208 262 329
#     4  10  21  38  56  77 108 144 182 222 265 325
#
# _framework density 20.181186
#
# number of rings (size 3 to 8) (size 9 to 14) (size 15 to 20)
#    0.000    1.600    0.000    5.400    0.000    5.600 
#    0.000    0.000    0.000    0.600    0.000    1.400 
#    0.000    0.000    0.000    0.000    0.000    0.000 
#
# Total GULP energy -223745.967525 kJ/mol
# GULP energy per Si atom -5593.649188 kJ/mol
# Density = 2.013525 g / cm^3
# Si number density = 20.181186 Si / 1000 Ang^3
#
#
#
# Elastic Constant Matrix: (Units=GPa)
#
#
# Indices 1 2 3 4 5 6 
#
# 1 55.5132 41.0402 -0.8755 0.0000 0.0000 0.0000
# 2 41.0402 119.9854 4.8560 0.0000 0.0000 0.0000
# 3 -0.8755 4.8560 63.6603 0.0000 0.0000 0.0000
# 4 0.0000 0.0000 0.0000 27.5713 0.0000 0.0000
# 5 0.0000 0.0000 0.0000 0.0000 23.6785 0.0000
# 6 0.0000 0.0000 0.0000 0.0000 0.0000 -5.0283
#
#
#
# Elastic Compliance Matrix: (Units=1/GPa)
#
#
# Indices 1 2 3 4 5 6 
#
# 1 0.024170 -0.008306 0.000966 0.000000 0.000000 0.000000
# 2 -0.008306 0.011215 -0.000970 0.000000 0.000000 0.000000
# 3 0.000966 -0.000970 0.015796 0.000000 0.000000 0.000000
# 4 0.000000 0.000000 0.000000 0.036270 0.000000 0.000000
# 5 0.000000 0.000000 0.000000 0.000000 0.042232 0.000000
# 6 0.000000 0.000000 0.000000 0.000000 0.000000 -0.198873
#
#
# Mechanical properties :
#
#
# Convention : Reuss Voigt Hill
#
# Bulk Modulus (GPa) = 28.93502 36.57780 32.75641
# Shear Modulus (GPa) = -121.79917 22.18684 -49.80616
#
# Velocity S-wave (km/s) = -7.77714 3.31929 -4.97324
# Velocity P-wave (km/s) = 8.14103 5.73187 4.08791
#
# Compressibility (1/GPa) = 0.03456020
#
# Stress axis : x y z
#
# Youngs Moduli (GPa) = 41.37432 89.16907 63.30864
#
# Poissons Ratio (x) = 0.74065 -0.06116
# Poissons Ratio (y) = 0.34366 0.06139
# Poissons Ratio (z) = -0.03997 0.08647
#
# Static dielectric constant tensor:
#      x y z
#    x 1.697080 0.000000 0.000000 
#    y 0.000000 1.741330 0.000000 
#    z 0.000000 0.000000 1.700890 
# 
# From -- ./inp_files/2382.got.cif
#   From: 2010.05.17/outbox.cif.g08.bks.cpg/sg50_2_cif.got.tgz:2382.got - 2010.06.03 11:33:33.
