data_PCOD9396743
_publ_section_title
;
Structure prediction by ZEFSAII (Michael W. Deem and Ramdas Pophale) SiO2 
 PCOD9396743
Probable space group: P B A N
;
_chemical_formula_sum "Si O2"
_cell_formula_units_Z 64
_cell_length_a 19.093409
_cell_length_b 7.892908
_cell_length_c 21.218928
_cell_angle_alpha 90.000000
_cell_angle_beta 90.000000
_cell_angle_gamma 90.000000
_cell_volume 3197.745935
_symmetry_space_group_name_H-M "P B A N"
_symmetry_group_IT_number 50
_space_group.IT_coordinate_system_code '2'
_symmetry_cell_setting 'orthorhombic'
loop_
_space_group_symop_operation_xyz
x,y,z
1/2-x,1/2-y,z
x,1/2-y,-z
1/2-x,y,-z
-x,-y,-z
1/2+x,1/2+y,-z
-x,1/2+y,z
1/2+x,-y,z
loop_
_atom_site_type_symbol
_atom_site_label
_atom_site_fract_x
_atom_site_fract_y
_atom_site_fract_z
Si Si1 0.580619 0.954570 0.739304
Si Si2 0.580396 0.954085 0.881022
Si Si3 0.329427 0.453311 0.377921
Si Si4 0.829427 0.953311 0.377922
Si Si5 0.669581 0.542196 0.000000
Si Si6 0.581543 0.450322 0.500000
Si Si7 0.919604 0.954085 0.881022
Si Si8 0.419381 0.045430 0.739304
O O1 0.597094 0.016117 0.810222
O O2 0.632175 0.018684 0.685026
O O3 0.584985 0.750000 0.740120
O O4 0.500000 0.000000 0.725161
O O5 0.629729 0.015657 0.937070
O O6 0.585631 0.750000 0.879664
O O7 0.500000 0.000000 0.894456
O O8 0.250000 0.518315 0.385578
O O9 0.324885 0.250000 0.371773
O O10 0.377652 0.487328 0.438193
O O11 0.367825 0.518684 0.314974
O O12 0.877651 0.987328 0.438194
O O13 0.667905 0.750000 0.000000
O O14 0.750000 0.490086 0.000000
O O15 0.629728 0.484343 0.937070
O O16 0.584851 0.250000 0.500000
O O17 0.500000 0.500000 0.500000
O O18 0.902906 0.016117 0.810222
#
# Coordination Sequence:
#
# PCOD9396743 Si02
#       8
#     8   8   8   8   8   8   8   8
#     4   9  18  32  51  75 101 132 170 210 251 297
#     4   9  17  30  49  72  98 130 169 210 250 295
#     4  10  21  37  56  79 108 139 170 208 256 307
#     4  10  21  37  56  79 108 139 170 208 256 307
#     4   9  17  28  45  71 100 129 164 208 254 299
#     4  12  25  40  59  81 105 135 173 214 255 302
#     4   9  17  30  49  72  98 130 169 210 250 295
#     4   9  18  32  51  75 101 132 170 210 251 297
#
# _framework density 20.014098000000001
#
# number of rings (size 3 to 8) (size 9 to 14) (size 15 to 20)
#    0.000    2.375    0.000    2.625    0.000    6.000 
#    0.000    5.000    0.000    1.500    0.000    7.000 
#    0.000    0.000    0.000    0.000    0.000    0.000 
#
# Total GULP energy -357285.169833 kJ/mol
# GULP energy per Si atom -5582.580779 kJ/mol
# Density = 1.996855 g / cm^3
# Si number density = 20.014098 Si / 1000 Ang^3
#
#
#
# Elastic Constant Matrix: (Units=GPa)
#
#
# Indices 1 2 3 4 5 6 
#
# 1 186.6138 3.9836 151.4837 0.0000 0.0000 0.0000
# 2 3.9836 21.9512 6.2246 0.0000 0.0000 0.0000
# 3 151.4837 6.2246 193.0714 0.0000 0.0000 0.0000
# 4 0.0000 0.0000 0.0000 12.7069 0.0000 0.0000
# 5 0.0000 0.0000 0.0000 0.0000 -2.8543 0.0000
# 6 0.0000 0.0000 0.0000 0.0000 0.0000 23.5774
#
#
#
# Elastic Compliance Matrix: (Units=1/GPa)
#
#
# Indices 1 2 3 4 5 6 
#
# 1 0.014766 0.000611 -0.011605 0.000000 0.000000 0.000000
# 2 0.000611 0.046001 -0.001963 0.000000 0.000000 0.000000
# 3 -0.011605 -0.001963 0.014348 0.000000 0.000000 0.000000
# 4 0.000000 0.000000 0.000000 0.078698 0.000000 0.000000
# 5 0.000000 0.000000 0.000000 0.000000 -0.350352 0.000000
# 6 0.000000 0.000000 0.000000 0.000000 0.000000 0.042413
#
#
# Mechanical properties :
#
#
# Convention : Reuss Voigt Hill
#
# Bulk Modulus (GPa) = 20.32432 80.55782 50.44107
# Shear Modulus (GPa) = -44.71818 22.68231 -11.01794
#
# Velocity S-wave (km/s) = -4.73200 3.37013 -2.34884
# Velocity P-wave (km/s) = 4.43607 7.44860 4.23101
#
# Compressibility (1/GPa) = 0.04920215
#
# Stress axis : x y z
#
# Youngs Moduli (GPa) = 67.72256 21.73859 69.69547
#
# Poissons Ratio (x) = -0.01329 0.80883
# Poissons Ratio (y) = -0.04139 0.13678
# Poissons Ratio (z) = 0.78593 0.04266
#
# Static dielectric constant tensor:
#      x y z
#    x 1.654050 0.000000 0.000000 
#    y 0.000000 1.723740 0.000000 
#    z 0.000000 0.000000 1.733030 
# 
# From -- ./inp_files/31120.got.cif
#   From: 2010.05.17/outbox.cif.g08.bks.cpg/sg50_16_cif.got.tgz:31120.got - 2010.06.03 11:33:33.
