data_PCOD9396358
_publ_section_title
;
Structure prediction by ZEFSAII (Michael W. Deem and Ramdas Pophale) SiO2 
 PCOD9396358
Probable space group: P B A N
;
_chemical_formula_sum "Si O2"
_cell_formula_units_Z 48
_cell_length_a 9.059224
_cell_length_b 15.686463
_cell_length_c 16.193705
_cell_angle_alpha 90.000000
_cell_angle_beta 90.000000
_cell_angle_gamma 90.000000
_cell_volume 2301.241785
_symmetry_space_group_name_H-M "P B A N"
_symmetry_group_IT_number 50
_space_group.IT_coordinate_system_code '2'
_symmetry_cell_setting 'orthorhombic'
loop_
_space_group_symop_operation_xyz
x,y,z
1/2-x,1/2-y,z
x,1/2-y,-z
1/2-x,y,-z
-x,-y,-z
1/2+x,1/2+y,-z
-x,1/2+y,z
1/2+x,-y,z
loop_
_atom_site_type_symbol
_atom_site_label
_atom_site_fract_x
_atom_site_fract_y
_atom_site_fract_z
Si Si1 0.750000 0.250000 0.647840
Si Si2 0.590755 0.085694 0.363342
Si Si3 0.468364 0.164213 0.729093
Si Si4 0.078505 0.988826 0.191027
Si Si5 0.824799 0.931162 0.085409
Si Si6 0.253953 0.091869 0.593947
Si Si7 0.750000 0.750000 0.855956
O O1 0.671653 0.329946 0.603345
O O2 0.616630 0.208544 0.699575
O O3 0.416126 0.086343 0.379116
O O4 0.602865 0.079389 0.263308
O O5 0.669436 0.001557 0.399528
O O6 0.499583 0.070060 0.765491
O O7 0.353264 0.149986 0.653828
O O8 0.383228 0.218166 0.798069
O O9 0.230738 0.027575 0.159323
O O10 0.989323 0.956354 0.111426
O O11 0.805085 0.830021 0.092086
O O12 0.750000 0.959370 0.000000
O O13 0.250000 0.121819 0.500000
#
# Coordination Sequence:
#
# PCOD9396358 Si02
#       7
#     4   8   8   8   8   8   4
#     4  12  22  36  59  90 117 146 200 252 294 354
#     4  11  22  39  64  88 118 159 203 248 301 362
#     4  10  21  38  61  87 114 157 203 243 299 358
#     4  10  20  37  59  82 114 155 200 240 285 361
#     4  11  21  35  56  86 118 152 192 245 299 347
#     4  11  23  43  64  87 118 158 204 254 302 357
#     4  10  21  38  59  82 116 154 198 246 297 360
#
# _framework density 20.858302999999999
#
# number of rings (size 3 to 8) (size 9 to 14) (size 15 to 20)
#    0.000    1.333    0.000    9.250    0.000    0.000 
#    0.000    6.667    0.000    0.000    0.000    7.000 
#    0.000    0.000    0.000    0.000    0.000    0.000 
#
# Total GULP energy -268187.001828 kJ/mol
# GULP energy per Si atom -5587.229205 kJ/mol
# Density = 2.081083 g / cm^3
# Si number density = 20.858303 Si / 1000 Ang^3
#
#
#
# Elastic Constant Matrix: (Units=GPa)
#
#
# Indices 1 2 3 4 5 6 
#
# 1 109.0970 41.3065 4.2271 0.0000 0.0000 0.0000
# 2 41.3065 62.1844 11.1652 0.0000 0.0000 0.0000
# 3 4.2271 11.1652 82.1125 0.0000 0.0000 0.0000
# 4 0.0000 0.0000 0.0000 11.7458 0.0000 0.0000
# 5 0.0000 0.0000 0.0000 0.0000 20.1743 0.0000
# 6 0.0000 0.0000 0.0000 0.0000 0.0000 28.7719
#
#
#
# Elastic Compliance Matrix: (Units=1/GPa)
#
#
# Indices 1 2 3 4 5 6 
#
# 1 0.012265 -0.008235 0.000488 0.000000 0.000000 0.000000
# 2 -0.008235 0.022013 -0.002569 0.000000 0.000000 0.000000
# 3 0.000488 -0.002569 0.012503 0.000000 0.000000 0.000000
# 4 0.000000 0.000000 0.000000 0.085137 0.000000 0.000000
# 5 0.000000 0.000000 0.000000 0.000000 0.049568 0.000000
# 6 0.000000 0.000000 0.000000 0.000000 0.000000 0.034756
#
#
# Mechanical properties :
#
#
# Convention : Reuss Voigt Hill
#
# Bulk Modulus (GPa) = 38.24268 40.75461 39.49865
# Shear Modulus (GPa) = 20.35922 25.25142 22.80532
#
# Velocity S-wave (km/s) = 3.12761 3.48317 3.31016
# Velocity P-wave (km/s) = 5.60508 5.97978 5.79546
#
# Compressibility (1/GPa) = 0.02614879
#
# Stress axis : x y z
#
# Youngs Moduli (GPa) = 81.53184 45.42849 79.98318
#
# Poissons Ratio (x) = 0.37410 -0.03906
# Poissons Ratio (y) = 0.67141 0.20550
# Poissons Ratio (z) = -0.03982 0.11672
#
# Static dielectric constant tensor:
#      x y z
#    x 1.748360 0.000000 0.000000 
#    y 0.000000 1.774370 0.000000 
#    z 0.000000 0.000000 1.741150 
# 
# From -- ./inp_files/25037.got.cif
#   From: 2010.05.17/outbox.cif.g08.bks.cpg/sg50_13_cif.got.tgz:25037.got - 2010.06.03 11:33:33.
