data_PCOD9396797
_publ_section_title
;
Structure prediction by ZEFSAII (Michael W. Deem and Ramdas Pophale) SiO2 
 PCOD9396797
Probable space group: P B A N
;
_chemical_formula_sum "Si O2"
_cell_formula_units_Z 26
_cell_length_a 5.373552
_cell_length_b 27.568646
_cell_length_c 6.908507
_cell_angle_alpha 90.000000
_cell_angle_beta 90.000000
_cell_angle_gamma 90.000000
_cell_volume 1023.436955
_symmetry_space_group_name_H-M "P B A N"
_symmetry_group_IT_number 50
_space_group.IT_coordinate_system_code '2'
_symmetry_cell_setting 'orthorhombic'
loop_
_space_group_symop_operation_xyz
x,y,z
1/2-x,1/2-y,z
x,1/2-y,-z
1/2-x,y,-z
-x,-y,-z
1/2+x,1/2+y,-z
-x,1/2+y,z
1/2+x,-y,z
loop_
_atom_site_type_symbol
_atom_site_label
_atom_site_fract_x
_atom_site_fract_y
_atom_site_fract_z
Si Si1 0.012511 0.167606 0.247428
Si Si2 0.513573 0.129705 0.189474
Si Si3 0.750000 0.750000 0.500000
Si Si4 0.732627 0.026430 0.266824
O O1 0.244059 0.131383 0.287376
O O2 0.093710 0.216609 0.351977
O O3 0.731793 0.156179 0.303301
O O4 0.003045 0.159310 0.013079
O O5 0.618306 0.075492 0.179380
O O6 0.750000 0.031818 0.500000
O O7 0.517493 0.987096 0.215379
#
# Coordination Sequence:
#
# PCOD9396797 Si02
#       4
#     8   8   2   8
#     4  10  25  43  69 100 137 184 239 304 371 443
#     4  10  22  46  68 102 144 192 230 299 374 436
#     4  12  28  48  76 110 136 188 260 318 382 446
#     4  10  21  37  66 106 144 185 241 294 347 437
#
# _framework density 25.404592000000001
#
# number of rings (size 3 to 8) (size 9 to 14) (size 15 to 20)
#    0.000    1.846    0.000    1.846    4.308    4.923 
#    0.000   24.615    0.000    0.000    0.000    0.000 
#    0.000    0.000    0.000    0.000    0.000    0.000 
#
# Total GULP energy -144988.990252 kJ/mol
# GULP energy per Si atom -5576.499625 kJ/mol
# Density = 2.534677 g / cm^3
# Si number density = 25.404592 Si / 1000 Ang^3
#
#
#
# Elastic Constant Matrix: (Units=GPa)
#
#
# Indices 1 2 3 4 5 6 
#
# 1 206.4520 39.9724 21.0315 0.0000 0.0000 0.0000
# 2 39.9724 137.8514 39.8286 0.0000 0.0000 0.0000
# 3 21.0315 39.8286 191.1750 0.0000 0.0000 0.0000
# 4 0.0000 0.0000 0.0000 -40.9236 0.0000 0.0000
# 5 0.0000 0.0000 0.0000 0.0000 -20.0487 0.0000
# 6 0.0000 0.0000 0.0000 0.0000 0.0000 41.9741
#
#
#
# Elastic Compliance Matrix: (Units=1/GPa)
#
#
# Indices 1 2 3 4 5 6 
#
# 1 0.005145 -0.001413 -0.000272 0.000000 0.000000 0.000000
# 2 -0.001413 0.008107 -0.001534 0.000000 0.000000 0.000000
# 3 -0.000272 -0.001534 0.005580 0.000000 0.000000 0.000000
# 4 0.000000 0.000000 0.000000 -0.024436 0.000000 0.000000
# 5 0.000000 0.000000 0.000000 0.000000 -0.049878 0.000000
# 6 0.000000 0.000000 0.000000 0.000000 0.000000 0.023824
#
#
# Mechanical properties :
#
#
# Convention : Reuss Voigt Hill
#
# Bulk Modulus (GPa) = 80.67541 81.90480 81.29010
# Shear Modulus (GPa) = -237.09186 25.17674 -105.95756
#
# Velocity S-wave (km/s) = -9.67104 3.15148 -6.46518
# Velocity P-wave (km/s) = 9.63743 6.74927 4.86454
#
# Compressibility (1/GPa) = 0.01239535
#
# Stress axis : x y z
#
# Youngs Moduli (GPa) = 194.36084 123.34850 179.20605
#
# Poissons Ratio (x) = 0.17435 0.04866
# Poissons Ratio (y) = 0.27472 0.27481
# Poissons Ratio (z) = 0.05278 0.18916
#
# Static dielectric constant tensor:
#      x y z
#    x 2.033990 0.000000 0.000000 
#    y 0.000000 2.029510 0.000000 
#    z 0.000000 0.000000 2.184580 
# 
# From -- ./inp_files/7795.got.cif
#   From: 2010.05.17/outbox.cif.g08.bks.cpg/sg50_4_cif.got.tgz:7795.got - 2010.06.03 11:33:33.
