data_PCOD9396844
_publ_section_title
;
Structure prediction by ZEFSAII (Michael W. Deem and Ramdas Pophale) SiO2 
 PCOD9396844
Probable space group: P B A N
;
_chemical_formula_sum "Si O2"
_cell_formula_units_Z 52
_cell_length_a 27.836214
_cell_length_b 15.872778
_cell_length_c 5.603673
_cell_angle_alpha 90.000000
_cell_angle_beta 90.000000
_cell_angle_gamma 90.000000
_cell_volume 2475.915924
_symmetry_space_group_name_H-M "P B A N"
_symmetry_group_IT_number 50
_space_group.IT_coordinate_system_code '2'
_symmetry_cell_setting 'orthorhombic'
loop_
_space_group_symop_operation_xyz
x,y,z
1/2-x,1/2-y,z
x,1/2-y,-z
1/2-x,y,-z
-x,-y,-z
1/2+x,1/2+y,-z
-x,1/2+y,z
1/2+x,-y,z
loop_
_atom_site_type_symbol
_atom_site_label
_atom_site_fract_x
_atom_site_fract_y
_atom_site_fract_z
Si Si1 0.195181 0.783089 0.242990
Si Si2 0.480948 0.067832 0.806801
Si Si3 0.690058 0.800387 0.752997
Si Si4 0.889123 0.917196 0.050682
Si Si5 0.334342 0.536224 0.312835
Si Si6 0.750000 0.927362 0.500000
Si Si7 0.071902 0.550280 0.423531
O O1 0.250000 0.750000 0.242065
O O2 0.176011 0.750000 0.500000
O O3 0.194073 0.883712 0.214816
O O4 0.170680 0.750000 0.000000
O O5 0.529038 0.106844 0.687834
O O6 0.454399 0.013108 0.605338
O O7 0.437477 0.119516 0.926939
O O8 0.500000 0.000000 0.000000
O O9 0.686637 0.750000 0.500000
O O10 0.640953 0.852019 0.794687
O O11 0.734263 0.864868 0.712627
O O12 0.695245 0.750000 0.000000
O O13 0.906957 0.993282 0.214275
O O14 0.854692 0.963836 0.861042
O O15 0.296246 0.485933 0.470725
O O16 0.380707 0.579329 0.438461
#
# Coordination Sequence:
#
# PCOD9396844 Si02
#       7
#     8   8   8   8   8   4   8
#     4  10  23  41  60  90 129 170 215 260 330 394
#     4   8  16  32  62  97 123 152 197 281 331 389
#     4  12  28  45  61  90 138 186 228 279 344 393
#     4  10  21  38  63  96 123 167 228 276 327 395
#     4  11  23  38  66  94 129 170 227 279 321 390
#     4  12  25  44  63  92 130 180 238 284 321 390
#     4   9  17  35  60  99 123 153 210 273 329 377
#
# _framework density 21.002327999999999
#
# number of rings (size 3 to 8) (size 9 to 14) (size 15 to 20)
#    0.000    1.846    1.538    2.077    4.308    6.769 
#    0.000    0.000    0.000    0.000   24.000    0.000 
#    0.000    0.000    0.000    0.000    0.000    0.000 
#
# Total GULP energy -289504.287690 kJ/mol
# GULP energy per Si atom -5567.390148 kJ/mol
# Density = 2.095453 g / cm^3
# Si number density = 21.002328 Si / 1000 Ang^3
#
#
#
# Elastic Constant Matrix: (Units=GPa)
#
#
# Indices 1 2 3 4 5 6 
#
# 1 127.5148 27.3388 19.0079 0.0000 0.0000 0.0000
# 2 27.3388 63.3003 16.7702 0.0000 0.0000 0.0000
# 3 19.0079 16.7702 89.4438 0.0000 0.0000 0.0000
# 4 0.0000 0.0000 0.0000 25.0501 0.0000 0.0000
# 5 0.0000 0.0000 0.0000 0.0000 24.5201 0.0000
# 6 0.0000 0.0000 0.0000 0.0000 0.0000 -32.6353
#
#
#
# Elastic Compliance Matrix: (Units=1/GPa)
#
#
# Indices 1 2 3 4 5 6 
#
# 1 0.008766 -0.003464 -0.001213 0.000000 0.000000 0.000000
# 2 -0.003464 0.017993 -0.002637 0.000000 0.000000 0.000000
# 3 -0.001213 -0.002637 0.011933 0.000000 0.000000 0.000000
# 4 0.000000 0.000000 0.000000 0.039920 0.000000 0.000000
# 5 0.000000 0.000000 0.000000 0.000000 0.040783 0.000000
# 6 0.000000 0.000000 0.000000 0.000000 0.000000 -0.030642
#
#
# Mechanical properties :
#
#
# Convention : Reuss Voigt Hill
#
# Bulk Modulus (GPa) = 41.56103 45.16585 43.36344
# Shear Modulus (GPa) = 44.88228 17.86312 31.37270
#
# Velocity S-wave (km/s) = 4.62780 2.91955 3.86913
# Velocity P-wave (km/s) = 6.95609 5.73732 6.37589
#
# Compressibility (1/GPa) = 0.02406100
#
# Stress axis : x y z
#
# Youngs Moduli (GPa) = 114.07903 55.57820 83.80456
#
# Poissons Ratio (x) = 0.19255 0.10168
# Poissons Ratio (y) = 0.39522 0.22102
# Poissons Ratio (z) = 0.13841 0.14658
#
# Static dielectric constant tensor:
#      x y z
#    x 1.815680 0.000000 0.000000 
#    y 0.000000 1.758720 0.000000 
#    z 0.000000 0.000000 1.950360 
# 
# From -- ./inp_files/7198.got.cif
#   From: 2010.05.17/outbox.cif.g08.bks.cpg/sg50_4_cif.got.tgz:7198.got - 2010.06.03 11:33:33.
