data_PCOD9396219
_publ_section_title
;
Structure prediction by ZEFSAII (Michael W. Deem and Ramdas Pophale) SiO2 
 PCOD9396219
Probable space group: P B A N
;
_chemical_formula_sum "Si O2"
_cell_formula_units_Z 48
_cell_length_a 17.175393
_cell_length_b 14.296837
_cell_length_c 10.700464
_cell_angle_alpha 90.000000
_cell_angle_beta 90.000000
_cell_angle_gamma 90.000000
_cell_volume 2627.539534
_symmetry_space_group_name_H-M "P B A N"
_symmetry_group_IT_number 50
_space_group.IT_coordinate_system_code '2'
_symmetry_cell_setting 'orthorhombic'
loop_
_space_group_symop_operation_xyz
x,y,z
1/2-x,1/2-y,z
x,1/2-y,-z
1/2-x,y,-z
-x,-y,-z
1/2+x,1/2+y,-z
-x,1/2+y,z
1/2+x,-y,z
loop_
_atom_site_type_symbol
_atom_site_label
_atom_site_fract_x
_atom_site_fract_y
_atom_site_fract_z
Si Si1 0.526385 0.750000 0.271315
Si Si2 0.840780 0.453776 0.500000
Si Si3 0.085446 0.457168 0.253397
Si Si4 0.540738 0.750000 0.000000
Si Si5 0.340811 0.075366 0.000000
Si Si6 0.593526 0.250000 0.500000
Si Si7 0.585447 0.957167 0.253397
O O1 0.575731 0.654184 0.279116
O O2 0.493844 0.750000 0.128993
O O3 0.462188 0.750001 0.378443
O O4 0.575732 0.845815 0.279116
O O5 0.750000 0.475606 0.500000
O O6 0.880111 0.496107 0.623417
O O7 0.856150 0.343328 0.499999
O O8 0.880111 0.496108 0.376584
O O9 0.137598 0.474541 0.130348
O O10 0.000000 0.500001 0.229798
O O11 0.599016 0.662078 0.000000
O O12 0.250000 0.101827 0.000000
O O13 0.362402 0.025459 0.869652
#
# Coordination Sequence:
#
# PCOD9396219 Si02
#       7
#     8   8   8   4   8   4   8
#     4  10  20  36  63  90 113 148 200 244 284 342
#     4  12  25  40  59  87 121 156 195 244 297 344
#     4  11  21  39  61  88 116 157 198 242 286 347
#     4   8  19  34  56  88 119 150 184 236 297 342
#     4  10  20  35  57  87 121 154 189 234 295 351
#     4  12  21  40  60  82 119 154 200 240 289 346
#     4  11  21  39  61  88 116 157 198 242 286 347
#
# _framework density 18.268039999999999
#
# number of rings (size 3 to 8) (size 9 to 14) (size 15 to 20)
#    0.000    1.333    3.333    3.500    0.000    0.000 
#    0.000    3.333    0.000    0.000    0.000    5.833 
#    0.000    0.000    0.000    0.000    0.000    0.000 
#
# Total GULP energy -267862.601297 kJ/mol
# GULP energy per Si atom -5580.470860 kJ/mol
# Density = 1.822646 g / cm^3
# Si number density = 18.268040 Si / 1000 Ang^3
#
#
#
# Elastic Constant Matrix: (Units=GPa)
#
#
# Indices 1 2 3 4 5 6 
#
# 1 47.2184 -6.8036 13.4860 0.0000 0.0000 0.0000
# 2 -6.8036 99.7635 15.0673 0.0000 0.0000 0.0000
# 3 13.4860 15.0673 131.5709 0.0000 0.0000 0.0000
# 4 0.0000 0.0000 0.0000 -548.0080 0.0000 0.0000
# 5 0.0000 0.0000 0.0000 0.0000 27.5477 0.0000
# 6 0.0000 0.0000 0.0000 0.0000 0.0000 -3.4584
#
#
#
# Elastic Compliance Matrix: (Units=1/GPa)
#
#
# Indices 1 2 3 4 5 6 
#
# 1 0.022161 0.001887 -0.002488 0.000000 0.000000 0.000000
# 2 0.001887 0.010361 -0.001380 0.000000 0.000000 0.000000
# 3 -0.002488 -0.001380 0.008013 0.000000 0.000000 0.000000
# 4 0.000000 0.000000 0.000000 -0.001825 0.000000 0.000000
# 5 0.000000 0.000000 0.000000 0.000000 0.036301 0.000000
# 6 0.000000 0.000000 0.000000 0.000000 0.000000 -0.289150
#
#
# Mechanical properties :
#
#
# Convention : Reuss Voigt Hill
#
# Bulk Modulus (GPa) = 27.34194 35.78356 31.56275
# Shear Modulus (GPa) = -25.25414 -87.66353 -56.45884
#
# Velocity S-wave (km/s) = -3.72213 -6.93481 -5.56533
# Velocity P-wave (km/s) = 1.86353 6.67019 4.89715
#
# Compressibility (1/GPa) = 0.03657385
#
# Stress axis : x y z
#
# Youngs Moduli (GPa) = 45.12526 96.51761 124.79001
#
# Poissons Ratio (x) = -0.18213 0.31042
# Poissons Ratio (y) = -0.08515 0.17220
# Poissons Ratio (z) = 0.11225 0.13319
#
# Static dielectric constant tensor:
#      x y z
#    x 1.574890 0.000000 0.000000 
#    y 0.000000 1.644000 0.000000 
#    z 0.000000 0.000000 1.649900 
# 
# From -- ./inp_files/14263.got.cif
#   From: 2010.05.17/outbox.cif.g08.bks.cpg/sg50_8_cif.got.tgz:14263.got - 2010.06.03 11:33:33.
