data_PCOD9396990
_publ_section_title
;
Structure prediction by ZEFSAII (Michael W. Deem and Ramdas Pophale) SiO2 
 PCOD9396990
Probable space group: P B A N
;
_chemical_formula_sum "Si O2"
_cell_formula_units_Z 48
_cell_length_a 23.241147
_cell_length_b 13.147141
_cell_length_c 7.370101
_cell_angle_alpha 90.000000
_cell_angle_beta 90.000000
_cell_angle_gamma 90.000000
_cell_volume 2251.968533
_symmetry_space_group_name_H-M "P B A N"
_symmetry_group_IT_number 50
_space_group.IT_coordinate_system_code '2'
_symmetry_cell_setting 'orthorhombic'
loop_
_space_group_symop_operation_xyz
x,y,z
1/2-x,1/2-y,z
x,1/2-y,-z
1/2-x,y,-z
-x,-y,-z
1/2+x,1/2+y,-z
-x,1/2+y,z
1/2+x,-y,z
loop_
_atom_site_type_symbol
_atom_site_label
_atom_site_fract_x
_atom_site_fract_y
_atom_site_fract_z
Si Si1 0.431899 0.156451 0.599338
Si Si2 0.362879 0.132820 0.950704
Si Si3 0.548194 0.203792 0.798630
Si Si4 0.796909 0.447946 0.629559
Si Si5 0.917263 0.971605 0.270715
Si Si6 0.638481 0.250000 0.500000
Si Si7 0.750000 0.494216 0.000000
O O1 0.400969 0.250000 0.500000
O O2 0.486884 0.205446 0.699327
O O3 0.449327 0.076682 0.442740
O O4 0.390561 0.115388 0.754263
O O5 0.411810 0.098325 0.094852
O O6 0.350126 0.250000 0.000000
O O7 0.305536 0.065071 0.964135
O O8 0.596064 0.259227 0.673620
O O9 0.563757 0.083533 0.791431
O O10 0.547088 0.250000 0.000000
O O11 0.750000 0.496816 0.500000
O O12 0.851762 0.518267 0.660025
O O13 0.821676 0.346755 0.536852
O O14 0.767249 0.429257 0.823892
#
# Coordination Sequence:
#
# PCOD9396990 Si02
#       7
#     8   8   8   8   8   4   4
#     4  12  23  41  67  94 133 173 224 275 335 408
#     4  11  22  41  66  95 131 173 218 272 332 399
#     4  11  25  43  66  98 131 176 228 276 339 403
#     4  10  21  41  66  95 129 173 217 272 331 401
#     4  10  24  42  65  96 131 175 216 279 337 398
#     4  10  23  42  66  94 138 172 223 276 336 396
#     4  10  23  40  65  96 134 168 223 270 337 404
#
# _framework density 21.314685000000001
#
# number of rings (size 3 to 8) (size 9 to 14) (size 15 to 20)
#    0.000    1.333    2.500    2.500    0.000    7.333 
#    0.000    0.833    0.000    0.000    0.000    0.000 
#    0.000    0.000    0.000    0.000    0.000    0.000 
#
# Total GULP energy -268164.433383 kJ/mol
# GULP energy per Si atom -5586.759029 kJ/mol
# Density = 2.126617 g / cm^3
# Si number density = 21.314685 Si / 1000 Ang^3
#
#
#
# Elastic Constant Matrix: (Units=GPa)
#
#
# Indices 1 2 3 4 5 6 
#
# 1 68.1006 20.5587 41.9426 0.0000 0.0000 0.0000
# 2 20.5587 85.0600 63.2248 0.0000 0.0000 0.0000
# 3 41.9426 63.2248 173.3775 0.0000 0.0000 0.0000
# 4 0.0000 0.0000 0.0000 40.8164 0.0000 0.0000
# 5 0.0000 0.0000 0.0000 0.0000 33.0084 0.0000
# 6 0.0000 0.0000 0.0000 0.0000 0.0000 0.7626
#
#
#
# Elastic Compliance Matrix: (Units=1/GPa)
#
#
# Indices 1 2 3 4 5 6 
#
# 1 0.017389 -0.001476 -0.003668 0.000000 0.000000 0.000000
# 2 -0.001476 0.016253 -0.005570 0.000000 0.000000 0.000000
# 3 -0.003668 -0.005570 0.008686 0.000000 0.000000 0.000000
# 4 0.000000 0.000000 0.000000 0.024500 0.000000 0.000000
# 5 0.000000 0.000000 0.000000 0.000000 0.030295 0.000000
# 6 0.000000 0.000000 0.000000 0.000000 0.000000 1.311309
#
#
# Mechanical properties :
#
#
# Convention : Reuss Voigt Hill
#
# Bulk Modulus (GPa) = 47.84731 64.22113 56.03422
# Shear Modulus (GPa) = 3.47989 28.30495 15.89242
#
# Velocity S-wave (km/s) = 1.27913 3.64807 2.73355
# Velocity P-wave (km/s) = 4.96773 6.92387 6.02571
#
# Compressibility (1/GPa) = 0.02089982
#
# Stress axis : x y z
#
# Youngs Moduli (GPa) = 57.50722 61.52602 115.12325
#
# Poissons Ratio (x) = 0.09082 0.42231
# Poissons Ratio (y) = 0.08489 0.64122
# Poissons Ratio (z) = 0.21096 0.34269
#
# Static dielectric constant tensor:
#      x y z
#    x 1.765950 0.000000 0.000000 
#    y 0.000000 1.777610 0.000000 
#    z 0.000000 0.000000 1.808110 
# 
# From -- ./inp_files/6623.got.cif
#   From: 2010.05.17/outbox.cif.g08.bks.cpg/sg50_4_cif.got.tgz:6623.got - 2010.06.03 11:33:33.
