data_PCOD9396931
_publ_section_title
;
Structure prediction by ZEFSAII (Michael W. Deem and Ramdas Pophale) SiO2 
 PCOD9396931
Probable space group: P B A N
;
_chemical_formula_sum "Si O2"
_cell_formula_units_Z 56
_cell_length_a 21.389377
_cell_length_b 14.954934
_cell_length_c 7.253936
_cell_angle_alpha 90.000000
_cell_angle_beta 90.000000
_cell_angle_gamma 90.000000
_cell_volume 2320.365264
_symmetry_space_group_name_H-M "P B A N"
_symmetry_group_IT_number 50
_space_group.IT_coordinate_system_code '2'
_symmetry_cell_setting 'orthorhombic'
loop_
_space_group_symop_operation_xyz
x,y,z
1/2-x,1/2-y,z
x,1/2-y,-z
1/2-x,y,-z
-x,-y,-z
1/2+x,1/2+y,-z
-x,1/2+y,z
1/2+x,-y,z
loop_
_atom_site_type_symbol
_atom_site_label
_atom_site_fract_x
_atom_site_fract_y
_atom_site_fract_z
Si Si1 0.631708 0.165811 0.871060
Si Si2 0.700048 0.884837 0.672875
Si Si3 0.141166 0.474409 0.641939
Si Si4 0.453276 0.941801 0.879430
Si Si5 0.132940 0.280680 0.719790
Si Si6 0.243182 0.567700 0.208557
Si Si7 0.993282 0.253172 0.280218
O O1 0.686065 0.132541 0.733482
O O2 0.566865 0.195940 0.777701
O O3 0.650773 0.250000 0.000000
O O4 0.608123 0.084572 0.000574
O O5 0.750000 0.868226 0.500000
O O6 0.643769 0.935563 0.563666
O O7 0.678788 0.797997 0.782892
O O8 0.721885 0.965167 0.798492
O O9 0.074062 0.506853 0.703940
O O10 0.154396 0.381751 0.752806
O O11 0.193376 0.551763 0.674547
O O12 0.482973 0.850475 0.806787
O O13 0.500000 0.000000 0.000000
O O14 0.132931 0.250000 0.500000
O O15 0.061645 0.277595 0.783999
O O16 0.250000 0.600142 0.000000
O O17 0.994611 0.250000 0.500000
#
# Coordination Sequence:
#
# PCOD9396931 Si02
#       7
#     8   8   8   8   8   8   8
#     4  10  23  43  61  87 128 171 210 271 338 396
#     4   9  21  38  65  92 129 171 212 274 336 408
#     4  10  21  40  61  94 127 167 224 271 330 415
#     4  11  23  40  65  93 131 170 218 274 342 408
#     4   9  19  39  62  92 130 167 207 267 340 396
#     4  11  22  39  62  91 126 164 226 268 338 395
#     4  10  23  42  65  96 129 173 229 277 338 418
#
# _framework density 24.134129999999999
#
# number of rings (size 3 to 8) (size 9 to 14) (size 15 to 20)
#    0.000    2.000    1.429    0.857    4.000    6.857 
#    0.000    5.714    0.000    0.857    0.000    0.000 
#    0.000    0.000    0.000    0.000    0.000    0.000 
#
# Total GULP energy -312277.979686 kJ/mol
# GULP energy per Si atom -5576.392494 kJ/mol
# Density = 2.407920 g / cm^3
# Si number density = 24.134130 Si / 1000 Ang^3
#
#
#
# Elastic Constant Matrix: (Units=GPa)
#
#
# Indices 1 2 3 4 5 6 
#
# 1 129.3880 62.0364 18.0344 0.0000 0.0000 0.0000
# 2 62.0364 64.9046 7.6515 0.0000 0.0000 0.0000
# 3 18.0344 7.6515 53.2042 0.0000 0.0000 0.0000
# 4 0.0000 0.0000 0.0000 25.2202 0.0000 0.0000
# 5 0.0000 0.0000 0.0000 0.0000 24.4256 0.0000
# 6 0.0000 0.0000 0.0000 0.0000 0.0000 50.2778
#
#
#
# Elastic Compliance Matrix: (Units=1/GPa)
#
#
# Indices 1 2 3 4 5 6 
#
# 1 0.014729 -0.013722 -0.003019 0.000000 0.000000 0.000000
# 2 -0.013722 0.028457 0.000559 0.000000 0.000000 0.000000
# 3 -0.003019 0.000559 0.019739 0.000000 0.000000 0.000000
# 4 0.000000 0.000000 0.000000 0.039651 0.000000 0.000000
# 5 0.000000 0.000000 0.000000 0.000000 0.040941 0.000000
# 6 0.000000 0.000000 0.000000 0.000000 0.000000 0.019890
#
#
# Mechanical properties :
#
#
# Convention : Reuss Voigt Hill
#
# Bulk Modulus (GPa) = 32.72299 46.99347 39.85823
# Shear Modulus (GPa) = 24.27710 30.63635 27.45672
#
# Velocity S-wave (km/s) = 3.17507 3.56676 3.37660
# Velocity P-wave (km/s) = 5.19901 6.03957 5.63498
#
# Compressibility (1/GPa) = 0.03055956
#
# Stress axis : x y z
#
# Youngs Moduli (GPa) = 67.89543 35.14107 50.66237
#
# Poissons Ratio (x) = 0.48220 0.15295
# Poissons Ratio (y) = 0.93164 -0.02831
# Poissons Ratio (z) = 0.20498 -0.01963
#
# Static dielectric constant tensor:
#      x y z
#    x 2.049040 0.000000 0.000000 
#    y 0.000000 2.029420 0.000000 
#    z 0.000000 0.000000 2.006100 
# 
# From -- ./inp_files/15382.got.cif
#   From: 2010.05.17/outbox.cif.g08.bks.cpg/sg50_8_cif.got.tgz:15382.got - 2010.06.03 11:33:33.
