data_PCOD9396740
_publ_section_title
;
Structure prediction by ZEFSAII (Michael W. Deem and Ramdas Pophale) SiO2 
 PCOD9396740
Probable space group: P B A N
;
_chemical_formula_sum "Si O2"
_cell_formula_units_Z 56
_cell_length_a 5.416014
_cell_length_b 15.804024
_cell_length_c 28.879258
_cell_angle_alpha 90.000000
_cell_angle_beta 90.000000
_cell_angle_gamma 90.000000
_cell_volume 2471.914753
_symmetry_space_group_name_H-M "P B A N"
_symmetry_group_IT_number 50
_space_group.IT_coordinate_system_code '2'
_symmetry_cell_setting 'orthorhombic'
loop_
_space_group_symop_operation_xyz
x,y,z
1/2-x,1/2-y,z
x,1/2-y,-z
1/2-x,y,-z
-x,-y,-z
1/2+x,1/2+y,-z
-x,1/2+y,z
1/2+x,-y,z
loop_
_atom_site_type_symbol
_atom_site_label
_atom_site_fract_x
_atom_site_fract_y
_atom_site_fract_z
Si Si1 0.970897 0.055282 0.391159
Si Si2 0.137164 0.034729 0.157356
Si Si3 0.953693 0.445415 0.716749
Si Si4 0.119667 0.526823 0.947746
Si Si5 0.000352 0.803916 0.795177
Si Si6 0.001851 0.217869 0.946598
Si Si7 0.999055 0.152995 0.480339
O O1 0.965578 0.081010 0.337255
O O2 0.989503 0.135195 0.425741
O O3 0.715901 0.002729 0.398939
O O4 0.046695 0.129972 0.163101
O O5 0.410994 0.020852 0.177884
O O6 0.165595 0.005222 0.104597
O O7 0.696117 0.495700 0.723758
O O8 0.967874 0.365728 0.750908
O O9 0.401111 0.534353 0.965948
O O10 0.998529 0.617988 0.946989
O O11 0.250000 0.750000 0.801255
O O12 0.750000 0.750000 0.790116
O O13 0.250000 0.250000 0.923861
O O14 0.750000 0.250000 0.924578
O O15 0.001383 0.250000 0.000000
O O16 0.999026 0.250000 0.500000
O O17 0.750000 0.112980 0.500000
O O18 0.250000 0.114267 0.500000
#
# Coordination Sequence:
#
# PCOD9396740 Si02
#       7
#     8   8   8   8   8   8   8
#     4  10  21  37  60  87 112 152 205 247 291 352
#     4  10  21  41  64  89 122 169 207 245 306 373
#     4  10  21  41  65  88 123 163 203 251 305 371
#     4  10  21  40  63  90 122 165 214 249 307 377
#     4  12  24  40  62  98 127 158 203 254 309 369
#     4  10  21  40  62  91 125 162 207 267 320 353
#     4  10  21  37  53  81 115 155 193 239 310 355
#
# _framework density 22.654501
#
# number of rings (size 3 to 8) (size 9 to 14) (size 15 to 20)
#    0.000    1.714    0.000    4.286    0.000    1.714 
#    5.143   25.714    0.000    0.000    0.000    0.000 
#    0.000    0.000    0.000    0.000    0.000    0.000 
#
# Total GULP energy -312872.923239 kJ/mol
# GULP energy per Si atom -5587.016486 kJ/mol
# Density = 2.260294 g / cm^3
# Si number density = 22.654501 Si / 1000 Ang^3
#
#
#
# Elastic Constant Matrix: (Units=GPa)
#
#
# Indices 1 2 3 4 5 6 
#
# 1 221.6074 40.7048 32.3449 0.0000 0.0000 0.0000
# 2 40.7048 121.1061 44.6434 0.0000 0.0000 0.0000
# 3 32.3449 44.6434 89.9263 0.0000 0.0000 0.0000
# 4 0.0000 0.0000 0.0000 45.4283 0.0000 0.0000
# 5 0.0000 0.0000 0.0000 0.0000 28.7966 0.0000
# 6 0.0000 0.0000 0.0000 0.0000 0.0000 32.2464
#
#
#
# Elastic Compliance Matrix: (Units=1/GPa)
#
#
# Indices 1 2 3 4 5 6 
#
# 1 0.004906 -0.001222 -0.001158 0.000000 0.000000 0.000000
# 2 -0.001222 0.010411 -0.004729 0.000000 0.000000 0.000000
# 3 -0.001158 -0.004729 0.013884 0.000000 0.000000 0.000000
# 4 0.000000 0.000000 0.000000 0.022013 0.000000 0.000000
# 5 0.000000 0.000000 0.000000 0.000000 0.034726 0.000000
# 6 0.000000 0.000000 0.000000 0.000000 0.000000 0.031011
#
#
# Mechanical properties :
#
#
# Convention : Reuss Voigt Hill
#
# Bulk Modulus (GPa) = 66.73981 74.22510 70.48245
# Shear Modulus (GPa) = 36.72030 42.29069 39.50550
#
# Velocity S-wave (km/s) = 4.03039 4.32530 4.18044
# Velocity P-wave (km/s) = 7.15419 7.60127 7.38112
#
# Compressibility (1/GPa) = 0.01498356
#
# Stress axis : x y z
#
# Youngs Moduli (GPa) = 203.83365 96.04997 72.02332
#
# Poissons Ratio (x) = 0.11738 0.08339
# Poissons Ratio (y) = 0.24911 0.34060
# Poissons Ratio (z) = 0.23601 0.45422
#
# Static dielectric constant tensor:
#      x y z
#    x 1.849070 0.000000 0.000000 
#    y 0.000000 1.786100 0.000000 
#    z 0.000000 0.000000 2.000850 
# 
# From -- ./inp_files/32393.got.cif
#   From: 2010.05.17/outbox.cif.g08.bks.cpg/sg50_17_cif.got.tgz:32393.got - 2010.06.03 11:33:33.
