data_PCOD9396669
_publ_section_title
;
Structure prediction by ZEFSAII (Michael W. Deem and Ramdas Pophale) SiO2 
 PCOD9396669
Probable space group: P B A N
;
_chemical_formula_sum "Si O2"
_cell_formula_units_Z 58
_cell_length_a 5.375540
_cell_length_b 29.656681
_cell_length_c 16.291472
_cell_angle_alpha 90.000000
_cell_angle_beta 90.000000
_cell_angle_gamma 90.000000
_cell_volume 2597.197463
_symmetry_space_group_name_H-M "P B A N"
_symmetry_group_IT_number 50
_space_group.IT_coordinate_system_code '2'
_symmetry_cell_setting 'orthorhombic'
loop_
_space_group_symop_operation_xyz
x,y,z
1/2-x,1/2-y,z
x,1/2-y,-z
1/2-x,y,-z
-x,-y,-z
1/2+x,1/2+y,-z
-x,1/2+y,z
1/2+x,-y,z
loop_
_atom_site_type_symbol
_atom_site_label
_atom_site_fract_x
_atom_site_fract_y
_atom_site_fract_z
Si Si1 0.071339 0.876732 0.703290
Si Si2 0.250000 0.250000 0.000000
Si Si3 0.325979 0.199617 0.279148
Si Si4 0.597774 0.976293 0.102049
Si Si5 0.175715 0.801110 0.405978
Si Si6 0.908524 0.119644 0.110733
Si Si7 0.435107 0.173341 0.109939
Si Si8 0.400176 0.474520 0.302271
O O1 0.867522 0.840019 0.726610
O O2 0.231475 0.846290 0.640836
O O3 0.171291 0.890335 0.793257
O O4 0.957081 0.923275 0.669601
O O5 0.415876 0.281791 0.943052
O O6 0.250000 0.250000 0.259227
O O7 0.394087 0.199165 0.375481
O O8 0.507367 0.187272 0.203754
O O9 0.498180 0.927732 0.075400
O O10 0.607351 0.974931 0.202467
O O11 0.879818 0.988596 0.078773
O O12 0.250000 0.750000 0.375501
O O13 0.250000 0.803335 0.500000
O O14 0.653522 0.141278 0.079022
O O15 0.157685 0.150986 0.105227
O O16 0.132987 0.494200 0.328527
#
# Coordination Sequence:
#
# PCOD9396669 Si02
#       8
#     8   2   8   8   8   8   8   8
#     4  10  21  35  60  86 122 167 208 260 319 383
#     4  12  28  46  64  98 128 180 216 274 324 386
#     4  11  21  39  61  88 122 167 210 264 318 393
#     4   9  16  29  53  88 125 154 200 261 317 371
#     4  11  23  38  58  88 123 161 209 263 318 385
#     4  10  21  37  61  92 125 170 210 262 319 382
#     4  11  24  40  63  90 128 167 214 260 317 381
#     4   9  19  32  53  85 120 157 204 263 313 366
#
# _framework density 22.331765999999998
#
# number of rings (size 3 to 8) (size 9 to 14) (size 15 to 20)
#    0.000    1.793    3.448    0.828    1.931    5.517 
#    0.000    0.000    0.000    0.828    0.000    9.655 
#    0.000    0.000    0.000    0.000    0.000    0.000 
#
# Total GULP energy -323118.631854 kJ/mol
# GULP energy per Si atom -5571.010894 kJ/mol
# Density = 2.228094 g / cm^3
# Si number density = 22.331766 Si / 1000 Ang^3
#
#
#
# Elastic Constant Matrix: (Units=GPa)
#
#
# Indices 1 2 3 4 5 6 
#
# 1 88.9586 35.5709 10.8941 0.0000 0.0000 0.0000
# 2 35.5709 137.6428 5.2147 0.0000 0.0000 0.0000
# 3 10.8941 5.2147 52.5899 0.0000 0.0000 0.0000
# 4 0.0000 0.0000 0.0000 25.1234 0.0000 0.0000
# 5 0.0000 0.0000 0.0000 0.0000 24.0217 0.0000
# 6 0.0000 0.0000 0.0000 0.0000 0.0000 28.1205
#
#
#
# Elastic Compliance Matrix: (Units=1/GPa)
#
#
# Indices 1 2 3 4 5 6 
#
# 1 0.012816 -0.003224 -0.002335 0.000000 0.000000 0.000000
# 2 -0.003224 0.008103 -0.000136 0.000000 0.000000 0.000000
# 3 -0.002335 -0.000136 0.019512 0.000000 0.000000 0.000000
# 4 0.000000 0.000000 0.000000 0.039804 0.000000 0.000000
# 5 0.000000 0.000000 0.000000 0.000000 0.041629 0.000000
# 6 0.000000 0.000000 0.000000 0.000000 0.000000 0.035561
#
#
# Mechanical properties :
#
#
# Convention : Reuss Voigt Hill
#
# Bulk Modulus (GPa) = 34.43210 42.50562 38.46886
# Shear Modulus (GPa) = 28.01190 30.62057 29.31623
#
# Velocity S-wave (km/s) = 3.54553 3.70694 3.62713
# Velocity P-wave (km/s) = 5.67564 6.11530 5.89957
#
# Compressibility (1/GPa) = 0.02904266
#
# Stress axis : x y z
#
# Youngs Moduli (GPa) = 78.02656 123.40504 51.24977
#
# Poissons Ratio (x) = 0.39781 0.11968
# Poissons Ratio (y) = 0.25153 0.00696
# Poissons Ratio (z) = 0.18221 0.01675
#
# Static dielectric constant tensor:
#      x y z
#    x 1.886700 0.000000 0.000000 
#    y 0.000000 1.810100 0.000000 
#    z 0.000000 0.000000 1.992330 
# 
# From -- ./inp_files/28384.got.cif
#   From: 2010.05.17/outbox.cif.g08.bks.cpg/sg50_15_cif.got.tgz:28384.got - 2010.06.03 11:33:33.
