data_PCOD9396039
_publ_section_title
;
Structure prediction by ZEFSAII (Michael W. Deem and Ramdas Pophale) SiO2 
 PCOD9396039
Probable space group: P B A N
;
_chemical_formula_sum "Si O2"
_cell_formula_units_Z 44
_cell_length_a 14.090577
_cell_length_b 19.099140
_cell_length_c 7.598431
_cell_angle_alpha 90.000000
_cell_angle_beta 90.000000
_cell_angle_gamma 90.000000
_cell_volume 2044.873815
_symmetry_space_group_name_H-M "P B A N"
_symmetry_group_IT_number 50
_space_group.IT_coordinate_system_code '2'
_symmetry_cell_setting 'orthorhombic'
loop_
_space_group_symop_operation_xyz
x,y,z
1/2-x,1/2-y,z
x,1/2-y,-z
1/2-x,y,-z
-x,-y,-z
1/2+x,1/2+y,-z
-x,1/2+y,z
1/2+x,-y,z
loop_
_atom_site_type_symbol
_atom_site_label
_atom_site_fract_x
_atom_site_fract_y
_atom_site_fract_z
Si Si1 0.200934 0.637660 0.761281
Si Si2 0.368345 0.008258 0.861031
Si Si3 0.897590 0.377321 0.603231
Si Si4 0.112746 0.371049 0.589847
Si Si5 0.250000 0.750000 0.000000
Si Si6 0.750000 0.750000 0.500000
Si Si7 0.582719 0.967622 0.746368
O O1 0.195481 0.559713 0.835133
O O2 0.132093 0.639136 0.595267
O O3 0.190208 0.846582 0.709844
O O4 0.180315 0.697900 0.896683
O O5 0.472809 0.978562 0.804378
O O6 0.348341 0.069516 0.721916
O O7 0.367611 0.035042 0.062359
O O8 0.894219 0.460779 0.640820
O O9 0.004076 0.354346 0.643744
O O10 0.179450 0.303788 0.597535
O O11 0.103404 0.405671 0.393053
#
# Coordination Sequence:
#
# PCOD9396039 Si02
#       7
#     8   8   8   8   2   2   8
#     4  11  22  40  63 106 133 187 213 288 352 437
#     4  10  20  39  73 103 139 178 240 277 352 420
#     4  10  21  40  74  94 136 179 236 275 360 409
#     4  11  23  48  64 102 136 187 234 301 339 430
#     4  12  28  38  52 104 160 154 236 276 362 448
#     4  12  32  44  74  94 140 196 248 284 382 414
#     4  10  19  38  71 108 133 179 226 301 332 420
#
# _framework density 21.517219000000001
#
# number of rings (size 3 to 8) (size 9 to 14) (size 15 to 20)
#    0.000    1.455    3.636    2.182    2.545    2.909 
#    0.000    1.818    0.000    0.000    0.000    0.000 
#    0.000    0.000    0.000    0.000    0.000    0.000 
#
# Total GULP energy -245719.864185 kJ/mol
# GULP energy per Si atom -5584.542368 kJ/mol
# Density = 2.146824 g / cm^3
# Si number density = 21.517219 Si / 1000 Ang^3
#
#
#
# Elastic Constant Matrix: (Units=GPa)
#
#
# Indices 1 2 3 4 5 6 
#
# 1 76.3494 50.9984 18.1648 0.0000 0.0000 0.0000
# 2 50.9984 116.5762 63.5713 0.0000 0.0000 0.0000
# 3 18.1648 63.5713 139.5408 0.0000 0.0000 0.0000
# 4 0.0000 0.0000 0.0000 29.6232 0.0000 0.0000
# 5 0.0000 0.0000 0.0000 0.0000 12.6010 0.0000
# 6 0.0000 0.0000 0.0000 0.0000 0.0000 30.0466
#
#
#
# Elastic Compliance Matrix: (Units=1/GPa)
#
#
# Indices 1 2 3 4 5 6 
#
# 1 0.018814 -0.009174 0.001730 0.000000 0.000000 0.000000
# 2 -0.009174 0.015887 -0.006044 0.000000 0.000000 0.000000
# 3 0.001730 -0.006044 0.009694 0.000000 0.000000 0.000000
# 4 0.000000 0.000000 0.000000 0.033757 0.000000 0.000000
# 5 0.000000 0.000000 0.000000 0.000000 0.079359 0.000000
# 6 0.000000 0.000000 0.000000 0.000000 0.000000 0.033282
#
#
# Mechanical properties :
#
#
# Convention : Reuss Voigt Hill
#
# Bulk Modulus (GPa) = 57.40223 66.43727 61.91975
# Shear Modulus (GPa) = 22.36392 27.76964 25.06678
#
# Velocity S-wave (km/s) = 3.22739 3.59636 3.41686
# Velocity P-wave (km/s) = 6.37364 6.94179 6.66377
#
# Compressibility (1/GPa) = 0.01742093
#
# Stress axis : x y z
#
# Youngs Moduli (GPa) = 53.15211 62.94409 103.15240
#
# Poissons Ratio (x) = 0.57746 -0.17849
# Poissons Ratio (y) = 0.48762 0.62340
# Poissons Ratio (z) = -0.09197 0.38040
#
# Static dielectric constant tensor:
#      x y z
#    x 1.941690 0.000000 0.000000 
#    y 0.000000 1.771600 0.000000 
#    z 0.000000 0.000000 1.828910 
# 
# From -- ./inp_files/14166.got.cif
#   From: 2010.05.17/outbox.cif.g08.bks.cpg/sg50_8_cif.got.tgz:14166.got - 2010.06.03 11:33:33.
