data_PCOD9396151
_publ_section_title
;
Structure prediction by ZEFSAII (Michael W. Deem and Ramdas Pophale) SiO2 
 PCOD9396151
Probable space group: P B A N
;
_chemical_formula_sum "Si O2"
_cell_formula_units_Z 56
_cell_length_a 22.336544
_cell_length_b 25.763256
_cell_length_c 5.160330
_cell_angle_alpha 90.000000
_cell_angle_beta 90.000000
_cell_angle_gamma 90.000000
_cell_volume 2969.574345
_symmetry_space_group_name_H-M "P B A N"
_symmetry_group_IT_number 50
_space_group.IT_coordinate_system_code '2'
_symmetry_cell_setting 'orthorhombic'
loop_
_space_group_symop_operation_xyz
x,y,z
1/2-x,1/2-y,z
x,1/2-y,-z
1/2-x,y,-z
-x,-y,-z
1/2+x,1/2+y,-z
-x,1/2+y,z
1/2+x,-y,z
loop_
_atom_site_type_symbol
_atom_site_label
_atom_site_fract_x
_atom_site_fract_y
_atom_site_fract_z
Si Si1 0.490301 0.866725 0.460277
Si Si2 0.188413 0.076309 0.359334
Si Si3 0.572699 0.547173 0.305332
Si Si4 0.113354 0.563177 0.349244
Si Si5 0.903907 0.872316 0.937960
Si Si6 0.810612 0.461031 0.147573
Si Si7 0.050881 0.215554 0.744405
O O1 0.518718 0.916684 0.603405
O O2 0.425870 0.885021 0.366734
O O3 0.540156 0.856052 0.240333
O O4 0.492931 0.816667 0.645246
O O5 0.250000 0.088505 0.500000
O O6 0.135177 0.064302 0.561941
O O7 0.160468 0.122672 0.191539
O O8 0.197246 0.022603 0.201150
O O9 0.569661 0.487101 0.368957
O O10 0.580938 0.567726 0.013217
O O11 0.164258 0.560076 0.575065
O O12 0.140475 0.553467 0.066480
O O13 0.904932 0.831499 0.172517
O O14 0.750000 0.443133 0.000000
O O15 0.071382 0.250000 0.500000
O O16 0.041942 0.250000 0.000000
#
# Coordination Sequence:
#
# PCOD9396151 Si02
#       7
#     8   8   8   8   8   8   8
#     4  10  22  35  58  88 117 150 194 234 298 366
#     4  10  20  34  55  82 119 158 212 249 273 333
#     4   9  19  34  49  84 120 156 190 234 286 340
#     4  11  22  35  56  81 122 163 193 238 276 336
#     4  10  20  36  57  88 120 148 203 238 306 360
#     4  11  22  37  53  80 121 169 205 230 271 325
#     4  11  22  40  62  83 117 150 184 248 317 377
#
# _framework density 18.857923
#
# number of rings (size 3 to 8) (size 9 to 14) (size 15 to 20)
#    0.000    1.714    2.857    2.571    4.000    0.571 
#    0.000    0.000    0.000    0.000    0.000   29.000 
#    0.000    8.571    0.000    0.000    0.000    0.000 
#
# Total GULP energy -311827.764816 kJ/mol
# GULP energy per Si atom -5568.352943 kJ/mol
# Density = 1.881500 g / cm^3
# Si number density = 18.857923 Si / 1000 Ang^3
#
#
#
# Elastic Constant Matrix: (Units=GPa)
#
#
# Indices 1 2 3 4 5 6 
#
# 1 56.5809 37.6276 20.1401 0.0000 0.0000 0.0000
# 2 37.6276 69.3521 37.2636 0.0000 0.0000 0.0000
# 3 20.1401 37.2636 93.0123 0.0000 0.0000 0.0000
# 4 0.0000 0.0000 0.0000 -1.8147 0.0000 0.0000
# 5 0.0000 0.0000 0.0000 0.0000 -2.3817 0.0000
# 6 0.0000 0.0000 0.0000 0.0000 0.0000 -4.1913
#
#
#
# Elastic Compliance Matrix: (Units=1/GPa)
#
#
# Indices 1 2 3 4 5 6 
#
# 1 0.027651 -0.015018 0.000029 0.000000 0.000000 0.000000
# 2 -0.015018 0.026531 -0.007377 0.000000 0.000000 0.000000
# 3 0.000029 -0.007377 0.013701 0.000000 0.000000 0.000000
# 4 0.000000 0.000000 0.000000 -0.551066 0.000000 0.000000
# 5 0.000000 0.000000 0.000000 0.000000 -0.419872 0.000000
# 6 0.000000 0.000000 0.000000 0.000000 0.000000 -0.238592
#
#
# Mechanical properties :
#
#
# Convention : Reuss Voigt Hill
#
# Bulk Modulus (GPa) = 43.19546 45.44534 44.32040
# Shear Modulus (GPa) = -4.59053 6.58342 0.99644
#
# Velocity S-wave (km/s) = -1.56191 1.87047 0.72770
# Velocity P-wave (km/s) = 4.43877 5.36805 4.92538
#
# Compressibility (1/GPa) = 0.02315058
#
# Stress axis : x y z
#
# Youngs Moduli (GPa) = 36.16568 37.69152 72.99000
#
# Poissons Ratio (x) = 0.56604 -0.00215
# Poissons Ratio (y) = 0.54313 0.53847
# Poissons Ratio (z) = -0.00106 0.27806
#
# Static dielectric constant tensor:
#      x y z
#    x 1.670580 0.000000 0.000000 
#    y 0.000000 1.677180 0.000000 
#    z 0.000000 0.000000 1.794370 
# 
# From -- ./inp_files/5424.got.cif
#   From: 2010.05.17/outbox.cif.g08.bks.cpg/sg50_3_cif.got.tgz:5424.got - 2010.06.03 11:33:33.
