data_PCOD9396673
_publ_section_title
;
Structure prediction by ZEFSAII (Michael W. Deem and Ramdas Pophale) SiO2 
 PCOD9396673
Probable space group: P B A N
;
_chemical_formula_sum "Si O2"
_cell_formula_units_Z 56
_cell_length_a 15.310455
_cell_length_b 18.723747
_cell_length_c 9.438345
_cell_angle_alpha 90.000000
_cell_angle_beta 90.000000
_cell_angle_gamma 90.000000
_cell_volume 2705.681733
_symmetry_space_group_name_H-M "P B A N"
_symmetry_group_IT_number 50
_space_group.IT_coordinate_system_code '2'
_symmetry_cell_setting 'orthorhombic'
loop_
_space_group_symop_operation_xyz
x,y,z
1/2-x,1/2-y,z
x,1/2-y,-z
1/2-x,y,-z
-x,-y,-z
1/2+x,1/2+y,-z
-x,1/2+y,z
1/2+x,-y,z
loop_
_atom_site_type_symbol
_atom_site_label
_atom_site_fract_x
_atom_site_fract_y
_atom_site_fract_z
Si Si1 0.314947 0.932049 0.129418
Si Si2 0.388514 0.436842 0.438737
Si Si3 0.990531 0.416864 0.027781
Si Si4 0.456310 0.904903 0.637810
Si Si5 0.217614 0.081138 0.722210
Si Si6 0.721749 0.173450 0.339059
Si Si7 0.157169 0.331230 0.050081
O O1 0.274888 0.887312 0.257491
O O2 0.309228 0.015211 0.175046
O O3 0.250000 0.923599 0.000000
O O4 0.406039 0.901142 0.069191
O O5 0.417573 0.515824 0.391236
O O6 0.473775 0.396400 0.507609
O O7 0.329017 0.441012 0.577594
O O8 0.320799 0.409768 0.316266
O O9 0.986663 0.407339 0.198039
O O10 0.075089 0.372021 0.986595
O O11 0.000000 0.500000 0.000000
O O12 0.380211 0.846120 0.649862
O O13 0.171068 0.152391 0.783235
O O14 0.750000 0.250000 0.276059
O O15 0.750000 0.173211 0.500000
O O16 0.152222 0.250000 0.000000
O O17 0.250000 0.361690 0.000000
#
# Coordination Sequence:
#
# PCOD9396673 Si02
#       7
#     8   8   8   8   8   8   8
#     4  12  22  39  67 103 142 182 230 296 348 438
#     4  10  21  35  70 104 134 177 228 314 350 427
#     4  12  24  40  69 107 137 178 240 297 361 435
#     4  11  21  40  64 106 142 174 237 295 361 428
#     4  11  20  40  68 101 135 178 238 291 371 416
#     4  11  25  44  64  92 144 196 230 276 361 444
#     4  11  26  46  67  92 136 189 238 302 370 427
#
# _framework density 20.697187
#
# number of rings (size 3 to 8) (size 9 to 14) (size 15 to 20)
#    0.000    0.857    5.714    1.286    2.000    2.571 
#    0.000    0.000    3.143    6.857    0.000    0.000 
#    0.000    0.000    0.000    0.000    0.000    0.000 
#
# Total GULP energy -311928.283338 kJ/mol
# GULP energy per Si atom -5570.147917 kJ/mol
# Density = 2.065008 g / cm^3
# Si number density = 20.697187 Si / 1000 Ang^3
#
#
#
# Elastic Constant Matrix: (Units=GPa)
#
#
# Indices 1 2 3 4 5 6 
#
# 1 172.8942 56.0034 42.6227 0.0000 0.0000 0.0000
# 2 56.0034 102.0561 29.3997 0.0000 0.0000 0.0000
# 3 42.6227 29.3997 77.7597 0.0000 0.0000 0.0000
# 4 0.0000 0.0000 0.0000 22.4285 0.0000 0.0000
# 5 0.0000 0.0000 0.0000 0.0000 37.8582 0.0000
# 6 0.0000 0.0000 0.0000 0.0000 0.0000 -36.7741
#
#
#
# Elastic Compliance Matrix: (Units=1/GPa)
#
#
# Indices 1 2 3 4 5 6 
#
# 1 0.007574 -0.003322 -0.002895 0.000000 0.000000 0.000000
# 2 -0.003322 0.012453 -0.002887 0.000000 0.000000 0.000000
# 3 -0.002895 -0.002887 0.015539 0.000000 0.000000 0.000000
# 4 0.000000 0.000000 0.000000 0.044586 0.000000 0.000000
# 5 0.000000 0.000000 0.000000 0.000000 0.026414 0.000000
# 6 0.000000 0.000000 0.000000 0.000000 0.000000 -0.027193
#
#
# Mechanical properties :
#
#
# Convention : Reuss Voigt Hill
#
# Bulk Modulus (GPa) = 57.61652 67.64018 62.62835
# Shear Modulus (GPa) = 48.37064 19.68147 34.02606
#
# Velocity S-wave (km/s) = 4.83956 3.08705 4.05902
# Velocity P-wave (km/s) = 7.68939 6.74228 7.23136
#
# Compressibility (1/GPa) = 0.01735613
#
# Stress axis : x y z
#
# Youngs Moduli (GPa) = 132.03531 80.30002 64.35449
#
# Poissons Ratio (x) = 0.26676 0.18633
# Poissons Ratio (y) = 0.43862 0.18582
# Poissons Ratio (z) = 0.38230 0.23187
#
# Static dielectric constant tensor:
#      x y z
#    x 1.814400 0.000000 0.000000 
#    y 0.000000 1.769000 0.000000 
#    z 0.000000 0.000000 2.124540 
# 
# From -- ./inp_files/13279.got.cif
#   From: 2010.05.17/outbox.cif.g08.bks.cpg/sg50_7_cif.got.tgz:13279.got - 2010.06.03 11:33:33.
