data_PCOD9396117
_publ_section_title
;
Structure prediction by ZEFSAII (Michael W. Deem and Ramdas Pophale) SiO2 
 PCOD9396117
Probable space group: P B A N
;
_chemical_formula_sum "Si O2"
_cell_formula_units_Z 48
_cell_length_a 7.337376
_cell_length_b 14.214633
_cell_length_c 18.749750
_cell_angle_alpha 90.000000
_cell_angle_beta 90.000000
_cell_angle_gamma 90.000000
_cell_volume 1955.563432
_symmetry_space_group_name_H-M "P B A N"
_symmetry_group_IT_number 50
_space_group.IT_coordinate_system_code '2'
_symmetry_cell_setting 'orthorhombic'
loop_
_space_group_symop_operation_xyz
x,y,z
1/2-x,1/2-y,z
x,1/2-y,-z
1/2-x,y,-z
-x,-y,-z
1/2+x,1/2+y,-z
-x,1/2+y,z
1/2+x,-y,z
loop_
_atom_site_type_symbol
_atom_site_label
_atom_site_fract_x
_atom_site_fract_y
_atom_site_fract_z
Si Si1 0.980088 0.322290 0.278608
Si Si2 0.415264 0.090149 0.580543
Si Si3 0.987667 0.371398 0.435768
Si Si4 0.379328 0.440144 0.945212
Si Si5 0.640811 0.056804 0.164179
Si Si6 0.604893 0.618240 0.739369
O O1 0.929340 0.320222 0.362719
O O2 0.173796 0.378141 0.270899
O O3 0.032158 0.221976 0.246153
O O4 0.830019 0.375783 0.231500
O O5 0.531545 0.146989 0.521133
O O6 0.208244 0.126254 0.573593
O O7 0.475967 0.097093 0.661546
O O8 0.414779 0.978443 0.567523
O O9 0.498128 0.387489 0.886562
O O10 0.277647 0.515735 0.894448
O O11 0.250000 0.385290 0.000000
O O12 0.500000 0.500000 0.000000
O O13 0.568687 0.961532 0.202943
#
# Coordination Sequence:
#
# PCOD9396117 Si02
#       6
#     8   8   8   8   8   8
#     4  10  20  33  54  85 115 153 197 238 288 344
#     4   9  17  30  50  75 109 151 195 244 288 337
#     4   9  17  30  50  75 109 150 197 243 290 332
#     4   9  20  36  62  90 110 145 184 217 286 362
#     4  11  18  36  61  84 117 147 184 240 285 341
#     4  10  20  33  54  85 115 152 197 236 293 341
#
# _framework density 24.545355000000001
#
# number of rings (size 3 to 8) (size 9 to 14) (size 15 to 20)
#    0.000    2.333    3.333    0.000    0.000    0.667 
#    0.000    4.167    0.000   15.000    0.000    4.667 
#    0.000    0.000    0.000    0.000    0.000    0.000 
#
# Total GULP energy -267502.442128 kJ/mol
# GULP energy per Si atom -5572.967544 kJ/mol
# Density = 2.448949 g / cm^3
# Si number density = 24.545355 Si / 1000 Ang^3
#
#
#
# Elastic Constant Matrix: (Units=GPa)
#
#
# Indices 1 2 3 4 5 6 
#
# 1 39.4904 13.3684 51.9126 0.0000 0.0000 0.0000
# 2 13.3684 60.4688 38.9237 0.0000 0.0000 0.0000
# 3 51.9126 38.9237 218.1641 0.0000 0.0000 0.0000
# 4 0.0000 0.0000 0.0000 8.1305 0.0000 0.0000
# 5 0.0000 0.0000 0.0000 0.0000 39.9822 0.0000
# 6 0.0000 0.0000 0.0000 0.0000 0.0000 20.0574
#
#
#
# Elastic Compliance Matrix: (Units=1/GPa)
#
#
# Indices 1 2 3 4 5 6 
#
# 1 0.037282 -0.002860 -0.008361 0.000000 0.000000 0.000000
# 2 -0.002860 0.018903 -0.002692 0.000000 0.000000 0.000000
# 3 -0.008361 -0.002692 0.007053 0.000000 0.000000 0.000000
# 4 0.000000 0.000000 0.000000 0.122993 0.000000 0.000000
# 5 0.000000 0.000000 0.000000 0.000000 0.025011 0.000000
# 6 0.000000 0.000000 0.000000 0.000000 0.000000 0.049857
#
#
# Mechanical properties :
#
#
# Convention : Reuss Voigt Hill
#
# Bulk Modulus (GPa) = 28.23932 58.50362 43.37147
# Shear Modulus (GPa) = 16.62622 27.89525 22.26074
#
# Velocity S-wave (km/s) = 2.60545 3.37483 3.01478
# Velocity P-wave (km/s) = 4.53664 6.25081 5.46140
#
# Compressibility (1/GPa) = 0.03541161
#
# Stress axis : x y z
#
# Youngs Moduli (GPa) = 26.82265 52.90287 141.77383
#
# Poissons Ratio (x) = 0.15132 1.18537
# Poissons Ratio (y) = 0.07672 0.38164
# Poissons Ratio (z) = 0.22426 0.14241
#
# Static dielectric constant tensor:
#      x y z
#    x 2.136080 0.000000 0.000000 
#    y 0.000000 1.894600 0.000000 
#    z 0.000000 0.000000 1.927820 
# 
# From -- ./inp_files/28713.got.cif
#   From: 2010.05.17/outbox.cif.g08.bks.cpg/sg50_15_cif.got.tgz:28713.got - 2010.06.03 11:33:33.
