data_PCOD9396722
_publ_section_title
;
Structure prediction by ZEFSAII (Michael W. Deem and Ramdas Pophale) SiO2 
 PCOD9396722
Probable space group: P B A N
;
_chemical_formula_sum "Si O2"
_cell_formula_units_Z 48
_cell_length_a 29.234317
_cell_length_b 9.140430
_cell_length_c 7.908661
_cell_angle_alpha 90.000000
_cell_angle_beta 90.000000
_cell_angle_gamma 90.000000
_cell_volume 2113.306745
_symmetry_space_group_name_H-M "P B A N"
_symmetry_group_IT_number 50
_space_group.IT_coordinate_system_code '2'
_symmetry_cell_setting 'orthorhombic'
loop_
_space_group_symop_operation_xyz
x,y,z
1/2-x,1/2-y,z
x,1/2-y,-z
1/2-x,y,-z
-x,-y,-z
1/2+x,1/2+y,-z
-x,1/2+y,z
1/2+x,-y,z
loop_
_atom_site_type_symbol
_atom_site_label
_atom_site_fract_x
_atom_site_fract_y
_atom_site_fract_z
Si Si1 0.824856 0.887283 0.236958
Si Si2 0.477094 0.121049 0.117910
Si Si3 0.406441 0.947621 0.345480
Si Si4 0.072745 0.635553 0.721032
Si Si5 0.150616 0.059653 0.156282
Si Si6 0.241035 0.587312 0.796871
O O1 0.836158 0.715279 0.239873
O O2 0.858445 0.972159 0.361512
O O3 0.774325 0.954861 0.262483
O O4 0.839767 0.927939 0.044197
O O5 0.521314 0.172484 0.223312
O O6 0.439309 0.050315 0.236264
O O7 0.458614 0.250000 0.000000
O O8 0.500000 0.000000 0.000000
O O9 0.427632 0.914986 0.527340
O O10 0.400839 0.789135 0.259164
O O11 0.100400 0.507465 0.816033
O O12 0.188278 0.949614 0.229658
O O13 0.250000 0.750000 0.728911
O O14 0.250000 0.592075 0.000000
#
# Coordination Sequence:
#
# PCOD9396722 Si02
#       6
#     8   8   8   8   8   8
#     4  10  21  36  61  93 126 164 212 262 314 375
#     4  12  25  44  69  94 123 161 214 265 316 377
#     4  11  25  43  64  90 128 167 210 259 322 384
#     4  11  25  44  62  91 128 169 207 260 322 384
#     4  10  21  36  62  92 127 164 211 263 315 373
#     4   9  17  33  58  91 125 164 209 262 312 367
#
# _framework density 22.713218999999999
#
# number of rings (size 3 to 8) (size 9 to 14) (size 15 to 20)
#    0.000    1.500    1.667    3.000    4.667    4.000 
#    0.000    0.833    0.000    5.000    0.000    0.000 
#    0.000    0.000    0.000    0.000    0.000    0.000 
#
# Total GULP energy -268344.753881 kJ/mol
# GULP energy per Si atom -5590.515706 kJ/mol
# Density = 2.266152 g / cm^3
# Si number density = 22.713219 Si / 1000 Ang^3
#
#
#
# Elastic Constant Matrix: (Units=GPa)
#
#
# Indices 1 2 3 4 5 6 
#
# 1 87.9590 26.1260 11.2983 0.0000 0.0000 0.0000
# 2 26.1260 129.3862 26.2254 0.0000 0.0000 0.0000
# 3 11.2983 26.2254 36.2534 0.0000 0.0000 0.0000
# 4 0.0000 0.0000 0.0000 28.9548 0.0000 0.0000
# 5 0.0000 0.0000 0.0000 0.0000 -1.6767 0.0000
# 6 0.0000 0.0000 0.0000 0.0000 0.0000 39.0636
#
#
#
# Elastic Compliance Matrix: (Units=1/GPa)
#
#
# Indices 1 2 3 4 5 6 
#
# 1 0.012267 -0.001995 -0.002380 0.000000 0.000000 0.000000
# 2 -0.001995 0.009381 -0.006165 0.000000 0.000000 0.000000
# 3 -0.002380 -0.006165 0.032785 0.000000 0.000000 0.000000
# 4 0.000000 0.000000 0.000000 0.034537 0.000000 0.000000
# 5 0.000000 0.000000 0.000000 0.000000 -0.596413 0.000000
# 6 0.000000 0.000000 0.000000 0.000000 0.000000 0.025599
#
#
# Mechanical properties :
#
#
# Convention : Reuss Voigt Hill
#
# Bulk Modulus (GPa) = 29.98111 42.32200 36.15156
# Shear Modulus (GPa) = -11.11981 25.93160 7.40590
#
# Velocity S-wave (km/s) = -2.21503 3.38257 1.80768
# Velocity P-wave (km/s) = 2.58586 5.82489 4.50644
#
# Compressibility (1/GPa) = 0.03335433
#
# Stress axis : x y z
#
# Youngs Moduli (GPa) = 81.51880 106.59795 30.50194
#
# Poissons Ratio (x) = 0.21262 0.07260
# Poissons Ratio (y) = 0.16259 0.18803
# Poissons Ratio (z) = 0.19403 0.65713
#
# Static dielectric constant tensor:
#      x y z
#    x 1.848550 0.000000 0.000000 
#    y 0.000000 1.859000 0.000000 
#    z 0.000000 0.000000 1.876620 
# 
# From -- ./inp_files/16933.got.cif
#   From: 2010.05.17/outbox.cif.g08.bks.cpg/sg50_9_cif.got.tgz:16933.got - 2010.06.03 11:33:33.
