data_PCOD9396394
_publ_section_title
;
Structure prediction by ZEFSAII (Michael W. Deem and Ramdas Pophale) SiO2 
 PCOD9396394
Probable space group: P B A N
;
_chemical_formula_sum "Si O2"
_cell_formula_units_Z 32
_cell_length_a 20.568959
_cell_length_b 6.161694
_cell_length_c 10.038044
_cell_angle_alpha 90.000000
_cell_angle_beta 90.000000
_cell_angle_gamma 90.000000
_cell_volume 1272.217995
_symmetry_space_group_name_H-M "P B A N"
_symmetry_group_IT_number 50
_space_group.IT_coordinate_system_code '2'
_symmetry_cell_setting 'orthorhombic'
loop_
_space_group_symop_operation_xyz
x,y,z
1/2-x,1/2-y,z
x,1/2-y,-z
1/2-x,y,-z
-x,-y,-z
1/2+x,1/2+y,-z
-x,1/2+y,z
1/2+x,-y,z
loop_
_atom_site_type_symbol
_atom_site_label
_atom_site_fract_x
_atom_site_fract_y
_atom_site_fract_z
Si Si1 0.432941 0.870023 0.379395
Si Si2 0.656485 0.250000 0.000000
Si Si3 0.153086 0.250000 0.500000
Si Si4 0.690219 0.095543 0.286550
Si Si5 0.472653 0.607270 0.897713
O O1 0.467149 0.750000 0.500000
O O2 0.377413 0.703962 0.328497
O O3 0.481586 0.902651 0.260585
O O4 0.392217 0.077405 0.424315
O O5 0.689802 0.387658 0.878642
O O6 0.605952 0.087334 0.924409
O O7 0.190548 0.380871 0.619899
O O8 0.750000 0.250000 0.326454
O O9 0.509614 0.371884 0.925049
#
# Coordination Sequence:
#
# PCOD9396394 Si02
#       5
#     8   4   4   8   8
#     4   9  20  39  59  89 131 162 209 276 317 380
#     4   8  19  38  60  88 130 164 209 276 326 364
#     4  10  22  37  64  94 128 170 218 248 331 388
#     4  10  20  37  63  92 129 170 210 269 320 388
#     4   9  19  37  62  86 119 164 212 264 327 378
#
# _framework density 25.152923000000001
#
# number of rings (size 3 to 8) (size 9 to 14) (size 15 to 20)
#    0.750    2.000    0.000    0.375    0.000    8.500 
#    0.000    5.000    2.750    6.000    0.000    0.000 
#    0.000    0.000    0.000    0.000    0.000    0.000 
#
# Total GULP energy -178333.623493 kJ/mol
# GULP energy per Si atom -5572.925734 kJ/mol
# Density = 2.509567 g / cm^3
# Si number density = 25.152923 Si / 1000 Ang^3
#
#
#
# Elastic Constant Matrix: (Units=GPa)
#
#
# Indices 1 2 3 4 5 6 
#
# 1 67.0504 49.8945 40.6560 0.0000 0.0000 0.0000
# 2 49.8945 163.5318 119.5613 0.0000 0.0000 0.0000
# 3 40.6560 119.5613 277.6859 0.0000 0.0000 0.0000
# 4 0.0000 0.0000 0.0000 42.3738 0.0000 0.0000
# 5 0.0000 0.0000 0.0000 0.0000 2.6105 0.0000
# 6 0.0000 0.0000 0.0000 0.0000 0.0000 33.3774
#
#
#
# Elastic Compliance Matrix: (Units=1/GPa)
#
#
# Indices 1 2 3 4 5 6 
#
# 1 0.019329 -0.005587 -0.000424 0.000000 0.000000 0.000000
# 2 -0.005587 0.010539 -0.003720 0.000000 0.000000 0.000000
# 3 -0.000424 -0.003720 0.005265 0.000000 0.000000 0.000000
# 4 0.000000 0.000000 0.000000 0.023599 0.000000 0.000000
# 5 0.000000 0.000000 0.000000 0.000000 0.383075 0.000000
# 6 0.000000 0.000000 0.000000 0.000000 0.000000 0.029960
#
#
# Mechanical properties :
#
#
# Convention : Reuss Voigt Hill
#
# Bulk Modulus (GPa) = 63.81355 103.16574 83.48964
# Shear Modulus (GPa) = 10.07142 35.54942 22.81042
#
# Velocity S-wave (km/s) = 2.00319 3.76351 3.01469
# Velocity P-wave (km/s) = 5.54758 7.74531 6.73667
#
# Compressibility (1/GPa) = 0.01567065
#
# Stress axis : x y z
#
# Youngs Moduli (GPa) = 51.73563 94.88264 189.93569
#
# Poissons Ratio (x) = 0.53012 0.08060
# Poissons Ratio (y) = 0.28906 0.70653
# Poissons Ratio (z) = 0.02195 0.35295
#
# Static dielectric constant tensor:
#      x y z
#    x 1.905990 0.000000 0.000000 
#    y 0.000000 2.004850 0.000000 
#    z 0.000000 0.000000 2.181940 
# 
# From -- ./inp_files/22590.got.cif
#   From: 2010.05.17/outbox.cif.g08.bks.cpg/sg50_12_cif.got.tgz:22590.got - 2010.06.03 11:33:33.
