data_PCOD9396056
_publ_section_title
;
Structure prediction by ZEFSAII (Michael W. Deem and Ramdas Pophale) SiO2 
 PCOD9396056
Probable space group: P B A N
;
_chemical_formula_sum "Si O2"
_cell_formula_units_Z 48
_cell_length_a 18.386153
_cell_length_b 7.335285
_cell_length_c 13.949696
_cell_angle_alpha 90.000000
_cell_angle_beta 90.000000
_cell_angle_gamma 90.000000
_cell_volume 1881.363029
_symmetry_space_group_name_H-M "P B A N"
_symmetry_group_IT_number 50
_space_group.IT_coordinate_system_code '2'
_symmetry_cell_setting 'orthorhombic'
loop_
_space_group_symop_operation_xyz
x,y,z
1/2-x,1/2-y,z
x,1/2-y,-z
1/2-x,y,-z
-x,-y,-z
1/2+x,1/2+y,-z
-x,1/2+y,z
1/2+x,-y,z
loop_
_atom_site_type_symbol
_atom_site_label
_atom_site_fract_x
_atom_site_fract_y
_atom_site_fract_z
Si Si1 0.963717 0.889227 0.321438
Si Si2 0.750000 0.750000 0.742206
Si Si3 0.326561 0.002152 0.948494
Si Si4 0.750000 0.250000 0.790658
Si Si5 0.128297 0.384739 0.135259
Si Si6 0.117216 0.752775 0.642260
Si Si7 0.141883 0.118374 0.415095
O O1 0.923230 0.055367 0.376274
O O2 0.933163 0.904868 0.213921
O O3 0.932314 0.714761 0.379050
O O4 0.049401 0.860611 0.312045
O O5 0.795322 0.609413 0.806230
O O6 0.804968 0.856686 0.675154
O O7 0.365202 0.175486 0.899999
O O8 0.302642 0.855635 0.869993
O O9 0.250000 0.053589 0.000000
O O10 0.374544 0.978165 0.045650
O O11 0.815232 0.288825 0.712186
O O12 0.140446 0.597131 0.565439
O O13 0.167603 0.250000 0.500000
#
# Coordination Sequence:
#
# PCOD9396056 Si02
#       7
#     8   4   8   4   8   8   8
#     4  11  25  48  74 101 147 201 242 312 384 455
#     4  10  19  41  72 104 144 192 232 303 371 446
#     4  11  20  36  65 106 139 194 249 308 359 435
#     4  12  27  42  74 111 156 186 263 314 364 455
#     4  10  20  39  71  97 145 198 250 296 374 443
#     4  12  27  48  75 112 144 202 249 309 384 459
#     4  11  26  47  76 109 146 189 246 309 389 463
#
# _framework density 25.513418999999999
#
# number of rings (size 3 to 8) (size 9 to 14) (size 15 to 20)
#    0.000    1.000    3.333    4.000    7.000    1.333 
#    0.000    0.833    7.333    0.000    0.000    0.000 
#    0.000    0.000    0.000    0.000    0.000    0.000 
#
# Total GULP energy -267513.939844 kJ/mol
# GULP energy per Si atom -5573.207080 kJ/mol
# Density = 2.545535 g / cm^3
# Si number density = 25.513419 Si / 1000 Ang^3
#
#
#
# Elastic Constant Matrix: (Units=GPa)
#
#
# Indices 1 2 3 4 5 6 
#
# 1 100.3693 11.3903 13.1300 0.0000 0.0000 0.0000
# 2 11.3903 159.3791 26.8332 0.0000 0.0000 0.0000
# 3 13.1300 26.8332 88.9734 0.0000 0.0000 0.0000
# 4 0.0000 0.0000 0.0000 26.1246 0.0000 0.0000
# 5 0.0000 0.0000 0.0000 0.0000 -4.5258 0.0000
# 6 0.0000 0.0000 0.0000 0.0000 0.0000 6.5334
#
#
#
# Elastic Compliance Matrix: (Units=1/GPa)
#
#
# Indices 1 2 3 4 5 6 
#
# 1 0.010197 -0.000501 -0.001354 0.000000 0.000000 0.000000
# 2 -0.000501 0.006635 -0.001927 0.000000 0.000000 0.000000
# 3 -0.001354 -0.001927 0.012020 0.000000 0.000000 0.000000
# 4 0.000000 0.000000 0.000000 0.038278 0.000000 0.000000
# 5 0.000000 0.000000 0.000000 0.000000 -0.220953 0.000000
# 6 0.000000 0.000000 0.000000 0.000000 0.000000 0.153060
#
#
# Mechanical properties :
#
#
# Convention : Reuss Voigt Hill
#
# Bulk Modulus (GPa) = 46.97310 50.15875 48.56593
# Shear Modulus (GPa) = 359.81167 25.45097 192.63132
#
# Velocity S-wave (km/s) = 11.88842 3.16183 8.69861
# Velocity P-wave (km/s) = 14.38392 5.74735 10.95284
#
# Compressibility (1/GPa) = 0.02128878
#
# Stress axis : x y z
#
# Youngs Moduli (GPa) = 98.06670 150.72563 83.19294
#
# Poissons Ratio (x) = 0.07549 0.11262
# Poissons Ratio (y) = 0.04912 0.16031
# Poissons Ratio (z) = 0.13276 0.29045
#
# Static dielectric constant tensor:
#      x y z
#    x 2.029080 0.000000 0.000000 
#    y 0.000000 2.548680 0.000000 
#    z 0.000000 0.000000 2.098050 
# 
# From -- ./inp_files/26899.got.cif
#   From: 2010.05.17/outbox.cif.g08.bks.cpg/sg50_14_cif.got.tgz:26899.got - 2010.06.03 11:33:33.
