data_PCOD9396724
_publ_section_title
;
Structure prediction by ZEFSAII (Michael W. Deem and Ramdas Pophale) SiO2 
 PCOD9396724
Probable space group: P B A N
;
_chemical_formula_sum "Si O2"
_cell_formula_units_Z 32
_cell_length_a 14.225090
_cell_length_b 5.207124
_cell_length_c 20.313721
_cell_angle_alpha 90.000000
_cell_angle_beta 90.000000
_cell_angle_gamma 90.000000
_cell_volume 1504.674032
_symmetry_space_group_name_H-M "P B A N"
_symmetry_group_IT_number 50
_space_group.IT_coordinate_system_code '2'
_symmetry_cell_setting 'orthorhombic'
loop_
_space_group_symop_operation_xyz
x,y,z
1/2-x,1/2-y,z
x,1/2-y,-z
1/2-x,y,-z
-x,-y,-z
1/2+x,1/2+y,-z
-x,1/2+y,z
1/2+x,-y,z
loop_
_atom_site_type_symbol
_atom_site_label
_atom_site_fract_x
_atom_site_fract_y
_atom_site_fract_z
Si Si1 0.063734 0.666191 0.933792
Si Si2 0.687669 0.491212 0.665867
Si Si3 0.935982 0.312272 0.213083
Si Si4 0.604861 0.997679 0.469772
O O1 0.106093 0.684187 0.860985
O O2 0.020249 0.380137 0.935847
O O3 0.118879 0.750000 0.000000
O O4 0.750000 0.250000 0.643581
O O5 0.639065 0.396469 0.732864
O O6 0.610094 0.524138 0.608592
O O7 0.750000 0.750000 0.672836
O O8 0.018103 0.529339 0.219883
O O9 0.651650 0.750000 0.500000
O O10 0.648607 0.250000 0.500000
O O11 0.500000 0.000000 0.500000
#
# Coordination Sequence:
#
# PCOD9396724 Si02
#       4
#     8   8   8   8
#     4   8  14  27  49  83 115 143 190 243 278 318
#     4  12  26  41  61  90 123 154 193 251 309 362
#     4  10  21  36  62  87 117 161 200 239 293 359
#     4  10  23  40  63  85 110 152 197 250 294 362
#
# _framework density 21.267064000000001
#
# number of rings (size 3 to 8) (size 9 to 14) (size 15 to 20)
#    0.000    2.000    0.000    3.000    7.000    3.000 
#    0.000    0.000    0.000    0.750    0.000    1.750 
#    0.000    0.000    0.000    0.000    0.000    0.000 
#
# Total GULP energy -178277.723593 kJ/mol
# GULP energy per Si atom -5571.178862 kJ/mol
# Density = 2.121866 g / cm^3
# Si number density = 21.267064 Si / 1000 Ang^3
#
#
#
# Elastic Constant Matrix: (Units=GPa)
#
#
# Indices 1 2 3 4 5 6 
#
# 1 72.6172 5.5737 40.4941 0.0000 0.0000 0.0000
# 2 5.5737 144.5349 9.0465 0.0000 0.0000 0.0000
# 3 40.4941 9.0465 204.5847 0.0000 0.0000 0.0000
# 4 0.0000 0.0000 0.0000 30.2335 0.0000 0.0000
# 5 0.0000 0.0000 0.0000 0.0000 -23.9501 0.0000
# 6 0.0000 0.0000 0.0000 0.0000 0.0000 -1.9543
#
#
#
# Elastic Compliance Matrix: (Units=1/GPa)
#
#
# Indices 1 2 3 4 5 6 
#
# 1 0.015503 -0.000407 -0.003051 0.000000 0.000000 0.000000
# 2 -0.000407 0.006949 -0.000227 0.000000 0.000000 0.000000
# 3 -0.003051 -0.000227 0.005502 0.000000 0.000000 0.000000
# 4 0.000000 0.000000 0.000000 0.033076 0.000000 0.000000
# 5 0.000000 0.000000 0.000000 0.000000 -0.041753 0.000000
# 6 0.000000 0.000000 0.000000 0.000000 0.000000 -0.511688
#
#
# Mechanical properties :
#
#
# Convention : Reuss Voigt Hill
#
# Bulk Modulus (GPa) = 48.57867 59.10725 53.84296
# Shear Modulus (GPa) = -10.45628 25.30731 7.42552
#
# Velocity S-wave (km/s) = -2.21976 3.45335 1.87060
# Velocity P-wave (km/s) = 4.04005 6.61468 5.48069
#
# Compressibility (1/GPa) = 0.02058517
#
# Stress axis : x y z
#
# Youngs Moduli (GPa) = 64.50277 143.91333 181.75899
#
# Poissons Ratio (x) = 0.05856 0.55447
# Poissons Ratio (y) = 0.02625 0.04121
# Poissons Ratio (z) = 0.19677 0.03263
#
# Static dielectric constant tensor:
#      x y z
#    x 1.749240 0.000000 0.000000 
#    y 0.000000 1.786180 0.000000 
#    z 0.000000 0.000000 1.848350 
# 
# From -- ./inp_files/27894.got.cif
#   From: 2010.05.17/outbox.cif.g08.bks.cpg/sg50_14_cif.got.tgz:27894.got - 2010.06.03 11:33:33.
