data_PCOD9396084
_publ_section_title
;
Structure prediction by ZEFSAII (Michael W. Deem and Ramdas Pophale) SiO2 
 PCOD9396084
Probable space group: P B A N
;
_chemical_formula_sum "Si O2"
_cell_formula_units_Z 40
_cell_length_a 35.923353
_cell_length_b 11.944423
_cell_length_c 5.038123
_cell_angle_alpha 90.000000
_cell_angle_beta 90.000000
_cell_angle_gamma 90.000000
_cell_volume 2161.776578
_symmetry_space_group_name_H-M "P B A N"
_symmetry_group_IT_number 50
_space_group.IT_coordinate_system_code '2'
_symmetry_cell_setting 'orthorhombic'
loop_
_space_group_symop_operation_xyz
x,y,z
1/2-x,1/2-y,z
x,1/2-y,-z
1/2-x,y,-z
-x,-y,-z
1/2+x,1/2+y,-z
-x,1/2+y,z
1/2+x,-y,z
loop_
_atom_site_type_symbol
_atom_site_label
_atom_site_fract_x
_atom_site_fract_y
_atom_site_fract_z
Si Si1 0.480758 0.174160 0.252533
Si Si2 0.792147 0.614718 0.525956
Si Si3 0.936907 0.370195 0.364492
Si Si4 0.340261 0.384421 0.023850
Si Si5 0.416637 0.500502 0.861132
O O1 0.466392 0.250000 0.500000
O O2 0.518245 0.116189 0.360797
O O3 0.450325 0.088679 0.141182
O O4 0.492027 0.250000 0.000000
O O5 0.789929 0.750000 0.500000
O O6 0.750000 0.571920 0.500000
O O7 0.822316 0.582716 0.304039
O O8 0.809023 0.585958 0.808500
O O9 0.930127 0.250000 0.500000
O O10 0.916707 0.456292 0.560324
O O11 0.924702 0.398300 0.065770
O O12 0.345832 0.250000 0.000000
O O13 0.378786 0.442544 0.952099
#
# Coordination Sequence:
#
# PCOD9396084 Si02
#       5
#     8   8   8   8   8
#     4  11  22  37  56  79 105 139 180 221 273 331
#     4   9  17  31  50  73 108 147 171 193 238 310
#     4  11  23  39  54  73 101 141 190 231 265 312
#     4  10  20  32  50  80 111 138 170 207 254 315
#     4  12  22  36  56  78 108 139 175 225 278 313
#
# _framework density 18.503299999999999
#
# number of rings (size 3 to 8) (size 9 to 14) (size 15 to 20)
#    0.000    1.400    0.000    7.800    0.000    4.800 
#    0.000    0.000    0.000    0.000    0.000    0.000 
#    0.000   56.000    0.000    0.000    0.000    0.000 
#
# Total GULP energy -223272.392678 kJ/mol
# GULP energy per Si atom -5581.809817 kJ/mol
# Density = 1.846119 g / cm^3
# Si number density = 18.503300 Si / 1000 Ang^3
#
#
#
# Elastic Constant Matrix: (Units=GPa)
#
#
# Indices 1 2 3 4 5 6 
#
# 1 91.0368 32.3907 -2.6960 0.0000 0.0000 0.0000
# 2 32.3907 34.6375 11.7279 0.0000 0.0000 0.0000
# 3 -2.6960 11.7279 72.6548 0.0000 0.0000 0.0000
# 4 0.0000 0.0000 0.0000 29.5073 0.0000 0.0000
# 5 0.0000 0.0000 0.0000 0.0000 17.0704 0.0000
# 6 0.0000 0.0000 0.0000 0.0000 0.0000 9.9380
#
#
#
# Elastic Compliance Matrix: (Units=1/GPa)
#
#
# Indices 1 2 3 4 5 6 
#
# 1 0.017233 -0.017276 0.003428 0.000000 0.000000 0.000000
# 2 -0.017276 0.047858 -0.008366 0.000000 0.000000 0.000000
# 3 0.003428 -0.008366 0.015241 0.000000 0.000000 0.000000
# 4 0.000000 0.000000 0.000000 0.033890 0.000000 0.000000
# 5 0.000000 0.000000 0.000000 0.000000 0.058581 0.000000
# 6 0.000000 0.000000 0.000000 0.000000 0.000000 0.100624
#
#
# Mechanical properties :
#
#
# Convention : Reuss Voigt Hill
#
# Bulk Modulus (GPa) = 27.85153 31.24159 29.54656
# Shear Modulus (GPa) = 15.15965 21.76358 18.46161
#
# Velocity S-wave (km/s) = 2.86544 3.43330 3.16214
# Velocity P-wave (km/s) = 5.10221 5.71294 5.41619
#
# Compressibility (1/GPa) = 0.03590467
#
# Stress axis : x y z
#
# Youngs Moduli (GPa) = 58.02910 20.89501 65.61067
#
# Poissons Ratio (x) = 0.36097 -0.22492
# Poissons Ratio (y) = 1.00249 0.54892
# Poissons Ratio (z) = -0.19893 0.17481
#
# Static dielectric constant tensor:
#      x y z
#    x 1.615090 0.000000 0.000000 
#    y 0.000000 1.657300 0.000000 
#    z 0.000000 0.000000 1.643050 
# 
# From -- ./inp_files/2548.got.cif
#   From: 2010.05.17/outbox.cif.g08.bks.cpg/sg50_2_cif.got.tgz:2548.got - 2010.06.03 11:33:33.
