data_PCOD9396496
_publ_section_title
;
Structure prediction by ZEFSAII (Michael W. Deem and Ramdas Pophale) SiO2 
 PCOD9396496
Probable space group: P B A N
;
_chemical_formula_sum "Si O2"
_cell_formula_units_Z 56
_cell_length_a 11.908427
_cell_length_b 20.833277
_cell_length_c 12.387656
_cell_angle_alpha 90.000000
_cell_angle_beta 90.000000
_cell_angle_gamma 90.000000
_cell_volume 3073.272881
_symmetry_space_group_name_H-M "P B A N"
_symmetry_group_IT_number 50
_space_group.IT_coordinate_system_code '2'
_symmetry_cell_setting 'orthorhombic'
loop_
_space_group_symop_operation_xyz
x,y,z
1/2-x,1/2-y,z
x,1/2-y,-z
1/2-x,y,-z
-x,-y,-z
1/2+x,1/2+y,-z
-x,1/2+y,z
1/2+x,-y,z
loop_
_atom_site_type_symbol
_atom_site_label
_atom_site_fract_x
_atom_site_fract_y
_atom_site_fract_z
Si Si1 0.704039 0.318005 0.793285
Si Si2 0.891380 0.420295 0.835866
Si Si3 0.385172 0.539198 0.461868
Si Si4 0.202264 0.060908 0.881357
Si Si5 0.874381 0.185612 0.549685
Si Si6 0.460132 0.905359 0.920827
Si Si7 0.101592 0.478991 0.767499
O O1 0.750000 0.250000 0.830902
O O2 0.808561 0.367181 0.790027
O O3 0.644186 0.308997 0.678024
O O4 0.617660 0.350354 0.874428
O O5 0.826422 0.485866 0.863277
O O6 0.987335 0.439932 0.752678
O O7 0.949482 0.403054 0.950175
O O8 0.250000 0.529270 0.500000
O O9 0.500000 0.500000 0.500000
O O10 0.417152 0.614184 0.476276
O O11 0.375647 0.522790 0.334860
O O12 0.299121 0.070374 0.794072
O O13 0.086460 0.098995 0.876802
O O14 0.250000 0.070848 0.000000
O O15 0.930360 0.250000 0.500000
O O16 0.750000 0.184938 0.500000
O O17 0.418129 0.973865 0.871257
#
# Coordination Sequence:
#
# PCOD9396496 Si02
#       7
#     8   8   8   8   8   8   8
#     4  12  23  37  58  87 122 157 203 257 297 353
#     4  11  21  33  56  88 123 154 192 242 308 367
#     4  11  26  39  60  94 130 158 206 273 323 363
#     4  11  17  34  57  84 116 154 196 234 298 380
#     4  10  20  39  62  83 114 165 213 246 304 380
#     4  11  21  33  54  88 119 155 194 243 303 369
#     4  11  21  35  60  85 121 160 194 245 311 371
#
# _framework density 18.221616999999998
#
# number of rings (size 3 to 8) (size 9 to 14) (size 15 to 20)
#    0.000    1.000    7.143    1.286    8.000    1.143 
#    0.000    0.000    0.000    1.286    0.000    4.000 
#    0.000    0.000    0.000    0.000    0.000    0.000 
#
# Total GULP energy -311940.258690 kJ/mol
# GULP energy per Si atom -5570.361762 kJ/mol
# Density = 1.818014 g / cm^3
# Si number density = 18.221617 Si / 1000 Ang^3
#
#
#
# Elastic Constant Matrix: (Units=GPa)
#
#
# Indices 1 2 3 4 5 6 
#
# 1 105.8797 47.9033 4.6910 0.0000 0.0000 0.0000
# 2 47.9033 117.1780 17.7373 0.0000 0.0000 0.0000
# 3 4.6910 17.7373 57.1010 0.0000 0.0000 0.0000
# 4 0.0000 0.0000 0.0000 24.9334 0.0000 0.0000
# 5 0.0000 0.0000 0.0000 0.0000 18.9703 0.0000
# 6 0.0000 0.0000 0.0000 0.0000 0.0000 20.4937
#
#
#
# Elastic Compliance Matrix: (Units=1/GPa)
#
#
# Indices 1 2 3 4 5 6 
#
# 1 0.011604 -0.004827 0.000546 0.000000 0.000000 0.000000
# 2 -0.004827 0.010963 -0.003009 0.000000 0.000000 0.000000
# 3 0.000546 -0.003009 0.018403 0.000000 0.000000 0.000000
# 4 0.000000 0.000000 0.000000 0.040107 0.000000 0.000000
# 5 0.000000 0.000000 0.000000 0.000000 0.052714 0.000000
# 6 0.000000 0.000000 0.000000 0.000000 0.000000 0.048795
#
#
# Mechanical properties :
#
#
# Convention : Reuss Voigt Hill
#
# Bulk Modulus (GPa) = 37.89228 46.75800 42.32514
# Shear Modulus (GPa) = 24.27640 26.86794 25.57217
#
# Velocity S-wave (km/s) = 3.65401 3.84410 3.75026
# Velocity P-wave (km/s) = 6.21633 6.73938 6.48313
#
# Compressibility (1/GPa) = 0.02639060
#
# Stress axis : x y z
#
# Youngs Moduli (GPa) = 86.17592 91.21926 54.34016
#
# Poissons Ratio (x) = 0.44027 -0.02967
# Poissons Ratio (y) = 0.41593 0.16350
# Poissons Ratio (z) = -0.04705 0.27446
#
# Static dielectric constant tensor:
#      x y z
#    x 1.778160 0.000000 0.000000 
#    y 0.000000 1.644500 0.000000 
#    z 0.000000 0.000000 1.801840 
# 
# From -- ./inp_files/20357.got.cif
#   From: 2010.05.17/outbox.cif.g08.bks.cpg/sg50_11_cif.got.tgz:20357.got - 2010.06.03 11:33:33.
