data_PCOD9396396
_publ_section_title
;
Structure prediction by ZEFSAII (Michael W. Deem and Ramdas Pophale) SiO2 
 PCOD9396396
Probable space group: P B A N
;
_chemical_formula_sum "Si O2"
_cell_formula_units_Z 58
_cell_length_a 18.051844
_cell_length_b 13.317970
_cell_length_c 10.355796
_cell_angle_alpha 90.000000
_cell_angle_beta 90.000000
_cell_angle_gamma 90.000000
_cell_volume 2489.677478
_symmetry_space_group_name_H-M "P B A N"
_symmetry_group_IT_number 50
_space_group.IT_coordinate_system_code '2'
_symmetry_cell_setting 'orthorhombic'
loop_
_space_group_symop_operation_xyz
x,y,z
1/2-x,1/2-y,z
x,1/2-y,-z
1/2-x,y,-z
-x,-y,-z
1/2+x,1/2+y,-z
-x,1/2+y,z
1/2+x,-y,z
loop_
_atom_site_type_symbol
_atom_site_label
_atom_site_fract_x
_atom_site_fract_y
_atom_site_fract_z
Si Si1 0.168454 0.162830 0.246659
Si Si2 0.449094 0.454792 0.144056
Si Si3 0.674359 0.492623 0.561653
Si Si4 0.250000 0.250000 0.000000
Si Si5 0.387054 0.994627 0.116633
Si Si6 0.562891 0.345873 0.687329
Si Si7 0.331069 0.711966 0.853104
Si Si8 0.392586 0.144745 0.354766
O O1 0.082281 0.132959 0.230911
O O2 0.203340 0.188205 0.107478
O O3 0.336828 0.238095 0.334946
O O4 0.197669 0.061744 0.314772
O O5 0.534114 0.435977 0.116274
O O6 0.446400 0.564219 0.207889
O O7 0.393982 0.457998 0.023416
O O8 0.750000 0.455306 0.500000
O O9 0.618595 0.401399 0.588600
O O10 0.867283 0.572311 0.530494
O O11 0.328424 0.908430 0.140858
O O12 0.385097 0.079627 0.223806
O O13 0.606678 0.255916 0.756960
O O14 0.479988 0.327037 0.634235
O O15 0.250000 0.750000 0.813706
O O16 0.345553 0.750000 0.000000
#
# Coordination Sequence:
#
# PCOD9396396 Si02
#       8
#     8   8   8   2   8   8   8   8
#     4  11  23  41  63  97 136 168 222 271 350 411
#     4   9  19  37  61  95 128 168 215 287 341 399
#     4  11  25  44  70  94 137 184 230 282 345 415
#     4  12  24  40  58 104 132 170 210 278 348 424
#     4  10  20  37  63  94 129 168 226 274 342 402
#     4  10  22  43  67  97 132 177 240 288 341 408
#     4  11  23  40  64  96 137 179 228 282 359 410
#     4  11  23  41  69  99 133 184 230 282 335 412
#
# _framework density 23.296191
#
# number of rings (size 3 to 8) (size 9 to 14) (size 15 to 20)
#    0.000    1.517    1.379    3.310    1.931    0.552 
#    4.966    2.069    0.000    0.000    0.000    0.000 
#    0.000    0.000    0.000    0.000    0.000    0.000 
#
# Total GULP energy -323903.471540 kJ/mol
# GULP energy per Si atom -5584.542613 kJ/mol
# Density = 2.324317 g / cm^3
# Si number density = 23.296191 Si / 1000 Ang^3
#
#
#
# Elastic Constant Matrix: (Units=GPa)
#
#
# Indices 1 2 3 4 5 6 
#
# 1 106.0207 18.8412 16.3247 0.0000 0.0000 0.0000
# 2 18.8412 53.3918 1.4995 0.0000 0.0000 0.0000
# 3 16.3247 1.4995 52.8114 0.0000 0.0000 0.0000
# 4 0.0000 0.0000 0.0000 19.2086 0.0000 0.0000
# 5 0.0000 0.0000 0.0000 0.0000 16.9460 0.0000
# 6 0.0000 0.0000 0.0000 0.0000 0.0000 32.1105
#
#
#
# Elastic Compliance Matrix: (Units=1/GPa)
#
#
# Indices 1 2 3 4 5 6 
#
# 1 0.010566 -0.003640 -0.003163 0.000000 0.000000 0.000000
# 2 -0.003640 0.019998 0.000557 0.000000 0.000000 0.000000
# 3 -0.003163 0.000557 0.019897 0.000000 0.000000 0.000000
# 4 0.000000 0.000000 0.000000 0.052060 0.000000 0.000000
# 5 0.000000 0.000000 0.000000 0.000000 0.059011 0.000000
# 6 0.000000 0.000000 0.000000 0.000000 0.000000 0.031142
#
#
# Mechanical properties :
#
#
# Convention : Reuss Voigt Hill
#
# Bulk Modulus (GPa) = 26.33593 31.72828 29.03210
# Shear Modulus (GPa) = 22.95453 25.35694 24.15573
#
# Velocity S-wave (km/s) = 3.14241 3.30276 3.22358
# Velocity P-wave (km/s) = 4.94931 5.30974 5.13269
#
# Compressibility (1/GPa) = 0.03797094
#
# Stress axis : x y z
#
# Youngs Moduli (GPa) = 94.64379 50.00441 50.25851
#
# Poissons Ratio (x) = 0.18200 0.15895
# Poissons Ratio (y) = 0.34448 -0.02801
# Poissons Ratio (z) = 0.29933 -0.02787
#
# Static dielectric constant tensor:
#      x y z
#    x 1.975770 0.000000 0.000000 
#    y 0.000000 1.874950 0.000000 
#    z 0.000000 0.000000 1.936260 
# 
# From -- ./inp_files/21922.got.cif
#   From: 2010.05.17/outbox.cif.g08.bks.cpg/sg50_11_cif.got.tgz:21922.got - 2010.06.03 11:33:33.
