data_PCOD9396873
_publ_section_title
;
Structure prediction by ZEFSAII (Michael W. Deem and Ramdas Pophale) SiO2 
 PCOD9396873
Probable space group: P B A N
;
_chemical_formula_sum "Si O2"
_cell_formula_units_Z 34
_cell_length_a 5.471172
_cell_length_b 17.868950
_cell_length_c 16.831139
_cell_angle_alpha 90.000000
_cell_angle_beta 90.000000
_cell_angle_gamma 90.000000
_cell_volume 1645.481138
_symmetry_space_group_name_H-M "P B A N"
_symmetry_group_IT_number 50
_space_group.IT_coordinate_system_code '2'
_symmetry_cell_setting 'orthorhombic'
loop_
_space_group_symop_operation_xyz
x,y,z
1/2-x,1/2-y,z
x,1/2-y,-z
1/2-x,y,-z
-x,-y,-z
1/2+x,1/2+y,-z
-x,1/2+y,z
1/2+x,-y,z
loop_
_atom_site_type_symbol
_atom_site_label
_atom_site_fract_x
_atom_site_fract_y
_atom_site_fract_z
Si Si1 0.750000 0.250000 0.500000
Si Si2 0.997932 0.717611 0.089360
Si Si3 0.418258 0.042312 0.893453
Si Si4 0.903275 0.960581 0.702046
Si Si5 0.138429 0.168013 0.416738
O O1 0.631779 0.309005 0.439806
O O2 0.750000 0.750000 0.128385
O O3 0.977279 0.627906 0.083125
O O4 0.250000 0.750000 0.126311
O O5 0.998980 0.750000 0.000000
O O6 0.406349 0.044386 0.797317
O O7 0.649596 0.989593 0.917421
O O8 0.842158 0.884104 0.657899
O O9 0.676702 0.014105 0.678843
O O10 0.250000 0.250000 0.404230
O O11 0.250000 0.137176 0.500000
#
# Coordination Sequence:
#
# PCOD9396873 Si02
#       5
#     2   8   8   8   8
#     4   8  18  36  52  74 116 144 194 232 290 340
#     4  10  21  39  60  90 121 148 195 247 285 345
#     4  10  21  41  61  84 121 160 192 238 299 356
#     4  10  23  38  57  85 115 149 196 240 289 347
#     4   9  20  36  55  80 112 153 194 240 290 346
#
# _framework density 20.662648999999998
#
# number of rings (size 3 to 8) (size 9 to 14) (size 15 to 20)
#    0.000    2.588    0.000    1.412    6.588    1.882 
#    2.118   14.118    0.000    0.000    0.000    0.000 
#    0.000    0.000    0.000    0.000    0.000    0.000 
#
# Total GULP energy -189305.058505 kJ/mol
# GULP energy per Si atom -5567.795838 kJ/mol
# Density = 2.061562 g / cm^3
# Si number density = 20.662649 Si / 1000 Ang^3
#
#
#
# Elastic Constant Matrix: (Units=GPa)
#
#
# Indices 1 2 3 4 5 6 
#
# 1 135.9539 46.4674 16.8216 0.0000 0.0000 0.0000
# 2 46.4674 120.0252 13.2874 0.0000 0.0000 0.0000
# 3 16.8216 13.2874 38.1324 0.0000 0.0000 0.0000
# 4 0.0000 0.0000 0.0000 49.4538 0.0000 0.0000
# 5 0.0000 0.0000 0.0000 0.0000 19.9189 0.0000
# 6 0.0000 0.0000 0.0000 0.0000 0.0000 456.8285
#
#
#
# Elastic Compliance Matrix: (Units=1/GPa)
#
#
# Indices 1 2 3 4 5 6 
#
# 1 0.008753 -0.003080 -0.002788 0.000000 0.000000 0.000000
# 2 -0.003080 0.009750 -0.002039 0.000000 0.000000 0.000000
# 3 -0.002788 -0.002039 0.028165 0.000000 0.000000 0.000000
# 4 0.000000 0.000000 0.000000 0.020221 0.000000 0.000000
# 5 0.000000 0.000000 0.000000 0.000000 0.050204 0.000000
# 6 0.000000 0.000000 0.000000 0.000000 0.000000 0.002189
#
#
# Mechanical properties :
#
#
# Convention : Reuss Voigt Hill
#
# Bulk Modulus (GPa) = 32.41069 49.69604 41.05337
# Shear Modulus (GPa) = 34.39280 119.74257 77.06769
#
# Velocity S-wave (km/s) = 4.08424 7.62083 6.11384
# Velocity P-wave (km/s) = 6.16126 10.07668 8.35166
#
# Compressibility (1/GPa) = 0.03085402
#
# Stress axis : x y z
#
# Youngs Moduli (GPa) = 114.24469 102.56709 35.50548
#
# Poissons Ratio (x) = 0.31592 0.09899
# Poissons Ratio (y) = 0.35188 0.07238
# Poissons Ratio (z) = 0.31852 0.20909
#
# Static dielectric constant tensor:
#      x y z
#    x 1.901790 0.000000 0.000000 
#    y 0.000000 1.692840 0.000000 
#    z 0.000000 0.000000 1.299570 
# 
# From -- ./inp_files/27952.got.cif
#   From: 2010.05.17/outbox.cif.g08.bks.cpg/sg50_14_cif.got.tgz:27952.got - 2010.06.03 11:33:33.
