data_PCOD9396063
_publ_section_title
;
Structure prediction by ZEFSAII (Michael W. Deem and Ramdas Pophale) SiO2 
 PCOD9396063
Probable space group: P B A N
;
_chemical_formula_sum "Si O2"
_cell_formula_units_Z 30
_cell_length_a 21.860945
_cell_length_b 5.190806
_cell_length_c 14.423360
_cell_angle_alpha 90.000000
_cell_angle_beta 90.000000
_cell_angle_gamma 90.000000
_cell_volume 1636.704110
_symmetry_space_group_name_H-M "P B A N"
_symmetry_group_IT_number 50
_space_group.IT_coordinate_system_code '2'
_symmetry_cell_setting 'orthorhombic'
loop_
_space_group_symop_operation_xyz
x,y,z
1/2-x,1/2-y,z
x,1/2-y,-z
1/2-x,y,-z
-x,-y,-z
1/2+x,1/2+y,-z
-x,1/2+y,z
1/2+x,-y,z
loop_
_atom_site_type_symbol
_atom_site_label
_atom_site_fract_x
_atom_site_fract_y
_atom_site_fract_z
Si Si1 0.675911 0.232758 0.605642
Si Si2 0.175976 0.233267 0.278513
Si Si3 0.543098 0.250000 0.000000
Si Si4 0.358735 0.444447 0.914697
Si Si5 0.750000 0.250000 0.000000
O O1 0.750000 0.250000 0.601144
O O2 0.653374 0.250000 0.500000
O O3 0.658354 0.465593 0.673611
O O4 0.659517 0.962813 0.651494
O O5 0.250000 0.250000 0.265976
O O6 0.145241 0.290127 0.180187
O O7 0.590921 0.172208 0.918354
O O8 0.500000 0.500000 0.000000
O O9 0.371114 0.250000 0.000000
O O10 0.293631 0.576374 0.936511
#
# Coordination Sequence:
#
# PCOD9396063 Si02
#       5
#     8   8   4   8   2
#     4   9  18  31  46  69 106 151 188 222 263 320
#     4  10  20  30  51  76 110 147 187 220 272 329
#     4  11  24  43  60  77 108 153 196 244 286 329
#     4  11  23  36  57  82 119 152 188 233 277 347
#     4  10  22  32  52  82 126 152 188 216 288 328
#
# _framework density 18.329519999999999
#
# number of rings (size 3 to 8) (size 9 to 14) (size 15 to 20)
#    0.000    1.867    1.333    2.800   13.067    3.200 
#    0.000    0.000    0.000    0.000    0.000    0.000 
#    0.000   21.333    0.000    0.000    0.000    0.000 
#
# Total GULP energy -167337.240481 kJ/mol
# GULP energy per Si atom -5577.908016 kJ/mol
# Density = 1.828780 g / cm^3
# Si number density = 18.329520 Si / 1000 Ang^3
#
#
#
# Elastic Constant Matrix: (Units=GPa)
#
#
# Indices 1 2 3 4 5 6 
#
# 1 66.1200 31.7917 20.7467 0.0000 0.0000 0.0000
# 2 31.7917 109.1682 36.0986 0.0000 0.0000 0.0000
# 3 20.7467 36.0986 131.1084 0.0000 0.0000 0.0000
# 4 0.0000 0.0000 0.0000 29.3041 0.0000 0.0000
# 5 0.0000 0.0000 0.0000 0.0000 -0.2969 0.0000
# 6 0.0000 0.0000 0.0000 0.0000 0.0000 11.3529
#
#
#
# Elastic Compliance Matrix: (Units=1/GPa)
#
#
# Indices 1 2 3 4 5 6 
#
# 1 0.017863 -0.004695 -0.001534 0.000000 0.000000 0.000000
# 2 -0.004695 0.011312 -0.002372 0.000000 0.000000 0.000000
# 3 -0.001534 -0.002372 0.008523 0.000000 0.000000 0.000000
# 4 0.000000 0.000000 0.000000 0.034125 0.000000 0.000000
# 5 0.000000 0.000000 0.000000 0.000000 -3.367728 0.000000
# 6 0.000000 0.000000 0.000000 0.000000 0.000000 0.088083
#
#
# Mechanical properties :
#
#
# Convention : Reuss Voigt Hill
#
# Bulk Modulus (GPa) = 48.78832 53.74118 51.26475
# Shear Modulus (GPa) = -1.57046 22.58931 10.50943
#
# Velocity S-wave (km/s) = -0.92663 3.51436 2.39709
# Velocity P-wave (km/s) = 5.05275 6.77132 5.97416
#
# Compressibility (1/GPa) = 0.02049671
#
# Stress axis : x y z
#
# Youngs Moduli (GPa) = 55.98279 88.40518 117.32972
#
# Poissons Ratio (x) = 0.41503 0.17998
# Poissons Ratio (y) = 0.26282 0.27825
# Poissons Ratio (z) = 0.08588 0.20966
#
# Static dielectric constant tensor:
#      x y z
#    x 1.656780 0.000000 0.000000 
#    y 0.000000 1.669070 0.000000 
#    z 0.000000 0.000000 1.658100 
# 
# From -- ./inp_files/17509.got.cif
#   From: 2010.05.17/outbox.cif.g08.bks.cpg/sg50_9_cif.got.tgz:17509.got - 2010.06.03 11:33:33.
