data_PCOD9396604
_publ_section_title
;
Structure prediction by ZEFSAII (Michael W. Deem and Ramdas Pophale) SiO2 
 PCOD9396604
Probable space group: P B A N
;
_chemical_formula_sum "Si O2"
_cell_formula_units_Z 48
_cell_length_a 28.374000
_cell_length_b 9.455966
_cell_length_c 9.429434
_cell_angle_alpha 90.000000
_cell_angle_beta 90.000000
_cell_angle_gamma 90.000000
_cell_volume 2529.950893
_symmetry_space_group_name_H-M "P B A N"
_symmetry_group_IT_number 50
_space_group.IT_coordinate_system_code '2'
_symmetry_cell_setting 'orthorhombic'
loop_
_space_group_symop_operation_xyz
x,y,z
1/2-x,1/2-y,z
x,1/2-y,-z
1/2-x,y,-z
-x,-y,-z
1/2+x,1/2+y,-z
-x,1/2+y,z
1/2+x,-y,z
loop_
_atom_site_type_symbol
_atom_site_label
_atom_site_fract_x
_atom_site_fract_y
_atom_site_fract_z
Si Si1 0.100615 0.791889 0.335084
Si Si2 0.206450 0.832297 0.348785
Si Si3 0.883998 0.760485 0.161921
Si Si4 0.547411 0.989967 0.173818
Si Si5 0.204233 0.171174 0.348765
Si Si6 0.062734 0.541247 0.147785
O O1 0.099232 0.750000 0.500000
O O2 0.154645 0.810643 0.285695
O O3 0.075942 0.676867 0.237107
O O4 0.072277 0.934383 0.304693
O O5 0.250000 0.750000 0.275289
O O6 0.203326 0.750000 0.500000
O O7 0.213276 0.001982 0.363446
O O8 0.931686 0.667553 0.169302
O O9 0.843130 0.700725 0.261269
O O10 0.900434 0.919459 0.190754
O O11 0.866923 0.750000 0.000000
O O12 0.491372 0.998318 0.180615
O O13 0.563660 0.057194 0.023078
O O14 0.250000 0.250000 0.283203
O O15 0.198323 0.250000 0.500000
#
# Coordination Sequence:
#
# PCOD9396604 Si02
#       6
#     8   8   8   8   8   8
#     4  11  23  36  60  92 122 154 191 251 303 341
#     4  10  21  38  60  86 123 154 196 239 293 360
#     4  10  22  38  60  89 120 153 197 252 293 339
#     4  10  20  43  59  88 115 161 209 236 290 355
#     4  11  23  38  65  90 115 158 200 240 296 362
#     4  10  22  37  67  82 118 165 201 241 285 359
#
# _framework density 18.9727
#
# number of rings (size 3 to 8) (size 9 to 14) (size 15 to 20)
#    0.000    1.667    1.667    3.500    7.000    3.667 
#    0.000    1.667    0.000    2.000    0.000    0.000 
#    0.000    0.000    0.000    0.000    0.000    0.000 
#
# Total GULP energy -267672.613183 kJ/mol
# GULP energy per Si atom -5576.512775 kJ/mol
# Density = 1.892952 g / cm^3
# Si number density = 18.972700 Si / 1000 Ang^3
#
#
#
# Elastic Constant Matrix: (Units=GPa)
#
#
# Indices 1 2 3 4 5 6 
#
# 1 101.3405 23.5392 30.0025 0.0000 0.0000 0.0000
# 2 23.5392 105.7199 24.3792 0.0000 0.0000 0.0000
# 3 30.0025 24.3792 27.6012 0.0000 0.0000 0.0000
# 4 0.0000 0.0000 0.0000 20.5842 0.0000 0.0000
# 5 0.0000 0.0000 0.0000 0.0000 16.7666 0.0000
# 6 0.0000 0.0000 0.0000 0.0000 0.0000 28.5214
#
#
#
# Elastic Compliance Matrix: (Units=1/GPa)
#
#
# Indices 1 2 3 4 5 6 
#
# 1 0.014572 0.000513 -0.016293 0.000000 0.000000 0.000000
# 2 0.000513 0.011896 -0.011065 0.000000 0.000000 0.000000
# 3 -0.016293 -0.011065 0.063714 0.000000 0.000000 0.000000
# 4 0.000000 0.000000 0.000000 0.048581 0.000000 0.000000
# 5 0.000000 0.000000 0.000000 0.000000 0.059642 0.000000
# 6 0.000000 0.000000 0.000000 0.000000 0.000000 0.035061
#
#
# Mechanical properties :
#
#
# Convention : Reuss Voigt Hill
#
# Bulk Modulus (GPa) = 27.40306 43.38928 35.39617
# Shear Modulus (GPa) = 16.70448 23.62382 20.16415
#
# Velocity S-wave (km/s) = 2.97045 3.53249 3.26360
# Velocity P-wave (km/s) = 5.12246 6.28943 5.73570
#
# Compressibility (1/GPa) = 0.03649227
#
# Stress axis : x y z
#
# Youngs Moduli (GPa) = 68.62365 84.05913 15.69525
#
# Poissons Ratio (x) = -0.04308 0.25572
# Poissons Ratio (y) = -0.03517 0.17366
# Poissons Ratio (z) = 1.11806 0.93009
#
# Static dielectric constant tensor:
#      x y z
#    x 1.671760 0.000000 0.000000 
#    y 0.000000 1.671170 0.000000 
#    z 0.000000 0.000000 1.645100 
# 
# From -- ./inp_files/10114.got.cif
#   From: 2010.05.17/outbox.cif.g08.bks.cpg/sg50_6_cif.got.tgz:10114.got - 2010.06.03 11:33:33.
