data_PCOD9396115
_publ_section_title
;
Structure prediction by ZEFSAII (Michael W. Deem and Ramdas Pophale) SiO2 
 PCOD9396115
Probable space group: P B A N
;
_chemical_formula_sum "Si O2"
_cell_formula_units_Z 64
_cell_length_a 20.522171
_cell_length_b 7.317257
_cell_length_c 19.323489
_cell_angle_alpha 90.000000
_cell_angle_beta 90.000000
_cell_angle_gamma 90.000000
_cell_volume 2901.731038
_symmetry_space_group_name_H-M "P B A N"
_symmetry_group_IT_number 50
_space_group.IT_coordinate_system_code '2'
_symmetry_cell_setting 'orthorhombic'
loop_
_space_group_symop_operation_xyz
x,y,z
1/2-x,1/2-y,z
x,1/2-y,-z
1/2-x,y,-z
-x,-y,-z
1/2+x,1/2+y,-z
-x,1/2+y,z
1/2+x,-y,z
loop_
_atom_site_type_symbol
_atom_site_label
_atom_site_fract_x
_atom_site_fract_y
_atom_site_fract_z
Si Si1 0.075793 0.034769 0.987644
Si Si2 0.747023 0.030231 0.201920
Si Si3 0.388383 0.404659 0.839119
Si Si4 0.609846 0.008466 0.133111
Si Si5 0.928154 0.692142 0.694764
Si Si6 0.304608 0.614141 0.342551
Si Si7 0.171631 0.222929 0.420316
Si Si8 0.070578 0.878547 0.272893
O O1 0.094073 0.987194 0.908937
O O2 0.091688 0.250000 0.000000
O O3 0.107721 0.935152 0.053443
O O4 0.000000 0.000000 0.000000
O O5 0.750000 0.250000 0.199673
O O6 0.729942 0.991587 0.282273
O O7 0.811338 0.933147 0.174362
O O8 0.684072 0.988771 0.157018
O O9 0.414162 0.200564 0.857756
O O10 0.416840 0.435219 0.762308
O O11 0.572160 0.134452 0.189128
O O12 0.876606 0.667681 0.632147
O O13 0.005954 0.674951 0.686006
O O14 0.917900 0.904095 0.715822
O O15 0.250000 0.750000 0.369051
O O16 0.335042 0.489584 0.400960
O O17 0.364335 0.711985 0.303488
O O18 0.250000 0.250000 0.412436
O O19 0.154224 0.250000 0.500000
#
# Coordination Sequence:
#
# PCOD9396115 Si02
#       8
#     8   8   8   8   8   8   8   8
#     4  10  21  35  51  73 103 143 186 230 283 337
#     4  10  20  33  54  83 107 138 184 233 281 329
#     4  10  20  34  54  76 103 147 188 227 284 336
#     4   9  19  35  51  74 111 145 184 231 277 340
#     4  10  20  35  56  82 113 147 188 233 277 339
#     4   9  19  37  59  85 116 147 186 232 278 335
#     4  10  21  38  60  86 114 149 187 227 284 348
#     4   9  19  33  55  85 113 149 190 229 281 332
#
# _framework density 22.055800000000001
#
# number of rings (size 3 to 8) (size 9 to 14) (size 15 to 20)
#    0.000    2.375    0.000    2.625    0.000    5.500 
#    0.000    6.250    0.000    0.750    0.000    0.000 
#    0.000    0.000    0.000    0.000    0.000    0.000 
#
# Total GULP energy -356779.740308 kJ/mol
# GULP energy per Si atom -5574.683442 kJ/mol
# Density = 2.200560 g / cm^3
# Si number density = 22.055800 Si / 1000 Ang^3
#
#
#
# Elastic Constant Matrix: (Units=GPa)
#
#
# Indices 1 2 3 4 5 6 
#
# 1 111.8053 -3.9317 54.0933 0.0000 0.0000 0.0000
# 2 -3.9317 54.3901 26.7794 0.0000 0.0000 0.0000
# 3 54.0933 26.7794 179.7611 0.0000 0.0000 0.0000
# 4 0.0000 0.0000 0.0000 15.2519 0.0000 0.0000
# 5 0.0000 0.0000 0.0000 0.0000 26.2345 0.0000
# 6 0.0000 0.0000 0.0000 0.0000 0.0000 25.2727
#
#
#
# Elastic Compliance Matrix: (Units=1/GPa)
#
#
# Indices 1 2 3 4 5 6 
#
# 1 0.010790 0.002567 -0.003629 0.000000 0.000000 0.000000
# 2 0.002567 0.020452 -0.003819 0.000000 0.000000 0.000000
# 3 -0.003629 -0.003819 0.007224 0.000000 0.000000 0.000000
# 4 0.000000 0.000000 0.000000 0.065565 0.000000 0.000000
# 5 0.000000 0.000000 0.000000 0.000000 0.038118 0.000000
# 6 0.000000 0.000000 0.000000 0.000000 0.000000 0.039568
#
#
# Mechanical properties :
#
#
# Convention : Reuss Voigt Hill
#
# Bulk Modulus (GPa) = 34.83980 55.53761 45.18871
# Shear Modulus (GPa) = 24.86964 31.28620 28.07792
#
# Velocity S-wave (km/s) = 3.36159 3.77039 3.57184
# Velocity P-wave (km/s) = 5.55855 6.64753 6.12728
#
# Compressibility (1/GPa) = 0.02870280
#
# Stress axis : x y z
#
# Youngs Moduli (GPa) = 92.67531 48.89585 138.42667
#
# Poissons Ratio (x) = -0.12551 0.50241
# Poissons Ratio (y) = -0.23789 0.52867
# Poissons Ratio (z) = 0.33636 0.18674
#
# Static dielectric constant tensor:
#      x y z
#    x 1.822740 0.000000 0.000000 
#    y 0.000000 1.431580 0.000000 
#    z 0.000000 0.000000 1.861300 
# 
# From -- ./inp_files/29868.got.cif
#   From: 2010.05.17/outbox.cif.g08.bks.cpg/sg50_15_cif.got.tgz:29868.got - 2010.06.03 11:33:33.
