data_PCOD9396019
_publ_section_title
;
Structure prediction by ZEFSAII (Michael W. Deem and Ramdas Pophale) SiO2 
 PCOD9396019
Probable space group: P B A N
;
_chemical_formula_sum "Si O2"
_cell_formula_units_Z 46
_cell_length_a 20.093575
_cell_length_b 17.791411
_cell_length_c 5.839572
_cell_angle_alpha 90.000000
_cell_angle_beta 90.000000
_cell_angle_gamma 90.000000
_cell_volume 2087.606412
_symmetry_space_group_name_H-M "P B A N"
_symmetry_group_IT_number 50
_space_group.IT_coordinate_system_code '2'
_symmetry_cell_setting 'orthorhombic'
loop_
_space_group_symop_operation_xyz
x,y,z
1/2-x,1/2-y,z
x,1/2-y,-z
1/2-x,y,-z
-x,-y,-z
1/2+x,1/2+y,-z
-x,1/2+y,z
1/2+x,-y,z
loop_
_atom_site_type_symbol
_atom_site_label
_atom_site_fract_x
_atom_site_fract_y
_atom_site_fract_z
Si Si1 0.441072 0.074669 0.080689
Si Si2 0.250000 0.059782 0.500000
Si Si3 0.657666 0.454380 0.303877
Si Si4 0.250000 0.250000 0.000000
Si Si5 0.673059 0.277925 0.247802
Si Si6 0.441508 0.988415 0.681898
Si Si7 0.349847 0.322711 0.644397
O O1 0.518484 0.065038 0.142597
O O2 0.411111 0.143057 0.219062
O O3 0.394216 0.004127 0.159175
O O4 0.432782 0.068066 0.809529
O O5 0.187190 0.115505 0.486462
O O6 0.225893 0.002103 0.695326
O O7 0.668407 0.368441 0.242662
O O8 0.623752 0.458176 0.558311
O O9 0.295647 0.199996 0.164432
O O10 0.750000 0.250000 0.248790
O O11 0.645999 0.250000 0.500000
O O12 0.644676 0.250000 0.000000
O O13 0.500000 0.000000 0.500000
O O14 0.366673 0.250000 0.500000
#
# Coordination Sequence:
#
# PCOD9396019 Si02
#       7
#     8   4   8   2   8   8   8
#     4   9  21  38  64  91 117 167 218 278 334 390
#     4  10  19  38  55  94 128 158 216 264 329 390
#     4  10  21  36  64  90 123 165 213 271 324 407
#     4  12  22  32  56  82 128 176 204 248 346 410
#     4  10  22  40  60  88 131 173 208 258 330 400
#     4   9  19  39  64  89 120 155 224 280 331 382
#     4  11  22  38  57  89 138 167 213 269 334 415
#
# _framework density 22.034804000000001
#
# number of rings (size 3 to 8) (size 9 to 14) (size 15 to 20)
#    0.000    2.087    1.739    1.043    4.870    1.391 
#    0.000    0.870    0.000    0.000    0.000    0.000 
#    0.000    0.000    0.000    0.000    0.000    0.000 
#
# Total GULP energy -256229.648414 kJ/mol
# GULP energy per Si atom -5570.209748 kJ/mol
# Density = 2.198465 g / cm^3
# Si number density = 22.034804 Si / 1000 Ang^3
#
#
#
# Elastic Constant Matrix: (Units=GPa)
#
#
# Indices 1 2 3 4 5 6 
#
# 1 72.3924 23.5122 33.6451 0.0000 0.0000 0.0000
# 2 23.5122 156.7696 50.6741 0.0000 0.0000 0.0000
# 3 33.6451 50.6741 121.4988 0.0000 0.0000 0.0000
# 4 0.0000 0.0000 0.0000 56.8723 0.0000 0.0000
# 5 0.0000 0.0000 0.0000 0.0000 111.1491 0.0000
# 6 0.0000 0.0000 0.0000 0.0000 0.0000 19.1511
#
#
#
# Elastic Compliance Matrix: (Units=1/GPa)
#
#
# Indices 1 2 3 4 5 6 
#
# 1 0.016022 -0.001120 -0.003970 0.000000 0.000000 0.000000
# 2 -0.001120 0.007451 -0.002798 0.000000 0.000000 0.000000
# 3 -0.003970 -0.002798 0.010497 0.000000 0.000000 0.000000
# 4 0.000000 0.000000 0.000000 0.017583 0.000000 0.000000
# 5 0.000000 0.000000 0.000000 0.000000 0.008997 0.000000
# 6 0.000000 0.000000 0.000000 0.000000 0.000000 0.052216
#
#
# Mechanical properties :
#
#
# Convention : Reuss Voigt Hill
#
# Bulk Modulus (GPa) = 54.95823 62.92483 58.94153
# Shear Modulus (GPa) = 37.14542 53.62312 45.38427
#
# Velocity S-wave (km/s) = 4.11026 4.93847 4.54327
# Velocity P-wave (km/s) = 6.89357 7.81901 7.37083
#
# Compressibility (1/GPa) = 0.01819564
#
# Stress axis : x y z
#
# Youngs Moduli (GPa) = 62.41288 134.21001 95.26870
#
# Poissons Ratio (x) = 0.15029 0.37820
# Poissons Ratio (y) = 0.06989 0.26652
# Poissons Ratio (z) = 0.24777 0.37546
#
# Static dielectric constant tensor:
#      x y z
#    x 1.808760 0.000000 0.000000 
#    y 0.000000 1.825720 0.000000 
#    z 0.000000 0.000000 2.104330 
# 
# From -- ./inp_files/6039.got.cif
#   From: 2010.05.17/outbox.cif.g08.bks.cpg/sg50_4_cif.got.tgz:6039.got - 2010.06.03 11:33:33.
