data_PCOD9396099
_publ_section_title
;
Structure prediction by ZEFSAII (Michael W. Deem and Ramdas Pophale) SiO2 
 PCOD9396099
Probable space group: P B A N
;
_chemical_formula_sum "Si O2"
_cell_formula_units_Z 64
_cell_length_a 8.819156
_cell_length_b 36.853910
_cell_length_c 11.980468
_cell_angle_alpha 90.000000
_cell_angle_beta 90.000000
_cell_angle_gamma 90.000000
_cell_volume 3893.896280
_symmetry_space_group_name_H-M "P B A N"
_symmetry_group_IT_number 50
_space_group.IT_coordinate_system_code '2'
_symmetry_cell_setting 'orthorhombic'
loop_
_space_group_symop_operation_xyz
x,y,z
1/2-x,1/2-y,z
x,1/2-y,-z
1/2-x,y,-z
-x,-y,-z
1/2+x,1/2+y,-z
-x,1/2+y,z
1/2+x,-y,z
loop_
_atom_site_type_symbol
_atom_site_label
_atom_site_fract_x
_atom_site_fract_y
_atom_site_fract_z
Si Si1 0.931306 0.114148 0.630967
Si Si2 0.434149 0.250000 0.626488
Si Si3 0.576038 0.537362 0.364475
Si Si4 0.067483 0.179939 0.769416
Si Si5 0.931306 0.385852 0.630967
Si Si6 0.567483 0.820061 0.230584
Si Si7 0.567823 0.292948 0.000000
Si Si8 0.576038 0.962638 0.364475
O O1 0.750000 0.116618 0.638122
O O2 0.974617 0.120032 0.500000
O O3 0.985190 0.073773 0.663623
O O4 0.007913 0.143857 0.709621
O O5 0.250000 0.250000 0.623270
O O6 0.490450 0.250000 0.500000
O O7 0.479708 0.285957 0.692297
O O8 0.479708 0.214043 0.692297
O O9 0.750000 0.539933 0.327300
O O10 0.576924 0.535752 0.500000
O O11 0.500000 0.500000 0.324977
O O12 0.250000 0.179130 0.776427
O O13 0.998199 0.187799 0.890406
O O14 0.007913 0.356143 0.709621
O O15 0.985190 0.426227 0.663624
O O16 0.498199 0.812201 0.109594
O O17 0.524308 0.250000 0.000000
O O18 0.750000 0.294818 0.000000
#
# Coordination Sequence:
#
# PCOD9396099 Si02
#       8
#     8   8   8   8   8   8   8   8
#     4  10  20  33  49  74 109 143 174 212 260 313
#     4   9  18  31  49  74 102 131 164 205 254 307
#     4   9  16  27  45  70 101 138 176 212 253 304
#     4  11  21  35  55  76 101 133 175 219 261 308
#     4  10  20  33  49  74 109 143 174 212 260 313
#     4  11  21  35  55  76 101 133 175 219 261 308
#     4  11  23  39  57  75 100 131 170 219 269 315
#     4   9  16  27  45  70 101 138 176 212 253 304
#
# _framework density 16.435980000000001
#
# number of rings (size 3 to 8) (size 9 to 14) (size 15 to 20)
#    0.000    2.000    1.250    3.375    0.000    6.000 
#    0.000    0.000    0.000    3.000    0.000    0.875 
#    0.000    0.000    0.000    0.000    0.000    0.000 
#
# Total GULP energy -357139.524791 kJ/mol
# GULP energy per Si atom -5580.305075 kJ/mol
# Density = 1.639857 g / cm^3
# Si number density = 16.435980 Si / 1000 Ang^3
#
#
#
# Elastic Constant Matrix: (Units=GPa)
#
#
# Indices 1 2 3 4 5 6 
#
# 1 76.6670 53.6415 43.8058 0.0000 0.0000 0.0000
# 2 53.6415 155.7281 73.8504 0.0000 0.0000 0.0000
# 3 43.8058 73.8504 114.4641 0.0000 0.0000 0.0000
# 4 0.0000 0.0000 0.0000 -1.5105 0.0000 0.0000
# 5 0.0000 0.0000 0.0000 0.0000 19.3953 0.0000
# 6 0.0000 0.0000 0.0000 0.0000 0.0000 30.2603
#
#
#
# Elastic Compliance Matrix: (Units=1/GPa)
#
#
# Indices 1 2 3 4 5 6 
#
# 1 0.018538 -0.004353 -0.004286 0.000000 0.000000 0.000000
# 2 -0.004353 0.010274 -0.004963 0.000000 0.000000 0.000000
# 3 -0.004286 -0.004963 0.013579 0.000000 0.000000 0.000000
# 4 0.000000 0.000000 0.000000 -0.662021 0.000000 0.000000
# 5 0.000000 0.000000 0.000000 0.000000 0.051559 0.000000
# 6 0.000000 0.000000 0.000000 0.000000 0.000000 0.033047
#
#
# Mechanical properties :
#
#
# Convention : Reuss Voigt Hill
#
# Bulk Modulus (GPa) = 65.84561 76.60608 71.22585
# Shear Modulus (GPa) = -9.94515 21.33312 5.69398
#
# Velocity S-wave (km/s) = -2.46251 3.60662 1.86329
# Velocity P-wave (km/s) = 5.66247 8.00335 6.93243
#
# Compressibility (1/GPa) = 0.01518704
#
# Stress axis : x y z
#
# Youngs Moduli (GPa) = 53.94312 97.32889 73.64456
#
# Poissons Ratio (x) = 0.42367 0.31565
# Poissons Ratio (y) = 0.23481 0.36550
# Poissons Ratio (z) = 0.23121 0.48304
#
# Static dielectric constant tensor:
#      x y z
#    x 1.550110 0.000000 0.000000 
#    y 0.000000 1.538680 0.000000 
#    z 0.000000 0.000000 1.528490 
# 
# From -- ./inp_files/19549.got.cif
#   From: 2010.05.17/outbox.cif.g08.bks.cpg/sg50_10_cif.got.tgz:19549.got - 2010.06.03 11:33:33.
