data_PCOD9396431
_publ_section_title
;
Structure prediction by ZEFSAII (Michael W. Deem and Ramdas Pophale) SiO2 
 PCOD9396431
Probable space group: P B A N
;
_chemical_formula_sum "Si O2"
_cell_formula_units_Z 56
_cell_length_a 13.784124
_cell_length_b 30.905358
_cell_length_c 5.581330
_cell_angle_alpha 90.000000
_cell_angle_beta 90.000000
_cell_angle_gamma 90.000000
_cell_volume 2377.664925
_symmetry_space_group_name_H-M "P B A N"
_symmetry_group_IT_number 50
_space_group.IT_coordinate_system_code '2'
_symmetry_cell_setting 'orthorhombic'
loop_
_space_group_symop_operation_xyz
x,y,z
1/2-x,1/2-y,z
x,1/2-y,-z
1/2-x,y,-z
-x,-y,-z
1/2+x,1/2+y,-z
-x,1/2+y,z
1/2+x,-y,z
loop_
_atom_site_type_symbol
_atom_site_label
_atom_site_fract_x
_atom_site_fract_y
_atom_site_fract_z
Si Si1 0.883143 0.729490 0.245093
Si Si2 0.866830 0.480874 0.995182
Si Si3 0.518029 0.358391 0.724664
Si Si4 0.399345 0.735279 0.244038
Si Si5 0.869444 0.581229 0.027121
Si Si6 0.632135 0.436068 0.504930
Si Si7 0.645942 0.858003 0.391875
O O1 0.849278 0.750000 0.500000
O O2 0.853856 0.679654 0.200417
O O3 0.998540 0.738161 0.246546
O O4 0.849019 0.750000 0.000000
O O5 0.896467 0.464722 0.260658
O O6 0.750000 0.477051 0.000000
O O7 0.888503 0.531645 0.968672
O O8 0.898670 0.454903 0.755718
O O9 0.579250 0.316096 0.792971
O O10 0.450242 0.388843 0.895668
O O11 0.586068 0.389814 0.568358
O O12 0.432863 0.338553 0.566335
O O13 0.356195 0.750000 0.500000
O O14 0.349855 0.750000 0.000000
O O15 0.750000 0.589210 0.000000
O O16 0.884227 0.594959 0.302185
O O17 0.750000 0.433616 0.500000
O O18 0.750000 0.861908 0.500000
#
# Coordination Sequence:
#
# PCOD9396431 Si02
#       7
#     8   8   8   8   8   8   8
#     4  10  20  39  58  79 119 168 221 261 308 369
#     4   9  22  44  68  93 132 170 215 275 336 398
#     4  12  25  41  66  95 131 175 221 277 330 396
#     4  10  20  38  59  88 125 166 212 259 319 379
#     4  11  24  40  63  92 136 180 217 269 329 393
#     4  10  24  46  70  98 125 167 222 280 340 404
#     4  12  25  40  59  95 135 179 226 273 322 396
#
# _framework density 23.552517999999999
#
# number of rings (size 3 to 8) (size 9 to 14) (size 15 to 20)
#    0.000    1.429    4.286    1.714    4.000    2.000 
#    0.000    1.429    0.000    0.429    0.000    2.000 
#    0.000    0.000    0.000    0.000    0.000    0.000 
#
# Total GULP energy -312074.546199 kJ/mol
# GULP energy per Si atom -5572.759754 kJ/mol
# Density = 2.349891 g / cm^3
# Si number density = 23.552518 Si / 1000 Ang^3
#
#
#
# Elastic Constant Matrix: (Units=GPa)
#
#
# Indices 1 2 3 4 5 6 
#
# 1 106.2402 38.9297 40.8047 0.0000 0.0000 0.0000
# 2 38.9297 171.0390 69.7440 0.0000 0.0000 0.0000
# 3 40.8047 69.7440 160.0924 0.0000 0.0000 0.0000
# 4 0.0000 0.0000 0.0000 45.3135 0.0000 0.0000
# 5 0.0000 0.0000 0.0000 0.0000 -9.8711 0.0000
# 6 0.0000 0.0000 0.0000 0.0000 0.0000 -15.8677
#
#
#
# Elastic Compliance Matrix: (Units=1/GPa)
#
#
# Indices 1 2 3 4 5 6 
#
# 1 0.010792 -0.001623 -0.002044 0.000000 0.000000 0.000000
# 2 -0.001623 0.007354 -0.002790 0.000000 0.000000 0.000000
# 3 -0.002044 -0.002790 0.007983 0.000000 0.000000 0.000000
# 4 0.000000 0.000000 0.000000 0.022068 0.000000 0.000000
# 5 0.000000 0.000000 0.000000 0.000000 -0.101306 0.000000
# 6 0.000000 0.000000 0.000000 0.000000 0.000000 -0.063021
#
#
# Mechanical properties :
#
#
# Convention : Reuss Voigt Hill
#
# Bulk Modulus (GPa) = 75.66954 81.81429 78.74191
# Shear Modulus (GPa) = -50.60164 23.10783 -13.74691
#
# Velocity S-wave (km/s) = -4.64018 3.13568 -2.41855
# Velocity P-wave (km/s) = 1.86800 6.92260 5.07010
#
# Compressibility (1/GPa) = 0.01321536
#
# Stress axis : x y z
#
# Youngs Moduli (GPa) = 92.65859 135.98636 125.27055
#
# Poissons Ratio (x) = 0.22071 0.25601
# Poissons Ratio (y) = 0.15039 0.34950
# Poissons Ratio (z) = 0.18937 0.37939
#
# Static dielectric constant tensor:
#      x y z
#    x 1.805590 0.000000 0.000000 
#    y 0.000000 1.923030 0.000000 
#    z 0.000000 0.000000 2.020250 
# 
# From -- ./inp_files/3761.got.cif
#   From: 2010.05.17/outbox.cif.g08.bks.cpg/sg50_2_cif.got.tgz:3761.got - 2010.06.03 11:33:33.
