data_PCOD9396997
_publ_section_title
;
Structure prediction by ZEFSAII (Michael W. Deem and Ramdas Pophale) SiO2 
 PCOD9396997
Probable space group: P B A N
;
_chemical_formula_sum "Si O2"
_cell_formula_units_Z 40
_cell_length_a 13.085433
_cell_length_b 10.670002
_cell_length_c 12.542318
_cell_angle_alpha 90.000000
_cell_angle_beta 90.000000
_cell_angle_gamma 90.000000
_cell_volume 1751.178460
_symmetry_space_group_name_H-M "P B A N"
_symmetry_group_IT_number 50
_space_group.IT_coordinate_system_code '2'
_symmetry_cell_setting 'orthorhombic'
loop_
_space_group_symop_operation_xyz
x,y,z
1/2-x,1/2-y,z
x,1/2-y,-z
1/2-x,y,-z
-x,-y,-z
1/2+x,1/2+y,-z
-x,1/2+y,z
1/2+x,-y,z
loop_
_atom_site_type_symbol
_atom_site_label
_atom_site_fract_x
_atom_site_fract_y
_atom_site_fract_z
Si Si1 0.827932 0.643900 0.249170
Si Si2 0.182238 0.519154 0.101897
Si Si3 0.367053 0.768587 0.264505
Si Si4 0.984195 0.809269 0.110647
Si Si5 0.475057 0.124869 0.566588
O O1 0.750000 0.750000 0.289348
O O2 0.759414 0.551643 0.180937
O O3 0.908954 0.711433 0.170809
O O4 0.886738 0.590210 0.349857
O O5 0.138922 0.633296 0.167980
O O6 0.088326 0.425582 0.079116
O O7 0.250000 0.553836 0.000000
O O8 0.250000 0.750000 0.296626
O O9 0.431340 0.660296 0.201966
O O10 0.430049 0.826462 0.361715
O O11 0.022437 0.750000 0.000000
O O12 0.445638 0.250000 0.500000
O O13 0.500000 0.000000 0.500000
#
# Coordination Sequence:
#
# PCOD9396997 Si02
#       5
#     8   8   8   8   8
#     4   9  21  42  72 105 137 178 248 299 348 437
#     4  11  23  42  75 108 142 191 234 289 366 436
#     4  11  29  45  68 105 149 187 242 296 362 443
#     4  10  21  41  68 101 146 187 231 288 349 433
#     4  11  28  52  76 104 142 193 249 314 376 420
#
# _framework density 22.841760000000001
#
# number of rings (size 3 to 8) (size 9 to 14) (size 15 to 20)
#    0.000    1.600    2.000    0.000   14.000    3.200 
#    0.000    0.000    0.000    0.000    0.000    0.000 
#    0.000    0.000    0.000    0.000    0.000    0.000 
#
# Total GULP energy -223716.886113 kJ/mol
# GULP energy per Si atom -5592.922153 kJ/mol
# Density = 2.278977 g / cm^3
# Si number density = 22.841760 Si / 1000 Ang^3
#
#
#
# Elastic Constant Matrix: (Units=GPa)
#
#
# Indices 1 2 3 4 5 6 
#
# 1 104.8582 -12.3077 30.2425 0.0000 0.0000 0.0000
# 2 -12.3077 34.8973 16.2428 0.0000 0.0000 0.0000
# 3 30.2425 16.2428 107.5098 0.0000 0.0000 0.0000
# 4 0.0000 0.0000 0.0000 31.1240 0.0000 0.0000
# 5 0.0000 0.0000 0.0000 0.0000 180.4180 0.0000
# 6 0.0000 0.0000 0.0000 0.0000 0.0000 25.9903
#
#
#
# Elastic Compliance Matrix: (Units=1/GPa)
#
#
# Indices 1 2 3 4 5 6 
#
# 1 0.011419 0.005940 -0.004110 0.000000 0.000000 0.000000
# 2 0.005940 0.033913 -0.006795 0.000000 0.000000 0.000000
# 3 -0.004110 -0.006795 0.011484 0.000000 0.000000 0.000000
# 4 0.000000 0.000000 0.000000 0.032130 0.000000 0.000000
# 5 0.000000 0.000000 0.000000 0.000000 0.005543 0.000000
# 6 0.000000 0.000000 0.000000 0.000000 0.000000 0.038476
#
#
# Mechanical properties :
#
#
# Convention : Reuss Voigt Hill
#
# Bulk Modulus (GPa) = 21.32735 35.06894 28.19815
# Shear Modulus (GPa) = 31.54133 61.71230 46.62681
#
# Velocity S-wave (km/s) = 3.72003 5.20346 4.52297
# Velocity P-wave (km/s) = 5.27340 7.17549 6.29668
#
# Compressibility (1/GPa) = 0.04688815
#
# Stress axis : x y z
#
# Youngs Moduli (GPa) = 87.57174 29.48713 87.07709
#
# Poissons Ratio (x) = -0.17516 0.35786
# Poissons Ratio (y) = -0.52019 0.59166
# Poissons Ratio (z) = 0.35989 0.20035
#
# Static dielectric constant tensor:
#      x y z
#    x 1.910930 0.000000 0.000000 
#    y 0.000000 1.990950 0.000000 
#    z 0.000000 0.000000 1.847150 
# 
# From -- ./inp_files/20920.got.cif
#   From: 2010.05.17/outbox.cif.g08.bks.cpg/sg50_11_cif.got.tgz:20920.got - 2010.06.03 11:33:33.
