data_PCOD9396035
_publ_section_title
;
Structure prediction by ZEFSAII (Michael W. Deem and Ramdas Pophale) SiO2 
 PCOD9396035
Probable space group: P B A N
;
_chemical_formula_sum "Si O2"
_cell_formula_units_Z 54
_cell_length_a 13.297146
_cell_length_b 10.993093
_cell_length_c 15.065495
_cell_angle_alpha 90.000000
_cell_angle_beta 90.000000
_cell_angle_gamma 90.000000
_cell_volume 2202.225286
_symmetry_space_group_name_H-M "P B A N"
_symmetry_group_IT_number 50
_space_group.IT_coordinate_system_code '2'
_symmetry_cell_setting 'orthorhombic'
loop_
_space_group_symop_operation_xyz
x,y,z
1/2-x,1/2-y,z
x,1/2-y,-z
1/2-x,y,-z
-x,-y,-z
1/2+x,1/2+y,-z
-x,1/2+y,z
1/2+x,-y,z
loop_
_atom_site_type_symbol
_atom_site_label
_atom_site_fract_x
_atom_site_fract_y
_atom_site_fract_z
Si Si1 0.121018 0.822595 0.241380
Si Si2 0.122604 0.077241 0.341645
Si Si3 0.750000 0.750000 0.000000
Si Si4 0.599844 0.132586 0.048827
Si Si5 0.618492 0.078861 0.654385
Si Si6 0.377236 0.174514 0.243962
Si Si7 0.250000 0.502482 0.500000
Si Si8 0.121135 0.070566 0.940246
O O1 0.154978 0.840116 0.139943
O O2 0.150250 0.693732 0.285235
O O3 0.998772 0.814786 0.238139
O O4 0.143605 0.946178 0.295674
O O5 0.153258 0.194325 0.282921
O O6 0.002277 0.084400 0.356624
O O7 0.180847 0.076565 0.434553
O O8 0.836124 0.851873 0.977190
O O9 0.498143 0.061104 0.075614
O O10 0.558848 0.250000 0.000000
O O11 0.652011 0.062916 0.968027
O O12 0.676275 0.081730 0.561381
O O13 0.641339 0.946168 0.697109
O O14 0.337520 0.139483 0.145937
#
# Coordination Sequence:
#
# PCOD9396035 Si02
#       8
#     8   8   2   8   8   8   4   8
#     4   9  20  38  65  90 127 167 213 264 321 378
#     4  10  23  41  63  94 129 166 213 271 330 396
#     4  12  24  36  50  96 140 164 208 282 336 364
#     4  10  19  38  67  95 120 175 231 265 304 402
#     4  10  22  42  63  95 125 167 213 269 330 397
#     4   9  20  40  63  89 130 168 205 261 325 387
#     4  12  26  42  70  94 126 168 220 274 340 406
#     4  10  22  35  62  94 133 172 216 263 330 390
#
# _framework density 24.520651999999998
#
# number of rings (size 3 to 8) (size 9 to 14) (size 15 to 20)
#    0.000    2.074    0.741    1.333    2.074    8.296 
#    0.000    4.815    3.259    0.000    0.000    0.000 
#    0.000    0.000    0.000    0.000    0.000    0.444 
#
# Total GULP energy -301233.638183 kJ/mol
# GULP energy per Si atom -5578.400707 kJ/mol
# Density = 2.446484 g / cm^3
# Si number density = 24.520652 Si / 1000 Ang^3
#
#
#
# Elastic Constant Matrix: (Units=GPa)
#
#
# Indices 1 2 3 4 5 6 
#
# 1 106.4147 43.2730 41.1217 0.0000 0.0000 0.0000
# 2 43.2730 163.9259 87.9849 0.0000 0.0000 0.0000
# 3 41.1217 87.9849 183.0346 0.0000 0.0000 0.0000
# 4 0.0000 0.0000 0.0000 38.5430 0.0000 0.0000
# 5 0.0000 0.0000 0.0000 0.0000 40.1675 0.0000
# 6 0.0000 0.0000 0.0000 0.0000 0.0000 30.9604
#
#
#
# Elastic Compliance Matrix: (Units=1/GPa)
#
#
# Indices 1 2 3 4 5 6 
#
# 1 0.010795 -0.002086 -0.001422 0.000000 0.000000 0.000000
# 2 -0.002086 0.008625 -0.003677 0.000000 0.000000 0.000000
# 3 -0.001422 -0.003677 0.007551 0.000000 0.000000 0.000000
# 4 0.000000 0.000000 0.000000 0.025945 0.000000 0.000000
# 5 0.000000 0.000000 0.000000 0.000000 0.024896 0.000000
# 6 0.000000 0.000000 0.000000 0.000000 0.000000 0.032299
#
#
# Mechanical properties :
#
#
# Convention : Reuss Voigt Hill
#
# Bulk Modulus (GPa) = 79.37256 88.68160 84.02708
# Shear Modulus (GPa) = 38.85541 40.66722 39.76132
#
# Velocity S-wave (km/s) = 3.98502 4.07687 4.03121
# Velocity P-wave (km/s) = 7.32215 7.64237 7.48397
#
# Compressibility (1/GPa) = 0.01259881
#
# Stress axis : x y z
#
# Youngs Moduli (GPa) = 92.63350 115.94566 132.43853
#
# Poissons Ratio (x) = 0.24189 0.18839
# Poissons Ratio (y) = 0.19325 0.48700
# Poissons Ratio (z) = 0.13177 0.42636
#
# Static dielectric constant tensor:
#      x y z
#    x 2.026640 0.000000 0.000000 
#    y 0.000000 1.959690 0.000000 
#    z 0.000000 0.000000 2.255280 
# 
# From -- ./inp_files/26516.got.cif
#   From: 2010.05.17/outbox.cif.g08.bks.cpg/sg50_14_cif.got.tgz:26516.got - 2010.06.03 11:33:33.
