data_PCOD9396764
_publ_section_title
;
Structure prediction by ZEFSAII (Michael W. Deem and Ramdas Pophale) SiO2 
 PCOD9396764
Probable space group: P B A N
;
_chemical_formula_sum "Si O2"
_cell_formula_units_Z 44
_cell_length_a 13.657536
_cell_length_b 8.697915
_cell_length_c 19.514988
_cell_angle_alpha 90.000000
_cell_angle_beta 90.000000
_cell_angle_gamma 90.000000
_cell_volume 2318.226157
_symmetry_space_group_name_H-M "P B A N"
_symmetry_group_IT_number 50
_space_group.IT_coordinate_system_code '2'
_symmetry_cell_setting 'orthorhombic'
loop_
_space_group_symop_operation_xyz
x,y,z
1/2-x,1/2-y,z
x,1/2-y,-z
1/2-x,y,-z
-x,-y,-z
1/2+x,1/2+y,-z
-x,1/2+y,z
1/2+x,-y,z
loop_
_atom_site_type_symbol
_atom_site_label
_atom_site_fract_x
_atom_site_fract_y
_atom_site_fract_z
Si Si1 0.239383 0.933862 0.921738
Si Si2 0.509890 0.750000 0.500000
Si Si3 0.738897 0.566727 0.306054
Si Si4 0.346217 0.978868 0.449347
Si Si5 0.613531 0.947262 0.192581
Si Si6 0.402249 0.418378 0.819602
O O1 0.250000 0.750000 0.921563
O O2 0.321104 0.993554 0.869769
O O3 0.141552 0.999790 0.886753
O O4 0.250000 0.987162 0.000000
O O5 0.430142 0.653457 0.544924
O O6 0.586014 0.869710 0.535509
O O7 0.750000 0.750000 0.319153
O O8 0.703951 0.488242 0.375178
O O9 0.838119 0.520890 0.266820
O O10 0.659594 0.534514 0.247065
O O11 0.250000 0.965899 0.500000
O O12 0.606644 0.765102 0.180142
O O13 0.511423 0.029445 0.189556
#
# Coordination Sequence:
#
# PCOD9396764 Si02
#       6
#     8   4   8   8   8   8
#     4  10  21  38  59  84 114 150 195 244 294 349
#     4  10  24  38  60  90 116 156 206 246 302 370
#     4   9  20  37  59  85 114 152 192 239 296 348
#     4  11  22  41  61  86 122 157 199 252 303 359
#     4  10  21  38  59  86 117 152 193 236 295 356
#     4  10  21  37  58  85 117 151 193 240 289 357
#
# _framework density 18.980028999999998
#
# number of rings (size 3 to 8) (size 9 to 14) (size 15 to 20)
#    0.000    2.000    0.000    4.364    0.000    8.000 
#    0.000    9.091    0.000    0.000    0.000    0.000 
#    0.000    0.000    0.000    0.000    0.000    0.000 
#
# Total GULP energy -245220.106008 kJ/mol
# GULP energy per Si atom -5573.184227 kJ/mol
# Density = 1.893683 g / cm^3
# Si number density = 18.980029 Si / 1000 Ang^3
#
#
#
# Elastic Constant Matrix: (Units=GPa)
#
#
# Indices 1 2 3 4 5 6 
#
# 1 147.8764 31.2939 56.4308 0.0000 0.0000 0.0000
# 2 31.2939 47.3515 35.9376 0.0000 0.0000 0.0000
# 3 56.4308 35.9376 142.5669 0.0000 0.0000 0.0000
# 4 0.0000 0.0000 0.0000 23.2074 0.0000 0.0000
# 5 0.0000 0.0000 0.0000 0.0000 15.8528 0.0000
# 6 0.0000 0.0000 0.0000 0.0000 0.0000 35.8978
#
#
#
# Elastic Compliance Matrix: (Units=1/GPa)
#
#
# Indices 1 2 3 4 5 6 
#
# 1 0.008480 -0.003780 -0.002404 0.000000 0.000000 0.000000
# 2 -0.003780 0.027800 -0.005511 0.000000 0.000000 0.000000
# 3 -0.002404 -0.005511 0.009355 0.000000 0.000000 0.000000
# 4 0.000000 0.000000 0.000000 0.043090 0.000000 0.000000
# 5 0.000000 0.000000 0.000000 0.000000 0.063080 0.000000
# 6 0.000000 0.000000 0.000000 0.000000 0.000000 0.027857
#
#
# Mechanical properties :
#
#
# Convention : Reuss Voigt Hill
#
# Bulk Modulus (GPa) = 44.95517 65.01327 54.98422
# Shear Modulus (GPa) = 23.75686 29.26709 26.51197
#
# Velocity S-wave (km/s) = 3.54174 3.93108 3.74148
# Velocity P-wave (km/s) = 6.36099 7.41164 6.90632
#
# Compressibility (1/GPa) = 0.02224438
#
# Stress axis : x y z
#
# Youngs Moduli (GPa) = 117.93136 35.97177 106.89535
#
# Poissons Ratio (x) = 0.13596 0.25693
# Poissons Ratio (y) = 0.44575 0.58915
# Poissons Ratio (z) = 0.28346 0.19826
#
# Static dielectric constant tensor:
#      x y z
#    x 1.645310 0.000000 0.000000 
#    y 0.000000 1.742320 0.000000 
#    z 0.000000 0.000000 1.623490 
# 
# From -- ./inp_files/29406.got.cif
#   From: 2010.05.17/outbox.cif.g08.bks.cpg/sg50_15_cif.got.tgz:29406.got - 2010.06.03 11:33:33.
