data_PCOD9396154
_publ_section_title
;
Structure prediction by ZEFSAII (Michael W. Deem and Ramdas Pophale) SiO2 
 PCOD9396154
Probable space group: P B A N
;
_chemical_formula_sum "Si O2"
_cell_formula_units_Z 64
_cell_length_a 31.247786
_cell_length_b 7.652523
_cell_length_c 13.396134
_cell_angle_alpha 90.000000
_cell_angle_beta 90.000000
_cell_angle_gamma 90.000000
_cell_volume 3203.342519
_symmetry_space_group_name_H-M "P B A N"
_symmetry_group_IT_number 50
_space_group.IT_coordinate_system_code '2'
_symmetry_cell_setting 'orthorhombic'
loop_
_space_group_symop_operation_xyz
x,y,z
1/2-x,1/2-y,z
x,1/2-y,-z
1/2-x,y,-z
-x,-y,-z
1/2+x,1/2+y,-z
-x,1/2+y,z
1/2+x,-y,z
loop_
_atom_site_type_symbol
_atom_site_label
_atom_site_fract_x
_atom_site_fract_y
_atom_site_fract_z
Si Si1 0.040705 0.707731 0.887265
Si Si2 0.496060 0.028799 0.755105
Si Si3 0.662856 0.976446 0.275272
Si Si4 0.421675 0.052504 0.376880
Si Si5 0.420603 0.467019 0.400693
Si Si6 0.835875 0.947385 0.265153
Si Si7 0.749530 0.961737 0.613641
Si Si8 0.641803 0.235535 0.884061
O O1 0.013034 0.782233 0.794428
O O2 0.089834 0.763222 0.877053
O O3 0.030152 0.511092 0.858819
O O4 0.027605 0.750000 0.000000
O O5 0.461098 0.002222 0.669389
O O6 0.540333 0.967484 0.702348
O O7 0.623416 0.025884 0.348679
O O8 0.662129 0.765295 0.253889
O O9 0.707629 0.015499 0.329163
O O10 0.657599 0.096659 0.178243
O O11 0.416775 0.257473 0.398322
O O12 0.428272 0.969626 0.486328
O O13 0.377074 0.994982 0.329321
O O14 0.793246 0.000774 0.324660
O O15 0.839939 0.058310 0.164199
O O16 0.750000 0.750000 0.608170
O O17 0.750000 0.027397 0.500000
O O18 0.652959 0.250000 0.000000
#
# Coordination Sequence:
#
# PCOD9396154 Si02
#       8
#     8   8   8   8   8   8   8   8
#     4  11  24  40  59  83 116 156 206 262 304 355
#     4  12  20  38  56  84 114 150 198 242 300 364
#     4  10  21  40  63  91 123 161 203 253 303 367
#     4  10  20  34  55  83 118 155 190 235 298 363
#     4  10  20  34  55  83 118 155 190 235 298 363
#     4  10  21  40  63  91 123 161 203 253 303 367
#     4   9  18  37  67  96 127 165 204 248 308 372
#     4  11  24  43  63  88 123 163 207 261 314 360
#
# _framework density 19.979130999999999
#
# number of rings (size 3 to 8) (size 9 to 14) (size 15 to 20)
#    0.000    1.625    3.750    1.500    0.000    4.000 
#    0.000    5.625    0.000    2.250    0.000    0.000 
#    0.000    0.000    0.000    0.000    0.000    0.000 
#
# Total GULP energy -356440.616143 kJ/mol
# GULP energy per Si atom -5569.384627 kJ/mol
# Density = 1.993366 g / cm^3
# Si number density = 19.979131 Si / 1000 Ang^3
#
#
#
# Elastic Constant Matrix: (Units=GPa)
#
#
# Indices 1 2 3 4 5 6 
#
# 1 153.0339 11.5344 75.6577 0.0000 0.0000 0.0000
# 2 11.5344 28.4739 38.3125 0.0000 0.0000 0.0000
# 3 75.6577 38.3125 166.6668 0.0000 0.0000 0.0000
# 4 0.0000 0.0000 0.0000 30.7135 0.0000 0.0000
# 5 0.0000 0.0000 0.0000 0.0000 176.1869 0.0000
# 6 0.0000 0.0000 0.0000 0.0000 0.0000 6.1564
#
#
#
# Elastic Compliance Matrix: (Units=1/GPa)
#
#
# Indices 1 2 3 4 5 6 
#
# 1 0.008551 0.002547 -0.004467 0.000000 0.000000 0.000000
# 2 0.002547 0.051606 -0.013019 0.000000 0.000000 0.000000
# 3 -0.004467 -0.013019 0.011021 0.000000 0.000000 0.000000
# 4 0.000000 0.000000 0.000000 0.032559 0.000000 0.000000
# 5 0.000000 0.000000 0.000000 0.000000 0.005676 0.000000
# 6 0.000000 0.000000 0.000000 0.000000 0.000000 0.162432
#
#
# Mechanical properties :
#
#
# Convention : Reuss Voigt Hill
#
# Bulk Modulus (GPa) = 24.21390 66.57595 45.39493
# Shear Modulus (GPa) = 15.84843 57.45603 36.65223
#
# Velocity S-wave (km/s) = 2.81952 5.36847 4.28778
# Velocity P-wave (km/s) = 4.76923 8.47481 6.87633
#
# Compressibility (1/GPa) = 0.04129859
#
# Stress axis : x y z
#
# Youngs Moduli (GPa) = 116.94488 19.37776 90.73960
#
# Poissons Ratio (x) = -0.04935 0.40535
# Poissons Ratio (y) = -0.29783 1.18133
# Poissons Ratio (z) = 0.52241 0.25228
#
# Static dielectric constant tensor:
#      x y z
#    x 1.676280 0.000000 0.000000 
#    y 0.000000 1.772140 0.000000 
#    z 0.000000 0.000000 1.706990 
# 
# From -- ./inp_files/23406.got.cif
#   From: 2010.05.17/outbox.cif.g08.bks.cpg/sg50_12_cif.got.tgz:23406.got - 2010.06.03 11:33:33.
