data_PCOD9396701
_publ_section_title
;
Structure prediction by ZEFSAII (Michael W. Deem and Ramdas Pophale) SiO2 
 PCOD9396701
Probable space group: P B A N
;
_chemical_formula_sum "Si O2"
_cell_formula_units_Z 46
_cell_length_a 9.063464
_cell_length_b 21.598878
_cell_length_c 12.547051
_cell_angle_alpha 90.000000
_cell_angle_beta 90.000000
_cell_angle_gamma 90.000000
_cell_volume 2456.218899
_symmetry_space_group_name_H-M "P B A N"
_symmetry_group_IT_number 50
_space_group.IT_coordinate_system_code '2'
_symmetry_cell_setting 'orthorhombic'
loop_
_space_group_symop_operation_xyz
x,y,z
1/2-x,1/2-y,z
x,1/2-y,-z
1/2-x,y,-z
-x,-y,-z
1/2+x,1/2+y,-z
-x,1/2+y,z
1/2+x,-y,z
loop_
_atom_site_type_symbol
_atom_site_label
_atom_site_fract_x
_atom_site_fract_y
_atom_site_fract_z
Si Si1 0.886589 0.587099 0.054769
Si Si2 0.110641 0.547026 0.870024
Si Si3 0.250000 0.750000 0.000000
Si Si4 0.514562 0.068605 0.364445
Si Si5 0.135393 0.646765 0.162407
Si Si6 0.220082 0.676656 0.620104
Si Si7 0.750000 0.987196 0.500000
O O1 0.837034 0.521917 0.103780
O O2 0.970149 0.625548 0.143295
O O3 0.750000 0.620064 0.000000
O O4 0.004084 0.571139 0.962801
O O5 0.023417 0.547001 0.758221
O O6 0.250047 0.592331 0.866992
O O7 0.165398 0.704425 0.082717
O O8 0.564794 0.141172 0.358556
O O9 0.361937 0.052754 0.425097
O O10 0.643324 0.030021 0.426599
O O11 0.171175 0.655953 0.286090
O O12 0.250000 0.750000 0.621672
O O13 0.250000 0.656758 0.500000
#
# Coordination Sequence:
#
# PCOD9396701 Si02
#       7
#     8   8   2   8   8   8   4
#     4  11  22  35  56  93 120 152 196 254 309 362
#     4  10  21  36  58  86 122 155 196 245 311 365
#     4  12  20  40  60  84 112 172 206 232 292 376
#     4  10  22  37  59  91 121 164 199 255 312 373
#     4  11  22  39  63  85 121 162 201 253 303 373
#     4  10  21  39  64  91 114 159 218 255 293 368
#     4  10  22  38  57  91 126 158 200 254 312 378
#
# _framework density 18.727972000000001
#
# number of rings (size 3 to 8) (size 9 to 14) (size 15 to 20)
#    0.000    1.565    3.478    2.087    7.304    0.000 
#    0.000    0.435    0.000    2.087    0.000    0.000 
#    0.000    0.000    0.000    0.000    0.000    0.000 
#
# Total GULP energy -256330.370023 kJ/mol
# GULP energy per Si atom -5572.399348 kJ/mol
# Density = 1.868535 g / cm^3
# Si number density = 18.727972 Si / 1000 Ang^3
#
#
#
# Elastic Constant Matrix: (Units=GPa)
#
#
# Indices 1 2 3 4 5 6 
#
# 1 95.7836 39.3980 36.0313 0.0000 0.0000 0.0000
# 2 39.3980 89.2869 29.7408 0.0000 0.0000 0.0000
# 3 36.0313 29.7408 134.2842 0.0000 0.0000 0.0000
# 4 0.0000 0.0000 0.0000 22.1326 0.0000 0.0000
# 5 0.0000 0.0000 0.0000 0.0000 30.7567 0.0000
# 6 0.0000 0.0000 0.0000 0.0000 0.0000 0.5197
#
#
#
# Elastic Compliance Matrix: (Units=1/GPa)
#
#
# Indices 1 2 3 4 5 6 
#
# 1 0.013481 -0.005121 -0.002483 0.000000 0.000000 0.000000
# 2 -0.005121 0.014038 -0.001735 0.000000 0.000000 0.000000
# 3 -0.002483 -0.001735 0.008497 0.000000 0.000000 0.000000
# 4 0.000000 0.000000 0.000000 0.045182 0.000000 0.000000
# 5 0.000000 0.000000 0.000000 0.000000 0.032513 0.000000
# 6 0.000000 0.000000 0.000000 0.000000 0.000000 1.924005
#
#
# Mechanical properties :
#
#
# Convention : Reuss Voigt Hill
#
# Bulk Modulus (GPa) = 57.67869 58.85499 58.26684
# Shear Modulus (GPa) = 2.42463 24.96079 13.69271
#
# Velocity S-wave (km/s) = 1.13906 3.65472 2.70689
# Velocity P-wave (km/s) = 5.70920 7.02167 6.39917
#
# Compressibility (1/GPa) = 0.01733742
#
# Stress axis : x y z
#
# Youngs Moduli (GPa) = 74.17997 71.23771 117.68408
#
# Poissons Ratio (x) = 0.36483 0.29220
# Poissons Ratio (y) = 0.37990 0.20416
# Poissons Ratio (z) = 0.18418 0.12358
#
# Static dielectric constant tensor:
#      x y z
#    x 1.642940 0.000000 0.000000 
#    y 0.000000 1.681990 0.000000 
#    z 0.000000 0.000000 1.703750 
# 
# From -- ./inp_files/19224.got.cif
#   From: 2010.05.17/outbox.cif.g08.bks.cpg/sg50_10_cif.got.tgz:19224.got - 2010.06.03 11:33:33.
