data_PCOD9396361
_publ_section_title
;
Structure prediction by ZEFSAII (Michael W. Deem and Ramdas Pophale) SiO2 
 PCOD9396361
Probable space group: P B A N
;
_chemical_formula_sum "Si O2"
_cell_formula_units_Z 58
_cell_length_a 11.561044
_cell_length_b 18.031248
_cell_length_c 14.309301
_cell_angle_alpha 90.000000
_cell_angle_beta 90.000000
_cell_angle_gamma 90.000000
_cell_volume 2982.917623
_symmetry_space_group_name_H-M "P B A N"
_symmetry_group_IT_number 50
_space_group.IT_coordinate_system_code '2'
_symmetry_cell_setting 'orthorhombic'
loop_
_space_group_symop_operation_xyz
x,y,z
1/2-x,1/2-y,z
x,1/2-y,-z
1/2-x,y,-z
-x,-y,-z
1/2+x,1/2+y,-z
-x,1/2+y,z
1/2+x,-y,z
loop_
_atom_site_type_symbol
_atom_site_label
_atom_site_fract_x
_atom_site_fract_y
_atom_site_fract_z
Si Si1 0.374106 0.547169 0.789413
Si Si2 0.250000 0.250000 0.500000
Si Si3 0.174820 0.989088 0.345749
Si Si4 0.622471 0.139263 0.482484
Si Si5 0.283649 0.667229 0.108723
Si Si6 0.541620 0.631689 0.662597
Si Si7 0.997921 0.407174 0.200159
Si Si8 0.072917 0.299034 0.354196
O O1 0.301511 0.521139 0.697795
O O2 0.293058 0.601792 0.847210
O O3 0.477240 0.597827 0.751527
O O4 0.422109 0.473309 0.840043
O O5 0.169327 0.300958 0.434837
O O6 0.146331 0.941161 0.436868
O O7 0.089355 0.952193 0.268603
O O8 0.142566 0.074038 0.360443
O O9 0.750000 0.169953 0.500000
O O10 0.547355 0.133874 0.575803
O O11 0.548598 0.185838 0.407472
O O12 0.250000 0.750000 0.146353
O O13 0.415803 0.642972 0.133735
O O14 0.250000 0.668594 0.000000
O O15 0.579811 0.714944 0.680605
O O16 0.074020 0.355012 0.267921
#
# Coordination Sequence:
#
# PCOD9396361 Si02
#       8
#     8   2   8   8   8   8   8   8
#     4  10  20  37  59  85 116 155 189 249 306 374
#     4  12  24  40  46  84 120 178 214 258 308 352
#     4   9  20  34  50  77 110 148 197 244 298 358
#     4  11  20  37  52  77 107 152 207 265 308 350
#     4  10  21  40  66  97 125 150 193 255 320 387
#     4  11  20  35  52  77 109 153 206 248 307 359
#     4   9  21  38  58  85 116 153 202 245 304 377
#     4  11  24  38  53  80 118 162 214 258 303 365
#
# _framework density 19.444051000000002
#
# number of rings (size 3 to 8) (size 9 to 14) (size 15 to 20)
#    0.000    1.793    2.759    1.241    1.931    1.655 
#    1.241    0.000    0.000    0.000    0.000    0.000 
#    0.000    0.000    0.000    0.000    0.000    0.000 
#
# Total GULP energy -323526.487991 kJ/mol
# GULP energy per Si atom -5578.042896 kJ/mol
# Density = 1.939980 g / cm^3
# Si number density = 19.444051 Si / 1000 Ang^3
#
#
#
# Elastic Constant Matrix: (Units=GPa)
#
#
# Indices 1 2 3 4 5 6 
#
# 1 63.3562 48.0868 12.2804 0.0000 0.0000 0.0000
# 2 48.0868 162.1605 30.0020 0.0000 0.0000 0.0000
# 3 12.2804 30.0020 45.5882 0.0000 0.0000 0.0000
# 4 0.0000 0.0000 0.0000 -7.1810 0.0000 0.0000
# 5 0.0000 0.0000 0.0000 0.0000 17.4147 0.0000
# 6 0.0000 0.0000 0.0000 0.0000 0.0000 27.2206
#
#
#
# Elastic Compliance Matrix: (Units=1/GPa)
#
#
# Indices 1 2 3 4 5 6 
#
# 1 0.020487 -0.005755 -0.001731 0.000000 0.000000 0.000000
# 2 -0.005755 0.008638 -0.004135 0.000000 0.000000 0.000000
# 3 -0.001731 -0.004135 0.025123 0.000000 0.000000 0.000000
# 4 0.000000 0.000000 0.000000 -0.139256 0.000000 0.000000
# 5 0.000000 0.000000 0.000000 0.000000 0.057423 0.000000
# 6 0.000000 0.000000 0.000000 0.000000 0.000000 0.036737
#
#
# Mechanical properties :
#
#
# Convention : Reuss Voigt Hill
#
# Bulk Modulus (GPa) = 32.25130 50.20481 41.22805
# Shear Modulus (GPa) = 117.01316 19.53989 68.27653
#
# Velocity S-wave (km/s) = 7.76596 3.17350 5.93217
# Velocity P-wave (km/s) = 9.85069 6.26932 8.25653
#
# Compressibility (1/GPa) = 0.03100650
#
# Stress axis : x y z
#
# Youngs Moduli (GPa) = 48.81061 115.76399 39.80423
#
# Poissons Ratio (x) = 0.66622 0.06892
# Poissons Ratio (y) = 0.28090 0.16458
# Poissons Ratio (z) = 0.08451 0.47865
#
# Static dielectric constant tensor:
#      x y z
#    x 1.731500 0.000000 0.000000 
#    y 0.000000 1.711390 0.000000 
#    z 0.000000 0.000000 1.666600 
# 
# From -- ./inp_files/26029.got.cif
#   From: 2010.05.17/outbox.cif.g08.bks.cpg/sg50_14_cif.got.tgz:26029.got - 2010.06.03 11:33:33.
