data_PCOD9396144
_publ_section_title
;
Structure prediction by ZEFSAII (Michael W. Deem and Ramdas Pophale) SiO2 
 PCOD9396144
Probable space group: P B A N
;
_chemical_formula_sum "Si O2"
_cell_formula_units_Z 32
_cell_length_a 23.500867
_cell_length_b 8.185365
_cell_length_c 8.051895
_cell_angle_alpha 90.000000
_cell_angle_beta 90.000000
_cell_angle_gamma 90.000000
_cell_volume 1548.888081
_symmetry_space_group_name_H-M "P B A N"
_symmetry_group_IT_number 50
_space_group.IT_coordinate_system_code '2'
_symmetry_cell_setting 'orthorhombic'
loop_
_space_group_symop_operation_xyz
x,y,z
1/2-x,1/2-y,z
x,1/2-y,-z
1/2-x,y,-z
-x,-y,-z
1/2+x,1/2+y,-z
-x,1/2+y,z
1/2+x,-y,z
loop_
_atom_site_type_symbol
_atom_site_label
_atom_site_fract_x
_atom_site_fract_y
_atom_site_fract_z
Si Si1 0.422810 0.385152 0.194111
Si Si2 0.528519 0.218388 0.310541
Si Si3 0.376763 0.905820 0.110752
Si Si4 0.311101 0.202377 0.196042
O O1 0.473047 0.252969 0.199670
O O2 0.447744 0.536254 0.296379
O O3 0.364898 0.304989 0.262364
O O4 0.407058 0.469227 0.018284
O O5 0.513772 0.250000 0.500000
O O6 0.577758 0.336907 0.240817
O O7 0.327500 0.011421 0.197090
O O8 0.357352 0.750000 0.000000
O O9 0.250000 0.250000 0.268600
O O10 0.308497 0.250000 0.000000
#
# Coordination Sequence:
#
# PCOD9396144 Si02
#       4
#     8   8   8   8
#     4  10  20  34  54  80 107 141 179 224 276 327
#     4  11  21  34  54  80 111 142 179 226 276 332
#     4   9  19  35  56  80 108 141 178 223 274 326
#     4   9  18  35  57  81 106 137 181 226 266 318
#
# _framework density 20.659980999999998
#
# number of rings (size 3 to 8) (size 9 to 14) (size 15 to 20)
#    0.000    2.250    0.000    3.000    0.000    7.000 
#    0.000   21.250    0.000    8.250    0.000    0.000 
#    0.000    0.000    0.000    0.000    0.000    0.000 
#
# Total GULP energy -178609.486980 kJ/mol
# GULP energy per Si atom -5581.546468 kJ/mol
# Density = 2.061296 g / cm^3
# Si number density = 20.659981 Si / 1000 Ang^3
#
#
#
# Elastic Constant Matrix: (Units=GPa)
#
#
# Indices 1 2 3 4 5 6 
#
# 1 161.7826 95.4409 8.7280 0.0000 0.0000 0.0000
# 2 95.4409 139.7678 25.5486 0.0000 0.0000 0.0000
# 3 8.7280 25.5486 39.2331 0.0000 0.0000 0.0000
# 4 0.0000 0.0000 0.0000 15.4924 0.0000 0.0000
# 5 0.0000 0.0000 0.0000 0.0000 -13.4348 0.0000
# 6 0.0000 0.0000 0.0000 0.0000 0.0000 27.6291
#
#
#
# Elastic Compliance Matrix: (Units=1/GPa)
#
#
# Indices 1 2 3 4 5 6 
#
# 1 0.010592 -0.007721 0.002672 0.000000 0.000000 0.000000
# 2 -0.007721 0.013750 -0.007236 0.000000 0.000000 0.000000
# 3 0.002672 -0.007236 0.029607 0.000000 0.000000 0.000000
# 4 0.000000 0.000000 0.000000 0.064548 0.000000 0.000000
# 5 0.000000 0.000000 0.000000 0.000000 -0.074434 0.000000
# 6 0.000000 0.000000 0.000000 0.000000 0.000000 0.036194
#
#
# Mechanical properties :
#
#
# Convention : Reuss Voigt Hill
#
# Bulk Modulus (GPa) = 34.04023 66.69095 50.36559
# Shear Modulus (GPa) = 43.62240 20.00840 31.81540
#
# Velocity S-wave (km/s) = 4.60003 3.11539 3.92848
# Velocity P-wave (km/s) = 6.68774 6.72987 6.70884
#
# Compressibility (1/GPa) = 0.02937700
#
# Stress axis : x y z
#
# Youngs Moduli (GPa) = 94.41142 72.72811 33.77626
#
# Poissons Ratio (x) = 0.56154 -0.09024
# Poissons Ratio (y) = 0.72896 0.24441
# Poissons Ratio (z) = -0.25224 0.52628
#
# Static dielectric constant tensor:
#      x y z
#    x 1.763790 0.000000 0.000000 
#    y 0.000000 1.800470 0.000000 
#    z 0.000000 0.000000 1.725910 
# 
# From -- ./inp_files/9085.got.cif
#   From: 2010.05.17/outbox.cif.g08.bks.cpg/sg50_5_cif.got.tgz:9085.got - 2010.06.03 11:33:33.
