data_PCOD9396559
_publ_section_title
;
Structure prediction by ZEFSAII (Michael W. Deem and Ramdas Pophale) SiO2 
 PCOD9396559
Probable space group: P B A N
;
_chemical_formula_sum "Si O2"
_cell_formula_units_Z 58
_cell_length_a 19.237092
_cell_length_b 16.638911
_cell_length_c 9.335372
_cell_angle_alpha 90.000000
_cell_angle_beta 90.000000
_cell_angle_gamma 90.000000
_cell_volume 2988.105654
_symmetry_space_group_name_H-M "P B A N"
_symmetry_group_IT_number 50
_space_group.IT_coordinate_system_code '2'
_symmetry_cell_setting 'orthorhombic'
loop_
_space_group_symop_operation_xyz
x,y,z
1/2-x,1/2-y,z
x,1/2-y,-z
1/2-x,y,-z
-x,-y,-z
1/2+x,1/2+y,-z
-x,1/2+y,z
1/2+x,-y,z
loop_
_atom_site_type_symbol
_atom_site_label
_atom_site_fract_x
_atom_site_fract_y
_atom_site_fract_z
Si Si1 0.154331 0.634163 0.689157
Si Si2 0.482408 0.594846 0.493189
Si Si3 0.740928 0.001156 0.669453
Si Si4 0.597067 0.070048 0.761907
Si Si5 0.250000 0.750000 0.500000
Si Si6 0.568098 0.163176 0.049307
Si Si7 0.565319 0.881309 0.769026
Si Si8 0.781861 0.835543 0.160735
O O1 0.086593 0.611586 0.597878
O O2 0.193750 0.551736 0.722732
O O3 0.202235 0.693406 0.598191
O O4 0.129492 0.672561 0.836251
O O5 0.500000 0.500000 0.500000
O O6 0.457387 0.614286 0.654701
O O7 0.543345 0.635788 0.397899
O O8 0.750000 0.988783 0.500000
O O9 0.736239 0.915371 0.747709
O O10 0.674466 0.059757 0.696705
O O11 0.578278 0.976488 0.774994
O O12 0.592983 0.110933 0.915419
O O13 0.501290 0.129682 0.131285
O O14 0.546340 0.250000 0.000000
O O15 0.633731 0.835327 0.825877
O O16 0.750000 0.750000 0.212042
O O17 0.750000 0.845968 0.000000
#
# Coordination Sequence:
#
# PCOD9396559 Si02
#       8
#     8   8   8   8   2   8   8   8
#     4  11  24  40  63  93 131 175 221 270 326 392
#     4   9  18  39  67  91 124 161 221 265 322 388
#     4  11  22  41  68  94 130 171 224 265 321 396
#     4  10  20  40  66  93 125 168 211 269 326 383
#     4  12  24  44  70  88 142 196 224 272 336 404
#     4  11  26  39  60  94 133 162 219 270 327 394
#     4   9  21  42  64  92 122 167 215 263 320 401
#     4  10  24  44  70  96 132 169 213 273 340 397
#
# _framework density 19.41029
#
# number of rings (size 3 to 8) (size 9 to 14) (size 15 to 20)
#    0.000    1.793    2.069    0.414    9.655    0.276 
#    0.000    0.000    6.069    0.000    0.000    0.000 
#    0.000    0.000    0.000    0.000    0.000    0.000 
#
# Total GULP energy -323293.334107 kJ/mol
# GULP energy per Si atom -5574.023002 kJ/mol
# Density = 1.936611 g / cm^3
# Si number density = 19.410290 Si / 1000 Ang^3
#
#
#
# Elastic Constant Matrix: (Units=GPa)
#
#
# Indices 1 2 3 4 5 6 
#
# 1 100.9168 29.7606 54.0456 0.0000 0.0000 0.0000
# 2 29.7606 28.4618 7.6689 0.0000 0.0000 0.0000
# 3 54.0456 7.6689 108.6820 0.0000 0.0000 0.0000
# 4 0.0000 0.0000 0.0000 24.7315 0.0000 0.0000
# 5 0.0000 0.0000 0.0000 0.0000 29.8364 0.0000
# 6 0.0000 0.0000 0.0000 0.0000 0.0000 1982.3531
#
#
#
# Elastic Compliance Matrix: (Units=1/GPa)
#
#
# Indices 1 2 3 4 5 6 
#
# 1 0.020029 -0.018613 -0.008647 0.000000 0.000000 0.000000
# 2 -0.018613 0.053113 0.005508 0.000000 0.000000 0.000000
# 3 -0.008647 0.005508 0.013112 0.000000 0.000000 0.000000
# 4 0.000000 0.000000 0.000000 0.040434 0.000000 0.000000
# 5 0.000000 0.000000 0.000000 0.000000 0.033516 0.000000
# 6 0.000000 0.000000 0.000000 0.000000 0.000000 0.000504
#
#
# Mechanical properties :
#
#
# Convention : Reuss Voigt Hill
#
# Bulk Modulus (GPa) = 23.39114 46.77897 35.08506
# Shear Modulus (GPa) = 22.88722 417.15656 220.02189
#
# Velocity S-wave (km/s) = 3.43757 14.67589 10.65830
# Velocity P-wave (km/s) = 5.27569 17.64449 13.02231
#
# Compressibility (1/GPa) = 0.04275123
#
# Stress axis : x y z
#
# Youngs Moduli (GPa) = 49.92807 18.82774 76.26446
#
# Poissons Ratio (x) = 0.35044 0.65943
# Poissons Ratio (y) = 0.92931 -0.42007
# Poissons Ratio (z) = 0.43171 -0.10371
#
# Static dielectric constant tensor:
#      x y z
#    x 1.732640 0.000000 0.000000 
#    y 0.000000 1.648730 0.000000 
#    z 0.000000 0.000000 1.758140 
# 
# From -- ./inp_files/14475.got.cif
#   From: 2010.05.17/outbox.cif.g08.bks.cpg/sg50_8_cif.got.tgz:14475.got - 2010.06.03 11:33:33.
