data_PCOD9396666
_publ_section_title
;
Structure prediction by ZEFSAII (Michael W. Deem and Ramdas Pophale) SiO2 
 PCOD9396666
Probable space group: P B A N
;
_chemical_formula_sum "Si O2"
_cell_formula_units_Z 32
_cell_length_a 8.373798
_cell_length_b 13.972892
_cell_length_c 11.546649
_cell_angle_alpha 90.000000
_cell_angle_beta 90.000000
_cell_angle_gamma 90.000000
_cell_volume 1351.029235
_symmetry_space_group_name_H-M "P B A N"
_symmetry_group_IT_number 50
_space_group.IT_coordinate_system_code '2'
_symmetry_cell_setting 'orthorhombic'
loop_
_space_group_symop_operation_xyz
x,y,z
1/2-x,1/2-y,z
x,1/2-y,-z
1/2-x,y,-z
-x,-y,-z
1/2+x,1/2+y,-z
-x,1/2+y,z
1/2+x,-y,z
loop_
_atom_site_type_symbol
_atom_site_label
_atom_site_fract_x
_atom_site_fract_y
_atom_site_fract_z
Si Si1 0.062817 0.384795 0.740341
Si Si2 0.417890 0.689273 0.249531
Si Si3 0.431834 0.865860 0.508370
Si Si4 0.757394 0.471522 0.867006
O O1 0.215040 0.439584 0.785753
O O2 0.047545 0.271724 0.765221
O O3 0.030732 0.399593 0.602583
O O4 0.921314 0.429492 0.818219
O O5 0.250000 0.750000 0.276747
O O6 0.471910 0.623243 0.357330
O O7 0.368322 0.616533 0.149721
O O8 0.434165 0.750000 0.500000
O O9 0.250000 0.900826 0.500000
O O10 0.750000 0.499962 0.000000
#
# Coordination Sequence:
#
# PCOD9396666 Si02
#       4
#     8   8   8   8
#     4  10  21  35  58  84 115 154 196 253 298 347
#     4   9  17  33  58  84 112 155 202 242 292 357
#     4   9  12  29  55  84 111 144 196 244 285 343
#     4  11  22  37  55  84 117 151 202 248 293 358
#
# _framework density 23.685646999999999
#
# number of rings (size 3 to 8) (size 9 to 14) (size 15 to 20)
#    0.000    2.250    7.500    0.750    0.000    5.500 
#    0.000    1.250    0.000    1.500    0.000   21.000 
#    0.000    0.000    0.000    0.000    0.000    0.500 
#
# Total GULP energy -178664.786410 kJ/mol
# GULP energy per Si atom -5583.274575 kJ/mol
# Density = 2.363174 g / cm^3
# Si number density = 23.685647 Si / 1000 Ang^3
#
#
#
# Elastic Constant Matrix: (Units=GPa)
#
#
# Indices 1 2 3 4 5 6 
#
# 1 33.0450 25.3867 33.5641 0.0000 0.0000 0.0000
# 2 25.3867 96.2211 21.7392 0.0000 0.0000 0.0000
# 3 33.5641 21.7392 134.4195 0.0000 0.0000 0.0000
# 4 0.0000 0.0000 0.0000 3.7198 0.0000 0.0000
# 5 0.0000 0.0000 0.0000 0.0000 16.0737 0.0000
# 6 0.0000 0.0000 0.0000 0.0000 0.0000 19.4040
#
#
#
# Elastic Compliance Matrix: (Units=1/GPa)
#
#
# Indices 1 2 3 4 5 6 
#
# 1 0.049098 -0.010570 -0.010550 0.000000 0.000000 0.000000
# 2 -0.010570 0.013063 0.000527 0.000000 0.000000 0.000000
# 3 -0.010550 0.000527 0.009989 0.000000 0.000000 0.000000
# 4 0.000000 0.000000 0.000000 0.268833 0.000000 0.000000
# 5 0.000000 0.000000 0.000000 0.000000 0.062213 0.000000
# 6 0.000000 0.000000 0.000000 0.000000 0.000000 0.051536
#
#
# Mechanical properties :
#
#
# Convention : Reuss Voigt Hill
#
# Bulk Modulus (GPa) = 32.29771 47.22953 39.76362
# Shear Modulus (GPa) = 9.87675 20.03922 14.95798
#
# Velocity S-wave (km/s) = 2.04426 2.91185 2.51573
# Velocity P-wave (km/s) = 4.38607 5.59362 5.02624
#
# Compressibility (1/GPa) = 0.03096194
#
# Stress axis : x y z
#
# Youngs Moduli (GPa) = 20.36732 76.55471 100.11467
#
# Poissons Ratio (x) = 0.80921 1.05623
# Poissons Ratio (y) = 0.21529 -0.05274
# Poissons Ratio (z) = 0.21488 -0.04033
#
# Static dielectric constant tensor:
#      x y z
#    x 1.959190 0.000000 0.000000 
#    y 0.000000 1.946660 0.000000 
#    z 0.000000 0.000000 1.872320 
# 
# From -- ./inp_files/18480.got.cif
#   From: 2010.05.17/outbox.cif.g08.bks.cpg/sg50_10_cif.got.tgz:18480.got - 2010.06.03 11:33:33.
