data_PCOD9396079
_publ_section_title
;
Structure prediction by ZEFSAII (Michael W. Deem and Ramdas Pophale) SiO2 
 PCOD9396079
Probable space group: P B A N
;
_chemical_formula_sum "Si O2"
_cell_formula_units_Z 64
_cell_length_a 22.190389
_cell_length_b 18.221988
_cell_length_c 9.641050
_cell_angle_alpha 90.000000
_cell_angle_beta 90.000000
_cell_angle_gamma 90.000000
_cell_volume 3898.387511
_symmetry_space_group_name_H-M "P B A N"
_symmetry_group_IT_number 50
_space_group.IT_coordinate_system_code '2'
_symmetry_cell_setting 'orthorhombic'
loop_
_space_group_symop_operation_xyz
x,y,z
1/2-x,1/2-y,z
x,1/2-y,-z
1/2-x,y,-z
-x,-y,-z
1/2+x,1/2+y,-z
-x,1/2+y,z
1/2+x,-y,z
loop_
_atom_site_type_symbol
_atom_site_label
_atom_site_fract_x
_atom_site_fract_y
_atom_site_fract_z
Si Si1 0.885129 0.889590 0.715137
Si Si2 0.118304 0.395581 0.211050
Si Si3 0.565811 0.460801 0.661400
Si Si4 0.680206 0.832580 0.037042
Si Si5 0.486637 0.836032 0.168089
Si Si6 0.682905 0.664297 0.463676
Si Si7 0.066581 0.962370 0.659483
Si Si8 0.013579 0.836086 0.161819
O O1 0.832736 0.852662 0.805070
O O2 0.947124 0.853613 0.769203
O O3 0.869156 0.873029 0.556213
O O4 0.891503 0.977083 0.727019
O O5 0.165468 0.351798 0.306187
O O6 0.109437 0.477426 0.269129
O O7 0.053662 0.355491 0.214621
O O8 0.142291 0.389234 0.055373
O O9 0.499713 0.499476 0.659645
O O10 0.582199 0.446945 0.500817
O O11 0.558407 0.388561 0.753510
O O12 0.658863 0.750000 0.000000
O O13 0.750000 0.836754 0.000000
O O14 0.441291 0.888966 0.250543
O O15 0.474368 0.749741 0.184254
O O16 0.485652 0.852252 0.003259
O O17 0.681451 0.750000 0.500000
O O18 0.750000 0.636783 0.500000
#
# Coordination Sequence:
#
# PCOD9396079 Si02
#       8
#     8   8   8   8   8   8   8   8
#     4  11  20  34  51  69 100 136 167 203 244 288
#     4  11  20  34  51  69 100 136 167 203 244 288
#     4   9  19  33  48  71  97 128 166 202 240 292
#     4  11  22  34  49  72 101 133 174 213 240 276
#     4  10  20  32  50  75 101 129 163 199 244 300
#     4  11  22  34  49  70  97 133 174 209 240 276
#     4   9  19  33  48  71  97 128 166 202 240 292
#     4  10  20  32  50  75 101 129 163 199 244 300
#
# _framework density 16.417045999999999
#
# number of rings (size 3 to 8) (size 9 to 14) (size 15 to 20)
#    0.000    1.750    2.500    3.000    3.500    4.000 
#    0.000    0.000    0.000    0.000    0.000    0.000 
#    0.000    6.000    0.000    0.000    0.000    0.000 
#
# Total GULP energy -357035.992483 kJ/mol
# GULP energy per Si atom -5578.687383 kJ/mol
# Density = 1.637968 g / cm^3
# Si number density = 16.417046 Si / 1000 Ang^3
#
#
#
# Elastic Constant Matrix: (Units=GPa)
#
#
# Indices 1 2 3 4 5 6 
#
# 1 25.6090 22.2706 3.3432 0.0000 0.0000 0.0000
# 2 22.2706 99.6618 41.1672 0.0000 0.0000 0.0000
# 3 3.3432 41.1672 65.5727 0.0000 0.0000 0.0000
# 4 0.0000 0.0000 0.0000 30.2885 0.0000 0.0000
# 5 0.0000 0.0000 0.0000 0.0000 18.9940 0.0000
# 6 0.0000 0.0000 0.0000 0.0000 0.0000 14.6338
#
#
#
# Elastic Compliance Matrix: (Units=1/GPa)
#
#
# Indices 1 2 3 4 5 6 
#
# 1 0.050185 -0.013714 0.006051 0.000000 0.000000 0.000000
# 2 -0.013714 0.017295 -0.010159 0.000000 0.000000 0.000000
# 3 0.006051 -0.010159 0.021319 0.000000 0.000000 0.000000
# 4 0.000000 0.000000 0.000000 0.033016 0.000000 0.000000
# 5 0.000000 0.000000 0.000000 0.000000 0.052648 0.000000
# 6 0.000000 0.000000 0.000000 0.000000 0.000000 0.068335
#
#
# Mechanical properties :
#
#
# Convention : Reuss Voigt Hill
#
# Bulk Modulus (GPa) = 18.81249 36.04504 27.42877
# Shear Modulus (GPa) = 16.88280 21.05411 18.96845
#
# Velocity S-wave (km/s) = 3.21030 3.58502 3.40282
# Velocity P-wave (km/s) = 5.02249 6.25620 5.67298
#
# Compressibility (1/GPa) = 0.05315617
#
# Stress axis : x y z
#
# Youngs Moduli (GPa) = 19.92629 57.82135 46.90574
#
# Poissons Ratio (x) = 0.79296 -0.28383
# Poissons Ratio (y) = 0.27327 0.47649
# Poissons Ratio (z) = -0.12058 0.58738
#
# Static dielectric constant tensor:
#      x y z
#    x 1.542020 0.000000 0.000000 
#    y 0.000000 1.548100 0.000000 
#    z 0.000000 0.000000 1.549150 
# 
# From -- ./inp_files/14680.got.cif
#   From: 2010.05.17/outbox.cif.g08.bks.cpg/sg50_8_cif.got.tgz:14680.got - 2010.06.03 11:33:33.
