data_PCOD9396952
_publ_section_title
;
Structure prediction by ZEFSAII (Michael W. Deem and Ramdas Pophale) SiO2 
 PCOD9396952
Probable space group: P B A N
;
_chemical_formula_sum "Si O2"
_cell_formula_units_Z 52
_cell_length_a 8.758949
_cell_length_b 25.717480
_cell_length_c 11.059621
_cell_angle_alpha 90.000000
_cell_angle_beta 90.000000
_cell_angle_gamma 90.000000
_cell_volume 2491.269166
_symmetry_space_group_name_H-M "P B A N"
_symmetry_group_IT_number 50
_space_group.IT_coordinate_system_code '2'
_symmetry_cell_setting 'orthorhombic'
loop_
_space_group_symop_operation_xyz
x,y,z
1/2-x,1/2-y,z
x,1/2-y,-z
1/2-x,y,-z
-x,-y,-z
1/2+x,1/2+y,-z
-x,1/2+y,z
1/2+x,-y,z
loop_
_atom_site_type_symbol
_atom_site_label
_atom_site_fract_x
_atom_site_fract_y
_atom_site_fract_z
Si Si1 0.142506 0.847395 0.892024
Si Si2 0.917971 0.099853 0.562728
Si Si3 0.080703 0.259935 0.857316
Si Si4 0.660935 0.493801 0.728444
Si Si5 0.750000 0.557833 0.500000
Si Si6 0.154402 0.800862 0.308513
Si Si7 0.573280 0.035874 0.896864
O O1 0.241109 0.839894 0.771038
O O2 0.097171 0.904729 0.933097
O O3 0.988897 0.817319 0.856104
O O4 0.250000 0.824388 0.000000
O O5 0.750000 0.091632 0.500000
O O6 0.907747 0.059991 0.676719
O O7 0.918861 0.161164 0.593779
O O8 0.083331 0.086572 0.502048
O O9 0.250000 0.250000 0.811232
O O10 0.968386 0.222976 0.783525
O O11 0.079350 0.250000 0.000000
O O12 0.746400 0.521628 0.618505
O O13 0.767423 0.483886 0.843752
O O14 0.532713 0.532167 0.778663
O O15 0.250000 0.750000 0.350231
O O16 0.500000 0.000000 0.000000
#
# Coordination Sequence:
#
# PCOD9396952 Si02
#       7
#     8   8   8   8   4   8   8
#     4  11  21  39  65  91 135 187 228 266 341 419
#     4  12  25  46  75 102 136 185 241 303 372 410
#     4  10  21  40  64  98 133 171 229 283 331 409
#     4  12  23  46  66 101 144 180 241 293 349 428
#     4  12  26  44  76 105 133 188 252 308 346 428
#     4  10  23  42  70  98 132 180 226 291 350 425
#     4  12  26  41  64 103 150 188 224 284 359 438
#
# _framework density 20.872893000000001
#
# number of rings (size 3 to 8) (size 9 to 14) (size 15 to 20)
#    0.000    0.769    5.385    2.769    0.000    1.538 
#    8.308    0.000    0.000    0.000    0.000    0.000 
#    0.000    0.000    0.000    0.000    0.000    0.000 
#
# Total GULP energy -289918.364597 kJ/mol
# GULP energy per Si atom -5575.353165 kJ/mol
# Density = 2.082539 g / cm^3
# Si number density = 20.872893 Si / 1000 Ang^3
#
#
#
# Elastic Constant Matrix: (Units=GPa)
#
#
# Indices 1 2 3 4 5 6 
#
# 1 145.3466 63.5769 32.4907 0.0000 0.0000 0.0000
# 2 63.5769 119.6546 29.1380 0.0000 0.0000 0.0000
# 3 32.4907 29.1380 56.0313 0.0000 0.0000 0.0000
# 4 0.0000 0.0000 0.0000 27.5779 0.0000 0.0000
# 5 0.0000 0.0000 0.0000 0.0000 36.8875 0.0000
# 6 0.0000 0.0000 0.0000 0.0000 0.0000 18.0975
#
#
#
# Elastic Compliance Matrix: (Units=1/GPa)
#
#
# Indices 1 2 3 4 5 6 
#
# 1 0.009465 -0.004228 -0.003290 0.000000 0.000000 0.000000
# 2 -0.004228 0.011458 -0.003507 0.000000 0.000000 0.000000
# 3 -0.003290 -0.003507 0.021578 0.000000 0.000000 0.000000
# 4 0.000000 0.000000 0.000000 0.036261 0.000000 0.000000
# 5 0.000000 0.000000 0.000000 0.000000 0.027109 0.000000
# 6 0.000000 0.000000 0.000000 0.000000 0.000000 0.055256
#
#
# Mechanical properties :
#
#
# Convention : Reuss Voigt Hill
#
# Bulk Modulus (GPa) = 48.89440 63.49374 56.19407
# Shear Modulus (GPa) = 26.31665 29.56772 27.94218
#
# Velocity S-wave (km/s) = 3.55463 3.76781 3.66277
# Velocity P-wave (km/s) = 6.35003 7.02949 6.69838
#
# Compressibility (1/GPa) = 0.02045224
#
# Stress axis : x y z
#
# Youngs Moduli (GPa) = 105.65414 87.27679 46.34262
#
# Poissons Ratio (x) = 0.36900 0.15245
# Poissons Ratio (y) = 0.44670 0.16251
# Poissons Ratio (z) = 0.34757 0.30606
#
# Static dielectric constant tensor:
#      x y z
#    x 1.834940 0.000000 0.000000 
#    y 0.000000 1.810030 0.000000 
#    z 0.000000 0.000000 1.774830 
# 
# From -- ./inp_files/19351.got.cif
#   From: 2010.05.17/outbox.cif.g08.bks.cpg/sg50_10_cif.got.tgz:19351.got - 2010.06.03 11:33:33.
