data_PCOD9396271
_publ_section_title
;
Structure prediction by ZEFSAII (Michael W. Deem and Ramdas Pophale) SiO2 
 PCOD9396271
Probable space group: P B A N
;
_chemical_formula_sum "Si O2"
_cell_formula_units_Z 38
_cell_length_a 13.766770
_cell_length_b 16.965626
_cell_length_c 7.175154
_cell_angle_alpha 90.000000
_cell_angle_beta 90.000000
_cell_angle_gamma 90.000000
_cell_volume 1675.842393
_symmetry_space_group_name_H-M "P B A N"
_symmetry_group_IT_number 50
_space_group.IT_coordinate_system_code '2'
_symmetry_cell_setting 'orthorhombic'
loop_
_space_group_symop_operation_xyz
x,y,z
1/2-x,1/2-y,z
x,1/2-y,-z
1/2-x,y,-z
-x,-y,-z
1/2+x,1/2+y,-z
-x,1/2+y,z
1/2+x,-y,z
loop_
_atom_site_type_symbol
_atom_site_label
_atom_site_fract_x
_atom_site_fract_y
_atom_site_fract_z
Si Si1 0.867986 0.091393 0.506311
Si Si2 0.484578 0.750000 0.500000
Si Si3 0.415124 0.184817 0.869496
Si Si4 0.408804 0.008026 0.851178
Si Si5 0.116753 0.620555 0.096541
Si Si6 0.250000 0.750000 0.000000
O O1 0.750000 0.090978 0.500000
O O2 0.916171 0.176012 0.556480
O O3 0.599232 0.078543 0.707301
O O4 0.911866 0.025023 0.641882
O O5 0.552342 0.779223 0.329038
O O6 0.370061 0.097366 0.850748
O O7 0.517365 0.161819 0.968478
O O8 0.366243 0.250000 0.000000
O O9 0.500000 0.000000 0.000000
O O10 0.345079 0.939073 0.943300
O O11 0.187526 0.693161 0.127742
#
# Coordination Sequence:
#
# PCOD9396271 Si02
#       6
#     8   4   8   8   8   2
#     4  11  23  35  56  91 128 170 205 266 334 409
#     4  10  21  32  56  90 121 162 204 256 326 408
#     4  10  20  36  56  82 115 159 213 266 316 373
#     4  10  22  39  56  83 127 169 217 264 323 393
#     4  10  22  33  56  85 127 168 206 258 323 411
#     4  12  20  36  62  92 134 174 212 254 358 428
#
# _framework density 22.675162
#
# number of rings (size 3 to 8) (size 9 to 14) (size 15 to 20)
#    0.000    1.684    1.053    4.105    8.842    9.263 
#    0.000    0.000    0.000    0.000    0.000   17.684 
#    0.000    0.000    0.000    0.000    0.000    0.000 
#
# Total GULP energy -211756.742467 kJ/mol
# GULP energy per Si atom -5572.545854 kJ/mol
# Density = 2.262355 g / cm^3
# Si number density = 22.675162 Si / 1000 Ang^3
#
#
#
# Elastic Constant Matrix: (Units=GPa)
#
#
# Indices 1 2 3 4 5 6 
#
# 1 41.1352 5.1665 6.5740 0.0000 0.0000 0.0000
# 2 5.1665 188.8316 74.1454 0.0000 0.0000 0.0000
# 3 6.5740 74.1454 133.2424 0.0000 0.0000 0.0000
# 4 0.0000 0.0000 0.0000 55.0568 0.0000 0.0000
# 5 0.0000 0.0000 0.0000 0.0000 15.6925 0.0000
# 6 0.0000 0.0000 0.0000 0.0000 0.0000 18.9493
#
#
#
# Elastic Compliance Matrix: (Units=1/GPa)
#
#
# Indices 1 2 3 4 5 6 
#
# 1 0.024513 -0.000251 -0.001070 0.000000 0.000000 0.000000
# 2 -0.000251 0.006779 -0.003760 0.000000 0.000000 0.000000
# 3 -0.001070 -0.003760 0.009650 0.000000 0.000000 0.000000
# 4 0.000000 0.000000 0.000000 0.018163 0.000000 0.000000
# 5 0.000000 0.000000 0.000000 0.000000 0.063725 0.000000
# 6 0.000000 0.000000 0.000000 0.000000 0.000000 0.052772
#
#
# Mechanical properties :
#
#
# Convention : Reuss Voigt Hill
#
# Bulk Modulus (GPa) = 32.48783 59.44233 45.96508
# Shear Modulus (GPa) = 25.50725 36.42796 30.96760
#
# Velocity S-wave (km/s) = 3.35759 4.01248 3.69956
# Velocity P-wave (km/s) = 5.42124 6.90929 6.21000
#
# Compressibility (1/GPa) = 0.03078076
#
# Stress axis : x y z
#
# Youngs Moduli (GPa) = 40.79546 147.51616 103.62496
#
# Poissons Ratio (x) = 0.03696 0.11088
# Poissons Ratio (y) = 0.01022 0.38962
# Poissons Ratio (z) = 0.04365 0.55465
#
# Static dielectric constant tensor:
#      x y z
#    x 2.012210 0.000000 0.000000 
#    y 0.000000 1.954080 0.000000 
#    z 0.000000 0.000000 1.878090 
# 
# From -- ./inp_files/14085.got.cif
#   From: 2010.05.17/outbox.cif.g08.bks.cpg/sg50_8_cif.got.tgz:14085.got - 2010.06.03 11:33:33.
