data_PCOD9396198
_publ_section_title
;
Structure prediction by ZEFSAII (Michael W. Deem and Ramdas Pophale) SiO2 
 PCOD9396198
Probable space group: P B A N
;
_chemical_formula_sum "Si O2"
_cell_formula_units_Z 64
_cell_length_a 18.732292
_cell_length_b 13.439745
_cell_length_c 15.760623
_cell_angle_alpha 90.000000
_cell_angle_beta 90.000000
_cell_angle_gamma 90.000000
_cell_volume 3967.850754
_symmetry_space_group_name_H-M "P B A N"
_symmetry_group_IT_number 50
_space_group.IT_coordinate_system_code '2'
_symmetry_cell_setting 'orthorhombic'
loop_
_space_group_symop_operation_xyz
x,y,z
1/2-x,1/2-y,z
x,1/2-y,-z
1/2-x,y,-z
-x,-y,-z
1/2+x,1/2+y,-z
-x,1/2+y,z
1/2+x,-y,z
loop_
_atom_site_type_symbol
_atom_site_label
_atom_site_fract_x
_atom_site_fract_y
_atom_site_fract_z
Si Si1 0.066175 0.866073 0.640324
Si Si2 0.500000 0.500000 0.221466
Si Si3 0.335419 0.546396 0.500000
Si Si4 0.593940 0.629699 0.099465
Si Si5 0.406060 0.370301 0.099465
Si Si6 0.433825 0.633927 0.359676
Si Si7 0.557315 0.863961 0.500000
Si Si8 0.250000 0.363525 0.897226
O O1 0.054398 0.939730 0.718395
O O2 0.133295 0.895847 0.581971
O O3 0.070373 0.750000 0.664544
O O4 0.995679 0.877645 0.580240
O O5 0.538658 0.579240 0.161495
O O6 0.461342 0.420760 0.161495
O O7 0.445602 0.560270 0.281605
O O8 0.250000 0.537803 0.500000
O O9 0.366705 0.604153 0.418029
O O10 0.378294 0.441516 0.500000
O O11 0.593029 0.750000 0.105851
O O12 0.673508 0.592610 0.125036
O O13 0.581641 0.605771 1.000000
O O14 0.326492 0.407390 0.125036
O O15 0.504321 0.622355 0.419760
O O16 0.582542 0.750000 0.500000
O O17 0.250000 0.250000 0.865055
O O18 0.250000 0.357991 0.000000
#
# Coordination Sequence:
#
# PCOD9396198 Si02
#       8
#     8   8   8   8   8   8   8   8
#     4  10  20  35  54  73  98 134 174 211 248 298
#     4  12  19  31  50  78 106 128 168 215 265 292
#     4  11  20  36  57  76 101 136 174 204 246 308
#     4   9  18  32  51  75 102 135 170 205 251 307
#     4   9  18  32  51  75 102 135 170 205 251 307
#     4  10  20  35  54  73  98 134 174 211 248 298
#     4   9  17  35  57  75  99 130 164 203 253 309
#     4   7  12  28  50  68  91 122 159 198 241 298
#
# _framework density 16.129639999999998
#
# number of rings (size 3 to 8) (size 9 to 14) (size 15 to 20)
#    0.000    2.375    2.500    4.500    0.000    1.250 
#    2.250    0.000    0.000    0.000    0.000    0.000 
#    0.000    8.000    0.000    0.000    0.000    0.000 
#
# Total GULP energy -356472.087211 kJ/mol
# GULP energy per Si atom -5569.876363 kJ/mol
# Density = 1.609293 g / cm^3
# Si number density = 16.129640 Si / 1000 Ang^3
#
#
#
# Elastic Constant Matrix: (Units=GPa)
#
#
# Indices 1 2 3 4 5 6 
#
# 1 92.6854 23.3646 32.2415 0.0000 0.0000 0.0000
# 2 23.3646 73.9879 27.8462 0.0000 0.0000 0.0000
# 3 32.2415 27.8462 72.2521 0.0000 0.0000 0.0000
# 4 0.0000 0.0000 0.0000 28.1068 0.0000 0.0000
# 5 0.0000 0.0000 0.0000 0.0000 6.5463 0.0000
# 6 0.0000 0.0000 0.0000 0.0000 0.0000 17.1277
#
#
#
# Elastic Compliance Matrix: (Units=1/GPa)
#
#
# Indices 1 2 3 4 5 6 
#
# 1 0.013088 -0.002263 -0.004968 0.000000 0.000000 0.000000
# 2 -0.002263 0.016200 -0.005234 0.000000 0.000000 0.000000
# 3 -0.004968 -0.005234 0.018074 0.000000 0.000000 0.000000
# 4 0.000000 0.000000 0.000000 0.035579 0.000000 0.000000
# 5 0.000000 0.000000 0.000000 0.000000 0.152759 0.000000
# 6 0.000000 0.000000 0.000000 0.000000 0.000000 0.058385
#
#
# Mechanical properties :
#
#
# Convention : Reuss Voigt Hill
#
# Bulk Modulus (GPa) = 44.57795 45.09222 44.83509
# Shear Modulus (GPa) = 15.31431 20.72103 18.01767
#
# Velocity S-wave (km/s) = 3.08466 3.58810 3.34586
# Velocity P-wave (km/s) = 6.35485 6.72181 6.54090
#
# Compressibility (1/GPa) = 0.02243262
#
# Stress axis : x y z
#
# Youngs Moduli (GPa) = 76.40650 61.72771 55.32683
#
# Poissons Ratio (x) = 0.13970 0.27487
# Poissons Ratio (y) = 0.17293 0.28956
# Poissons Ratio (z) = 0.37959 0.32306
#
# Static dielectric constant tensor:
#      x y z
#    x 1.544130 0.000000 0.000000 
#    y 0.000000 1.550610 0.000000 
#    z 0.000000 0.000000 1.532780 
# 
# From -- ./inp_files/27048.got.cif
#   From: 2010.05.17/outbox.cif.g08.bks.cpg/sg50_14_cif.got.tgz:27048.got - 2010.06.03 11:33:33.
