data_PCOD9396367
_publ_section_title
;
Structure prediction by ZEFSAII (Michael W. Deem and Ramdas Pophale) SiO2 
 PCOD9396367
Probable space group: P B A N
;
_chemical_formula_sum "Si O2"
_cell_formula_units_Z 50
_cell_length_a 15.413374
_cell_length_b 7.432567
_cell_length_c 20.558295
_cell_angle_alpha 90.000000
_cell_angle_beta 90.000000
_cell_angle_gamma 90.000000
_cell_volume 2355.177496
_symmetry_space_group_name_H-M "P B A N"
_symmetry_group_IT_number 50
_space_group.IT_coordinate_system_code '2'
_symmetry_cell_setting 'orthorhombic'
loop_
_space_group_symop_operation_xyz
x,y,z
1/2-x,1/2-y,z
x,1/2-y,-z
1/2-x,y,-z
-x,-y,-z
1/2+x,1/2+y,-z
-x,1/2+y,z
1/2+x,-y,z
loop_
_atom_site_type_symbol
_atom_site_label
_atom_site_fract_x
_atom_site_fract_y
_atom_site_fract_z
Si Si1 0.875385 0.517022 0.160829
Si Si2 0.613984 0.011224 0.304527
Si Si3 0.721557 0.042412 0.929974
Si Si4 0.578629 0.911158 0.705988
Si Si5 0.439506 0.077814 0.147077
Si Si6 0.772157 0.966958 0.393728
Si Si7 0.750000 0.250000 0.500000
O O1 0.861698 0.428616 0.231565
O O2 0.784760 0.530361 0.125131
O O3 0.909962 0.719316 0.157822
O O4 0.958689 0.418035 0.129423
O O5 0.605422 0.797149 0.293371
O O6 0.685207 0.039864 0.359008
O O7 0.518748 0.080749 0.321412
O O8 0.750000 0.250000 0.931916
O O9 0.623615 0.010899 0.906064
O O10 0.750000 0.966013 0.000000
O O11 0.571928 0.996838 0.778586
O O12 0.651255 0.989428 0.658919
O O13 0.750000 0.750000 0.407832
O O14 0.795179 0.101243 0.452826
#
# Coordination Sequence:
#
# PCOD9396367 Si02
#       7
#     8   8   8   8   8   8   2
#     4  10  20  37  60  89 117 148 193 246 303 353
#     4   9  19  36  62  90 118 147 189 245 299 345
#     4  11  24  39  54  78 116 160 204 242 291 356
#     4   9  19  36  62  90 118 147 189 245 299 345
#     4  10  20  37  60  89 117 148 193 246 303 353
#     4  10  22  42  62  85 126 158 195 250 291 347
#     4  12  26  40  64  90 116 166 212 224 288 370
#
# _framework density 21.229823
#
# number of rings (size 3 to 8) (size 9 to 14) (size 15 to 20)
#    0.000    2.080    0.000    2.640    2.240    5.760 
#    2.880    0.800    0.000    0.000    0.000    0.000 
#    0.000    0.000    0.000    0.000    0.000    0.000 
#
# Total GULP energy -278549.687450 kJ/mol
# GULP energy per Si atom -5570.993749 kJ/mol
# Density = 2.118150 g / cm^3
# Si number density = 21.229823 Si / 1000 Ang^3
#
#
#
# Elastic Constant Matrix: (Units=GPa)
#
#
# Indices 1 2 3 4 5 6 
#
# 1 78.1703 -12.4105 25.0227 0.0000 0.0000 0.0000
# 2 -12.4105 45.0043 5.3953 0.0000 0.0000 0.0000
# 3 25.0227 5.3953 42.1247 0.0000 0.0000 0.0000
# 4 0.0000 0.0000 0.0000 14.9404 0.0000 0.0000
# 5 0.0000 0.0000 0.0000 0.0000 -0.4252 0.0000
# 6 0.0000 0.0000 0.0000 0.0000 0.0000 33.1919
#
#
#
# Elastic Compliance Matrix: (Units=1/GPa)
#
#
# Indices 1 2 3 4 5 6 
#
# 1 0.017300 0.006096 -0.011057 0.000000 0.000000 0.000000
# 2 0.006096 0.024715 -0.006787 0.000000 0.000000 0.000000
# 3 -0.011057 -0.006787 0.031176 0.000000 0.000000 0.000000
# 4 0.000000 0.000000 0.000000 0.066933 0.000000 0.000000
# 5 0.000000 0.000000 0.000000 0.000000 -2.351678 0.000000
# 6 0.000000 0.000000 0.000000 0.000000 0.000000 0.030128
#
#
# Mechanical properties :
#
#
# Convention : Reuss Voigt Hill
#
# Bulk Modulus (GPa) = 20.12243 22.36826 21.24534
# Shear Modulus (GPa) = -2.33496 19.36086 8.51295
#
# Velocity S-wave (km/s) = -1.04987 3.02315 2.00465
# Velocity P-wave (km/s) = 2.83360 4.76918 3.92265
#
# Compressibility (1/GPa) = 0.04969579
#
# Stress axis : x y z
#
# Youngs Moduli (GPa) = 57.80380 40.46153 32.07551
#
# Poissons Ratio (x) = -0.24666 0.35467
# Poissons Ratio (y) = -0.35239 0.21769
# Poissons Ratio (z) = 0.63915 0.27460
#
# Static dielectric constant tensor:
#      x y z
#    x 2.019710 0.000000 0.000000 
#    y 0.000000 1.826880 0.000000 
#    z 0.000000 0.000000 1.776090 
# 
# From -- ./inp_files/29487.got.cif
#   From: 2010.05.17/outbox.cif.g08.bks.cpg/sg50_15_cif.got.tgz:29487.got - 2010.06.03 11:33:33.
