data_PCOD9396156
_publ_section_title
;
Structure prediction by ZEFSAII (Michael W. Deem and Ramdas Pophale) SiO2 
 PCOD9396156
Probable space group: P B A N
;
_chemical_formula_sum "Si O2"
_cell_formula_units_Z 64
_cell_length_a 25.163654
_cell_length_b 7.083818
_cell_length_c 16.816618
_cell_angle_alpha 90.000000
_cell_angle_beta 90.000000
_cell_angle_gamma 90.000000
_cell_volume 2997.641956
_symmetry_space_group_name_H-M "P B A N"
_symmetry_group_IT_number 50
_space_group.IT_coordinate_system_code '2'
_symmetry_cell_setting 'orthorhombic'
loop_
_space_group_symop_operation_xyz
x,y,z
1/2-x,1/2-y,z
x,1/2-y,-z
1/2-x,y,-z
-x,-y,-z
1/2+x,1/2+y,-z
-x,1/2+y,z
1/2+x,-y,z
loop_
_atom_site_type_symbol
_atom_site_label
_atom_site_fract_x
_atom_site_fract_y
_atom_site_fract_z
Si Si1 0.098388 0.523167 0.671646
Si Si2 0.991462 0.749996 0.090788
Si Si3 0.499995 0.499993 0.788104
Si Si4 0.098397 0.523154 0.328353
Si Si5 0.688403 0.475549 0.212535
Si Si6 0.936717 0.026643 0.499999
Si Si7 0.688391 0.475494 0.787479
Si Si8 0.363163 0.249974 0.909379
O O1 0.097943 0.750007 0.667784
O O2 0.086462 0.453792 0.583082
O O3 0.154266 0.467990 0.710391
O O4 0.051847 0.471309 0.733312
O O5 0.926943 0.749994 0.091309
O O6 0.009810 0.749999 0.188185
O O7 0.999998 0.999998 0.110609
O O8 0.013244 0.750000 0.000000
O O9 0.448133 0.471291 0.733332
O O10 0.154283 0.467978 0.289634
O O11 0.086459 0.453785 0.416914
O O12 0.685431 0.250029 0.204734
O O13 0.750008 0.529217 0.216893
O O14 0.659692 0.571934 0.138099
O O15 0.926672 0.250000 0.500000
O O16 0.000000 0.000000 0.500000
O O17 0.659679 0.571822 0.861927
O O18 0.345117 0.250000 0.000000
#
# Coordination Sequence:
#
# PCOD9396156 Si02
#       8
#     8   8   8   8   8   8   8   8
#     4  10  20  35  57  85 115 150 193 236 295 358
#     4  11  24  37  54  85 116 153 197 239 295 354
#     4  12  19  35  58  78 114 154 186 233 289 356
#     4  10  20  35  57  85 115 150 193 236 295 358
#     4  10  22  41  62  85 118 161 204 249 303 359
#     4  10  20  34  55  87 120 148 187 245 295 358
#     4  10  22  41  62  85 118 161 204 249 303 359
#     4  11  23  40  63  92 120 153 206 259 303 356
#
# _framework density 21.350114000000001
#
# number of rings (size 3 to 8) (size 9 to 14) (size 15 to 20)
#    0.000    1.500    5.000    0.750    0.000    1.500 
#    2.250    1.875    0.000    3.750    0.000    1.750 
#    0.000    0.000    0.000    0.000    0.000    0.000 
#
# Total GULP energy -357257.673245 kJ/mol
# GULP energy per Si atom -5582.151144 kJ/mol
# Density = 2.130152 g / cm^3
# Si number density = 21.350114 Si / 1000 Ang^3
#
#
#
# Elastic Constant Matrix: (Units=GPa)
#
#
# Indices 1 2 3 4 5 6 
#
# 1 140.4250 29.6024 75.2453 0.0000 0.0000 0.0000
# 2 29.6024 152.5983 52.6104 0.0000 0.0000 0.0000
# 3 75.2453 52.6104 224.2565 0.0000 0.0000 0.0000
# 4 0.0000 0.0000 0.0000 80.3573 0.0000 0.0000
# 5 0.0000 0.0000 0.0000 0.0000 20.2699 0.0000
# 6 0.0000 0.0000 0.0000 0.0000 0.0000 28.3322
#
#
#
# Elastic Compliance Matrix: (Units=1/GPa)
#
#
# Indices 1 2 3 4 5 6 
#
# 1 0.008760 -0.000746 -0.002764 0.000000 0.000000 0.000000
# 2 -0.000746 0.007193 -0.001437 0.000000 0.000000 0.000000
# 3 -0.002764 -0.001437 0.005724 0.000000 0.000000 0.000000
# 4 0.000000 0.000000 0.000000 0.012444 0.000000 0.000000
# 5 0.000000 0.000000 0.000000 0.000000 0.049334 0.000000
# 6 0.000000 0.000000 0.000000 0.000000 0.000000 0.035295
#
#
# Mechanical properties :
#
#
# Convention : Reuss Voigt Hill
#
# Bulk Modulus (GPa) = 84.87697 92.46620 88.67158
# Shear Modulus (GPa) = 37.71499 49.78000 43.74749
#
# Velocity S-wave (km/s) = 4.20754 4.83391 4.53156
# Velocity P-wave (km/s) = 7.96527 8.63476 8.30676
#
# Compressibility (1/GPa) = 0.01178176
#
# Stress axis : x y z
#
# Youngs Moduli (GPa) = 114.15959 139.01609 174.71018
#
# Poissons Ratio (x) = 0.10375 0.48291
# Poissons Ratio (y) = 0.08520 0.25108
# Poissons Ratio (z) = 0.31554 0.19979
#
# Static dielectric constant tensor:
#      x y z
#    x 1.685450 0.000000 0.000000 
#    y 0.000000 2.294280 0.000000 
#    z 0.000000 0.000000 1.740240 
# 
# From -- ./inp_files/27510.got.cif
#   From: 2010.05.17/outbox.cif.g08.bks.cpg/sg50_14_cif.got.tgz:27510.got - 2010.06.03 11:33:33.
