data_PCOD9396644
_publ_section_title
;
Structure prediction by ZEFSAII (Michael W. Deem and Ramdas Pophale) SiO2 
 PCOD9396644
Probable space group: P B A N
;
_chemical_formula_sum "Si O2"
_cell_formula_units_Z 48
_cell_length_a 23.955093
_cell_length_b 15.339994
_cell_length_c 5.433353
_cell_angle_alpha 90.000000
_cell_angle_beta 90.000000
_cell_angle_gamma 90.000000
_cell_volume 1996.599567
_symmetry_space_group_name_H-M "P B A N"
_symmetry_group_IT_number 50
_space_group.IT_coordinate_system_code '2'
_symmetry_cell_setting 'orthorhombic'
loop_
_space_group_symop_operation_xyz
x,y,z
1/2-x,1/2-y,z
x,1/2-y,-z
1/2-x,y,-z
-x,-y,-z
1/2+x,1/2+y,-z
-x,1/2+y,z
1/2+x,-y,z
loop_
_atom_site_type_symbol
_atom_site_label
_atom_site_fract_x
_atom_site_fract_y
_atom_site_fract_z
Si Si1 0.989602 0.798885 0.253944
Si Si2 0.069709 0.019558 0.659889
Si Si3 0.806299 0.911498 0.412158
Si Si4 0.875089 0.299011 0.250927
Si Si5 0.092966 0.977462 0.155092
Si Si6 0.339713 0.343736 0.088002
O O1 0.970123 0.750000 0.500000
O O2 0.957877 0.889844 0.269284
O O3 0.057051 0.803028 0.266497
O O4 0.978196 0.750000 0.000000
O O5 0.136774 0.033168 0.614696
O O6 0.052935 0.987267 0.389612
O O7 0.064112 0.955427 0.892740
O O8 0.750000 0.959452 0.500000
O O9 0.815663 0.843070 0.635705
O O10 0.800817 0.869595 0.143370
O O11 0.855927 0.250000 0.500000
O O12 0.862610 0.401717 0.215874
O O13 0.859181 0.250000 0.000000
O O14 0.118581 0.073446 0.111422
O O15 0.361625 0.250000 0.000000
#
# Coordination Sequence:
#
# PCOD9396644 Si02
#       6
#     8   8   8   8   8   8
#     4  10  21  36  53  77 110 148 189 232 277 325
#     4  10  21  34  53  77 109 145 185 228 271 323
#     4  10  21  35  51  74 107 148 188 221 259 315
#     4  10  21  38  59  81 108 142 184 236 289 334
#     4  10  21  36  55  80 109 142 186 229 275 331
#     4  10  21  35  51  76 112 147 182 225 269 322
#
# _framework density 24.040876000000001
#
# number of rings (size 3 to 8) (size 9 to 14) (size 15 to 20)
#    0.000    2.000    0.000    3.000    0.000   11.333 
#    0.000    0.000    0.000    0.000    0.000    0.000 
#    0.000  160.000    0.000    0.000    0.000    0.000 
#
# Total GULP energy -267876.523028 kJ/mol
# GULP energy per Si atom -5580.760896 kJ/mol
# Density = 2.398616 g / cm^3
# Si number density = 24.040876 Si / 1000 Ang^3
#
#
#
# Elastic Constant Matrix: (Units=GPa)
#
#
# Indices 1 2 3 4 5 6 
#
# 1 64.3110 6.2106 10.5991 0.0000 0.0000 0.0000
# 2 6.2106 125.1286 54.8281 0.0000 0.0000 0.0000
# 3 10.5991 54.8281 249.3167 0.0000 0.0000 0.0000
# 4 0.0000 0.0000 0.0000 40.8292 0.0000 0.0000
# 5 0.0000 0.0000 0.0000 0.0000 21.5509 0.0000
# 6 0.0000 0.0000 0.0000 0.0000 0.0000 1.4419
#
#
#
# Elastic Compliance Matrix: (Units=1/GPa)
#
#
# Indices 1 2 3 4 5 6 
#
# 1 0.015692 -0.000538 -0.000549 0.000000 0.000000 0.000000
# 2 -0.000538 0.008862 -0.001926 0.000000 0.000000 0.000000
# 3 -0.000549 -0.001926 0.004458 0.000000 0.000000 0.000000
# 4 0.000000 0.000000 0.000000 0.024492 0.000000 0.000000
# 5 0.000000 0.000000 0.000000 0.000000 0.046402 0.000000
# 6 0.000000 0.000000 0.000000 0.000000 0.000000 0.693548
#
#
# Mechanical properties :
#
#
# Convention : Reuss Voigt Hill
#
# Bulk Modulus (GPa) = 43.50515 64.67022 54.08768
# Shear Modulus (GPa) = 6.19469 37.23897 21.71683
#
# Velocity S-wave (km/s) = 1.60696 3.93999 3.00880
# Velocity P-wave (km/s) = 4.64529 6.90337 5.88367
#
# Compressibility (1/GPa) = 0.02298579
#
# Stress axis : x y z
#
# Youngs Moduli (GPa) = 63.72731 112.83548 224.32283
#
# Poissons Ratio (x) = 0.06075 0.12308
# Poissons Ratio (y) = 0.03431 0.43207
# Poissons Ratio (z) = 0.03497 0.21733
#
# Static dielectric constant tensor:
#      x y z
#    x 2.001140 0.000000 0.000000 
#    y 0.000000 1.955700 0.000000 
#    z 0.000000 0.000000 2.756140 
# 
# From -- ./inp_files/6599.got.cif
#   From: 2010.05.17/outbox.cif.g08.bks.cpg/sg50_4_cif.got.tgz:6599.got - 2010.06.03 11:33:33.
