data_PCOD9396002
_publ_section_title
;
Structure prediction by ZEFSAII (Michael W. Deem and Ramdas Pophale) SiO2 
 PCOD9396002
Probable space group: P B A N
;
_chemical_formula_sum "Si O2"
_cell_formula_units_Z 64
_cell_length_a 16.538002
_cell_length_b 17.131360
_cell_length_c 10.803587
_cell_angle_alpha 90.000000
_cell_angle_beta 90.000000
_cell_angle_gamma 90.000000
_cell_volume 3060.855696
_symmetry_space_group_name_H-M "P B A N"
_symmetry_group_IT_number 50
_space_group.IT_coordinate_system_code '2'
_symmetry_cell_setting 'orthorhombic'
loop_
_space_group_symop_operation_xyz
x,y,z
1/2-x,1/2-y,z
x,1/2-y,-z
1/2-x,y,-z
-x,-y,-z
1/2+x,1/2+y,-z
-x,1/2+y,z
1/2+x,-y,z
loop_
_atom_site_type_symbol
_atom_site_label
_atom_site_fract_x
_atom_site_fract_y
_atom_site_fract_z
Si Si1 0.619305 0.878672 0.287956
Si Si2 0.159166 0.776897 0.856204
Si Si3 0.867597 0.486140 0.103719
Si Si4 0.369051 0.280329 0.863095
Si Si5 0.323350 0.960630 0.161471
Si Si6 0.198777 0.397343 0.312590
Si Si7 0.948309 0.841213 0.470522
Si Si8 0.963996 0.344983 0.223398
O O1 0.625164 0.792199 0.231548
O O2 0.707236 0.900512 0.344313
O O3 0.554044 0.883199 0.397145
O O4 0.604949 0.937416 0.175893
O O5 0.250000 0.750000 0.825374
O O6 0.154804 0.869510 0.835517
O O7 0.094115 0.730009 0.777376
O O8 0.146241 0.750000 0.000000
O O9 0.773081 0.468245 0.134272
O O10 0.918204 0.414017 0.154629
O O11 0.870945 0.494328 0.956644
O O12 0.305832 0.343592 0.811551
O O13 0.455764 0.322141 0.851969
O O14 0.352393 0.250000 0.000000
O O15 0.335404 0.017212 0.278044
O O16 0.139578 0.355699 0.408281
O O17 0.958708 0.750000 0.500000
O O18 0.010200 0.865663 0.363351
#
# Coordination Sequence:
#
# PCOD9396002 Si02
#       8
#     8   8   8   8   8   8   8   8
#     4  11  22  40  66  87 118 171 212 269 323 374
#     4  11  18  35  68  96 124 175 211 256 323 386
#     4  10  20  37  62  95 132 162 201 269 326 380
#     4  11  23  38  55  95 130 163 208 253 331 405
#     4  10  19  37  63 103 131 154 211 264 323 390
#     4  10  22  38  66  93 121 160 212 276 322 379
#     4  11  23  44  61  87 120 171 230 262 312 383
#     4  11  22  39  60  89 130 167 217 262 307 387
#
# _framework density 20.909185999999998
#
# number of rings (size 3 to 8) (size 9 to 14) (size 15 to 20)
#    0.000    1.375    5.000    2.625    0.000    3.000 
#    4.500    4.375    0.000    0.375    0.000    0.000 
#    0.000    0.000    0.000    0.000    0.000    0.000 
#
# Total GULP energy -357678.669614 kJ/mol
# GULP energy per Si atom -5588.729213 kJ/mol
# Density = 2.086160 g / cm^3
# Si number density = 20.909186 Si / 1000 Ang^3
#
#
#
# Elastic Constant Matrix: (Units=GPa)
#
#
# Indices 1 2 3 4 5 6 
#
# 1 48.6302 6.0149 29.1738 0.0000 0.0000 0.0000
# 2 6.0149 100.4444 18.5834 0.0000 0.0000 0.0000
# 3 29.1738 18.5834 75.3540 0.0000 0.0000 0.0000
# 4 0.0000 0.0000 0.0000 18.7687 0.0000 0.0000
# 5 0.0000 0.0000 0.0000 0.0000 31.8246 0.0000
# 6 0.0000 0.0000 0.0000 0.0000 0.0000 37.2811
#
#
#
# Elastic Compliance Matrix: (Units=1/GPa)
#
#
# Indices 1 2 3 4 5 6 
#
# 1 0.026795 0.000330 -0.010455 0.000000 0.000000 0.000000
# 2 0.000330 0.010436 -0.002701 0.000000 0.000000 0.000000
# 3 -0.010455 -0.002701 0.017985 0.000000 0.000000 0.000000
# 4 0.000000 0.000000 0.000000 0.053280 0.000000 0.000000
# 5 0.000000 0.000000 0.000000 0.000000 0.031422 0.000000
# 6 0.000000 0.000000 0.000000 0.000000 0.000000 0.026823
#
#
# Mechanical properties :
#
#
# Convention : Reuss Voigt Hill
#
# Bulk Modulus (GPa) = 33.82730 36.88586 35.35658
# Shear Modulus (GPa) = 24.72213 28.95198 26.83706
#
# Velocity S-wave (km/s) = 3.44227 3.72513 3.58649
# Velocity P-wave (km/s) = 5.65794 6.01510 5.83925
#
# Compressibility (1/GPa) = 0.02956192
#
# Stress axis : x y z
#
# Youngs Moduli (GPa) = 37.32085 95.82418 55.60309
#
# Poissons Ratio (x) = -0.03160 0.58133
# Poissons Ratio (y) = -0.01231 0.15020
# Poissons Ratio (z) = 0.39019 0.25885
#
# Static dielectric constant tensor:
#      x y z
#    x 1.756410 0.000000 0.000000 
#    y 0.000000 1.746300 0.000000 
#    z 0.000000 0.000000 1.769570 
# 
# From -- ./inp_files/21935.got.cif
#   From: 2010.05.17/outbox.cif.g08.bks.cpg/sg50_11_cif.got.tgz:21935.got - 2010.06.03 11:33:33.
