data_PCOD9396058
_publ_section_title
;
Structure prediction by ZEFSAII (Michael W. Deem and Ramdas Pophale) SiO2 
 PCOD9396058
Probable space group: P B A N
;
_chemical_formula_sum "Si O2"
_cell_formula_units_Z 36
_cell_length_a 18.186416
_cell_length_b 13.344507
_cell_length_c 6.052176
_cell_angle_alpha 90.000000
_cell_angle_beta 90.000000
_cell_angle_gamma 90.000000
_cell_volume 1468.795062
_symmetry_space_group_name_H-M "P B A N"
_symmetry_group_IT_number 50
_space_group.IT_coordinate_system_code '2'
_symmetry_cell_setting 'orthorhombic'
loop_
_space_group_symop_operation_xyz
x,y,z
1/2-x,1/2-y,z
x,1/2-y,-z
1/2-x,y,-z
-x,-y,-z
1/2+x,1/2+y,-z
-x,1/2+y,z
1/2+x,-y,z
loop_
_atom_site_type_symbol
_atom_site_label
_atom_site_fract_x
_atom_site_fract_y
_atom_site_fract_z
Si Si1 0.584766 0.972121 0.010543
Si Si2 0.250000 0.750000 0.500000
Si Si3 0.538524 0.750000 0.000000
Si Si4 0.750000 0.750000 0.000000
Si Si5 0.672503 0.350276 0.121944
Si Si6 0.944767 0.750000 0.500000
Si Si7 0.177816 0.099287 0.362466
O O1 0.582471 0.853581 0.975626
O O2 0.631966 0.985944 0.235258
O O3 0.500000 0.000000 0.000000
O O4 0.624046 0.051793 0.857386
O O5 0.303134 0.683168 0.641517
O O6 0.511601 0.757299 0.263060
O O7 0.789802 0.675425 0.175103
O O8 0.639912 0.250000 0.000000
O O9 0.750000 0.371843 0.000000
O O10 0.886283 0.842361 0.504417
O O11 0.250000 0.069707 0.500000
#
# Coordination Sequence:
#
# PCOD9396058 Si02
#       7
#     8   2   4   2   8   4   8
#     4  11  26  47  74 110 159 204 253 325 407 481
#     4   8  18  48  82 104 138 188 272 336 368 444
#     4  10  25  46  71 106 155 203 256 312 403 490
#     4  12  20  40  68 106 150 188 254 322 394 468
#     4   9  21  46  75 106 141 194 258 316 378 459
#     4  10  19  42  67 101 148 190 247 312 386 467
#     4  11  22  37  68 103 146 201 252 317 390 476
#
# _framework density 24.509886000000002
#
# number of rings (size 3 to 8) (size 9 to 14) (size 15 to 20)
#    0.000    2.000    2.222    2.667    3.111    0.000 
#   24.000    8.889    2.444    0.000    0.000    0.000 
#    0.000    0.000    0.000    0.000    0.000    0.000 
#
# Total GULP energy -200475.948859 kJ/mol
# GULP energy per Si atom -5568.776357 kJ/mol
# Density = 2.445410 g / cm^3
# Si number density = 24.509886 Si / 1000 Ang^3
#
#
#
# Elastic Constant Matrix: (Units=GPa)
#
#
# Indices 1 2 3 4 5 6 
#
# 1 112.1232 44.9726 55.4857 0.0000 0.0000 0.0000
# 2 44.9726 144.0604 29.8135 0.0000 0.0000 0.0000
# 3 55.4857 29.8135 175.2034 0.0000 0.0000 0.0000
# 4 0.0000 0.0000 0.0000 -46.9624 0.0000 0.0000
# 5 0.0000 0.0000 0.0000 0.0000 132.6700 0.0000
# 6 0.0000 0.0000 0.0000 0.0000 0.0000 -0.6473
#
#
#
# Elastic Compliance Matrix: (Units=1/GPa)
#
#
# Indices 1 2 3 4 5 6 
#
# 1 0.011700 -0.002991 -0.003196 0.000000 0.000000 0.000000
# 2 -0.002991 0.007960 -0.000407 0.000000 0.000000 0.000000
# 3 -0.003196 -0.000407 0.006789 0.000000 0.000000 0.000000
# 4 0.000000 0.000000 0.000000 -0.021294 0.000000 0.000000
# 5 0.000000 0.000000 0.000000 0.000000 0.007538 0.000000
# 6 0.000000 0.000000 0.000000 0.000000 0.000000 -1.544936
#
#
# Mechanical properties :
#
#
# Convention : Reuss Voigt Hill
#
# Bulk Modulus (GPa) = 75.41652 76.88116 76.14884
# Shear Modulus (GPa) = -3.30113 37.08641 16.89264
#
# Velocity S-wave (km/s) = -1.16180 3.89411 2.62814
# Velocity P-wave (km/s) = 5.38859 7.18709 6.35182
#
# Compressibility (1/GPa) = 0.01325969
#
# Stress axis : x y z
#
# Youngs Moduli (GPa) = 85.46807 125.63531 147.29221
#
# Poissons Ratio (x) = 0.37578 0.47081
# Poissons Ratio (y) = 0.25564 0.05997
# Poissons Ratio (z) = 0.27319 0.05116
#
# Static dielectric constant tensor:
#      x y z
#    x 1.985360 0.000000 0.000000 
#    y 0.000000 1.997670 0.000000 
#    z 0.000000 0.000000 2.065390 
# 
# From -- ./inp_files/5051.got.cif
#   From: 2010.05.17/outbox.cif.g08.bks.cpg/sg50_3_cif.got.tgz:5051.got - 2010.06.03 11:33:33.
