data_PCOD9396308
_publ_section_title
;
Structure prediction by ZEFSAII (Michael W. Deem and Ramdas Pophale) SiO2 
 PCOD9396308
Probable space group: P B A N
;
_chemical_formula_sum "Si O2"
_cell_formula_units_Z 64
_cell_length_a 5.499291
_cell_length_b 27.660526
_cell_length_c 19.573730
_cell_angle_alpha 90.000000
_cell_angle_beta 90.000000
_cell_angle_gamma 90.000000
_cell_volume 2977.424305
_symmetry_space_group_name_H-M "P B A N"
_symmetry_group_IT_number 50
_space_group.IT_coordinate_system_code '2'
_symmetry_cell_setting 'orthorhombic'
loop_
_space_group_symop_operation_xyz
x,y,z
1/2-x,1/2-y,z
x,1/2-y,-z
1/2-x,y,-z
-x,-y,-z
1/2+x,1/2+y,-z
-x,1/2+y,z
1/2+x,-y,z
loop_
_atom_site_type_symbol
_atom_site_label
_atom_site_fract_x
_atom_site_fract_y
_atom_site_fract_z
Si Si1 0.247155 0.531100 0.580740
Si Si2 0.111574 0.203626 0.270785
Si Si3 0.360119 0.381904 0.074287
Si Si4 0.660165 0.111211 0.690487
Si Si5 0.861542 0.203915 0.129448
Si Si6 0.087807 0.523621 0.092880
Si Si7 0.975007 0.632993 0.806531
Si Si8 0.516753 0.523034 0.745515
O O1 0.250000 0.543079 0.500000
O O2 0.497340 0.499797 0.591980
O O3 0.259274 0.581784 0.623395
O O4 0.250000 0.250000 0.302821
O O5 0.311192 0.168254 0.238730
O O6 0.931823 0.167050 0.312465
O O7 0.972076 0.221002 0.202295
O O8 0.440978 0.327311 0.089564
O O9 0.579931 0.419626 0.077717
O O10 0.181751 0.396014 0.137558
O O11 0.250000 0.385904 0.000000
O O12 0.445969 0.077981 0.721781
O O13 0.859128 0.106469 0.751093
O O14 0.750000 0.250000 0.092896
O O15 0.652174 0.166334 0.148655
O O16 0.838876 0.498908 0.067787
O O17 0.039323 0.518870 0.174231
O O18 0.754573 0.495585 0.719779
#
# Coordination Sequence:
#
# PCOD9396308 Si02
#       8
#     8   8   8   8   8   8   8   8
#     4  10  23  44  68 102 153 196 233 272 329 403
#     4  10  20  36  61  92 128 161 212 281 338 403
#     4  11  26  43  61  89 123 170 223 283 343 421
#     4  11  23  34  63 100 128 177 220 271 335 396
#     4  10  20  40  65  87 119 165 207 278 355 419
#     4  10  23  41  63  86 120 163 212 265 329 393
#     4  10  22  38  63  87 125 159 217 276 349 407
#     4  10  21  34  56  89 127 159 206 266 322 381
#
# _framework density 21.495090999999999
#
# number of rings (size 3 to 8) (size 9 to 14) (size 15 to 20)
#    0.000    1.750    1.250    3.000   10.500    1.000 
#    0.000    1.875    0.000    0.000    0.000    2.625 
#    0.000    0.000    0.000    0.000    0.000    0.000 
#
# Total GULP energy -357287.213569 kJ/mol
# GULP energy per Si atom -5582.612712 kJ/mol
# Density = 2.144617 g / cm^3
# Si number density = 21.495091 Si / 1000 Ang^3
#
#
#
# Elastic Constant Matrix: (Units=GPa)
#
#
# Indices 1 2 3 4 5 6 
#
# 1 105.5081 51.0761 35.4296 0.0000 0.0000 0.0000
# 2 51.0761 120.2433 43.0222 0.0000 0.0000 0.0000
# 3 35.4296 43.0222 95.8324 0.0000 0.0000 0.0000
# 4 0.0000 0.0000 0.0000 8.1452 0.0000 0.0000
# 5 0.0000 0.0000 0.0000 0.0000 17.6221 0.0000
# 6 0.0000 0.0000 0.0000 0.0000 0.0000 45.4071
#
#
#
# Elastic Compliance Matrix: (Units=1/GPa)
#
#
# Indices 1 2 3 4 5 6 
#
# 1 0.012476 -0.004347 -0.002661 0.000000 0.000000 0.000000
# 2 -0.004347 0.011423 -0.003521 0.000000 0.000000 0.000000
# 3 -0.002661 -0.003521 0.012999 0.000000 0.000000 0.000000
# 4 0.000000 0.000000 0.000000 0.122772 0.000000 0.000000
# 5 0.000000 0.000000 0.000000 0.000000 0.056747 0.000000
# 6 0.000000 0.000000 0.000000 0.000000 0.000000 0.022023
#
#
# Mechanical properties :
#
#
# Convention : Reuss Voigt Hill
#
# Bulk Modulus (GPa) = 63.13113 64.51552 63.82332
# Shear Modulus (GPa) = 18.88375 27.03860 22.96117
#
# Velocity S-wave (km/s) = 2.96719 3.55053 3.27189
# Velocity P-wave (km/s) = 6.41660 6.84745 6.63552
#
# Compressibility (1/GPa) = 0.01584005
#
# Stress axis : x y z
#
# Youngs Moduli (GPa) = 80.15378 87.54352 76.92804
#
# Poissons Ratio (x) = 0.38059 0.20468
# Poissons Ratio (y) = 0.34847 0.27085
# Poissons Ratio (z) = 0.21327 0.30822
#
# Static dielectric constant tensor:
#      x y z
#    x 1.884670 0.000000 0.000000 
#    y 0.000000 1.809290 0.000000 
#    z 0.000000 0.000000 1.815460 
# 
# From -- ./inp_files/30493.got.cif
#   From: 2010.05.17/outbox.cif.g08.bks.cpg/sg50_16_cif.got.tgz:30493.got - 2010.06.03 11:33:33.
