data_PCOD9396477
_publ_section_title
;
Structure prediction by ZEFSAII (Michael W. Deem and Ramdas Pophale) SiO2 
 PCOD9396477
Probable space group: P B A N
;
_chemical_formula_sum "Si O2"
_cell_formula_units_Z 52
_cell_length_a 28.349266
_cell_length_b 15.761314
_cell_length_c 4.939863
_cell_angle_alpha 90.000000
_cell_angle_beta 90.000000
_cell_angle_gamma 90.000000
_cell_volume 2207.237900
_symmetry_space_group_name_H-M "P B A N"
_symmetry_group_IT_number 50
_space_group.IT_coordinate_system_code '2'
_symmetry_cell_setting 'orthorhombic'
loop_
_space_group_symop_operation_xyz
x,y,z
1/2-x,1/2-y,z
x,1/2-y,-z
1/2-x,y,-z
-x,-y,-z
1/2+x,1/2+y,-z
-x,1/2+y,z
1/2+x,-y,z
loop_
_atom_site_type_symbol
_atom_site_label
_atom_site_fract_x
_atom_site_fract_y
_atom_site_fract_z
Si Si1 0.556681 0.998837 0.299183
Si Si2 0.037937 0.250000 0.000000
Si Si3 0.801487 0.941206 0.955771
Si Si4 0.898927 0.908132 0.174908
Si Si5 0.198650 0.936610 0.555189
Si Si6 0.473247 0.870965 0.313038
Si Si7 0.621850 0.305895 0.252785
O O1 0.587825 0.980404 0.040795
O O2 0.507761 0.949343 0.243553
O O3 0.543837 0.093276 0.395123
O O4 0.585281 0.949104 0.539900
O O5 0.070032 0.175361 0.876836
O O6 0.005531 0.208356 0.231950
O O7 0.808221 0.985423 0.660308
O O8 0.844918 0.889172 0.086369
O O9 0.750000 0.898733 0.000000
O O10 0.799062 0.021620 0.152278
O O11 0.250000 0.897870 0.500000
O O12 0.158637 0.866917 0.593549
O O13 0.424575 0.855084 0.158511
O O14 0.602838 0.250000 0.500000
O O15 0.640455 0.250000 0.000000
#
# Coordination Sequence:
#
# PCOD9396477 Si02
#       7
#     8   4   8   8   8   8   8
#     4  10  24  38  65  81 122 164 217 257 300 369
#     4  10  24  38  61  86 134 163 202 250 324 374
#     4  10  20  38  67  90 115 153 208 266 310 370
#     4  11  22  41  60  93 120 165 202 260 314 384
#     4  10  22  42  64  89 118 157 209 263 314 370
#     4  10  22  41  58  90 120 169 212 256 308 370
#     4  12  25  37  60  88 125 165 200 258 310 380
#
# _framework density 23.558857
#
# number of rings (size 3 to 8) (size 9 to 14) (size 15 to 20)
#    0.000    1.538    0.769    3.692    2.154    8.923 
#    0.000    1.154    0.000    0.000    0.000    7.538 
#    0.000    0.000    0.000    0.000    0.000    0.000 
#
# Total GULP energy -290157.408369 kJ/mol
# GULP energy per Si atom -5579.950161 kJ/mol
# Density = 2.350524 g / cm^3
# Si number density = 23.558857 Si / 1000 Ang^3
#
#
#
# Elastic Constant Matrix: (Units=GPa)
#
#
# Indices 1 2 3 4 5 6 
#
# 1 176.5004 52.3740 13.9011 0.0000 0.0000 0.0000
# 2 52.3740 106.5256 34.5802 0.0000 0.0000 0.0000
# 3 13.9011 34.5802 115.7201 0.0000 0.0000 0.0000
# 4 0.0000 0.0000 0.0000 26.7027 0.0000 0.0000
# 5 0.0000 0.0000 0.0000 0.0000 16.1643 0.0000
# 6 0.0000 0.0000 0.0000 0.0000 0.0000 11.3648
#
#
#
# Elastic Compliance Matrix: (Units=1/GPa)
#
#
# Indices 1 2 3 4 5 6 
#
# 1 0.006638 -0.003327 0.000197 0.000000 0.000000 0.000000
# 2 -0.003327 0.012064 -0.003205 0.000000 0.000000 0.000000
# 3 0.000197 -0.003205 0.009576 0.000000 0.000000 0.000000
# 4 0.000000 0.000000 0.000000 0.037449 0.000000 0.000000
# 5 0.000000 0.000000 0.000000 0.000000 0.061865 0.000000
# 6 0.000000 0.000000 0.000000 0.000000 0.000000 0.087991
#
#
# Mechanical properties :
#
#
# Convention : Reuss Voigt Hill
#
# Bulk Modulus (GPa) = 64.07900 66.71740 65.39820
# Shear Modulus (GPa) = 21.41741 30.70576 26.06158
#
# Velocity S-wave (km/s) = 3.01840 3.61413 3.32962
# Velocity P-wave (km/s) = 6.27744 6.76734 6.52699
#
# Compressibility (1/GPa) = 0.01560574
#
# Stress axis : x y z
#
# Youngs Moduli (GPa) = 150.65845 82.89266 104.43098
#
# Poissons Ratio (x) = 0.27581 -0.02057
# Poissons Ratio (y) = 0.50129 0.33473
# Poissons Ratio (z) = -0.02967 0.26569
#
# Static dielectric constant tensor:
#      x y z
#    x 2.044430 0.000000 0.000000 
#    y 0.000000 1.902820 0.000000 
#    z 0.000000 0.000000 1.946430 
# 
# From -- ./inp_files/7253.got.cif
#   From: 2010.05.17/outbox.cif.g08.bks.cpg/sg50_4_cif.got.tgz:7253.got - 2010.06.03 11:33:33.
