data_PCOD9396511
_publ_section_title
;
Structure prediction by ZEFSAII (Michael W. Deem and Ramdas Pophale) SiO2 
 PCOD9396511
Probable space group: P B A N
;
_chemical_formula_sum "Si O2"
_cell_formula_units_Z 48
_cell_length_a 14.935260
_cell_length_b 17.911826
_cell_length_c 7.341854
_cell_angle_alpha 90.000000
_cell_angle_beta 90.000000
_cell_angle_gamma 90.000000
_cell_volume 1964.076471
_symmetry_space_group_name_H-M "P B A N"
_symmetry_group_IT_number 50
_space_group.IT_coordinate_system_code '2'
_symmetry_cell_setting 'orthorhombic'
loop_
_space_group_symop_operation_xyz
x,y,z
1/2-x,1/2-y,z
x,1/2-y,-z
1/2-x,y,-z
-x,-y,-z
1/2+x,1/2+y,-z
-x,1/2+y,z
1/2+x,-y,z
loop_
_atom_site_type_symbol
_atom_site_label
_atom_site_fract_x
_atom_site_fract_y
_atom_site_fract_z
Si Si1 0.569137 0.072838 0.172489
Si Si2 0.242884 0.493303 0.793510
Si Si3 0.283015 0.328722 0.288330
Si Si4 0.849425 0.234375 0.787077
Si Si5 0.070813 0.539157 0.260965
Si Si6 0.484234 0.179360 0.630871
O O1 0.607941 0.152303 0.234632
O O2 0.641797 0.014306 0.251165
O O3 0.473628 0.042484 0.238282
O O4 0.564808 0.070328 0.949751
O O5 0.255413 0.404805 0.791842
O O6 0.324913 0.531086 0.689152
O O7 0.250000 0.522183 0.000000
O O8 0.250000 0.250000 0.213202
O O9 0.250000 0.331183 0.500000
O O10 0.390141 0.330091 0.266682
O O11 0.750000 0.250000 0.710795
O O12 0.924235 0.289727 0.715290
O O13 0.842511 0.250000 0.000000
O O14 0.016568 0.593613 0.394607
O O15 0.460890 0.250000 0.500000
#
# Coordination Sequence:
#
# PCOD9396511 Si02
#       6
#     8   8   8   8   8   8
#     4  10  20  39  63  97 131 167 221 281 346 406
#     4  10  22  40  68  96 129 167 223 284 338 406
#     4  11  24  46  63  89 135 184 221 276 340 401
#     4  11  24  41  69  99 135 177 225 283 352 412
#     4  10  21  38  65  97 130 169 219 284 340 398
#     4  12  24  45  67  94 137 181 228 274 339 416
#
# _framework density 24.438966000000001
#
# number of rings (size 3 to 8) (size 9 to 14) (size 15 to 20)
#    0.000    1.333    5.000    1.000    7.000    0.667 
#    3.000    1.667    0.000    0.000    0.000    0.000 
#    0.000    0.000    0.000    0.000    0.000    0.000 
#
# Total GULP energy -267844.406859 kJ/mol
# GULP energy per Si atom -5580.091810 kJ/mol
# Density = 2.438334 g / cm^3
# Si number density = 24.438966 Si / 1000 Ang^3
#
#
#
# Elastic Constant Matrix: (Units=GPa)
#
#
# Indices 1 2 3 4 5 6 
#
# 1 150.8672 23.0534 -0.3158 0.0000 0.0000 0.0000
# 2 23.0534 126.4177 3.2020 0.0000 0.0000 0.0000
# 3 -0.3158 3.2020 64.0074 0.0000 0.0000 0.0000
# 4 0.0000 0.0000 0.0000 12.5833 0.0000 0.0000
# 5 0.0000 0.0000 0.0000 0.0000 9.9769 0.0000
# 6 0.0000 0.0000 0.0000 0.0000 0.0000 40.8910
#
#
#
# Elastic Compliance Matrix: (Units=1/GPa)
#
#
# Indices 1 2 3 4 5 6 
#
# 1 0.006819 -0.001246 0.000096 0.000000 0.000000 0.000000
# 2 -0.001246 0.008148 -0.000414 0.000000 0.000000 0.000000
# 3 0.000096 -0.000414 0.015644 0.000000 0.000000 0.000000
# 4 0.000000 0.000000 0.000000 0.079471 0.000000 0.000000
# 5 0.000000 0.000000 0.000000 0.000000 0.100232 0.000000
# 6 0.000000 0.000000 0.000000 0.000000 0.000000 0.024455
#
#
# Mechanical properties :
#
#
# Convention : Reuss Voigt Hill
#
# Bulk Modulus (GPa) = 36.38501 43.68573 40.03537
# Shear Modulus (GPa) = 20.23821 33.71374 26.97597
#
# Velocity S-wave (km/s) = 2.88082 3.71820 3.32597
# Velocity P-wave (km/s) = 5.09764 6.02890 5.58272
#
# Compressibility (1/GPa) = 0.02748385
#
# Stress axis : x y z
#
# Youngs Moduli (GPa) = 146.65057 122.72998 63.92075
#
# Poissons Ratio (x) = 0.15291 -0.00613
# Poissons Ratio (y) = 0.18272 0.02645
# Poissons Ratio (z) = -0.01407 0.05078
#
# Static dielectric constant tensor:
#      x y z
#    x 1.720810 0.000000 0.000000 
#    y 0.000000 1.893290 0.000000 
#    z 0.000000 0.000000 2.030030 
# 
# From -- ./inp_files/12995.got.cif
#   From: 2010.05.17/outbox.cif.g08.bks.cpg/sg50_7_cif.got.tgz:12995.got - 2010.06.03 11:33:33.
