data_PCOD9396577
_publ_section_title
;
Structure prediction by ZEFSAII (Michael W. Deem and Ramdas Pophale) SiO2 
 PCOD9396577
Probable space group: P B A N
;
_chemical_formula_sum "Si O2"
_cell_formula_units_Z 30
_cell_length_a 5.176469
_cell_length_b 12.319606
_cell_length_c 20.472695
_cell_angle_alpha 90.000000
_cell_angle_beta 90.000000
_cell_angle_gamma 90.000000
_cell_volume 1305.585904
_symmetry_space_group_name_H-M "P B A N"
_symmetry_group_IT_number 50
_space_group.IT_coordinate_system_code '2'
_symmetry_cell_setting 'orthorhombic'
loop_
_space_group_symop_operation_xyz
x,y,z
1/2-x,1/2-y,z
x,1/2-y,-z
1/2-x,y,-z
-x,-y,-z
1/2+x,1/2+y,-z
-x,1/2+y,z
1/2+x,-y,z
loop_
_atom_site_type_symbol
_atom_site_label
_atom_site_fract_x
_atom_site_fract_y
_atom_site_fract_z
Si Si1 0.757750 0.066620 0.423552
Si Si2 0.964361 0.933876 0.251432
Si Si3 0.750000 0.250000 0.325834
Si Si4 0.507744 0.319441 0.875060
Si Si5 0.750000 0.250000 0.000000
O O1 0.750000 0.097839 0.500000
O O2 0.854493 0.160520 0.376116
O O3 0.462588 0.030007 0.412138
O O4 0.045978 0.818617 0.282769
O O5 0.976676 0.920028 0.172683
O O6 0.685586 0.979481 0.269426
O O7 0.750000 0.250000 0.848969
O O8 0.250000 0.250000 0.869862
O O9 0.581445 0.325601 0.951644
#
# Coordination Sequence:
#
# PCOD9396577 Si02
#       5
#     8   8   4   8   2
#     4  10  23  43  66  98 134 170 221 277 333 400
#     4  12  27  43  65  98 134 176 226 274 326 400
#     4  12  24  44  68  96 132 182 220 278 332 390
#     4  10  20  41  67  92 130 174 210 271 338 384
#     4   8  20  36  74 102 114 182 212 276 318 418
#
# _framework density 22.978190000000001
#
# number of rings (size 3 to 8) (size 9 to 14) (size 15 to 20)
#    0.800    0.533    1.333    4.000    0.000    3.200 
#    0.000    5.333    0.000    0.000    0.000    0.000 
#    0.000    0.000    0.000    0.000    0.000    0.000 
#
# Total GULP energy -167444.672095 kJ/mol
# GULP energy per Si atom -5581.489070 kJ/mol
# Density = 2.292589 g / cm^3
# Si number density = 22.978190 Si / 1000 Ang^3
#
#
#
# Elastic Constant Matrix: (Units=GPa)
#
#
# Indices 1 2 3 4 5 6 
#
# 1 130.6650 21.4291 31.3690 0.0000 0.0000 0.0000
# 2 21.4291 68.1278 48.6972 0.0000 0.0000 0.0000
# 3 31.3690 48.6972 146.6871 0.0000 0.0000 0.0000
# 4 0.0000 0.0000 0.0000 37.3361 0.0000 0.0000
# 5 0.0000 0.0000 0.0000 0.0000 27.6191 0.0000
# 6 0.0000 0.0000 0.0000 0.0000 0.0000 20.5964
#
#
#
# Elastic Compliance Matrix: (Units=1/GPa)
#
#
# Indices 1 2 3 4 5 6 
#
# 1 0.008222 -0.001743 -0.001180 0.000000 0.000000 0.000000
# 2 -0.001743 0.019615 -0.006139 0.000000 0.000000 0.000000
# 3 -0.001180 -0.006139 0.009107 0.000000 0.000000 0.000000
# 4 0.000000 0.000000 0.000000 0.026784 0.000000 0.000000
# 5 0.000000 0.000000 0.000000 0.000000 0.036207 0.000000
# 6 0.000000 0.000000 0.000000 0.000000 0.000000 0.048552
#
#
# Mechanical properties :
#
#
# Convention : Reuss Voigt Hill
#
# Bulk Modulus (GPa) = 53.13182 60.94115 57.03648
# Shear Modulus (GPa) = 28.92115 33.37597 31.14856
#
# Velocity S-wave (km/s) = 3.55157 3.81531 3.68580
# Velocity P-wave (km/s) = 6.32385 6.78142 6.55663
#
# Compressibility (1/GPa) = 0.01882111
#
# Stress axis : x y z
#
# Youngs Moduli (GPa) = 121.62163 50.98247 109.79963
#
# Poissons Ratio (x) = 0.08886 0.12953
# Poissons Ratio (y) = 0.21199 0.67405
# Poissons Ratio (z) = 0.14347 0.31298
#
# Static dielectric constant tensor:
#      x y z
#    x 1.804880 0.000000 0.000000 
#    y 0.000000 1.833710 0.000000 
#    z 0.000000 0.000000 1.949090 
# 
# From -- ./inp_files/30137.got.cif
#   From: 2010.05.17/outbox.cif.g08.bks.cpg/sg50_16_cif.got.tgz:30137.got - 2010.06.03 11:33:33.
