data_PCOD9396734
_publ_section_title
;
Structure prediction by ZEFSAII (Michael W. Deem and Ramdas Pophale) SiO2 
 PCOD9396734
Probable space group: P B A N
;
_chemical_formula_sum "Si O2"
_cell_formula_units_Z 32
_cell_length_a 14.666144
_cell_length_b 7.916214
_cell_length_c 11.102942
_cell_angle_alpha 90.000000
_cell_angle_beta 90.000000
_cell_angle_gamma 90.000000
_cell_volume 1289.055280
_symmetry_space_group_name_H-M "P B A N"
_symmetry_group_IT_number 50
_space_group.IT_coordinate_system_code '2'
_symmetry_cell_setting 'orthorhombic'
loop_
_space_group_symop_operation_xyz
x,y,z
1/2-x,1/2-y,z
x,1/2-y,-z
1/2-x,y,-z
-x,-y,-z
1/2+x,1/2+y,-z
-x,1/2+y,z
1/2+x,-y,z
loop_
_atom_site_type_symbol
_atom_site_label
_atom_site_fract_x
_atom_site_fract_y
_atom_site_fract_z
Si Si1 0.634743 0.915796 0.263430
Si Si2 0.691370 0.073421 0.751001
Si Si3 0.605925 0.046632 0.000625
Si Si4 0.524466 0.265315 0.640515
O O1 0.737519 0.943718 0.308849
O O2 0.573322 0.060842 0.325536
O O3 0.570086 0.757445 0.287768
O O4 0.641205 0.960520 0.122003
O O5 0.750000 0.250000 0.766698
O O6 0.658382 0.001880 0.879245
O O7 0.601704 0.129103 0.678857
O O8 0.612902 0.250000 0.000000
O O9 0.500000 0.000000 0.000000
O O10 0.505767 0.250000 0.500000
#
# Coordination Sequence:
#
# PCOD9396734 Si02
#       4
#     8   8   8   8
#     4  11  22  39  64  92 127 170 214 269 325 383
#     4  10  21  36  64  95 125 169 223 262 318 395
#     4  12  20  37  65  96 132 166 213 269 332 389
#     4  11  23  41  63  92 127 170 221 268 316 380
#
# _framework density 24.824380000000001
#
# number of rings (size 3 to 8) (size 9 to 14) (size 15 to 20)
#    0.000    1.000    7.500    1.500    0.000    4.500 
#    0.000    1.250    0.000    3.000    0.000    0.000 
#    0.000    0.000    0.000    0.000    0.000    0.000 
#
# Total GULP energy -179163.168951 kJ/mol
# GULP energy per Si atom -5598.849030 kJ/mol
# Density = 2.476788 g / cm^3
# Si number density = 24.824380 Si / 1000 Ang^3
#
#
#
# Elastic Constant Matrix: (Units=GPa)
#
#
# Indices 1 2 3 4 5 6 
#
# 1 189.6150 13.3353 38.5669 0.0000 0.0000 0.0000
# 2 13.3353 69.5835 23.8241 0.0000 0.0000 0.0000
# 3 38.5669 23.8241 127.0186 0.0000 0.0000 0.0000
# 4 0.0000 0.0000 0.0000 11.9619 0.0000 0.0000
# 5 0.0000 0.0000 0.0000 0.0000 -58.0465 0.0000
# 6 0.0000 0.0000 0.0000 0.0000 0.0000 37.1199
#
#
#
# Elastic Compliance Matrix: (Units=1/GPa)
#
#
# Indices 1 2 3 4 5 6 
#
# 1 0.005639 -0.000528 -0.001613 0.000000 0.000000 0.000000
# 2 -0.000528 0.015407 -0.002729 0.000000 0.000000 0.000000
# 3 -0.001613 -0.002729 0.008875 0.000000 0.000000 0.000000
# 4 0.000000 0.000000 0.000000 0.083599 0.000000 0.000000
# 5 0.000000 0.000000 0.000000 0.000000 -0.017228 0.000000
# 6 0.000000 0.000000 0.000000 0.000000 0.000000 0.026940
#
#
# Mechanical properties :
#
#
# Convention : Reuss Voigt Hill
#
# Bulk Modulus (GPa) = 49.55663 59.74108 54.64886
# Shear Modulus (GPa) = 35.79101 18.90644 27.34872
#
# Velocity S-wave (km/s) = 3.80118 2.76272 3.32277
# Velocity P-wave (km/s) = 6.26670 5.85615 6.06490
#
# Compressibility (1/GPa) = 0.02017893
#
# Stress axis : x y z
#
# Youngs Moduli (GPa) = 177.33315 64.90568 112.68137
#
# Poissons Ratio (x) = 0.03430 0.18177
# Poissons Ratio (y) = 0.09370 0.30755
# Poissons Ratio (z) = 0.28606 0.17715
#
# Static dielectric constant tensor:
#      x y z
#    x 1.958740 0.000000 0.000000 
#    y 0.000000 2.118630 0.000000 
#    z 0.000000 0.000000 1.929650 
# 
# From -- ./inp_files/18311.got.cif
#   From: 2010.05.17/outbox.cif.g08.bks.cpg/sg50_10_cif.got.tgz:18311.got - 2010.06.03 11:33:33.
