data_PCOD9396113
_publ_section_title
;
Structure prediction by ZEFSAII (Michael W. Deem and Ramdas Pophale) SiO2 
 PCOD9396113
Probable space group: P B A N
;
_chemical_formula_sum "Si O2"
_cell_formula_units_Z 64
_cell_length_a 28.260012
_cell_length_b 9.184950
_cell_length_c 10.498046
_cell_angle_alpha 90.000000
_cell_angle_beta 90.000000
_cell_angle_gamma 90.000000
_cell_volume 2724.944177
_symmetry_space_group_name_H-M "P B A N"
_symmetry_group_IT_number 50
_space_group.IT_coordinate_system_code '2'
_symmetry_cell_setting 'orthorhombic'
loop_
_space_group_symop_operation_xyz
x,y,z
1/2-x,1/2-y,z
x,1/2-y,-z
1/2-x,y,-z
-x,-y,-z
1/2+x,1/2+y,-z
-x,1/2+y,z
1/2+x,-y,z
loop_
_atom_site_type_symbol
_atom_site_label
_atom_site_fract_x
_atom_site_fract_y
_atom_site_fract_z
Si Si1 0.556741 0.163611 0.881327
Si Si2 0.147100 0.817947 0.166924
Si Si3 0.973475 0.161971 0.627995
Si Si4 0.840587 0.069443 0.318540
Si Si5 0.185542 0.098049 0.436303
Si Si6 0.066720 0.112187 0.755203
Si Si7 0.257215 0.592387 0.244188
Si Si8 0.906196 0.576678 0.270388
O O1 0.614193 0.190612 0.891300
O O2 0.539761 0.237766 0.750095
O O3 0.547098 0.993840 0.865178
O O4 0.535970 0.250000 0.000000
O O5 0.148574 0.742265 0.308319
O O6 0.201425 0.864888 0.141289
O O7 0.115890 0.961977 0.171137
O O8 0.963019 0.250000 0.500000
O O9 0.028506 0.122562 0.642465
O O10 0.944696 0.013472 0.650060
O O11 0.820778 0.019815 0.453142
O O12 0.885643 0.967885 0.291645
O O13 0.797043 0.047739 0.217236
O O14 0.199159 0.250000 0.500000
O O15 0.135821 0.120629 0.365203
O O16 0.220602 0.031784 0.331692
O O17 0.075548 0.277536 0.794132
O O18 0.250000 0.750000 0.310777
#
# Coordination Sequence:
#
# PCOD9396113 Si02
#       8
#     8   8   8   8   8   8   8   8
#     4  10  23  45  69  94 128 172 224 281 340 407
#     4   8  19  38  58  84 116 162 215 263 328 397
#     4  11  26  41  66  95 133 177 219 265 338 419
#     4  10  20  33  54  80 124 171 213 265 324 393
#     4  11  21  32  51  83 127 169 220 267 328 392
#     4  11  23  40  59  91 127 171 218 276 337 400
#     4   9  19  35  54  79 119 170 219 261 324 401
#     4  10  22  37  57  85 126 167 214 270 329 400
#
# _framework density 23.486719999999998
#
# number of rings (size 3 to 8) (size 9 to 14) (size 15 to 20)
#    0.000    2.000    1.250    1.125    7.000    8.000 
#    0.000    2.500    0.000    9.375    0.000    0.000 
#    0.000   19.750    0.000    0.000    0.000    0.000 
#
# Total GULP energy -356961.034822 kJ/mol
# GULP energy per Si atom -5577.516169 kJ/mol
# Density = 2.343326 g / cm^3
# Si number density = 23.486720 Si / 1000 Ang^3
#
#
#
# Elastic Constant Matrix: (Units=GPa)
#
#
# Indices 1 2 3 4 5 6 
#
# 1 123.4777 34.0837 0.8874 0.0000 0.0000 0.0000
# 2 34.0837 170.8969 38.6565 0.0000 0.0000 0.0000
# 3 0.8874 38.6565 65.5964 0.0000 0.0000 0.0000
# 4 0.0000 0.0000 0.0000 25.3239 0.0000 0.0000
# 5 0.0000 0.0000 0.0000 0.0000 1.3072 0.0000
# 6 0.0000 0.0000 0.0000 0.0000 0.0000 29.4669
#
#
#
# Elastic Compliance Matrix: (Units=1/GPa)
#
#
# Indices 1 2 3 4 5 6 
#
# 1 0.008631 -0.001956 0.001036 0.000000 0.000000 0.000000
# 2 -0.001956 0.007195 -0.004213 0.000000 0.000000 0.000000
# 3 0.001036 -0.004213 0.017714 0.000000 0.000000 0.000000
# 4 0.000000 0.000000 0.000000 0.039488 0.000000 0.000000
# 5 0.000000 0.000000 0.000000 0.000000 0.764985 0.000000
# 6 0.000000 0.000000 0.000000 0.000000 0.000000 0.033936
#
#
# Mechanical properties :
#
#
# Convention : Reuss Voigt Hill
#
# Bulk Modulus (GPa) = 42.96883 56.35847 49.66365
# Shear Modulus (GPa) = 5.61815 30.30918 17.96367
#
# Velocity S-wave (km/s) = 1.54830 3.59622 2.76858
# Velocity P-wave (km/s) = 4.64015 6.42587 5.60459
#
# Compressibility (1/GPa) = 0.02327268
#
# Stress axis : x y z
#
# Youngs Moduli (GPa) = 115.86138 138.99376 56.45352
#
# Poissons Ratio (x) = 0.27182 -0.05847
# Poissons Ratio (y) = 0.22658 0.23786
# Poissons Ratio (z) = -0.12000 0.58563
#
# Static dielectric constant tensor:
#      x y z
#    x 2.015690 0.000000 0.000000 
#    y 0.000000 1.899090 0.000000 
#    z 0.000000 0.000000 2.000990 
# 
# From -- ./inp_files/23398.got.cif
#   From: 2010.05.17/outbox.cif.g08.bks.cpg/sg50_12_cif.got.tgz:23398.got - 2010.06.03 11:33:33.
