data_PCOD9396955
_publ_section_title
;
Structure prediction by ZEFSAII (Michael W. Deem and Ramdas Pophale) SiO2 
 PCOD9396955
Probable space group: P B A N
;
_chemical_formula_sum "Si O2"
_cell_formula_units_Z 24
_cell_length_a 5.219376
_cell_length_b 15.724775
_cell_length_c 13.088472
_cell_angle_alpha 90.000000
_cell_angle_beta 90.000000
_cell_angle_gamma 90.000000
_cell_volume 1074.216880
_symmetry_space_group_name_H-M "P B A N"
_symmetry_group_IT_number 50
_space_group.IT_coordinate_system_code '2'
_symmetry_cell_setting 'orthorhombic'
loop_
_space_group_symop_operation_xyz
x,y,z
1/2-x,1/2-y,z
x,1/2-y,-z
1/2-x,y,-z
-x,-y,-z
1/2+x,1/2+y,-z
-x,1/2+y,z
1/2+x,-y,z
loop_
_atom_site_type_symbol
_atom_site_label
_atom_site_fract_x
_atom_site_fract_y
_atom_site_fract_z
Si Si1 0.002630 0.195957 0.770837
Si Si2 0.480151 0.963508 0.885140
Si Si3 0.230936 0.445402 0.379213
O O1 0.250000 0.250000 0.803451
O O2 0.922077 0.133976 0.864811
O O3 0.113490 0.135713 0.680630
O O4 0.750000 0.250000 0.742597
O O5 0.254543 0.018027 0.837568
O O6 0.500000 0.000000 0.000000
O O7 0.250000 0.424940 0.500000
O O8 0.519226 0.480141 0.360132
#
# Coordination Sequence:
#
# PCOD9396955 Si02
#       3
#     8   8   8
#     4  12  24  39  62  96 131 163 207 271 334 378
#     4  10  21  41  64  86 119 170 217 257 311 385
#     4  10  21  40  65  90 120 166 215 252 302 385
#
# _framework density 22.341857000000001
#
# number of rings (size 3 to 8) (size 9 to 14) (size 15 to 20)
#    0.000    1.333    0.000    6.000    0.000    0.667 
#    0.000   21.667    0.000    0.000    0.000    0.000 
#    0.000    0.000    0.000    0.000    0.000    0.000 
#
# Total GULP energy -133815.194794 kJ/mol
# GULP energy per Si atom -5575.633116 kJ/mol
# Density = 2.229101 g / cm^3
# Si number density = 22.341857 Si / 1000 Ang^3
#
#
#
# Elastic Constant Matrix: (Units=GPa)
#
#
# Indices 1 2 3 4 5 6 
#
# 1 155.9695 33.5370 22.6411 0.0000 0.0000 0.0000
# 2 33.5370 106.1787 42.4319 0.0000 0.0000 0.0000
# 3 22.6411 42.4319 122.8894 0.0000 0.0000 0.0000
# 4 0.0000 0.0000 0.0000 15.3718 0.0000 0.0000
# 5 0.0000 0.0000 0.0000 0.0000 28.3382 0.0000
# 6 0.0000 0.0000 0.0000 0.0000 0.0000 60.9200
#
#
#
# Elastic Compliance Matrix: (Units=1/GPa)
#
#
# Indices 1 2 3 4 5 6 
#
# 1 0.006917 -0.001944 -0.000603 0.000000 0.000000 0.000000
# 2 -0.001944 0.011472 -0.003603 0.000000 0.000000 0.000000
# 3 -0.000603 -0.003603 0.009493 0.000000 0.000000 0.000000
# 4 0.000000 0.000000 0.000000 0.065054 0.000000 0.000000
# 5 0.000000 0.000000 0.000000 0.000000 0.035288 0.000000
# 6 0.000000 0.000000 0.000000 0.000000 0.000000 0.016415
#
#
# Mechanical properties :
#
#
# Convention : Reuss Voigt Hill
#
# Bulk Modulus (GPa) = 64.17809 64.69529 64.43669
# Shear Modulus (GPa) = 30.83897 40.02115 35.43006
#
# Velocity S-wave (km/s) = 3.71930 4.23698 3.98655
# Velocity P-wave (km/s) = 6.87256 7.27707 7.07771
#
# Compressibility (1/GPa) = 0.01558164
#
# Stress axis : x y z
#
# Youngs Moduli (GPa) = 144.57091 87.16994 105.34529
#
# Poissons Ratio (x) = 0.16943 0.06355
# Poissons Ratio (y) = 0.28100 0.37955
# Poissons Ratio (z) = 0.08721 0.31407
#
# Static dielectric constant tensor:
#      x y z
#    x 1.863310 0.000000 0.000000 
#    y 0.000000 1.831780 0.000000 
#    z 0.000000 0.000000 1.178330 
# 
# From -- ./inp_files/23558.got.cif
#   From: 2010.05.17/outbox.cif.g08.bks.cpg/sg50_12_cif.got.tgz:23558.got - 2010.06.03 11:33:33.
