data_PCOD9396594
_publ_section_title
;
Structure prediction by ZEFSAII (Michael W. Deem and Ramdas Pophale) SiO2 
 PCOD9396594
Probable space group: P B A N
;
_chemical_formula_sum "Si O2"
_cell_formula_units_Z 48
_cell_length_a 9.100227
_cell_length_b 13.249212
_cell_length_c 17.806918
_cell_angle_alpha 90.000000
_cell_angle_beta 90.000000
_cell_angle_gamma 90.000000
_cell_volume 2146.995004
_symmetry_space_group_name_H-M "P B A N"
_symmetry_group_IT_number 50
_space_group.IT_coordinate_system_code '2'
_symmetry_cell_setting 'orthorhombic'
loop_
_space_group_symop_operation_xyz
x,y,z
1/2-x,1/2-y,z
x,1/2-y,-z
1/2-x,y,-z
-x,-y,-z
1/2+x,1/2+y,-z
-x,1/2+y,z
1/2+x,-y,z
loop_
_atom_site_type_symbol
_atom_site_label
_atom_site_fract_x
_atom_site_fract_y
_atom_site_fract_z
Si Si1 0.750000 0.250000 0.500000
Si Si2 0.386201 0.945022 0.739911
Si Si3 0.855828 0.336467 0.833176
Si Si4 0.999498 0.317366 0.395884
Si Si5 0.750000 0.750000 0.500000
Si Si6 0.750000 0.536759 0.000000
Si Si7 0.482383 0.466960 0.899884
Si Si8 0.606780 0.680964 0.723912
O O1 0.857667 0.314946 0.448215
O O2 0.237435 0.887769 0.764816
O O3 0.470718 0.898099 0.669423
O O4 0.481872 0.936459 0.815764
O O5 0.356769 0.063022 0.726897
O O6 0.750000 0.250000 0.864982
O O7 0.909847 0.421657 0.890240
O O8 0.001467 0.294902 0.793855
O O9 0.144105 0.318860 0.448004
O O10 0.018359 0.211896 0.350915
O O11 0.629923 0.477693 0.948724
O O12 0.856756 0.595127 0.942556
O O13 0.750000 0.750000 0.724917
#
# Coordination Sequence:
#
# PCOD9396594 Si02
#       8
#     2   8   8   8   2   4   8   8
#     4  10  24  46  66  98 142 192 228 292 356 426
#     4  11  24  42  73 108 135 190 242 288 353 421
#     4  11  22  40  65 103 139 180 239 295 349 416
#     4  11  22  45  69  97 145 183 238 288 356 421
#     4  10  24  42  70 102 148 190 216 308 356 418
#     4  10  20  42  67  99 144 188 228 290 363 429
#     4  10  22  39  70  99 141 185 237 288 357 423
#     4  11  25  40  69 103 139 179 233 307 340 412
#
# _framework density 22.356829000000001
#
# number of rings (size 3 to 8) (size 9 to 14) (size 15 to 20)
#    0.000    1.333    4.167    1.000    4.667    0.000 
#    0.000    5.417    0.000    1.000    0.000    0.000 
#    0.000    0.000    0.000    0.000    0.000    0.000 
#
# Total GULP energy -268098.656061 kJ/mol
# GULP energy per Si atom -5585.388668 kJ/mol
# Density = 2.230594 g / cm^3
# Si number density = 22.356829 Si / 1000 Ang^3
#
#
#
# Elastic Constant Matrix: (Units=GPa)
#
#
# Indices 1 2 3 4 5 6 
#
# 1 164.0825 40.4660 78.9455 0.0000 0.0000 0.0000
# 2 40.4660 106.1807 39.7709 0.0000 0.0000 0.0000
# 3 78.9455 39.7709 147.7750 0.0000 0.0000 0.0000
# 4 0.0000 0.0000 0.0000 14.0389 0.0000 0.0000
# 5 0.0000 0.0000 0.0000 0.0000 43.3155 0.0000
# 6 0.0000 0.0000 0.0000 0.0000 0.0000 23.2220
#
#
#
# Elastic Compliance Matrix: (Units=1/GPa)
#
#
# Indices 1 2 3 4 5 6 
#
# 1 0.008472 -0.001705 -0.004067 0.000000 0.000000 0.000000
# 2 -0.001705 0.010817 -0.002000 0.000000 0.000000 0.000000
# 3 -0.004067 -0.002000 0.009478 0.000000 0.000000 0.000000
# 4 0.000000 0.000000 0.000000 0.071231 0.000000 0.000000
# 5 0.000000 0.000000 0.000000 0.000000 0.023086 0.000000
# 6 0.000000 0.000000 0.000000 0.000000 0.000000 0.043063
#
#
# Mechanical properties :
#
#
# Convention : Reuss Voigt Hill
#
# Bulk Modulus (GPa) = 75.63161 81.82256 78.72708
# Shear Modulus (GPa) = 26.86747 33.37232 30.11989
#
# Velocity S-wave (km/s) = 3.47040 3.86776 3.67445
# Velocity P-wave (km/s) = 7.06831 7.52489 7.30017
#
# Compressibility (1/GPa) = 0.01322198
#
# Stress axis : x y z
#
# Youngs Moduli (GPa) = 118.03885 92.44706 105.50749
#
# Poissons Ratio (x) = 0.15765 0.42909
# Poissons Ratio (y) = 0.20130 0.21103
# Poissons Ratio (z) = 0.48005 0.18491
#
# Static dielectric constant tensor:
#      x y z
#    x 1.882540 0.000000 0.000000 
#    y 0.000000 1.841360 0.000000 
#    z 0.000000 0.000000 1.885940 
# 
# From -- ./inp_files/28787.got.cif
#   From: 2010.05.17/outbox.cif.g08.bks.cpg/sg50_15_cif.got.tgz:28787.got - 2010.06.03 11:33:33.
