data_PCOD9396761
_publ_section_title
;
Structure prediction by ZEFSAII (Michael W. Deem and Ramdas Pophale) SiO2 
 PCOD9396761
Probable space group: P B A N
;
_chemical_formula_sum "Si O2"
_cell_formula_units_Z 56
_cell_length_a 9.685256
_cell_length_b 21.899306
_cell_length_c 14.878372
_cell_angle_alpha 90.000000
_cell_angle_beta 90.000000
_cell_angle_gamma 90.000000
_cell_volume 3155.708427
_symmetry_space_group_name_H-M "P B A N"
_symmetry_group_IT_number 50
_space_group.IT_coordinate_system_code '2'
_symmetry_cell_setting 'orthorhombic'
loop_
_space_group_symop_operation_xyz
x,y,z
1/2-x,1/2-y,z
x,1/2-y,-z
1/2-x,y,-z
-x,-y,-z
1/2+x,1/2+y,-z
-x,1/2+y,z
1/2+x,-y,z
loop_
_atom_site_type_symbol
_atom_site_label
_atom_site_fract_x
_atom_site_fract_y
_atom_site_fract_z
Si Si1 0.100583 0.853486 0.468594
Si Si2 0.087770 0.768976 0.296584
Si Si3 0.011054 0.863495 0.662976
Si Si4 0.118540 0.973100 0.062330
Si Si5 0.292731 0.561210 0.334723
Si Si6 0.499195 0.618167 0.192692
Si Si7 0.712522 0.556920 0.768073
O O1 0.250000 0.828129 0.500000
O O2 0.059021 0.809131 0.386930
O O3 0.138061 0.920604 0.429245
O O4 0.001297 0.859029 0.554051
O O5 0.250000 0.750000 0.292254
O O6 0.037571 0.812145 0.215522
O O7 0.009357 0.705281 0.301750
O O8 0.903112 0.903594 0.717759
O O9 0.162035 0.894056 0.676640
O O10 0.061870 0.909499 0.101703
O O11 0.157371 0.019841 0.144097
O O12 0.250000 0.963748 0.000000
O O13 0.000000 0.000000 0.000000
O O14 0.411968 0.580357 0.266258
O O15 0.245686 0.494270 0.306153
O O16 0.657875 0.598547 0.203980
#
# Coordination Sequence:
#
# PCOD9396761 Si02
#       7
#     8   8   8   8   8   8   8
#     4   9  17  31  57  86 109 158 221 256 289 341
#     4  11  19  35  61  83 115 163 213 259 287 353
#     4  11  21  33  59  86 114 166 209 249 301 352
#     4  11  22  40  69  94 117 154 194 246 303 382
#     4   9  18  34  56  82 116 158 203 250 296 357
#     4  10  21  37  57  89 121 152 197 246 309 357
#     4  11  23  37  55  90 128 149 192 250 319 378
#
# _framework density 17.745619999999999
#
# number of rings (size 3 to 8) (size 9 to 14) (size 15 to 20)
#    0.000    1.714    5.714    2.143    2.000    1.143 
#    0.000    7.143    0.000    6.429    0.000    0.000 
#    0.000    0.000    0.000    0.000    0.000    0.000 
#
# Total GULP energy -311882.842198 kJ/mol
# GULP energy per Si atom -5569.336468 kJ/mol
# Density = 1.770523 g / cm^3
# Si number density = 17.745620 Si / 1000 Ang^3
#
#
#
# Elastic Constant Matrix: (Units=GPa)
#
#
# Indices 1 2 3 4 5 6 
#
# 1 83.2255 36.6629 44.8835 0.0000 0.0000 0.0000
# 2 36.6629 114.4472 73.4471 0.0000 0.0000 0.0000
# 3 44.8835 73.4471 95.5141 0.0000 0.0000 0.0000
# 4 0.0000 0.0000 0.0000 24.9028 0.0000 0.0000
# 5 0.0000 0.0000 0.0000 0.0000 32.4029 0.0000
# 6 0.0000 0.0000 0.0000 0.0000 0.0000 9.0383
#
#
#
# Elastic Compliance Matrix: (Units=1/GPa)
#
#
# Indices 1 2 3 4 5 6 
#
# 1 0.016115 -0.000597 -0.007113 0.000000 0.000000 0.000000
# 2 -0.000597 0.017273 -0.013001 0.000000 0.000000 0.000000
# 3 -0.007113 -0.013001 0.023810 0.000000 0.000000 0.000000
# 4 0.000000 0.000000 0.000000 0.040156 0.000000 0.000000
# 5 0.000000 0.000000 0.000000 0.000000 0.030861 0.000000
# 6 0.000000 0.000000 0.000000 0.000000 0.000000 0.110641
#
#
# Mechanical properties :
#
#
# Convention : Reuss Voigt Hill
#
# Bulk Modulus (GPa) = 63.39780 67.01933 65.20856
# Shear Modulus (GPa) = 17.51080 22.48166 19.99623
#
# Velocity S-wave (km/s) = 3.14469 3.56319 3.36046
# Velocity P-wave (km/s) = 6.99921 7.40116 7.20299
#
# Compressibility (1/GPa) = 0.01577342
#
# Stress axis : x y z
#
# Youngs Moduli (GPa) = 62.05439 57.89447 41.99918
#
# Poissons Ratio (x) = 0.03459 0.29875
# Poissons Ratio (y) = 0.03707 0.54605
# Poissons Ratio (z) = 0.44141 0.75271
#
# Static dielectric constant tensor:
#      x y z
#    x 1.539000 0.000000 0.000000 
#    y 0.000000 1.633830 0.000000 
#    z 0.000000 0.000000 1.646280 
# 
# From -- ./inp_files/25223.got.cif
#   From: 2010.05.17/outbox.cif.g08.bks.cpg/sg50_13_cif.got.tgz:25223.got - 2010.06.03 11:33:33.
