data_PCOD9396630
_publ_section_title
;
Structure prediction by ZEFSAII (Michael W. Deem and Ramdas Pophale) SiO2 
 PCOD9396630
Probable space group: P B A N
;
_chemical_formula_sum "Si O2"
_cell_formula_units_Z 42
_cell_length_a 16.907201
_cell_length_b 9.707500
_cell_length_c 14.240359
_cell_angle_alpha 90.000000
_cell_angle_beta 90.000000
_cell_angle_gamma 90.000000
_cell_volume 2337.222470
_symmetry_space_group_name_H-M "P B A N"
_symmetry_group_IT_number 50
_space_group.IT_coordinate_system_code '2'
_symmetry_cell_setting 'orthorhombic'
loop_
_space_group_symop_operation_xyz
x,y,z
1/2-x,1/2-y,z
x,1/2-y,-z
1/2-x,y,-z
-x,-y,-z
1/2+x,1/2+y,-z
-x,1/2+y,z
1/2+x,-y,z
loop_
_atom_site_type_symbol
_atom_site_label
_atom_site_fract_x
_atom_site_fract_y
_atom_site_fract_z
Si Si1 0.443729 0.238500 0.892047
Si Si2 0.897573 0.992837 0.749635
Si Si3 0.656303 0.733324 0.606860
Si Si4 0.628601 0.281428 0.161748
Si Si5 0.250000 0.750000 0.000000
Si Si6 0.081532 0.041842 0.741735
O O1 0.538549 0.223870 0.878037
O O2 0.417343 0.376668 0.840040
O O3 0.403405 0.111723 0.837941
O O4 0.424326 0.250000 0.000000
O O5 0.858230 0.133382 0.787721
O O6 0.988769 0.021078 0.721448
O O7 0.861407 0.908672 0.662518
O O8 0.750000 0.750000 0.605970
O O9 0.627108 0.750000 0.500000
O O10 0.618688 0.856870 0.666502
O O11 0.688399 0.314534 0.076371
O O12 0.626198 0.399415 0.240749
#
# Coordination Sequence:
#
# PCOD9396630 Si02
#       6
#     8   8   8   8   2   8
#     4   9  17  33  55  76 104 144 188 223 257 311
#     4   9  20  37  58  81 107 143 185 230 270 321
#     4  10  22  41  61  81 108 142 181 230 289 334
#     4  10  21  33  50  79 116 141 182 217 266 316
#     4  12  24  28  44  82 118 160 166 214 272 324
#     4   9  20  37  58  81 107 143 185 230 270 321
#
# _framework density 17.970047000000001
#
# number of rings (size 3 to 8) (size 9 to 14) (size 15 to 20)
#    0.000    2.476    0.952    1.143    5.333    3.048 
#    0.000    0.952    0.000    6.857    0.000    0.000 
#    0.000    0.000    0.000    0.000    0.000    0.000 
#
# Total GULP energy -233970.439494 kJ/mol
# GULP energy per Si atom -5570.724750 kJ/mol
# Density = 1.792915 g / cm^3
# Si number density = 17.970047 Si / 1000 Ang^3
#
#
#
# Elastic Constant Matrix: (Units=GPa)
#
#
# Indices 1 2 3 4 5 6 
#
# 1 34.6033 24.1009 33.7247 0.0000 0.0000 0.0000
# 2 24.1009 113.3019 46.2428 0.0000 0.0000 0.0000
# 3 33.7247 46.2428 136.2901 0.0000 0.0000 0.0000
# 4 0.0000 0.0000 0.0000 1.0636 0.0000 0.0000
# 5 0.0000 0.0000 0.0000 0.0000 16.4747 0.0000
# 6 0.0000 0.0000 0.0000 0.0000 0.0000 0.9258
#
#
#
# Elastic Compliance Matrix: (Units=1/GPa)
#
#
# Indices 1 2 3 4 5 6 
#
# 1 0.040623 -0.005268 -0.008265 0.000000 0.000000 0.000000
# 2 -0.005268 0.010928 -0.002404 0.000000 0.000000 0.000000
# 3 -0.008265 -0.002404 0.010198 0.000000 0.000000 0.000000
# 4 0.000000 0.000000 0.000000 0.940224 0.000000 0.000000
# 5 0.000000 0.000000 0.000000 0.000000 0.060699 0.000000
# 6 0.000000 0.000000 0.000000 0.000000 0.000000 1.080160
#
#
# Mechanical properties :
#
#
# Convention : Reuss Voigt Hill
#
# Bulk Modulus (GPa) = 33.47267 54.70356 44.08812
# Shear Modulus (GPa) = 2.28868 15.70127 8.99497
#
# Velocity S-wave (km/s) = 1.12977 2.95913 2.23973
# Velocity P-wave (km/s) = 4.51322 6.49483 5.59250
#
# Compressibility (1/GPa) = 0.02987512
#
# Stress axis : x y z
#
# Youngs Moduli (GPa) = 24.61671 91.50966 98.05747
#
# Poissons Ratio (x) = 0.48207 0.81041
# Poissons Ratio (y) = 0.12968 0.23575
# Poissons Ratio (z) = 0.20345 0.22001
#
# Static dielectric constant tensor:
#      x y z
#    x 1.625510 0.000000 0.000000 
#    y 0.000000 1.650610 0.000000 
#    z 0.000000 0.000000 1.596700 
# 
# From -- ./inp_files/21732.got.cif
#   From: 2010.05.17/outbox.cif.g08.bks.cpg/sg50_11_cif.got.tgz:21732.got - 2010.06.03 11:33:33.
