data_PCOD9396475
_publ_section_title
;
Structure prediction by ZEFSAII (Michael W. Deem and Ramdas Pophale) SiO2 
 PCOD9396475
Probable space group: P B A N
;
_chemical_formula_sum "Si O2"
_cell_formula_units_Z 40
_cell_length_a 11.449237
_cell_length_b 9.598623
_cell_length_c 16.242224
_cell_angle_alpha 90.000000
_cell_angle_beta 90.000000
_cell_angle_gamma 90.000000
_cell_volume 1784.970223
_symmetry_space_group_name_H-M "P B A N"
_symmetry_group_IT_number 50
_space_group.IT_coordinate_system_code '2'
_symmetry_cell_setting 'orthorhombic'
loop_
_space_group_symop_operation_xyz
x,y,z
1/2-x,1/2-y,z
x,1/2-y,-z
1/2-x,y,-z
-x,-y,-z
1/2+x,1/2+y,-z
-x,1/2+y,z
1/2+x,-y,z
loop_
_atom_site_type_symbol
_atom_site_label
_atom_site_fract_x
_atom_site_fract_y
_atom_site_fract_z
Si Si1 0.099389 0.358817 0.282701
Si Si2 0.374233 0.673480 0.921632
Si Si3 0.550268 0.578471 0.789888
Si Si4 0.763542 0.908300 0.113728
Si Si5 0.618117 0.587739 0.472166
O O1 0.094446 0.192802 0.275111
O O2 0.179608 0.402136 0.205271
O O3 0.128840 0.408526 0.373121
O O4 0.982800 0.441261 0.258525
O O5 0.250000 0.750000 0.907948
O O6 0.450305 0.663051 0.839806
O O7 0.341371 0.511801 0.938949
O O8 0.430268 0.750000 0.000000
O O9 0.636109 0.537261 0.863906
O O10 0.750000 0.750000 0.086324
O O11 0.602876 0.750000 0.500000
O O12 0.750000 0.540616 0.500000
O O13 0.500000 0.500000 0.500000
#
# Coordination Sequence:
#
# PCOD9396475 Si02
#       5
#     8   8   8   8   8
#     4  10  21  37  64  88 125 164 218 267 313 395
#     4  10  21  40  59  88 127 158 198 267 325 382
#     4  10  20  38  66  92 117 168 217 258 321 384
#     4   9  20  37  62  88 115 160 216 258 311 383
#     4  11  26  43  67 100 143 186 228 284 358 410
#
# _framework density 22.409337000000001
#
# number of rings (size 3 to 8) (size 9 to 14) (size 15 to 20)
#    0.000    2.000    0.000    2.400   11.200    0.400 
#    0.000   27.000    0.000    1.200    0.000    0.000 
#    0.000    0.000    0.000    0.000    0.000    0.000 
#
# Total GULP energy -222977.469912 kJ/mol
# GULP energy per Si atom -5574.436748 kJ/mol
# Density = 2.235833 g / cm^3
# Si number density = 22.409337 Si / 1000 Ang^3
#
#
#
# Elastic Constant Matrix: (Units=GPa)
#
#
# Indices 1 2 3 4 5 6 
#
# 1 69.4242 29.7880 18.4022 0.0000 0.0000 0.0000
# 2 29.7880 117.8072 34.7890 0.0000 0.0000 0.0000
# 3 18.4022 34.7890 127.4831 0.0000 0.0000 0.0000
# 4 0.0000 0.0000 0.0000 19.1843 0.0000 0.0000
# 5 0.0000 0.0000 0.0000 0.0000 -68.5355 0.0000
# 6 0.0000 0.0000 0.0000 0.0000 0.0000 23.7573
#
#
#
# Elastic Compliance Matrix: (Units=1/GPa)
#
#
# Indices 1 2 3 4 5 6 
#
# 1 0.016365 -0.003742 -0.001341 0.000000 0.000000 0.000000
# 2 -0.003742 0.010088 -0.002213 0.000000 0.000000 0.000000
# 3 -0.001341 -0.002213 0.008642 0.000000 0.000000 0.000000
# 4 0.000000 0.000000 0.000000 0.052126 0.000000 0.000000
# 5 0.000000 0.000000 0.000000 0.000000 -0.014591 0.000000
# 6 0.000000 0.000000 0.000000 0.000000 0.000000 0.042092
#
#
# Mechanical properties :
#
#
# Convention : Reuss Voigt Hill
#
# Bulk Modulus (GPa) = 48.77313 53.40811 51.09062
# Shear Modulus (GPa) = 36.72457 10.33023 23.52740
#
# Velocity S-wave (km/s) = 4.05261 2.14937 3.24372
# Velocity P-wave (km/s) = 6.61136 5.48128 6.07267
#
# Compressibility (1/GPa) = 0.02050309
#
# Stress axis : x y z
#
# Youngs Moduli (GPa) = 61.10495 99.12710 115.71897
#
# Poissons Ratio (x) = 0.37093 0.15520
# Poissons Ratio (y) = 0.22865 0.25606
# Poissons Ratio (z) = 0.08195 0.21935
#
# Static dielectric constant tensor:
#      x y z
#    x 1.068490 0.000000 0.000000 
#    y 0.000000 1.858740 0.000000 
#    z 0.000000 0.000000 1.830410 
# 
# From -- ./inp_files/29064.got.cif
#   From: 2010.05.17/outbox.cif.g08.bks.cpg/sg50_15_cif.got.tgz:29064.got - 2010.06.03 11:33:33.
