data_PCOD9396326
_publ_section_title
;
Structure prediction by ZEFSAII (Michael W. Deem and Ramdas Pophale) SiO2 
 PCOD9396326
Probable space group: P B A N
;
_chemical_formula_sum "Si O2"
_cell_formula_units_Z 32
_cell_length_a 19.796076
_cell_length_b 7.743985
_cell_length_c 9.232746
_cell_angle_alpha 90.000000
_cell_angle_beta 90.000000
_cell_angle_gamma 90.000000
_cell_volume 1415.384722
_symmetry_space_group_name_H-M "P B A N"
_symmetry_group_IT_number 50
_space_group.IT_coordinate_system_code '2'
_symmetry_cell_setting 'orthorhombic'
loop_
_space_group_symop_operation_xyz
x,y,z
1/2-x,1/2-y,z
x,1/2-y,-z
1/2-x,y,-z
-x,-y,-z
1/2+x,1/2+y,-z
-x,1/2+y,z
1/2+x,-y,z
loop_
_atom_site_type_symbol
_atom_site_label
_atom_site_fract_x
_atom_site_fract_y
_atom_site_fract_z
Si Si1 0.256261 0.540902 0.831362
Si Si2 0.470682 0.853693 0.653388
Si Si3 0.650574 0.569812 0.586107
Si Si4 0.892252 0.456780 0.703639
O O1 0.250000 0.750000 0.814009
O O2 0.205022 0.460132 0.712127
O O3 0.332768 0.482854 0.803276
O O4 0.250000 0.499702 0.000000
O O5 0.473509 0.750000 0.500000
O O6 0.427436 0.721714 0.749672
O O7 0.424246 0.025271 0.646290
O O8 0.545638 0.911597 0.691194
O O9 0.658294 0.750000 0.500000
O O10 0.648407 0.438210 0.449240
#
# Coordination Sequence:
#
# PCOD9396326 Si02
#       4
#     8   8   8   8
#     4  11  25  46  70  97 140 192 234 279 341 414
#     4  10  20  36  64 103 141 171 222 294 351 401
#     4  11  22  40  69 104 134 173 230 294 348 403
#     4  11  21  39  70 100 136 177 232 288 344 409
#
# _framework density 22.608695000000001
#
# number of rings (size 3 to 8) (size 9 to 14) (size 15 to 20)
#    0.000    1.250    2.500    6.000    0.000    4.000 
#    0.000    3.750    0.000    0.000    0.000    1.750 
#    0.000    0.000    0.000    0.000    0.000    0.000 
#
# Total GULP energy -178428.807057 kJ/mol
# GULP energy per Si atom -5575.900221 kJ/mol
# Density = 2.255724 g / cm^3
# Si number density = 22.608695 Si / 1000 Ang^3
#
#
#
# Elastic Constant Matrix: (Units=GPa)
#
#
# Indices 1 2 3 4 5 6 
#
# 1 237.4108 67.2731 112.1276 0.0000 0.0000 0.0000
# 2 67.2731 137.6510 49.8653 0.0000 0.0000 0.0000
# 3 112.1276 49.8653 126.4648 0.0000 0.0000 0.0000
# 4 0.0000 0.0000 0.0000 13.3870 0.0000 0.0000
# 5 0.0000 0.0000 0.0000 0.0000 22.9585 0.0000
# 6 0.0000 0.0000 0.0000 0.0000 0.0000 24.8077
#
#
#
# Elastic Compliance Matrix: (Units=1/GPa)
#
#
# Indices 1 2 3 4 5 6 
#
# 1 0.007491 -0.001464 -0.006065 0.000000 0.000000 0.000000
# 2 -0.001464 0.008762 -0.002157 0.000000 0.000000 0.000000
# 3 -0.006065 -0.002157 0.014135 0.000000 0.000000 0.000000
# 4 0.000000 0.000000 0.000000 0.074699 0.000000 0.000000
# 5 0.000000 0.000000 0.000000 0.000000 0.043557 0.000000
# 6 0.000000 0.000000 0.000000 0.000000 0.000000 0.040310
#
#
# Mechanical properties :
#
#
# Convention : Reuss Voigt Hill
#
# Bulk Modulus (GPa) = 90.76976 106.67319 98.72148
# Shear Modulus (GPa) = 23.58526 30.38136 26.98331
#
# Velocity S-wave (km/s) = 3.23336 3.66975 3.45844
# Velocity P-wave (km/s) = 7.36035 8.07718 7.72708
#
# Compressibility (1/GPa) = 0.01101688
#
# Stress axis : x y z
#
# Youngs Moduli (GPa) = 133.48786 114.13518 70.74741
#
# Poissons Ratio (x) = 0.16711 0.42906
# Poissons Ratio (y) = 0.19545 0.15257
# Poissons Ratio (z) = 0.80956 0.24613
#
# Static dielectric constant tensor:
#      x y z
#    x 1.864740 0.000000 0.000000 
#    y 0.000000 1.994230 0.000000 
#    z 0.000000 0.000000 1.886650 
# 
# From -- ./inp_files/14841.got.cif
#   From: 2010.05.17/outbox.cif.g08.bks.cpg/sg50_8_cif.got.tgz:14841.got - 2010.06.03 11:33:33.
