data_PCOD9396142
_publ_section_title
;
Structure prediction by ZEFSAII (Michael W. Deem and Ramdas Pophale) SiO2 
 PCOD9396142
Probable space group: P B A N
;
_chemical_formula_sum "Si O2"
_cell_formula_units_Z 40
_cell_length_a 26.863991
_cell_length_b 15.472552
_cell_length_c 5.120352
_cell_angle_alpha 90.000000
_cell_angle_beta 90.000000
_cell_angle_gamma 90.000000
_cell_volume 2128.297338
_symmetry_space_group_name_H-M "P B A N"
_symmetry_group_IT_number 50
_space_group.IT_coordinate_system_code '2'
_symmetry_cell_setting 'orthorhombic'
loop_
_space_group_symop_operation_xyz
x,y,z
1/2-x,1/2-y,z
x,1/2-y,-z
1/2-x,y,-z
-x,-y,-z
1/2+x,1/2+y,-z
-x,1/2+y,z
1/2+x,-y,z
loop_
_atom_site_type_symbol
_atom_site_label
_atom_site_fract_x
_atom_site_fract_y
_atom_site_fract_z
Si Si1 0.952692 0.945882 0.398215
Si Si2 0.971907 0.307804 0.256361
Si Si3 0.691707 0.542986 0.030878
Si Si4 0.190416 0.154431 0.466332
Si Si5 0.594110 0.473988 0.876973
O O1 0.975781 0.852744 0.336162
O O2 0.914665 0.959991 0.635673
O O3 0.000000 0.000000 0.500000
O O4 0.932988 0.987503 0.131850
O O5 0.955133 0.250000 0.500000
O O6 0.932258 0.384029 0.196663
O O7 0.977725 0.250000 0.000000
O O8 0.678424 0.583740 0.311429
O O9 0.750000 0.518530 0.000000
O O10 0.682892 0.619465 0.823071
O O11 0.652259 0.469915 0.950138
O O12 0.168080 0.250000 0.500000
O O13 0.250000 0.162616 0.500000
#
# Coordination Sequence:
#
# PCOD9396142 Si02
#       5
#     8   8   8   8   8
#     4  10  20  37  57  78 107 141 175 219 275 330
#     4  11  21  36  58  83 109 140 180 226 276 328
#     4  10  20  34  54  79 108 148 189 219 257 316
#     4   9  17  31  50  71 100 138 180 224 264 302
#     4  11  21  37  58  81 111 147 182 220 271 326
#
# _framework density 18.794366
#
# number of rings (size 3 to 8) (size 9 to 14) (size 15 to 20)
#    0.000    1.800    0.000    7.800    0.000    2.400 
#    0.000   10.000    0.000    0.600    0.000    4.200 
#    0.000    0.000    0.000    0.000    0.000    0.000 
#
# Total GULP energy -223092.143244 kJ/mol
# GULP energy per Si atom -5577.303581 kJ/mol
# Density = 1.875159 g / cm^3
# Si number density = 18.794366 Si / 1000 Ang^3
#
#
#
# Elastic Constant Matrix: (Units=GPa)
#
#
# Indices 1 2 3 4 5 6 
#
# 1 102.3599 44.1016 45.2642 0.0000 0.0000 0.0000
# 2 44.1016 75.0847 33.7198 0.0000 0.0000 0.0000
# 3 45.2642 33.7198 132.2261 0.0000 0.0000 0.0000
# 4 0.0000 0.0000 0.0000 75.1107 0.0000 0.0000
# 5 0.0000 0.0000 0.0000 0.0000 39.5947 0.0000
# 6 0.0000 0.0000 0.0000 0.0000 0.0000 -1.5235
#
#
#
# Elastic Compliance Matrix: (Units=1/GPa)
#
#
# Indices 1 2 3 4 5 6 
#
# 1 0.014100 -0.006905 -0.003066 0.000000 0.000000 0.000000
# 2 -0.006905 0.018422 -0.002334 0.000000 0.000000 0.000000
# 3 -0.003066 -0.002334 0.009208 0.000000 0.000000 0.000000
# 4 0.000000 0.000000 0.000000 0.013314 0.000000 0.000000
# 5 0.000000 0.000000 0.000000 0.000000 0.025256 0.000000
# 6 0.000000 0.000000 0.000000 0.000000 0.000000 -0.656398
#
#
# Mechanical properties :
#
#
# Convention : Reuss Voigt Hill
#
# Bulk Modulus (GPa) = 58.41205 61.76022 60.08614
# Shear Modulus (GPa) = -9.16117 35.07539 12.95711
#
# Velocity S-wave (km/s) = -2.21021 4.32472 2.62852
# Velocity P-wave (km/s) = 4.96323 7.60723 6.42276
#
# Compressibility (1/GPa) = 0.01711976
#
# Stress axis : x y z
#
# Youngs Moduli (GPa) = 70.92078 54.28210 108.60563
#
# Poissons Ratio (x) = 0.37482 0.33298
# Poissons Ratio (y) = 0.48971 0.25351
# Poissons Ratio (z) = 0.21744 0.12671
#
# Static dielectric constant tensor:
#      x y z
#    x 1.665420 0.000000 0.000000 
#    y 0.000000 1.653390 0.000000 
#    z 0.000000 0.000000 1.652030 
# 
# From -- ./inp_files/6523.got.cif
#   From: 2010.05.17/outbox.cif.g08.bks.cpg/sg50_4_cif.got.tgz:6523.got - 2010.06.03 11:33:33.
