data_PCOD9396953
_publ_section_title
;
Structure prediction by ZEFSAII (Michael W. Deem and Ramdas Pophale) SiO2 
 PCOD9396953
Probable space group: P B A N
;
_chemical_formula_sum "Si O2"
_cell_formula_units_Z 64
_cell_length_a 29.744034
_cell_length_b 8.385918
_cell_length_c 12.273944
_cell_angle_alpha 90.000000
_cell_angle_beta 90.000000
_cell_angle_gamma 90.000000
_cell_volume 3061.502495
_symmetry_space_group_name_H-M "P B A N"
_symmetry_group_IT_number 50
_space_group.IT_coordinate_system_code '2'
_symmetry_cell_setting 'orthorhombic'
loop_
_space_group_symop_operation_xyz
x,y,z
1/2-x,1/2-y,z
x,1/2-y,-z
1/2-x,y,-z
-x,-y,-z
1/2+x,1/2+y,-z
-x,1/2+y,z
1/2+x,-y,z
loop_
_atom_site_type_symbol
_atom_site_label
_atom_site_fract_x
_atom_site_fract_y
_atom_site_fract_z
Si Si1 0.713126 0.369369 0.200988
Si Si2 0.394834 0.071612 0.880977
Si Si3 0.025704 0.135875 0.272903
Si Si4 0.651476 0.389124 0.687948
Si Si5 0.566261 0.090707 0.457709
Si Si6 0.633424 0.561865 0.118696
Si Si7 0.235208 0.433616 0.617606
Si Si8 0.564560 0.987136 0.695824
O O1 0.750000 0.250000 0.148388
O O2 0.682113 0.259151 0.278769
O O3 0.681835 0.477262 0.123911
O O4 0.739808 0.483873 0.282371
O O5 0.445277 0.085113 0.833126
O O6 0.370124 0.245152 0.874079
O O7 0.369213 0.955157 0.799661
O O8 0.391222 0.019902 0.005796
O O9 0.040870 0.316037 0.291392
O O10 0.040490 0.024129 0.374559
O O11 0.972478 0.115676 0.266181
O O12 0.610740 0.353891 0.606368
O O13 0.682865 0.526348 0.635230
O O14 0.540904 0.250000 0.500000
O O15 0.577319 0.002458 0.569860
O O16 0.606319 0.502976 0.223850
O O17 0.250000 0.250000 0.618826
O O18 0.250000 0.500531 0.500000
#
# Coordination Sequence:
#
# PCOD9396953 Si02
#       8
#     8   8   8   8   8   8   8   8
#     4  10  22  39  61  89 122 156 199 254 304 358
#     4   9  21  42  63  86 121 159 204 251 299 359
#     4  10  22  40  58  88 123 157 199 248 301 361
#     4  10  22  38  58  87 120 155 196 249 305 362
#     4  11  22  36  58  85 119 160 198 245 300 363
#     4  10  21  40  65  88 116 161 206 250 298 364
#     4  10  22  38  58  85 119 158 197 244 297 366
#     4  11  22  37  61  88 120 157 201 245 302 361
#
# _framework density 20.904768000000001
#
# number of rings (size 3 to 8) (size 9 to 14) (size 15 to 20)
#    0.000    1.875    0.000    3.000    3.500    3.750 
#    4.500    4.375    0.000    6.750    0.000    0.000 
#    0.000    0.000    0.000    0.000    0.000    0.000 
#
# Total GULP energy -357502.437694 kJ/mol
# GULP energy per Si atom -5585.975589 kJ/mol
# Density = 2.085719 g / cm^3
# Si number density = 20.904768 Si / 1000 Ang^3
#
#
#
# Elastic Constant Matrix: (Units=GPa)
#
#
# Indices 1 2 3 4 5 6 
#
# 1 56.1864 11.0657 7.1816 0.0000 0.0000 0.0000
# 2 11.0657 46.9266 5.0995 0.0000 0.0000 0.0000
# 3 7.1816 5.0995 106.4936 0.0000 0.0000 0.0000
# 4 0.0000 0.0000 0.0000 6.1174 0.0000 0.0000
# 5 0.0000 0.0000 0.0000 0.0000 19.2532 0.0000
# 6 0.0000 0.0000 0.0000 0.0000 0.0000 23.7869
#
#
#
# Elastic Compliance Matrix: (Units=1/GPa)
#
#
# Indices 1 2 3 4 5 6 
#
# 1 0.018783 -0.004314 -0.001060 0.000000 0.000000 0.000000
# 2 -0.004314 0.022412 -0.000782 0.000000 0.000000 0.000000
# 3 -0.001060 -0.000782 0.009499 0.000000 0.000000 0.000000
# 4 0.000000 0.000000 0.000000 0.163469 0.000000 0.000000
# 5 0.000000 0.000000 0.000000 0.000000 0.051939 0.000000
# 6 0.000000 0.000000 0.000000 0.000000 0.000000 0.042040
#
#
# Mechanical properties :
#
#
# Convention : Reuss Voigt Hill
#
# Bulk Modulus (GPa) = 26.05415 28.47780 27.26597
# Shear Modulus (GPa) = 15.00379 22.24883 18.62631
#
# Velocity S-wave (km/s) = 2.68194 3.26589 2.98821
# Velocity P-wave (km/s) = 4.69901 5.27955 4.99771
#
# Compressibility (1/GPa) = 0.03838161
#
# Stress axis : x y z
#
# Youngs Moduli (GPa) = 53.23959 44.61861 105.27220
#
# Poissons Ratio (x) = 0.19248 0.11160
# Poissons Ratio (y) = 0.22968 0.08236
# Poissons Ratio (z) = 0.05644 0.03491
#
# Static dielectric constant tensor:
#      x y z
#    x 1.768990 0.000000 0.000000 
#    y 0.000000 1.785990 0.000000 
#    z 0.000000 0.000000 1.717030 
# 
# From -- ./inp_files/23407.got.cif
#   From: 2010.05.17/outbox.cif.g08.bks.cpg/sg50_12_cif.got.tgz:23407.got - 2010.06.03 11:33:33.
