data_PCOD9396226
_publ_section_title
;
Structure prediction by ZEFSAII (Michael W. Deem and Ramdas Pophale) SiO2 
 PCOD9396226
Probable space group: P B A N
;
_chemical_formula_sum "Si O2"
_cell_formula_units_Z 64
_cell_length_a 12.477570
_cell_length_b 29.796566
_cell_length_c 8.221548
_cell_angle_alpha 90.000000
_cell_angle_beta 90.000000
_cell_angle_gamma 90.000000
_cell_volume 3056.678956
_symmetry_space_group_name_H-M "P B A N"
_symmetry_group_IT_number 50
_space_group.IT_coordinate_system_code '2'
_symmetry_cell_setting 'orthorhombic'
loop_
_space_group_symop_operation_xyz
x,y,z
1/2-x,1/2-y,z
x,1/2-y,-z
1/2-x,y,-z
-x,-y,-z
1/2+x,1/2+y,-z
-x,1/2+y,z
1/2+x,-y,z
loop_
_atom_site_type_symbol
_atom_site_label
_atom_site_fract_x
_atom_site_fract_y
_atom_site_fract_z
Si Si1 0.031246 0.418958 0.191909
Si Si2 0.981531 0.338755 0.679752
Si Si3 0.482816 0.825128 0.708486
Si Si4 0.034927 0.933818 0.827709
Si Si5 0.747778 0.302747 0.301737
Si Si6 0.128089 0.242335 0.302721
Si Si7 0.581594 0.490776 0.647789
Si Si8 0.791129 0.503952 0.813148
O O1 0.130397 0.453292 0.210006
O O2 0.049988 0.367662 0.232346
O O3 0.939232 0.439244 0.308150
O O4 0.985638 0.421058 0.011671
O O5 0.978936 0.329513 0.487037
O O6 0.994161 0.391177 0.718461
O O7 0.865346 0.324066 0.749593
O O8 0.077327 0.306150 0.738373
O O9 0.358278 0.824367 0.762251
O O10 0.544014 0.779819 0.756394
O O11 0.150394 0.955717 0.800951
O O12 0.962078 0.976864 0.790018
O O13 0.750000 0.250000 0.261292
O O14 0.750000 0.305635 0.500000
O O15 0.250000 0.250000 0.245740
O O16 0.130400 0.250000 0.500000
O O17 0.500000 0.500000 0.500000
O O18 0.705078 0.502675 0.667791
O O19 0.750000 0.507093 0.000000
#
# Coordination Sequence:
#
# PCOD9396226 Si02
#       8
#     8   8   8   8   8   8   8   8
#     4  11  23  39  61  90 124 166 207 251 320 395
#     4  10  20  35  58  90 120 156 209 263 314 374
#     4  10  20  36  58  89 121 156 211 262 311 376
#     4  11  23  38  60  91 121 163 207 252 319 389
#     4   9  16  31  57  85 116 155 200 259 319 364
#     4   9  18  35  58  84 120 161 202 259 317 367
#     4  11  23  42  64  91 121 154 211 270 306 371
#     4  11  21  43  67  84 125 175 206 252 331 394
#
# _framework density 20.937757000000001
#
# number of rings (size 3 to 8) (size 9 to 14) (size 15 to 20)
#    0.000    1.750    3.750    1.500    1.750    3.000 
#    2.250    3.125    0.000    1.500    0.000    0.000 
#    0.000    0.000    0.000    0.000    0.000    0.000 
#
# Total GULP energy -356745.161678 kJ/mol
# GULP energy per Si atom -5574.143151 kJ/mol
# Density = 2.089010 g / cm^3
# Si number density = 20.937757 Si / 1000 Ang^3
#
#
#
# Elastic Constant Matrix: (Units=GPa)
#
#
# Indices 1 2 3 4 5 6 
#
# 1 122.1261 21.1826 19.7907 0.0000 0.0000 0.0000
# 2 21.1826 81.6180 -7.3949 0.0000 0.0000 0.0000
# 3 19.7907 -7.3949 33.2404 0.0000 0.0000 0.0000
# 4 0.0000 0.0000 0.0000 -1.6226 0.0000 0.0000
# 5 0.0000 0.0000 0.0000 0.0000 17.9760 0.0000
# 6 0.0000 0.0000 0.0000 0.0000 0.0000 18.4459
#
#
#
# Elastic Compliance Matrix: (Units=1/GPa)
#
#
# Indices 1 2 3 4 5 6 
#
# 1 0.009789 -0.003132 -0.006525 0.000000 0.000000 0.000000
# 2 -0.003132 0.013506 0.004869 0.000000 0.000000 0.000000
# 3 -0.006525 0.004869 0.035052 0.000000 0.000000 0.000000
# 4 0.000000 0.000000 0.000000 -0.616289 0.000000 0.000000
# 5 0.000000 0.000000 0.000000 0.000000 0.055630 0.000000
# 6 0.000000 0.000000 0.000000 0.000000 0.000000 0.054213
#
#
# Mechanical properties :
#
#
# Convention : Reuss Voigt Hill
#
# Bulk Modulus (GPa) = 20.50343 33.79348 27.14846
# Shear Modulus (GPa) = -11.84082 20.52027 4.33973
#
# Velocity S-wave (km/s) = -2.38066 3.13399 1.44124
# Velocity P-wave (km/s) = 1.50237 5.41025 3.97039
#
# Compressibility (1/GPa) = 0.04877232
#
# Stress axis : x y z
#
# Youngs Moduli (GPa) = 102.15763 74.04034 28.52918
#
# Poissons Ratio (x) = 0.23187 0.18615
# Poissons Ratio (y) = 0.31993 -0.13891
# Poissons Ratio (z) = 0.66655 -0.36052
#
# Static dielectric constant tensor:
#      x y z
#    x 1.791370 0.000000 0.000000 
#    y 0.000000 1.723670 0.000000 
#    z 0.000000 0.000000 1.775300 
# 
# From -- ./inp_files/11873.got.cif
#   From: 2010.05.17/outbox.cif.g08.bks.cpg/sg50_6_cif.got.tgz:11873.got - 2010.06.03 11:33:33.
