data_PCOD9396162
_publ_section_title
;
Structure prediction by ZEFSAII (Michael W. Deem and Ramdas Pophale) SiO2 
 PCOD9396162
Probable space group: P B A N
;
_chemical_formula_sum "Si O2"
_cell_formula_units_Z 58
_cell_length_a 14.819175
_cell_length_b 17.465832
_cell_length_c 11.383814
_cell_angle_alpha 90.000000
_cell_angle_beta 90.000000
_cell_angle_gamma 90.000000
_cell_volume 2946.463709
_symmetry_space_group_name_H-M "P B A N"
_symmetry_group_IT_number 50
_space_group.IT_coordinate_system_code '2'
_symmetry_cell_setting 'orthorhombic'
loop_
_space_group_symop_operation_xyz
x,y,z
1/2-x,1/2-y,z
x,1/2-y,-z
1/2-x,y,-z
-x,-y,-z
1/2+x,1/2+y,-z
-x,1/2+y,z
1/2+x,-y,z
loop_
_atom_site_type_symbol
_atom_site_label
_atom_site_fract_x
_atom_site_fract_y
_atom_site_fract_z
Si Si1 0.544054 0.272874 0.134600
Si Si2 0.011264 0.993439 0.360992
Si Si3 0.250000 0.750000 0.500000
Si Si4 0.343557 0.090086 0.342487
Si Si5 0.650723 0.746310 0.212702
Si Si6 0.778951 0.158817 0.128505
Si Si7 0.854548 0.616286 0.381802
Si Si8 0.363587 0.847880 0.689439
O O1 0.436418 0.277906 0.145238
O O2 0.614379 0.342440 0.152595
O O3 0.576398 0.210369 0.231229
O O4 0.564284 0.250000 0.000000
O O5 0.073532 0.918897 0.342748
O O6 0.912159 0.977286 0.311944
O O7 0.062662 0.070311 0.325448
O O8 0.000000 0.000000 0.500000
O O9 0.315236 0.802075 0.582665
O O10 0.362165 0.159662 0.254589
O O11 0.363087 0.117083 0.477249
O O12 0.237639 0.072654 0.346964
O O13 0.750000 0.750000 0.154864
O O14 0.655589 0.799760 0.328606
O O15 0.750000 0.250000 0.132919
O O16 0.718129 0.122850 0.228876
O O17 0.750000 0.130994 0.000000
#
# Coordination Sequence:
#
# PCOD9396162 Si02
#       8
#     8   8   2   8   8   8   8   8
#     4  11  19  35  61  85 115 156 198 252 304 358
#     4  10  21  36  53  80 119 166 196 228 301 380
#     4  12  24  32  54  96 138 140 174 266 316 352
#     4   9  17  34  55  75 110 154 198 239 284 354
#     4  10  20  34  56  87 111 145 206 259 294 333
#     4   9  15  33  56  79 112 152 194 236 289 361
#     4   9  19  34  53  77 111 155 196 234 287 364
#     4  11  21  35  53  88 125 154 192 239 303 369
#
# _framework density 19.684612999999999
#
# number of rings (size 3 to 8) (size 9 to 14) (size 15 to 20)
#    0.000    2.069    6.207    0.414    0.000    6.345 
#    2.483    0.000    0.000    0.828    7.172    0.000 
#    0.000    0.000    0.000    0.000    0.000    0.000 
#
# Total GULP energy -323050.103146 kJ/mol
# GULP energy per Si atom -5569.829365 kJ/mol
# Density = 1.963981 g / cm^3
# Si number density = 19.684613 Si / 1000 Ang^3
#
#
#
# Elastic Constant Matrix: (Units=GPa)
#
#
# Indices 1 2 3 4 5 6 
#
# 1 135.1474 5.6524 22.4903 0.0000 0.0000 0.0000
# 2 5.6524 26.6189 8.6068 0.0000 0.0000 0.0000
# 3 22.4903 8.6068 66.2533 0.0000 0.0000 0.0000
# 4 0.0000 0.0000 0.0000 5.4485 0.0000 0.0000
# 5 0.0000 0.0000 0.0000 0.0000 17.5748 0.0000
# 6 0.0000 0.0000 0.0000 0.0000 0.0000 30.6217
#
#
#
# Elastic Compliance Matrix: (Units=1/GPa)
#
#
# Indices 1 2 3 4 5 6 
#
# 1 0.007860 -0.000842 -0.002559 0.000000 0.000000 0.000000
# 2 -0.000842 0.039305 -0.004820 0.000000 0.000000 0.000000
# 3 -0.002559 -0.004820 0.016588 0.000000 0.000000 0.000000
# 4 0.000000 0.000000 0.000000 0.183535 0.000000 0.000000
# 5 0.000000 0.000000 0.000000 0.000000 0.056900 0.000000
# 6 0.000000 0.000000 0.000000 0.000000 0.000000 0.032657
#
#
# Mechanical properties :
#
#
# Convention : Reuss Voigt Hill
#
# Bulk Modulus (GPa) = 21.13647 33.50206 27.31927
# Shear Modulus (GPa) = 13.54803 23.48035 18.51419
#
# Velocity S-wave (km/s) = 2.62631 3.45748 3.07015
# Velocity P-wave (km/s) = 4.46738 5.74415 5.14552
#
# Compressibility (1/GPa) = 0.04731158
#
# Stress axis : x y z
#
# Youngs Moduli (GPa) = 127.22045 25.44236 60.28300
#
# Poissons Ratio (x) = 0.02142 0.15426
# Poissons Ratio (y) = 0.10709 0.29058
# Poissons Ratio (z) = 0.32555 0.12264
#
# Static dielectric constant tensor:
#      x y z
#    x 1.834860 0.000000 0.000000 
#    y 0.000000 1.694700 0.000000 
#    z 0.000000 0.000000 1.716030 
# 
# From -- ./inp_files/21323.got.cif
#   From: 2010.05.17/outbox.cif.g08.bks.cpg/sg50_11_cif.got.tgz:21323.got - 2010.06.03 11:33:33.
