data_PCOD9396485
_publ_section_title
;
Structure prediction by ZEFSAII (Michael W. Deem and Ramdas Pophale) SiO2 
 PCOD9396485
Probable space group: P B A N
;
_chemical_formula_sum "Si O2"
_cell_formula_units_Z 64
_cell_length_a 14.450405
_cell_length_b 22.777269
_cell_length_c 9.502834
_cell_angle_alpha 90.000000
_cell_angle_beta 90.000000
_cell_angle_gamma 90.000000
_cell_volume 3127.770022
_symmetry_space_group_name_H-M "P B A N"
_symmetry_group_IT_number 50
_space_group.IT_coordinate_system_code '2'
_symmetry_cell_setting 'orthorhombic'
loop_
_space_group_symop_operation_xyz
x,y,z
1/2-x,1/2-y,z
x,1/2-y,-z
1/2-x,y,-z
-x,-y,-z
1/2+x,1/2+y,-z
-x,1/2+y,z
1/2+x,-y,z
loop_
_atom_site_type_symbol
_atom_site_label
_atom_site_fract_x
_atom_site_fract_y
_atom_site_fract_z
Si Si1 0.912701 0.692778 0.927470
Si Si2 0.309733 0.806582 0.638863
Si Si3 0.487551 0.246055 0.353397
Si Si4 0.762013 0.392893 0.837490
Si Si5 0.385697 0.440161 0.877871
Si Si6 0.059087 0.018898 0.168900
Si Si7 0.535346 0.352750 0.167656
Si Si8 0.241492 0.490469 0.666783
O O1 0.871469 0.627397 0.923236
O O2 0.938155 0.710639 0.770112
O O3 0.865639 0.750000 0.000000
O O4 0.001103 0.680242 0.027512
O O5 0.250000 0.750000 0.683076
O O6 0.250000 0.827782 0.500000
O O7 0.414366 0.785837 0.614265
O O8 0.314642 0.852412 0.765740
O O9 0.434530 0.250000 0.500000
O O10 0.502587 0.311628 0.294419
O O11 0.855678 0.356479 0.829476
O O12 0.769354 0.447040 0.732412
O O13 0.750000 0.408899 0.000000
O O14 0.487818 0.463858 0.827144
O O15 0.311414 0.450043 0.755738
O O16 0.382393 0.478813 0.022083
O O17 0.134863 0.018487 0.290036
O O18 0.003322 0.080598 0.171270
O O19 0.250000 0.486728 0.500000
#
# Coordination Sequence:
#
# PCOD9396485 Si02
#       8
#     8   8   8   8   8   8   8   8
#     4   9  21  37  61  92 118 153 208 267 315 368
#     4  11  20  34  47  76 123 165 207 251 315 378
#     4  11  20  34  54  81 120 168 208 255 318 383
#     4  12  23  36  57  85 121 167 216 262 310 377
#     4  10  21  43  69  94 125 165 217 263 317 387
#     4  10  22  41  68  91 122 169 211 264 319 375
#     4  10  20  39  58  86 122 157 215 264 308 377
#     4  12  27  42  61  95 133 166 212 262 325 393
#
# _framework density 20.461863999999998
#
# number of rings (size 3 to 8) (size 9 to 14) (size 15 to 20)
#    0.000    1.375    3.750    2.250    5.250    1.750 
#    0.000    0.000    0.000   12.750    0.000    8.750 
#    0.000    0.000    0.000    0.000    0.000    0.000 
#
# Total GULP energy -356745.337722 kJ/mol
# GULP energy per Si atom -5574.145902 kJ/mol
# Density = 2.041529 g / cm^3
# Si number density = 20.461864 Si / 1000 Ang^3
#
#
#
# Elastic Constant Matrix: (Units=GPa)
#
#
# Indices 1 2 3 4 5 6 
#
# 1 30.3861 8.0689 25.6754 0.0000 0.0000 0.0000
# 2 8.0689 84.6242 26.4064 0.0000 0.0000 0.0000
# 3 25.6754 26.4064 130.0658 0.0000 0.0000 0.0000
# 4 0.0000 0.0000 0.0000 32.9103 0.0000 0.0000
# 5 0.0000 0.0000 0.0000 0.0000 14.2364 0.0000
# 6 0.0000 0.0000 0.0000 0.0000 0.0000 17.7237
#
#
#
# Elastic Compliance Matrix: (Units=1/GPa)
#
#
# Indices 1 2 3 4 5 6 
#
# 1 0.039659 -0.001429 -0.007539 0.000000 0.000000 0.000000
# 2 -0.001429 0.012668 -0.002290 0.000000 0.000000 0.000000
# 3 -0.007539 -0.002290 0.009641 0.000000 0.000000 0.000000
# 4 0.000000 0.000000 0.000000 0.030386 0.000000 0.000000
# 5 0.000000 0.000000 0.000000 0.000000 0.070243 0.000000
# 6 0.000000 0.000000 0.000000 0.000000 0.000000 0.056422
#
#
# Mechanical properties :
#
#
# Convention : Reuss Voigt Hill
#
# Bulk Modulus (GPa) = 25.34640 40.59752 32.97196
# Shear Modulus (GPa) = 19.63212 25.30244 22.46728
#
# Velocity S-wave (km/s) = 3.10086 3.52030 3.31721
# Velocity P-wave (km/s) = 5.02339 6.03382 5.55164
#
# Compressibility (1/GPa) = 0.03945334
#
# Stress axis : x y z
#
# Youngs Moduli (GPa) = 25.21474 78.94090 103.71879
#
# Poissons Ratio (x) = 0.11282 0.78191
# Poissons Ratio (y) = 0.03603 0.23749
# Poissons Ratio (z) = 0.19009 0.18075
#
# Static dielectric constant tensor:
#      x y z
#    x 1.775570 0.000000 0.000000 
#    y 0.000000 1.775460 0.000000 
#    z 0.000000 0.000000 1.752360 
# 
# From -- ./inp_files/13444.got.cif
#   From: 2010.05.17/outbox.cif.g08.bks.cpg/sg50_7_cif.got.tgz:13444.got - 2010.06.03 11:33:33.
