data_PCOD9396045
_publ_section_title
;
Structure prediction by ZEFSAII (Michael W. Deem and Ramdas Pophale) SiO2 
 PCOD9396045
Probable space group: P B A N
;
_chemical_formula_sum "Si O2"
_cell_formula_units_Z 48
_cell_length_a 9.542265
_cell_length_b 31.388561
_cell_length_c 7.592167
_cell_angle_alpha 90.000000
_cell_angle_beta 90.000000
_cell_angle_gamma 90.000000
_cell_volume 2273.990425
_symmetry_space_group_name_H-M "P B A N"
_symmetry_group_IT_number 50
_space_group.IT_coordinate_system_code '2'
_symmetry_cell_setting 'orthorhombic'
loop_
_space_group_symop_operation_xyz
x,y,z
1/2-x,1/2-y,z
x,1/2-y,-z
1/2-x,y,-z
-x,-y,-z
1/2+x,1/2+y,-z
-x,1/2+y,z
1/2+x,-y,z
loop_
_atom_site_type_symbol
_atom_site_label
_atom_site_fract_x
_atom_site_fract_y
_atom_site_fract_z
Si Si1 0.871768 0.484336 0.881751
Si Si2 0.298881 0.428850 0.699135
Si Si3 0.083225 0.298084 0.521270
Si Si4 0.435083 0.873534 0.651585
Si Si5 0.871160 0.394063 0.756405
Si Si6 0.125220 0.148682 0.133998
O O1 0.804852 0.525549 0.790357
O O2 0.905292 0.444560 0.759391
O O3 0.750000 0.464716 0.000000
O O4 0.000000 0.500000 0.000000
O O5 0.250000 0.434085 0.500000
O O6 0.452260 0.408246 0.711087
O O7 0.199166 0.393094 0.782123
O O8 0.030581 0.250000 0.500000
O O9 0.250000 0.298853 0.500000
O O10 0.079137 0.316442 0.720685
O O11 0.011550 0.327605 0.370535
O O12 0.409120 0.881647 0.443924
O O13 0.291403 0.879852 0.757723
O O14 0.970510 0.371380 0.902907
O O15 0.250000 0.163632 0.000000
#
# Coordination Sequence:
#
# PCOD9396045 Si02
#       6
#     8   8   8   8   8   8
#     4  12  26  40  54  86 124 170 217 270 325 366
#     4  12  21  37  64  84 119 166 226 268 309 375
#     4  10  19  39  68  96 124 154 208 266 317 395
#     4  10  20  38  61  91 120 160 210 259 325 373
#     4  10  22  38  57  88 128 164 212 260 316 384
#     4  11  21  40  63  93 129 167 206 259 327 386
#
# _framework density 21.108267000000001
#
# number of rings (size 3 to 8) (size 9 to 14) (size 15 to 20)
#    0.000    1.167    5.000    3.500    2.333    0.667 
#    0.000    8.333    0.000    0.000    0.000    0.000 
#   30.000    0.000    0.000    0.000    0.000    0.000 
#
# Total GULP energy -267434.333343 kJ/mol
# GULP energy per Si atom -5571.548611 kJ/mol
# Density = 2.106022 g / cm^3
# Si number density = 21.108267 Si / 1000 Ang^3
#
#
#
# Elastic Constant Matrix: (Units=GPa)
#
#
# Indices 1 2 3 4 5 6 
#
# 1 125.1058 10.4518 27.0128 0.0000 0.0000 0.0000
# 2 10.4518 116.6326 18.0573 0.0000 0.0000 0.0000
# 3 27.0128 18.0573 53.7911 0.0000 0.0000 0.0000
# 4 0.0000 0.0000 0.0000 8.0707 0.0000 0.0000
# 5 0.0000 0.0000 0.0000 0.0000 44.1766 0.0000
# 6 0.0000 0.0000 0.0000 0.0000 0.0000 -21.1926
#
#
#
# Elastic Compliance Matrix: (Units=1/GPa)
#
#
# Indices 1 2 3 4 5 6 
#
# 1 0.008967 -0.000112 -0.004465 0.000000 0.000000 0.000000
# 2 -0.000112 0.009045 -0.002980 0.000000 0.000000 0.000000
# 3 -0.004465 -0.002980 0.021833 0.000000 0.000000 0.000000
# 4 0.000000 0.000000 0.000000 0.123904 0.000000 0.000000
# 5 0.000000 0.000000 0.000000 0.000000 0.022636 0.000000
# 6 0.000000 0.000000 0.000000 0.000000 0.000000 -0.047186
#
#
# Mechanical properties :
#
#
# Convention : Reuss Voigt Hill
#
# Bulk Modulus (GPa) = 40.43648 45.17482 42.80565
# Shear Modulus (GPa) = 30.75819 22.21146 26.48483
#
# Velocity S-wave (km/s) = 3.82142 3.24738 3.54604
# Velocity P-wave (km/s) = 6.21847 5.95891 6.09007
#
# Compressibility (1/GPa) = 0.02473014
#
# Stress axis : x y z
#
# Youngs Moduli (GPa) = 111.52318 110.55375 45.80183
#
# Poissons Ratio (x) = 0.01241 0.20452
# Poissons Ratio (y) = 0.01251 0.13649
# Poissons Ratio (z) = 0.49798 0.32946
#
# Static dielectric constant tensor:
#      x y z
#    x 1.819770 0.000000 0.000000 
#    y 0.000000 1.837460 0.000000 
#    z 0.000000 0.000000 1.798290 
# 
# From -- ./inp_files/10079.got.cif
#   From: 2010.05.17/outbox.cif.g08.bks.cpg/sg50_6_cif.got.tgz:10079.got - 2010.06.03 11:33:33.
