data_PCOD9396713
_publ_section_title
;
Structure prediction by ZEFSAII (Michael W. Deem and Ramdas Pophale) SiO2 
 PCOD9396713
Probable space group: P B A N
;
_chemical_formula_sum "Si O2"
_cell_formula_units_Z 64
_cell_length_a 32.741786
_cell_length_b 11.283811
_cell_length_c 9.403122
_cell_angle_alpha 90.000000
_cell_angle_beta 90.000000
_cell_angle_gamma 90.000000
_cell_volume 3474.003405
_symmetry_space_group_name_H-M "P B A N"
_symmetry_group_IT_number 50
_space_group.IT_coordinate_system_code '2'
_symmetry_cell_setting 'orthorhombic'
loop_
_space_group_symop_operation_xyz
x,y,z
1/2-x,1/2-y,z
x,1/2-y,-z
1/2-x,y,-z
-x,-y,-z
1/2+x,1/2+y,-z
-x,1/2+y,z
1/2+x,-y,z
loop_
_atom_site_type_symbol
_atom_site_label
_atom_site_fract_x
_atom_site_fract_y
_atom_site_fract_z
Si Si1 0.672565 0.433007 0.153691
Si Si2 0.751873 0.393068 0.332218
Si Si3 0.094428 0.084506 0.872403
Si Si4 0.454812 0.578390 0.666691
Si Si5 0.121149 0.752925 0.334617
Si Si6 0.664780 0.453478 0.819910
Si Si7 0.104295 0.361272 0.819045
Si Si8 0.543504 0.621463 0.575340
O O1 0.715650 0.446315 0.233723
O O2 0.639508 0.537768 0.168072
O O3 0.650529 0.327370 0.238019
O O4 0.673966 0.413588 0.982854
O O5 0.750000 0.250000 0.319749
O O6 0.750000 0.422638 0.500000
O O7 0.795011 0.433348 0.270725
O O8 0.095898 0.222574 0.837361
O O9 0.061234 0.005777 0.792268
O O10 0.087315 0.074094 0.040499
O O11 0.423517 0.689976 0.662961
O O12 0.501647 0.618642 0.666525
O O13 0.453631 0.489686 0.531516
O O14 0.134816 0.750000 0.500000
O O15 0.128351 0.878772 0.257442
O O16 0.650402 0.590204 0.818186
O O17 0.081644 0.392907 0.676697
O O18 0.544709 0.750000 0.500000
#
# Coordination Sequence:
#
# PCOD9396713 Si02
#       8
#     8   8   8   8   8   8   8   8
#     4  10  21  36  60  84 114 154 194 236 284 346
#     4  11  22  37  56  86 120 154 186 234 291 345
#     4   9  20  41  61  82 115 152 195 238 289 337
#     4  10  22  37  58  85 115 151 193 242 293 345
#     4  11  20  34  54  82 118 150 186 238 291 342
#     4  11  22  36  59  87 115 152 197 234 288 347
#     4  10  21  39  61  84 113 153 197 239 285 348
#     4  11  21  37  59  86 115 151 196 240 293 352
#
# _framework density 18.422549
#
# number of rings (size 3 to 8) (size 9 to 14) (size 15 to 20)
#    0.000    1.625    2.500    2.625    0.000    3.000 
#    0.000    0.625    5.500    3.750    0.000    0.000 
#    0.000    0.000    0.000    0.000    0.000    0.000 
#
# Total GULP energy -356601.491150 kJ/mol
# GULP energy per Si atom -5571.898299 kJ/mol
# Density = 1.838062 g / cm^3
# Si number density = 18.422549 Si / 1000 Ang^3
#
#
#
# Elastic Constant Matrix: (Units=GPa)
#
#
# Indices 1 2 3 4 5 6 
#
# 1 74.5541 15.2129 37.6311 0.0000 0.0000 0.0000
# 2 15.2129 31.9321 21.3901 0.0000 0.0000 0.0000
# 3 37.6311 21.3901 110.9337 0.0000 0.0000 0.0000
# 4 0.0000 0.0000 0.0000 14.9050 0.0000 0.0000
# 5 0.0000 0.0000 0.0000 0.0000 30.7043 0.0000
# 6 0.0000 0.0000 0.0000 0.0000 0.0000 18.0550
#
#
#
# Elastic Compliance Matrix: (Units=1/GPa)
#
#
# Indices 1 2 3 4 5 6 
#
# 1 0.016803 -0.004808 -0.004773 0.000000 0.000000 0.000000
# 2 -0.004808 0.037337 -0.005568 0.000000 0.000000 0.000000
# 3 -0.004773 -0.005568 0.011707 0.000000 0.000000 0.000000
# 4 0.000000 0.000000 0.000000 0.067092 0.000000 0.000000
# 5 0.000000 0.000000 0.000000 0.000000 0.032569 0.000000
# 6 0.000000 0.000000 0.000000 0.000000 0.000000 0.055386
#
#
# Mechanical properties :
#
#
# Convention : Reuss Voigt Hill
#
# Bulk Modulus (GPa) = 28.13028 40.65425 34.39227
# Shear Modulus (GPa) = 19.00832 22.27856 20.64344
#
# Velocity S-wave (km/s) = 3.21564 3.48129 3.35110
# Velocity P-wave (km/s) = 5.39349 6.18665 5.80364
#
# Compressibility (1/GPa) = 0.03554888
#
# Stress axis : x y z
#
# Youngs Moduli (GPa) = 59.51201 26.78299 85.41785
#
# Poissons Ratio (x) = 0.12878 0.40770
# Poissons Ratio (y) = 0.28614 0.47563
# Poissons Ratio (z) = 0.28405 0.14914
#
# Static dielectric constant tensor:
#      x y z
#    x 1.631740 0.000000 0.000000 
#    y 0.000000 1.687920 0.000000 
#    z 0.000000 0.000000 1.649100 
# 
# From -- ./inp_files/17124.got.cif
#   From: 2010.05.17/outbox.cif.g08.bks.cpg/sg50_9_cif.got.tgz:17124.got - 2010.06.03 11:33:33.
