data_PCOD9396680
_publ_section_title
;
Structure prediction by ZEFSAII (Michael W. Deem and Ramdas Pophale) SiO2 
 PCOD9396680
Probable space group: P B A N
;
_chemical_formula_sum "Si O2"
_cell_formula_units_Z 34
_cell_length_a 4.985394
_cell_length_b 11.273504
_cell_length_c 24.087492
_cell_angle_alpha 90.000000
_cell_angle_beta 90.000000
_cell_angle_gamma 90.000000
_cell_volume 1353.785921
_symmetry_space_group_name_H-M "P B A N"
_symmetry_group_IT_number 50
_space_group.IT_coordinate_system_code '2'
_symmetry_cell_setting 'orthorhombic'
loop_
_space_group_symop_operation_xyz
x,y,z
1/2-x,1/2-y,z
x,1/2-y,-z
1/2-x,y,-z
-x,-y,-z
1/2+x,1/2+y,-z
-x,1/2+y,z
1/2+x,-y,z
loop_
_atom_site_type_symbol
_atom_site_label
_atom_site_fract_x
_atom_site_fract_y
_atom_site_fract_z
Si Si1 0.250000 0.250000 0.318874
Si Si2 0.523059 0.415633 0.231538
Si Si3 0.995452 0.081781 0.590265
Si Si4 0.250000 0.250000 0.500000
Si Si5 0.918826 0.911821 0.886767
Si Si6 0.250000 0.410001 0.000000
O O1 0.444521 0.328619 0.280686
O O2 0.076576 0.338692 0.357036
O O3 0.818963 0.471455 0.234019
O O4 0.463581 0.350488 0.172505
O O5 0.069008 0.164332 0.538087
O O6 0.194569 0.967749 0.589994
O O7 0.664301 0.997561 0.886279
O O8 0.867505 0.845954 0.944515
O O9 0.500000 0.500000 0.000000
#
# Coordination Sequence:
#
# PCOD9396680 Si02
#       6
#     4   8   8   2   8   4
#     4  11  24  39  62  85 116 159 194 234 288 331
#     4  10  21  36  54  79 110 145 190 238 283 339
#     4  11  25  43  64  94 126 156 196 238 278 333
#     4  10  24  42  72  96 124 164 192 232 288 330
#     4   8  14  25  42  66  96 130 172 223 276 333
#     4   8  12  20  38  63  90 125 168 214 274 337
#
# _framework density 25.114750999999998
#
# number of rings (size 3 to 8) (size 9 to 14) (size 15 to 20)
#    0.000    2.353    0.000    2.118    0.000    7.529 
#    0.000    0.000    0.000    0.706    0.000    0.000 
#    0.000   28.235    0.000    0.000    0.000    3.765 
#
# Total GULP energy -189825.966462 kJ/mol
# GULP energy per Si atom -5583.116661 kJ/mol
# Density = 2.505759 g / cm^3
# Si number density = 25.114751 Si / 1000 Ang^3
#
#
#
# Elastic Constant Matrix: (Units=GPa)
#
#
# Indices 1 2 3 4 5 6 
#
# 1 109.4587 -26.4469 -35.2398 0.0000 0.0000 0.0000
# 2 -26.4469 32.2769 -5.9811 0.0000 0.0000 0.0000
# 3 -35.2398 -5.9811 151.1368 0.0000 0.0000 0.0000
# 4 0.0000 0.0000 0.0000 146.1821 0.0000 0.0000
# 5 0.0000 0.0000 0.0000 0.0000 14.3342 0.0000
# 6 0.0000 0.0000 0.0000 0.0000 0.0000 -18.6660
#
#
#
# Elastic Compliance Matrix: (Units=1/GPa)
#
#
# Indices 1 2 3 4 5 6 
#
# 1 0.012979 0.011278 0.003473 0.000000 0.000000 0.000000
# 2 0.011278 0.041011 0.004253 0.000000 0.000000 0.000000
# 3 0.003473 0.004253 0.007594 0.000000 0.000000 0.000000
# 4 0.000000 0.000000 0.000000 0.006841 0.000000 0.000000
# 5 0.000000 0.000000 0.000000 0.000000 0.069763 0.000000
# 6 0.000000 0.000000 0.000000 0.000000 0.000000 -0.053573
#
#
# Mechanical properties :
#
#
# Convention : Reuss Voigt Hill
#
# Bulk Modulus (GPa) = 10.04116 17.50407 13.77261
# Shear Modulus (GPa) = 62.65253 52.40607 57.52930
#
# Velocity S-wave (km/s) = 5.00007 4.57296 4.79127
# Velocity P-wave (km/s) = 6.11073 5.90486 6.00868
#
# Compressibility (1/GPa) = 0.09959013
#
# Stress axis : x y z
#
# Youngs Moduli (GPa) = 77.04894 24.38383 131.67451
#
# Poissons Ratio (x) = -0.27500 -0.45724
# Poissons Ratio (y) = -0.86895 -0.55996
# Poissons Ratio (z) = -0.26755 -0.10369
#
# Static dielectric constant tensor:
#      x y z
#    x 1.888730 0.000000 0.000000 
#    y 0.000000 1.897420 0.000000 
#    z 0.000000 0.000000 2.204170 
# 
# From -- ./inp_files/31356.got.cif
#   From: 2010.05.17/outbox.cif.g08.bks.cpg/sg50_16_cif.got.tgz:31356.got - 2010.06.03 11:33:33.
