data_PCOD9396007
_publ_section_title
;
Structure prediction by ZEFSAII (Michael W. Deem and Ramdas Pophale) SiO2 
 PCOD9396007
Probable space group: P B A N
;
_chemical_formula_sum "Si O2"
_cell_formula_units_Z 52
_cell_length_a 14.632142
_cell_length_b 7.097047
_cell_length_c 23.141272
_cell_angle_alpha 90.000000
_cell_angle_beta 90.000000
_cell_angle_gamma 90.000000
_cell_volume 2403.105379
_symmetry_space_group_name_H-M "P B A N"
_symmetry_group_IT_number 50
_space_group.IT_coordinate_system_code '2'
_symmetry_cell_setting 'orthorhombic'
loop_
_space_group_symop_operation_xyz
x,y,z
1/2-x,1/2-y,z
x,1/2-y,-z
1/2-x,y,-z
-x,-y,-z
1/2+x,1/2+y,-z
-x,1/2+y,z
1/2+x,-y,z
loop_
_atom_site_type_symbol
_atom_site_label
_atom_site_fract_x
_atom_site_fract_y
_atom_site_fract_z
Si Si1 0.750000 0.250000 0.500000
Si Si2 0.250000 0.250000 0.000000
Si Si3 0.712209 0.056399 0.912335
Si Si4 0.067412 0.092981 0.689788
Si Si5 0.713814 0.966749 0.599081
Si Si6 0.633396 0.538091 0.821896
Si Si7 0.077446 0.029548 0.817047
Si Si8 0.638705 0.018782 0.304297
O O1 0.796094 0.398994 0.543937
O O2 0.306312 0.392911 0.958909
O O3 0.750000 0.250000 0.938177
O O4 0.797088 0.994212 0.872840
O O5 0.629692 0.084011 0.866740
O O6 0.118372 0.023308 0.633178
O O7 0.084889 0.976555 0.749105
O O8 0.112517 0.297436 0.697088
O O9 0.958844 0.113602 0.683536
O O10 0.750000 0.750000 0.586341
O O11 0.788144 0.044138 0.645538
O O12 0.530498 0.461865 0.829135
O O13 0.620094 0.762675 0.819007
O O14 0.670767 0.451498 0.761617
#
# Coordination Sequence:
#
# PCOD9396007 Si02
#       8
#     2   2   8   8   8   8   8   8
#     4  12  26  40  64  82 112 166 222 246 292 358
#     4  12  26  48  64  82 128 166 218 266 292 354
#     4  12  24  42  67  90 124 167 212 250 311 361
#     4   9  19  35  62  93 127 156 191 249 312 365
#     4  10  22  42  61  84 124 159 204 252 303 353
#     4  10  19  37  63  98 132 159 196 254 314 373
#     4  10  19  37  63  98 132 159 196 254 314 373
#     4   9  19  35  62  93 127 156 191 249 312 365
#
# _framework density 21.638669
#
# number of rings (size 3 to 8) (size 9 to 14) (size 15 to 20)
#    0.000    1.846    1.538    2.308    2.154    3.692 
#    2.769    1.538    0.000    0.000    0.000    0.000 
#    0.000    0.000    0.000    0.000    0.000    0.000 
#
# Total GULP energy -290238.742410 kJ/mol
# GULP energy per Si atom -5581.514277 kJ/mol
# Density = 2.158942 g / cm^3
# Si number density = 21.638669 Si / 1000 Ang^3
#
#
#
# Elastic Constant Matrix: (Units=GPa)
#
#
# Indices 1 2 3 4 5 6 
#
# 1 49.5420 22.2718 37.0216 0.0000 0.0000 0.0000
# 2 22.2718 92.8501 52.6004 0.0000 0.0000 0.0000
# 3 37.0216 52.6004 121.8401 0.0000 0.0000 0.0000
# 4 0.0000 0.0000 0.0000 31.7584 0.0000 0.0000
# 5 0.0000 0.0000 0.0000 0.0000 5.0749 0.0000
# 6 0.0000 0.0000 0.0000 0.0000 0.0000 28.9551
#
#
#
# Elastic Compliance Matrix: (Units=1/GPa)
#
#
# Indices 1 2 3 4 5 6 
#
# 1 0.026505 -0.002376 -0.007028 0.000000 0.000000 0.000000
# 2 -0.002376 0.014470 -0.005525 0.000000 0.000000 0.000000
# 3 -0.007028 -0.005525 0.012728 0.000000 0.000000 0.000000
# 4 0.000000 0.000000 0.000000 0.031488 0.000000 0.000000
# 5 0.000000 0.000000 0.000000 0.000000 0.197047 0.000000
# 6 0.000000 0.000000 0.000000 0.000000 0.000000 0.034536
#
#
# Mechanical properties :
#
#
# Convention : Reuss Voigt Hill
#
# Bulk Modulus (GPa) = 41.93758 54.22442 48.08100
# Shear Modulus (GPa) = 14.10119 23.31358 18.70739
#
# Velocity S-wave (km/s) = 2.55554 3.28594 2.94349
# Velocity P-wave (km/s) = 5.30384 6.28570 5.81553
#
# Compressibility (1/GPa) = 0.02384496
#
# Stress axis : x y z
#
# Youngs Moduli (GPa) = 37.72892 69.10882 78.56686
#
# Poissons Ratio (x) = 0.16423 0.55214
# Poissons Ratio (y) = 0.08966 0.43407
# Poissons Ratio (z) = 0.26515 0.38181
#
# Static dielectric constant tensor:
#      x y z
#    x 1.769430 0.000000 0.000000 
#    y 0.000000 1.922480 0.000000 
#    z 0.000000 0.000000 1.803530 
# 
# From -- ./inp_files/30969.got.cif
#   From: 2010.05.17/outbox.cif.g08.bks.cpg/sg50_16_cif.got.tgz:30969.got - 2010.06.03 11:33:33.
