data_PCOD9396776
_publ_section_title
;
Structure prediction by ZEFSAII (Michael W. Deem and Ramdas Pophale) SiO2 
 PCOD9396776
Probable space group: P B A N
;
_chemical_formula_sum "Si O2"
_cell_formula_units_Z 48
_cell_length_a 18.287487
_cell_length_b 10.267618
_cell_length_c 12.395909
_cell_angle_alpha 90.000000
_cell_angle_beta 90.000000
_cell_angle_gamma 90.000000
_cell_volume 2327.566578
_symmetry_space_group_name_H-M "P B A N"
_symmetry_group_IT_number 50
_space_group.IT_coordinate_system_code '2'
_symmetry_cell_setting 'orthorhombic'
loop_
_space_group_symop_operation_xyz
x,y,z
1/2-x,1/2-y,z
x,1/2-y,-z
1/2-x,y,-z
-x,-y,-z
1/2+x,1/2+y,-z
-x,1/2+y,z
1/2+x,-y,z
loop_
_atom_site_type_symbol
_atom_site_label
_atom_site_fract_x
_atom_site_fract_y
_atom_site_fract_z
Si Si1 0.907817 0.525651 0.387739
Si Si2 0.653692 0.885794 0.833714
Si Si3 0.420308 0.496347 0.636802
Si Si4 0.673645 0.898303 0.189331
Si Si5 0.661488 0.099676 0.010767
Si Si6 0.831529 0.253429 0.370503
O O1 0.897572 0.547969 0.515786
O O2 0.862205 0.613895 0.306773
O O3 0.877181 0.383595 0.355557
O O4 0.994133 0.528561 0.367367
O O5 0.601208 0.899359 0.731132
O O6 0.654361 0.735890 0.872213
O O7 0.738688 0.908742 0.800497
O O8 0.634833 0.998793 0.919038
O O9 0.375767 0.627245 0.663072
O O10 0.646442 0.024166 0.122828
O O11 0.635973 0.250000 0.000000
O O12 0.750000 0.102915 0.000000
O O13 0.750000 0.250000 0.322044
O O14 0.823958 0.250000 0.500000
#
# Coordination Sequence:
#
# PCOD9396776 Si02
#       6
#     8   8   8   8   8   8
#     4  10  22  37  57  85 122 164 203 246 303 365
#     4  10  21  37  60  89 121 155 194 247 305 365
#     4  10  22  37  57  85 122 164 203 246 303 365
#     4  10  21  37  60  89 121 155 194 247 305 365
#     4   9  19  37  62  89 116 151 198 250 302 361
#     4   9  18  34  56  81 112 156 209 257 293 343
#
# _framework density 20.622395999999998
#
# number of rings (size 3 to 8) (size 9 to 14) (size 15 to 20)
#    0.000    2.333    0.000    1.500    4.667    4.667 
#    0.000    2.500    0.000    0.000    0.000    0.000 
#    0.000    0.000    0.000    0.000    0.000    0.000 
#
# Total GULP energy -267693.151672 kJ/mol
# GULP energy per Si atom -5576.940660 kJ/mol
# Density = 2.057546 g / cm^3
# Si number density = 20.622396 Si / 1000 Ang^3
#
#
#
# Elastic Constant Matrix: (Units=GPa)
#
#
# Indices 1 2 3 4 5 6 
#
# 1 51.3995 1.9987 5.5882 0.0000 0.0000 0.0000
# 2 1.9987 63.1195 -8.7533 0.0000 0.0000 0.0000
# 3 5.5882 -8.7533 79.2057 0.0000 0.0000 0.0000
# 4 0.0000 0.0000 0.0000 1.8738 0.0000 0.0000
# 5 0.0000 0.0000 0.0000 0.0000 15.4655 0.0000
# 6 0.0000 0.0000 0.0000 0.0000 0.0000 7.1742
#
#
#
# Elastic Compliance Matrix: (Units=1/GPa)
#
#
# Indices 1 2 3 4 5 6 
#
# 1 0.019648 -0.000827 -0.001478 0.000000 0.000000 0.000000
# 2 -0.000827 0.016124 0.001840 0.000000 0.000000 0.000000
# 3 -0.001478 0.001840 0.012933 0.000000 0.000000 0.000000
# 4 0.000000 0.000000 0.000000 0.533680 0.000000 0.000000
# 5 0.000000 0.000000 0.000000 0.000000 0.064660 0.000000
# 6 0.000000 0.000000 0.000000 0.000000 0.000000 0.139388
#
#
# Mechanical properties :
#
#
# Convention : Reuss Voigt Hill
#
# Bulk Modulus (GPa) = 20.93067 21.26576 21.09822
# Shear Modulus (GPa) = 6.22441 17.89543 12.05992
#
# Velocity S-wave (km/s) = 1.73920 2.94898 2.42088
# Velocity P-wave (km/s) = 3.76890 4.68292 4.25055
#
# Compressibility (1/GPa) = 0.04777678
#
# Stress axis : x y z
#
# Youngs Moduli (GPa) = 50.89510 62.01794 77.32167
#
# Poissons Ratio (x) = 0.05129 0.11425
# Poissons Ratio (y) = 0.04209 -0.14230
# Poissons Ratio (z) = 0.07521 -0.11413
#
# Static dielectric constant tensor:
#      x y z
#    x 1.683730 0.000000 0.000000 
#    y 0.000000 1.744230 0.000000 
#    z 0.000000 0.000000 1.765630 
# 
# From -- ./inp_files/22335.got.cif
#   From: 2010.05.17/outbox.cif.g08.bks.cpg/sg50_12_cif.got.tgz:22335.got - 2010.06.03 11:33:33.
