data_PCOD9396270
_publ_section_title
;
Structure prediction by ZEFSAII (Michael W. Deem and Ramdas Pophale) SiO2 
 PCOD9396270
Probable space group: P B A N
;
_chemical_formula_sum "Si O2"
_cell_formula_units_Z 64
_cell_length_a 32.238186
_cell_length_b 12.571772
_cell_length_c 8.777905
_cell_angle_alpha 90.000000
_cell_angle_beta 90.000000
_cell_angle_gamma 90.000000
_cell_volume 3557.606985
_symmetry_space_group_name_H-M "P B A N"
_symmetry_group_IT_number 50
_space_group.IT_coordinate_system_code '2'
_symmetry_cell_setting 'orthorhombic'
loop_
_space_group_symop_operation_xyz
x,y,z
1/2-x,1/2-y,z
x,1/2-y,-z
1/2-x,y,-z
-x,-y,-z
1/2+x,1/2+y,-z
-x,1/2+y,z
1/2+x,-y,z
loop_
_atom_site_type_symbol
_atom_site_label
_atom_site_fract_x
_atom_site_fract_y
_atom_site_fract_z
Si Si1 0.832375 0.959339 0.679890
Si Si2 0.884383 0.348678 0.391500
Si Si3 0.948780 0.238285 0.179903
Si Si4 0.839006 0.907846 0.326641
Si Si5 0.078303 0.525622 0.335914
Si Si6 0.535243 0.796915 0.669455
Si Si7 0.884332 0.785919 0.825339
Si Si8 0.247966 0.376384 0.182508
O O1 0.835123 0.912445 0.508765
O O2 0.865962 0.900977 0.787992
O O3 0.787370 0.934861 0.745768
O O4 0.845843 0.081277 0.662142
O O5 0.872531 0.250000 0.500000
O O6 0.910689 0.302875 0.252798
O O7 0.913832 0.423949 0.496872
O O8 0.941952 0.116349 0.232664
O O9 0.990738 0.283011 0.254544
O O10 0.950370 0.250000 0.000000
O O11 0.856031 0.794355 0.272530
O O12 0.794816 0.922960 0.247732
O O13 0.875406 0.990849 0.282569
O O14 0.051254 0.418530 0.337948
O O15 0.534307 0.750000 0.500000
O O16 0.569187 0.731337 0.766596
O O17 0.880724 0.750000 0.000000
O O18 0.250000 0.250000 0.221224
O O19 0.250000 0.384356 0.000000
#
# Coordination Sequence:
#
# PCOD9396270 Si02
#       8
#     8   8   8   8   8   8   8   8
#     4  11  21  35  61  84 112 160 193 235 288 335
#     4   9  20  40  61  82 108 144 199 244 281 337
#     4  11  24  39  58  85 114 148 190 240 292 343
#     4  10  20  36  56  81 115 154 196 225 275 348
#     4   9  21  40  60  81 111 151 190 239 287 333
#     4  11  22  37  59  84 112 150 195 237 282 343
#     4  11  21  33  51  84 123 153 186 232 286 352
#     4  11  22  34  53  88 128 156 185 231 286 350
#
# _framework density 17.989619999999999
#
# number of rings (size 3 to 8) (size 9 to 14) (size 15 to 20)
#    0.000    1.625    1.250    5.250    0.000    7.000 
#    0.000    0.000    0.000   12.750    0.000    8.750 
#    0.000    0.000    0.000    0.000    0.000    0.000 
#
# Total GULP energy -357444.370099 kJ/mol
# GULP energy per Si atom -5585.068283 kJ/mol
# Density = 1.794867 g / cm^3
# Si number density = 17.989620 Si / 1000 Ang^3
#
#
#
# Elastic Constant Matrix: (Units=GPa)
#
#
# Indices 1 2 3 4 5 6 
#
# 1 108.0377 70.2528 66.0908 0.0000 0.0000 0.0000
# 2 70.2528 107.2257 53.9689 0.0000 0.0000 0.0000
# 3 66.0908 53.9689 105.3965 0.0000 0.0000 0.0000
# 4 0.0000 0.0000 0.0000 13.4850 0.0000 0.0000
# 5 0.0000 0.0000 0.0000 0.0000 115.0126 0.0000
# 6 0.0000 0.0000 0.0000 0.0000 0.0000 16.4927
#
#
#
# Elastic Compliance Matrix: (Units=1/GPa)
#
#
# Indices 1 2 3 4 5 6 
#
# 1 0.020025 -0.009161 -0.007866 0.000000 0.000000 0.000000
# 2 -0.009161 0.016755 -0.002835 0.000000 0.000000 0.000000
# 3 -0.007866 -0.002835 0.015872 0.000000 0.000000 0.000000
# 4 0.000000 0.000000 0.000000 0.074157 0.000000 0.000000
# 5 0.000000 0.000000 0.000000 0.000000 0.008695 0.000000
# 6 0.000000 0.000000 0.000000 0.000000 0.000000 0.060633
#
#
# Mechanical properties :
#
#
# Convention : Reuss Voigt Hill
#
# Bulk Modulus (GPa) = 77.35011 77.92056 77.63533
# Shear Modulus (GPa) = 20.81853 37.68788 29.25321
#
# Velocity S-wave (km/s) = 3.40553 4.58206 4.03689
# Velocity P-wave (km/s) = 7.65206 8.44996 8.06089
#
# Compressibility (1/GPa) = 0.01292823
#
# Stress axis : x y z
#
# Youngs Moduli (GPa) = 49.93736 59.68306 63.00277
#
# Poissons Ratio (x) = 0.54675 0.49559
# Poissons Ratio (y) = 0.45747 0.17862
# Poissons Ratio (z) = 0.39282 0.16920
#
# Static dielectric constant tensor:
#      x y z
#    x 1.612250 0.000000 0.000000 
#    y 0.000000 1.625880 0.000000 
#    z 0.000000 0.000000 1.599350 
# 
# From -- ./inp_files/17115.got.cif
#   From: 2010.05.17/outbox.cif.g08.bks.cpg/sg50_9_cif.got.tgz:17115.got - 2010.06.03 11:33:33.
