data_PCOD9396679
_publ_section_title
;
Structure prediction by ZEFSAII (Michael W. Deem and Ramdas Pophale) SiO2 
 PCOD9396679
Probable space group: P B A N
;
_chemical_formula_sum "Si O2"
_cell_formula_units_Z 56
_cell_length_a 5.274185
_cell_length_b 14.863752
_cell_length_c 34.558140
_cell_angle_alpha 90.000000
_cell_angle_beta 90.000000
_cell_angle_gamma 90.000000
_cell_volume 2709.156973
_symmetry_space_group_name_H-M "P B A N"
_symmetry_group_IT_number 50
_space_group.IT_coordinate_system_code '2'
_symmetry_cell_setting 'orthorhombic'
loop_
_space_group_symop_operation_xyz
x,y,z
1/2-x,1/2-y,z
x,1/2-y,-z
1/2-x,y,-z
-x,-y,-z
1/2+x,1/2+y,-z
-x,1/2+y,z
1/2+x,-y,z
loop_
_atom_site_type_symbol
_atom_site_label
_atom_site_fract_x
_atom_site_fract_y
_atom_site_fract_z
Si Si1 0.495197 0.689470 0.403639
Si Si2 0.998618 0.898018 0.482840
Si Si3 0.261716 0.061710 0.957562
Si Si4 0.118233 0.940246 0.333995
Si Si5 0.758895 0.142609 0.833040
Si Si6 0.414284 0.556072 0.245212
Si Si7 0.255847 0.357370 0.125348
O O1 0.250000 0.750000 0.412780
O O2 0.513027 0.613091 0.436960
O O3 0.439988 0.639951 0.363286
O O4 0.750000 0.750000 0.402906
O O5 0.750000 0.853719 0.500000
O O6 0.250000 0.855593 0.500000
O O7 0.000000 0.000000 0.500000
O O8 0.282753 0.122558 0.919828
O O9 0.505212 0.996671 0.955821
O O10 0.250000 0.107436 0.000000
O O11 0.111586 0.909719 0.289173
O O12 0.392817 0.986453 0.339978
O O13 0.750000 0.250000 0.837360
O O14 0.830971 0.121223 0.789045
O O15 0.490377 0.107684 0.848888
O O16 0.988301 0.106591 0.859279
O O17 0.705055 0.523824 0.241351
O O18 0.250000 0.250000 0.130490
#
# Coordination Sequence:
#
# PCOD9396679 Si02
#       7
#     8   8   8   8   8   8   8
#     4  12  26  42  66  99 128 157 205 261 302 347
#     4  10  23  40  64  92 122 166 206 236 299 369
#     4  10  21  36  54  78 108 142 188 238 288 339
#     4  10  23  42  67  88 123 167 204 241 296 368
#     4  10  21  36  55  82 116 149 182 236 293 345
#     4  10  21  38  59  89 114 150 199 239 279 342
#     4  10  21  36  54  80 111 148 191 228 287 354
#
# _framework density 20.670638
#
# number of rings (size 3 to 8) (size 9 to 14) (size 15 to 20)
#    0.000    1.714    0.000    3.429    4.000    6.000 
#    0.000    2.143    0.000    5.143    0.000    0.000 
#    0.000    0.000    0.000    0.000    0.000    0.000 
#
# Total GULP energy -312623.679931 kJ/mol
# GULP energy per Si atom -5582.565713 kJ/mol
# Density = 2.062359 g / cm^3
# Si number density = 20.670638 Si / 1000 Ang^3
#
#
#
# Elastic Constant Matrix: (Units=GPa)
#
#
# Indices 1 2 3 4 5 6 
#
# 1 152.2598 17.8899 48.5200 0.0000 0.0000 0.0000
# 2 17.8899 54.5462 35.3586 0.0000 0.0000 0.0000
# 3 48.5200 35.3586 145.9934 0.0000 0.0000 0.0000
# 4 0.0000 0.0000 0.0000 -6.2163 0.0000 0.0000
# 5 0.0000 0.0000 0.0000 0.0000 30.2161 0.0000
# 6 0.0000 0.0000 0.0000 0.0000 0.0000 1.9298
#
#
#
# Elastic Compliance Matrix: (Units=1/GPa)
#
#
# Indices 1 2 3 4 5 6 
#
# 1 0.007390 -0.000987 -0.002217 0.000000 0.000000 0.000000
# 2 -0.000987 0.021879 -0.004971 0.000000 0.000000 0.000000
# 3 -0.002217 -0.004971 0.008790 0.000000 0.000000 0.000000
# 4 0.000000 0.000000 0.000000 -0.160866 0.000000 0.000000
# 5 0.000000 0.000000 0.000000 0.000000 0.033095 0.000000
# 6 0.000000 0.000000 0.000000 0.000000 0.000000 0.518198
#
#
# Mechanical properties :
#
#
# Convention : Reuss Voigt Hill
#
# Bulk Modulus (GPa) = 46.06155 61.81517 53.93836
# Shear Modulus (GPa) = 11.06017 21.92129 16.49073
#
# Velocity S-wave (km/s) = 2.31566 3.26007 2.82757
# Velocity P-wave (km/s) = 5.42970 6.64383 6.06721
#
# Compressibility (1/GPa) = 0.02171008
#
# Stress axis : x y z
#
# Youngs Moduli (GPa) = 135.31492 45.70576 113.76002
#
# Poissons Ratio (x) = 0.04509 0.25222
# Poissons Ratio (y) = 0.13350 0.56551
# Poissons Ratio (z) = 0.30001 0.22721
#
# Static dielectric constant tensor:
#      x y z
#    x 1.754990 0.000000 0.000000 
#    y 0.000000 1.717470 0.000000 
#    z 0.000000 0.000000 1.736690 
# 
# From -- ./inp_files/32394.got.cif
#   From: 2010.05.17/outbox.cif.g08.bks.cpg/sg50_17_cif.got.tgz:32394.got - 2010.06.03 11:33:33.
