data_PCOD9396655
_publ_section_title
;
Structure prediction by ZEFSAII (Michael W. Deem and Ramdas Pophale) SiO2 
 PCOD9396655
Probable space group: P B A N
;
_chemical_formula_sum "Si O2"
_cell_formula_units_Z 64
_cell_length_a 8.118303
_cell_length_b 24.934546
_cell_length_c 14.484640
_cell_angle_alpha 90.000000
_cell_angle_beta 90.000000
_cell_angle_gamma 90.000000
_cell_volume 2932.070628
_symmetry_space_group_name_H-M "P B A N"
_symmetry_group_IT_number 50
_space_group.IT_coordinate_system_code '2'
_symmetry_cell_setting 'orthorhombic'
loop_
_space_group_symop_operation_xyz
x,y,z
1/2-x,1/2-y,z
x,1/2-y,-z
1/2-x,y,-z
-x,-y,-z
1/2+x,1/2+y,-z
-x,1/2+y,z
1/2+x,-y,z
loop_
_atom_site_type_symbol
_atom_site_label
_atom_site_fract_x
_atom_site_fract_y
_atom_site_fract_z
Si Si1 0.918549 0.125178 0.443414
Si Si2 0.452244 0.633893 0.203409
Si Si3 0.049710 0.756055 0.106373
Si Si4 0.084868 0.414263 0.392125
Si Si5 0.168306 0.540553 0.906569
Si Si6 0.563746 0.160059 0.757619
Si Si7 0.985884 0.951456 0.826398
Si Si8 0.424754 0.477309 0.371574
O O1 0.750000 0.134823 0.500000
O O2 0.951787 0.162048 0.353700
O O3 0.056245 0.125596 0.523028
O O4 0.932533 0.065360 0.398249
O O5 0.505141 0.687296 0.149488
O O6 0.545093 0.615913 0.296585
O O7 0.457784 0.583611 0.133537
O O8 0.259044 0.646839 0.227368
O O9 0.250000 0.750000 0.101074
O O10 0.009290 0.710690 0.182213
O O11 0.991273 0.750000 0.000000
O O12 0.256909 0.445877 0.392418
O O13 0.956525 0.463621 0.409268
O O14 0.322262 0.539401 0.838349
O O15 0.099282 0.480427 0.912306
O O16 0.250000 0.561022 0.000000
O O17 0.462607 0.110055 0.800486
O O18 0.930627 0.984430 0.737740
#
# Coordination Sequence:
#
# PCOD9396655 Si02
#       8
#     8   8   8   8   8   8   8   8
#     4  11  21  37  60  87 125 166 206 257 310 371
#     4  10  21  34  60  89 124 158 208 261 315 374
#     4   9  19  37  64  92 120 160 209 265 324 373
#     4  12  22  37  58  88 129 169 216 254 312 381
#     4  11  22  35  56  89 127 163 207 254 321 388
#     4   9  20  38  59  86 126 159 209 259 314 370
#     4  10  21  37  56  84 126 168 197 258 315 374
#     4  11  23  37  57  88 129 172 212 251 305 386
#
# _framework density 21.827577999999999
#
# number of rings (size 3 to 8) (size 9 to 14) (size 15 to 20)
#    0.000    1.625    2.500    2.625    7.000    0.000 
#    0.000    0.625    0.000    3.000    0.000    7.000 
#    0.000    0.000    0.000    0.000    0.000    0.000 
#
# Total GULP energy -356978.281047 kJ/mol
# GULP energy per Si atom -5577.785641 kJ/mol
# Density = 2.177790 g / cm^3
# Si number density = 21.827578 Si / 1000 Ang^3
#
#
#
# Elastic Constant Matrix: (Units=GPa)
#
#
# Indices 1 2 3 4 5 6 
#
# 1 46.8806 23.7672 20.2687 0.0000 0.0000 0.0000
# 2 23.7672 108.7420 73.5302 0.0000 0.0000 0.0000
# 3 20.2687 73.5302 168.0200 0.0000 0.0000 0.0000
# 4 0.0000 0.0000 0.0000 30.9096 0.0000 0.0000
# 5 0.0000 0.0000 0.0000 0.0000 19.7065 0.0000
# 6 0.0000 0.0000 0.0000 0.0000 0.0000 11.9891
#
#
#
# Elastic Compliance Matrix: (Units=1/GPa)
#
#
# Indices 1 2 3 4 5 6 
#
# 1 0.024075 -0.004684 -0.000854 0.000000 0.000000 0.000000
# 2 -0.004684 0.013973 -0.005550 0.000000 0.000000 0.000000
# 3 -0.000854 -0.005550 0.008483 0.000000 0.000000 0.000000
# 4 0.000000 0.000000 0.000000 0.032352 0.000000 0.000000
# 5 0.000000 0.000000 0.000000 0.000000 0.050745 0.000000
# 6 0.000000 0.000000 0.000000 0.000000 0.000000 0.083409
#
#
# Mechanical properties :
#
#
# Convention : Reuss Voigt Hill
#
# Bulk Modulus (GPa) = 41.06032 62.08610 51.57321
# Shear Modulus (GPa) = 20.54805 26.25945 23.40375
#
# Velocity S-wave (km/s) = 3.07152 3.47225 3.27801
# Velocity P-wave (km/s) = 5.60634 6.67690 6.16490
#
# Compressibility (1/GPa) = 0.02435441
#
# Stress axis : x y z
#
# Youngs Moduli (GPa) = 41.53698 71.56894 117.87698
#
# Poissons Ratio (x) = 0.33525 0.10070
# Poissons Ratio (y) = 0.19457 0.65418
# Poissons Ratio (z) = 0.03548 0.39719
#
# Static dielectric constant tensor:
#      x y z
#    x 1.861960 0.000000 0.000000 
#    y 0.000000 1.793860 0.000000 
#    z 0.000000 0.000000 1.864130 
# 
# From -- ./inp_files/25404.got.cif
#   From: 2010.05.17/outbox.cif.g08.bks.cpg/sg50_13_cif.got.tgz:25404.got - 2010.06.03 11:33:33.
