data_PCOD9396240
_publ_section_title
;
Structure prediction by ZEFSAII (Michael W. Deem and Ramdas Pophale) SiO2 
 PCOD9396240
Probable space group: P B A N
;
_chemical_formula_sum "Si O2"
_cell_formula_units_Z 58
_cell_length_a 16.113155
_cell_length_b 11.867825
_cell_length_c 14.733496
_cell_angle_alpha 90.000000
_cell_angle_beta 90.000000
_cell_angle_gamma 90.000000
_cell_volume 2817.458502
_symmetry_space_group_name_H-M "P B A N"
_symmetry_group_IT_number 50
_space_group.IT_coordinate_system_code '2'
_symmetry_cell_setting 'orthorhombic'
loop_
_space_group_symop_operation_xyz
x,y,z
1/2-x,1/2-y,z
x,1/2-y,-z
1/2-x,y,-z
-x,-y,-z
1/2+x,1/2+y,-z
-x,1/2+y,z
1/2+x,-y,z
loop_
_atom_site_type_symbol
_atom_site_label
_atom_site_fract_x
_atom_site_fract_y
_atom_site_fract_z
Si Si1 0.965666 0.443955 0.090437
Si Si2 0.591286 0.245629 0.194076
Si Si3 0.656399 0.116870 0.523712
Si Si4 0.921494 0.867493 0.786421
Si Si5 0.854541 0.637504 0.841478
Si Si6 0.611201 0.440952 0.661248
Si Si7 0.750000 0.750000 0.000000
Si Si8 0.802370 0.427904 0.721918
O O1 0.912399 0.329472 0.102889
O O2 0.907190 0.537531 0.137416
O O3 0.052641 0.408427 0.138535
O O4 0.000000 0.500000 0.000000
O O5 0.514553 0.330028 0.192454
O O6 0.572765 0.158449 0.277278
O O7 0.670033 0.322774 0.215981
O O8 0.655524 0.250000 0.500000
O O9 0.750000 0.077170 0.500000
O O10 0.598360 0.067635 0.445699
O O11 0.643664 0.086821 0.628880
O O12 0.864678 0.758435 0.792381
O O13 0.915613 0.937013 0.694793
O O14 0.806124 0.670904 0.934000
O O15 0.814187 0.542875 0.777764
O O16 0.707934 0.423210 0.688276
#
# Coordination Sequence:
#
# PCOD9396240 Si02
#       8
#     8   8   8   8   8   8   2   8
#     4  10  21  38  62  82 111 159 205 243 297 377
#     4  10  20  35  60  86 118 152 200 249 302 360
#     4   9  17  32  59  90 120 157 201 239 302 379
#     4  10  21  40  59  87 119 165 207 239 313 373
#     4  11  23  39  61  84 120 158 199 256 302 364
#     4  10  20  36  63  87 119 160 203 252 299 368
#     4  12  24  40  60  88 116 164 218 252 312 374
#     4  11  20  37  61  94 121 154 203 258 309 353
#
# _framework density 20.585929
#
# number of rings (size 3 to 8) (size 9 to 14) (size 15 to 20)
#    0.000    1.793    2.759    2.069    0.000    2.759 
#    0.000    1.379    6.069    2.483    0.000    0.000 
#    0.000    0.000    0.000    0.000    0.000    0.000 
#
# Total GULP energy -323169.286083 kJ/mol
# GULP energy per Si atom -5571.884243 kJ/mol
# Density = 2.053907 g / cm^3
# Si number density = 20.585929 Si / 1000 Ang^3
#
#
#
# Elastic Constant Matrix: (Units=GPa)
#
#
# Indices 1 2 3 4 5 6 
#
# 1 30.5202 21.6835 4.2261 0.0000 0.0000 0.0000
# 2 21.6835 127.1360 56.7770 0.0000 0.0000 0.0000
# 3 4.2261 56.7770 99.0028 0.0000 0.0000 0.0000
# 4 0.0000 0.0000 0.0000 32.1517 0.0000 0.0000
# 5 0.0000 0.0000 0.0000 0.0000 24.3167 0.0000
# 6 0.0000 0.0000 0.0000 0.0000 0.0000 8.1895
#
#
#
# Elastic Compliance Matrix: (Units=1/GPa)
#
#
# Indices 1 2 3 4 5 6 
#
# 1 0.037854 -0.007709 0.002805 0.000000 0.000000 0.000000
# 2 -0.007709 0.012143 -0.006635 0.000000 0.000000 0.000000
# 3 0.002805 -0.006635 0.013786 0.000000 0.000000 0.000000
# 4 0.000000 0.000000 0.000000 0.031103 0.000000 0.000000
# 5 0.000000 0.000000 0.000000 0.000000 0.041124 0.000000
# 6 0.000000 0.000000 0.000000 0.000000 0.000000 0.122108
#
#
# Mechanical properties :
#
#
# Convention : Reuss Voigt Hill
#
# Bulk Modulus (GPa) = 24.56669 46.89249 35.72959
# Shear Modulus (GPa) = 16.96274 24.52974 20.74624
#
# Velocity S-wave (km/s) = 2.87365 3.45567 3.17801
# Velocity P-wave (km/s) = 4.79271 6.22499 5.55521
#
# Compressibility (1/GPa) = 0.04070552
#
# Stress axis : x y z
#
# Youngs Moduli (GPa) = 26.41762 82.34869 72.53662
#
# Poissons Ratio (x) = 0.63481 -0.20347
# Poissons Ratio (y) = 0.20365 0.48129
# Poissons Ratio (z) = -0.07410 0.54639
#
# Static dielectric constant tensor:
#      x y z
#    x 1.779490 0.000000 0.000000 
#    y 0.000000 1.763370 0.000000 
#    z 0.000000 0.000000 1.805940 
# 
# From -- ./inp_files/26971.got.cif
#   From: 2010.05.17/outbox.cif.g08.bks.cpg/sg50_14_cif.got.tgz:26971.got - 2010.06.03 11:33:33.
