data_PCOD9396461
_publ_section_title
;
Structure prediction by ZEFSAII (Michael W. Deem and Ramdas Pophale) SiO2 
 PCOD9396461
Probable space group: P B A N
;
_chemical_formula_sum "Si O2"
_cell_formula_units_Z 48
_cell_length_a 18.180194
_cell_length_b 9.377328
_cell_length_c 13.497154
_cell_angle_alpha 90.000000
_cell_angle_beta 90.000000
_cell_angle_gamma 90.000000
_cell_volume 2301.016980
_symmetry_space_group_name_H-M "P B A N"
_symmetry_group_IT_number 50
_space_group.IT_coordinate_system_code '2'
_symmetry_cell_setting 'orthorhombic'
loop_
_space_group_symop_operation_xyz
x,y,z
1/2-x,1/2-y,z
x,1/2-y,-z
1/2-x,y,-z
-x,-y,-z
1/2+x,1/2+y,-z
-x,1/2+y,z
1/2+x,-y,z
loop_
_atom_site_type_symbol
_atom_site_label
_atom_site_fract_x
_atom_site_fract_y
_atom_site_fract_z
Si Si1 0.675806 0.558042 0.295063
Si Si2 0.480794 0.638237 0.934239
Si Si3 0.434337 0.279882 0.386510
Si Si4 0.843315 0.996108 0.726530
Si Si5 0.916824 0.203394 0.266624
Si Si6 0.640764 0.744232 0.887008
O O1 0.633257 0.676847 0.357778
O O2 0.761201 0.527199 0.313964
O O3 0.633361 0.412711 0.319448
O O4 0.666917 0.626219 0.183225
O O5 0.439460 0.616921 0.832450
O O6 0.552651 0.729161 0.900447
O O7 0.435532 0.750000 0.000000
O O8 0.500000 0.500000 0.000000
O O9 0.451431 0.250000 0.500000
O O10 0.402576 0.432349 0.351190
O O11 0.508330 0.256372 0.323238
O O12 0.843164 0.899256 0.825707
O O13 0.869368 0.154984 0.751827
O O14 0.668669 0.750000 0.000000
#
# Coordination Sequence:
#
# PCOD9396461 Si02
#       6
#     8   8   8   8   8   8
#     4  11  24  41  63  95 130 172 208 262 330 387
#     4  11  21  34  61  95 130 167 213 264 315 370
#     4  11  25  45  71  93 120 166 223 271 322 396
#     4  11  24  41  65  94 132 170 210 267 328 383
#     4  12  23  41  65  98 134 164 215 271 322 386
#     4  10  20  38  63  90 126 174 219 259 306 380
#
# _framework density 20.860341999999999
#
# number of rings (size 3 to 8) (size 9 to 14) (size 15 to 20)
#    0.000    1.000    3.333    6.500    0.000    5.333 
#    0.000    0.000    0.000    6.000    0.000    0.000 
#    0.000    0.000    0.000    0.000    0.000    0.000 
#
# Total GULP energy -267621.485082 kJ/mol
# GULP energy per Si atom -5575.447606 kJ/mol
# Density = 2.081286 g / cm^3
# Si number density = 20.860342 Si / 1000 Ang^3
#
#
#
# Elastic Constant Matrix: (Units=GPa)
#
#
# Indices 1 2 3 4 5 6 
#
# 1 89.9649 16.7846 -1.9114 0.0000 0.0000 0.0000
# 2 16.7846 99.9284 17.7904 0.0000 0.0000 0.0000
# 3 -1.9114 17.7904 92.2346 0.0000 0.0000 0.0000
# 4 0.0000 0.0000 0.0000 9.1099 0.0000 0.0000
# 5 0.0000 0.0000 0.0000 0.0000 3.8337 0.0000
# 6 0.0000 0.0000 0.0000 0.0000 0.0000 93.4556
#
#
#
# Elastic Compliance Matrix: (Units=1/GPa)
#
#
# Indices 1 2 3 4 5 6 
#
# 1 0.011511 -0.002046 0.000633 0.000000 0.000000 0.000000
# 2 -0.002046 0.010727 -0.002111 0.000000 0.000000 0.000000
# 3 0.000633 -0.002111 0.011262 0.000000 0.000000 0.000000
# 4 0.000000 0.000000 0.000000 0.109770 0.000000 0.000000
# 5 0.000000 0.000000 0.000000 0.000000 0.260848 0.000000
# 6 0.000000 0.000000 0.000000 0.000000 0.000000 0.010700
#
#
# Mechanical properties :
#
#
# Convention : Reuss Voigt Hill
#
# Bulk Modulus (GPa) = 37.80573 38.60613 38.20593
# Shear Modulus (GPa) = 11.60946 37.91079 24.76012
#
# Velocity S-wave (km/s) = 2.36165 4.26768 3.44895
# Velocity P-wave (km/s) = 5.05956 6.54456 5.84937
#
# Compressibility (1/GPa) = 0.02645101
#
# Stress axis : x y z
#
# Youngs Moduli (GPa) = 86.87614 93.22500 88.79189
#
# Poissons Ratio (x) = 0.19075 -0.05622
# Poissons Ratio (y) = 0.17776 0.18748
# Poissons Ratio (z) = -0.05501 0.19684
#
# Static dielectric constant tensor:
#      x y z
#    x 1.794770 0.000000 0.000000 
#    y 0.000000 1.553210 0.000000 
#    z 0.000000 0.000000 1.480470 
# 
# From -- ./inp_files/26866.got.cif
#   From: 2010.05.17/outbox.cif.g08.bks.cpg/sg50_14_cif.got.tgz:26866.got - 2010.06.03 11:33:33.
