data_PCOD9396397
_publ_section_title
;
Structure prediction by ZEFSAII (Michael W. Deem and Ramdas Pophale) SiO2 
 PCOD9396397
Probable space group: P B A N
;
_chemical_formula_sum "Si O2"
_cell_formula_units_Z 64
_cell_length_a 12.733166
_cell_length_b 23.306936
_cell_length_c 11.203247
_cell_angle_alpha 90.000000
_cell_angle_beta 90.000000
_cell_angle_gamma 90.000000
_cell_volume 3324.799768
_symmetry_space_group_name_H-M "P B A N"
_symmetry_group_IT_number 50
_space_group.IT_coordinate_system_code '2'
_symmetry_cell_setting 'orthorhombic'
loop_
_space_group_symop_operation_xyz
x,y,z
1/2-x,1/2-y,z
x,1/2-y,-z
1/2-x,y,-z
-x,-y,-z
1/2+x,1/2+y,-z
-x,1/2+y,z
1/2+x,-y,z
loop_
_atom_site_type_symbol
_atom_site_label
_atom_site_fract_x
_atom_site_fract_y
_atom_site_fract_z
Si Si1 0.630408 0.869732 0.370049
Si Si2 0.940079 0.419370 0.774704
Si Si3 0.626303 0.378314 0.976926
Si Si4 0.452291 0.247259 0.362288
Si Si5 0.221034 0.904631 0.360353
Si Si6 0.964487 0.455661 0.228476
Si Si7 0.360379 0.122023 0.348695
Si Si8 0.851330 0.210472 0.778224
O O1 0.524621 0.891334 0.311819
O O2 0.624707 0.801132 0.355139
O O3 0.630055 0.887055 0.508867
O O4 0.740098 0.890173 0.314900
O O5 0.826221 0.419829 0.712579
O O6 0.986186 0.482662 0.795351
O O7 0.929938 0.383670 0.896650
O O8 0.583681 0.428022 0.890535
O O9 0.615211 0.319798 0.901738
O O10 0.750000 0.386229 0.000000
O O11 0.490338 0.250000 0.500000
O O12 0.391848 0.188511 0.334833
O O13 0.554263 0.246673 0.278701
O O14 0.250000 0.902347 0.500000
O O15 0.178428 0.843002 0.310480
O O16 0.129405 0.950086 0.326449
O O17 0.057666 0.415801 0.277482
O O18 0.750000 0.250000 0.794829
#
# Coordination Sequence:
#
# PCOD9396397 Si02
#       8
#     8   8   8   8   8   8   8   8
#     4  10  23  37  64  97 130 171 214 260 324 395
#     4  12  25  43  65  95 127 169 227 268 330 384
#     4  11  23  47  64  89 127 167 221 272 322 380
#     4  10  20  37  63  94 132 168 209 258 318 393
#     4  11  24  41  63  97 140 165 210 277 333 403
#     4  11  24  43  67  92 123 175 219 273 328 384
#     4  10  20  42  63  93 132 171 212 263 324 393
#     4  11  23  38  65  97 132 173 215 263 335 395
#
# _framework density 19.249281
#
# number of rings (size 3 to 8) (size 9 to 14) (size 15 to 20)
#    0.000    1.250    5.000    2.250    5.250    3.750 
#    0.000    0.625    0.000    0.000    3.250    0.000 
#    0.000    0.000    0.000    0.000    0.000    0.000 
#
# Total GULP energy -357497.730740 kJ/mol
# GULP energy per Si atom -5585.902043 kJ/mol
# Density = 1.920547 g / cm^3
# Si number density = 19.249281 Si / 1000 Ang^3
#
#
#
# Elastic Constant Matrix: (Units=GPa)
#
#
# Indices 1 2 3 4 5 6 
#
# 1 102.5062 6.2034 36.5682 0.0000 0.0000 0.0000
# 2 6.2034 24.5058 8.7286 0.0000 0.0000 0.0000
# 3 36.5682 8.7286 68.5272 0.0000 0.0000 0.0000
# 4 0.0000 0.0000 0.0000 12.4107 0.0000 0.0000
# 5 0.0000 0.0000 0.0000 0.0000 23.0304 0.0000
# 6 0.0000 0.0000 0.0000 0.0000 0.0000 21.3285
#
#
#
# Elastic Compliance Matrix: (Units=1/GPa)
#
#
# Indices 1 2 3 4 5 6 
#
# 1 0.012064 -0.000797 -0.006336 0.000000 0.000000 0.000000
# 2 -0.000797 0.042799 -0.005026 0.000000 0.000000 0.000000
# 3 -0.006336 -0.005026 0.018614 0.000000 0.000000 0.000000
# 4 0.000000 0.000000 0.000000 0.080576 0.000000 0.000000
# 5 0.000000 0.000000 0.000000 0.000000 0.043421 0.000000
# 6 0.000000 0.000000 0.000000 0.000000 0.000000 0.046886
#
#
# Mechanical properties :
#
#
# Convention : Reuss Voigt Hill
#
# Bulk Modulus (GPa) = 20.34254 33.17108 26.75681
# Shear Modulus (GPa) = 17.53992 20.95653 19.24822
#
# Velocity S-wave (km/s) = 3.02188 3.30311 3.16562
# Velocity P-wave (km/s) = 4.77143 5.64067 5.22416
#
# Compressibility (1/GPa) = 0.04915807
#
# Stress axis : x y z
#
# Youngs Moduli (GPa) = 82.89018 23.36524 53.72250
#
# Poissons Ratio (x) = 0.01862 0.34040
# Poissons Ratio (y) = 0.06607 0.27002
# Poissons Ratio (z) = 0.52522 0.11744
#
# Static dielectric constant tensor:
#      x y z
#    x 1.658340 0.000000 0.000000 
#    y 0.000000 1.698390 0.000000 
#    z 0.000000 0.000000 1.667120 
# 
# From -- ./inp_files/20533.got.cif
#   From: 2010.05.17/outbox.cif.g08.bks.cpg/sg50_11_cif.got.tgz:20533.got - 2010.06.03 11:33:33.
