data_PCOD9396502
_publ_section_title
;
Structure prediction by ZEFSAII (Michael W. Deem and Ramdas Pophale) SiO2 
 PCOD9396502
Probable space group: P B A N
;
_chemical_formula_sum "Si O2"
_cell_formula_units_Z 64
_cell_length_a 23.936772
_cell_length_b 16.109475
_cell_length_c 7.906281
_cell_angle_alpha 90.000000
_cell_angle_beta 90.000000
_cell_angle_gamma 90.000000
_cell_volume 3048.731767
_symmetry_space_group_name_H-M "P B A N"
_symmetry_group_IT_number 50
_space_group.IT_coordinate_system_code '2'
_symmetry_cell_setting 'orthorhombic'
loop_
_space_group_symop_operation_xyz
x,y,z
1/2-x,1/2-y,z
x,1/2-y,-z
1/2-x,y,-z
-x,-y,-z
1/2+x,1/2+y,-z
-x,1/2+y,z
1/2+x,-y,z
loop_
_atom_site_type_symbol
_atom_site_label
_atom_site_fract_x
_atom_site_fract_y
_atom_site_fract_z
Si Si1 0.433922 0.250000 0.305265
Si Si2 0.627906 0.404487 0.300038
Si Si3 0.129715 0.088545 0.707361
Si Si4 0.627906 0.095513 0.300038
Si Si5 0.250000 0.346201 0.705873
Si Si6 0.629715 0.911455 0.292638
Si Si7 0.250000 0.652499 0.203413
Si Si8 0.944687 0.250000 0.810976
O O1 0.414062 0.250000 0.500000
O O2 0.408812 0.164629 0.233201
O O3 0.408813 0.335371 0.233201
O O4 0.500436 0.249999 0.302584
O O5 0.613041 0.496510 0.236397
O O6 0.616681 0.399890 0.500000
O O7 0.693683 0.389097 0.270903
O O8 0.593462 0.330501 0.216594
O O9 0.193189 0.109148 0.759130
O O10 0.128586 0.085666 0.500000
O O11 0.693683 0.110903 0.270903
O O12 0.593463 0.169500 0.216593
O O13 0.613041 0.003490 0.236396
O O14 0.250000 0.250000 0.759818
O O15 0.250000 0.345837 0.500000
O O16 0.193189 0.390851 0.759130
O O17 0.250000 0.750000 0.251937
O O18 0.250000 0.648085 0.000000
O O19 0.967070 0.250000 0.000000
#
# Coordination Sequence:
#
# PCOD9396502 Si02
#       8
#     8   8   8   8   8   8   8   8
#     4  10  20  39  63  87 116 152 193 242 294 342
#     4  11  22  38  62  91 118 149 194 244 290 340
#     4   9  18  32  57  92 122 148 186 237 290 343
#     4  11  22  38  62  91 118 149 194 244 290 340
#     4   9  13  24  50  87 125 151 170 214 285 347
#     4   9  18  32  57  92 122 148 186 237 290 343
#     4  11  22  37  59  88 123 159 192 230 287 352
#     4  12  26  43  58  79 113 156 202 244 293 350
#
# _framework density 20.992332999999999
#
# number of rings (size 3 to 8) (size 9 to 14) (size 15 to 20)
#    0.000    1.750    2.500    3.000    0.000    3.500 
#    0.000    7.500    0.000    0.000    0.000    1.750 
#    0.000    0.000    0.000    0.000    0.000    0.000 
#
# Total GULP energy -357594.139359 kJ/mol
# GULP energy per Si atom -5587.408427 kJ/mol
# Density = 2.094455 g / cm^3
# Si number density = 20.992333 Si / 1000 Ang^3
#
#
#
# Elastic Constant Matrix: (Units=GPa)
#
#
# Indices 1 2 3 4 5 6 
#
# 1 93.6701 56.7625 -17.9269 0.0000 0.0000 0.0000
# 2 56.7625 202.4990 7.7812 0.0000 0.0000 0.0000
# 3 -17.9269 7.7812 30.3910 0.0000 0.0000 0.0000
# 4 0.0000 0.0000 0.0000 -70.4498 0.0000 0.0000
# 5 0.0000 0.0000 0.0000 0.0000 -26.2074 0.0000
# 6 0.0000 0.0000 0.0000 0.0000 0.0000 -6.0314
#
#
#
# Elastic Compliance Matrix: (Units=1/GPa)
#
#
# Indices 1 2 3 4 5 6 
#
# 1 0.015547 -0.004757 0.010389 0.000000 0.000000 0.000000
# 2 -0.004757 0.006443 -0.004456 0.000000 0.000000 0.000000
# 3 0.010389 -0.004456 0.040173 0.000000 0.000000 0.000000
# 4 0.000000 0.000000 0.000000 -0.014195 0.000000 0.000000
# 5 0.000000 0.000000 0.000000 0.000000 -0.038157 0.000000
# 6 0.000000 0.000000 0.000000 0.000000 0.000000 -0.165798
#
#
# Mechanical properties :
#
#
# Convention : Reuss Voigt Hill
#
# Bulk Modulus (GPa) = 15.50038 46.64374 31.07206
# Shear Modulus (GPa) = -36.54067 -1.87483 -19.20775
#
# Velocity S-wave (km/s) = -4.17666 -0.94607 -3.02816
# Velocity P-wave (km/s) = 3.98239 4.59067 1.61475
#
# Compressibility (1/GPa) = 0.06451456
#
# Stress axis : x y z
#
# Youngs Moduli (GPa) = 64.32245 155.20807 24.89214
#
# Poissons Ratio (x) = 0.73834 -0.25859
# Poissons Ratio (y) = 0.30599 0.11091
# Poissons Ratio (z) = -0.66822 0.69156
#
# Static dielectric constant tensor:
#      x y z
#    x 1.697390 0.000000 0.000000 
#    y 0.000000 1.757830 0.000000 
#    z 0.000000 0.000000 1.755920 
# 
# From -- ./inp_files/16135.got.cif
#   From: 2010.05.17/outbox.cif.g08.bks.cpg/sg50_9_cif.got.tgz:16135.got - 2010.06.03 11:33:33.
