data_PCOD9396650
_publ_section_title
;
Structure prediction by ZEFSAII (Michael W. Deem and Ramdas Pophale) SiO2 
 PCOD9396650
Probable space group: P B A N
;
_chemical_formula_sum "Si O2"
_cell_formula_units_Z 26
_cell_length_a 21.128590
_cell_length_b 7.804163
_cell_length_c 7.861989
_cell_angle_alpha 90.000000
_cell_angle_beta 90.000000
_cell_angle_gamma 90.000000
_cell_volume 1296.370916
_symmetry_space_group_name_H-M "P B A N"
_symmetry_group_IT_number 50
_space_group.IT_coordinate_system_code '2'
_symmetry_cell_setting 'orthorhombic'
loop_
_space_group_symop_operation_xyz
x,y,z
1/2-x,1/2-y,z
x,1/2-y,-z
1/2-x,y,-z
-x,-y,-z
1/2+x,1/2+y,-z
-x,1/2+y,z
1/2+x,-y,z
loop_
_atom_site_type_symbol
_atom_site_label
_atom_site_fract_x
_atom_site_fract_y
_atom_site_fract_z
Si Si1 0.864905 0.609499 0.805348
Si Si2 0.560553 0.190511 0.688265
Si Si3 0.072144 0.440544 0.829771
Si Si4 0.750000 0.750000 0.000000
O O1 0.884769 0.453510 0.685937
O O2 0.885070 0.796380 0.737579
O O3 0.794997 0.633047 0.881515
O O4 0.908590 0.576977 0.973239
O O5 0.541685 0.250000 0.500000
O O6 0.498976 0.113407 0.781651
O O7 0.582398 0.363651 0.780066
#
# Coordination Sequence:
#
# PCOD9396650 Si02
#       4
#     8   8   8   2
#     4  10  22  38  62  82 116 152 210 240 289 343
#     4  12  22  33  56  94 128 151 182 236 309 363
#     4  10  21  34  56  87 121 156 184 235 292 359
#     4   8  20  44  62  78 100 162 204 256 274 332
#
# _framework density 20.055986999999998
#
# number of rings (size 3 to 8) (size 9 to 14) (size 15 to 20)
#    0.000    1.846    3.077    2.769    4.308    0.000 
#    0.000   12.308    0.000   22.154    0.000    0.000 
#    0.000    0.000    0.000    0.000    0.000    0.000 
#
# Total GULP energy -144992.944812 kJ/mol
# GULP energy per Si atom -5576.651724 kJ/mol
# Density = 2.001034 g / cm^3
# Si number density = 20.055987 Si / 1000 Ang^3
#
#
#
# Elastic Constant Matrix: (Units=GPa)
#
#
# Indices 1 2 3 4 5 6 
#
# 1 121.7867 34.0642 15.1327 0.0000 0.0000 0.0000
# 2 34.0642 119.2638 -14.0200 0.0000 0.0000 0.0000
# 3 15.1327 -14.0200 33.5931 0.0000 0.0000 0.0000
# 4 0.0000 0.0000 0.0000 16.0789 0.0000 0.0000
# 5 0.0000 0.0000 0.0000 0.0000 -4.0152 0.0000
# 6 0.0000 0.0000 0.0000 0.0000 0.0000 -7.7321
#
#
#
# Elastic Compliance Matrix: (Units=1/GPa)
#
#
# Indices 1 2 3 4 5 6 
#
# 1 0.009941 -0.003539 -0.005955 0.000000 0.000000 0.000000
# 2 -0.003539 0.010078 0.005800 0.000000 0.000000 0.000000
# 3 -0.005955 0.005800 0.034871 0.000000 0.000000 0.000000
# 4 0.000000 0.000000 0.000000 0.062193 0.000000 0.000000
# 5 0.000000 0.000000 0.000000 0.000000 -0.249052 0.000000
# 6 0.000000 0.000000 0.000000 0.000000 0.000000 -0.129331
#
#
# Mechanical properties :
#
#
# Convention : Reuss Voigt Hill
#
# Bulk Modulus (GPa) = 21.05216 38.33304 29.69260
# Shear Modulus (GPa) = -21.00161 16.83076 -2.08543
#
# Velocity S-wave (km/s) = -3.23948 2.90002 -1.02081
# Velocity P-wave (km/s) = 1.86355 5.51072 3.66709
#
# Compressibility (1/GPa) = 0.04750107
#
# Stress axis : x y z
#
# Youngs Moduli (GPa) = 100.59284 99.23033 28.67673
#
# Poissons Ratio (x) = 0.35122 0.17078
# Poissons Ratio (y) = 0.35604 -0.16633
# Poissons Ratio (z) = 0.59907 -0.57556
#
# Static dielectric constant tensor:
#      x y z
#    x 1.705380 0.000000 0.000000 
#    y 0.000000 1.781600 0.000000 
#    z 0.000000 0.000000 1.807970 
# 
# From -- ./inp_files/8904.got.cif
#   From: 2010.05.17/outbox.cif.g08.bks.cpg/sg50_5_cif.got.tgz:8904.got - 2010.06.03 11:33:33.
