data_PCOD9396236
_publ_section_title
;
Structure prediction by ZEFSAII (Michael W. Deem and Ramdas Pophale) SiO2 
 PCOD9396236
Probable space group: P B A N
;
_chemical_formula_sum "Si O2"
_cell_formula_units_Z 48
_cell_length_a 16.597569
_cell_length_b 9.433918
_cell_length_c 14.934892
_cell_angle_alpha 90.000000
_cell_angle_beta 90.000000
_cell_angle_gamma 90.000000
_cell_volume 2338.506957
_symmetry_space_group_name_H-M "P B A N"
_symmetry_group_IT_number 50
_space_group.IT_coordinate_system_code '2'
_symmetry_cell_setting 'orthorhombic'
loop_
_space_group_symop_operation_xyz
x,y,z
1/2-x,1/2-y,z
x,1/2-y,-z
1/2-x,y,-z
-x,-y,-z
1/2+x,1/2+y,-z
-x,1/2+y,z
1/2+x,-y,z
loop_
_atom_site_type_symbol
_atom_site_label
_atom_site_fract_x
_atom_site_fract_y
_atom_site_fract_z
Si Si1 0.088515 0.912152 0.826853
Si Si2 0.177513 0.861558 0.649080
Si Si3 0.340790 0.922294 0.988150
Si Si4 0.936244 0.119855 0.611791
Si Si5 0.066557 0.911844 0.190254
Si Si6 0.383666 0.099178 0.460102
O O1 0.159168 0.895438 0.753499
O O2 0.054204 0.753154 0.832150
O O3 0.112305 0.968913 0.923902
O O4 0.017365 0.011341 0.797027
O O5 0.250000 0.750000 0.637757
O O6 0.099737 0.779261 0.606394
O O7 0.180742 0.011228 0.598479
O O8 0.380094 0.963488 0.893501
O O9 0.339380 0.750000 0.000000
O O10 0.250000 0.972425 0.000000
O O11 0.900081 0.078161 0.709409
O O12 0.033136 0.123582 0.597431
O O13 0.905187 0.005740 0.541622
O O14 0.358592 0.250000 0.500000
#
# Coordination Sequence:
#
# PCOD9396236 Si02
#       6
#     8   8   8   8   8   8
#     4  10  21  36  62  91 124 163 209 261 317 381
#     4  11  24  40  63  94 128 170 214 271 329 394
#     4   9  19  34  59  92 126 163 208 259 315 382
#     4  10  21  37  61  93 128 168 211 263 321 392
#     4  10  20  35  59  92 124 162 210 261 311 381
#     4  11  22  39  65  91 125 168 215 267 325 395
#
# _framework density 20.525917
#
# number of rings (size 3 to 8) (size 9 to 14) (size 15 to 20)
#    0.000    1.833    1.667    3.000    9.333    1.333 
#    0.000    1.667    0.000    2.000    0.000    0.000 
#    0.000    0.000    0.000    0.000    0.000    0.000 
#
# Total GULP energy -267583.230415 kJ/mol
# GULP energy per Si atom -5574.650634 kJ/mol
# Density = 2.047920 g / cm^3
# Si number density = 20.525917 Si / 1000 Ang^3
#
#
#
# Elastic Constant Matrix: (Units=GPa)
#
#
# Indices 1 2 3 4 5 6 
#
# 1 52.6523 24.6670 25.8007 0.0000 0.0000 0.0000
# 2 24.6670 66.3337 46.7783 0.0000 0.0000 0.0000
# 3 25.8007 46.7783 126.5790 0.0000 0.0000 0.0000
# 4 0.0000 0.0000 0.0000 22.1417 0.0000 0.0000
# 5 0.0000 0.0000 0.0000 0.0000 13.4214 0.0000
# 6 0.0000 0.0000 0.0000 0.0000 0.0000 39.1588
#
#
#
# Elastic Compliance Matrix: (Units=1/GPa)
#
#
# Indices 1 2 3 4 5 6 
#
# 1 0.023406 -0.007221 -0.002102 0.000000 0.000000 0.000000
# 2 -0.007221 0.022617 -0.006886 0.000000 0.000000 0.000000
# 3 -0.002102 -0.006886 0.010874 0.000000 0.000000 0.000000
# 4 0.000000 0.000000 0.000000 0.045164 0.000000 0.000000
# 5 0.000000 0.000000 0.000000 0.000000 0.074508 0.000000
# 6 0.000000 0.000000 0.000000 0.000000 0.000000 0.025537
#
#
# Mechanical properties :
#
#
# Convention : Reuss Voigt Hill
#
# Bulk Modulus (GPa) = 40.85527 48.89524 44.87526
# Shear Modulus (GPa) = 20.60300 24.83232 22.71766
#
# Velocity S-wave (km/s) = 3.17165 3.48200 3.33044
# Velocity P-wave (km/s) = 5.77580 6.32761 6.05799
#
# Compressibility (1/GPa) = 0.02447665
#
# Stress axis : x y z
#
# Youngs Moduli (GPa) = 42.72465 44.21487 91.96608
#
# Poissons Ratio (x) = 0.31929 0.19332
# Poissons Ratio (y) = 0.30853 0.63331
# Poissons Ratio (z) = 0.08981 0.30448
#
# Static dielectric constant tensor:
#      x y z
#    x 1.777430 0.000000 0.000000 
#    y 0.000000 1.720670 0.000000 
#    z 0.000000 0.000000 1.873470 
# 
# From -- ./inp_files/25018.got.cif
#   From: 2010.05.17/outbox.cif.g08.bks.cpg/sg50_13_cif.got.tgz:25018.got - 2010.06.03 11:33:33.
