data_PCOD9396412
_publ_section_title
;
Structure prediction by ZEFSAII (Michael W. Deem and Ramdas Pophale) SiO2 
 PCOD9396412
Probable space group: P B A N
;
_chemical_formula_sum "Si O2"
_cell_formula_units_Z 64
_cell_length_a 9.140445
_cell_length_b 14.537877
_cell_length_c 22.680829
_cell_angle_alpha 90.000000
_cell_angle_beta 90.000000
_cell_angle_gamma 90.000000
_cell_volume 3013.889005
_symmetry_space_group_name_H-M "P B A N"
_symmetry_group_IT_number 50
_space_group.IT_coordinate_system_code '2'
_symmetry_cell_setting 'orthorhombic'
loop_
_space_group_symop_operation_xyz
x,y,z
1/2-x,1/2-y,z
x,1/2-y,-z
1/2-x,y,-z
-x,-y,-z
1/2+x,1/2+y,-z
-x,1/2+y,z
1/2+x,-y,z
loop_
_atom_site_type_symbol
_atom_site_label
_atom_site_fract_x
_atom_site_fract_y
_atom_site_fract_z
Si Si1 0.531098 0.102297 0.838950
Si Si2 0.577182 0.858895 0.512185
Si Si3 0.397268 0.284439 0.844231
Si Si4 0.371385 0.035448 0.958967
Si Si5 0.067282 0.529203 0.409067
Si Si6 0.309627 0.845870 0.903445
Si Si7 0.325769 0.522343 0.328663
Si Si8 0.573340 0.936777 0.751514
O O1 0.460392 0.193723 0.813991
O O2 0.446041 0.081941 0.901246
O O3 0.699402 0.131385 0.850018
O O4 0.521631 0.017136 0.795915
O O5 0.548713 0.750000 0.500000
O O6 0.750000 0.871432 0.500000
O O7 0.476287 0.912386 0.465602
O O8 0.560287 0.920076 0.572410
O O9 0.250000 0.250000 0.875442
O O10 0.523265 0.326298 0.885692
O O11 0.369514 0.357694 0.793909
O O12 0.297759 0.940424 0.938012
O O13 0.250000 0.085928 0.000000
O O14 0.500000 0.000000 0.000000
O O15 0.943180 0.544284 0.359744
O O16 0.223080 0.557397 0.381880
O O17 0.250000 0.750000 0.930138
O O18 0.432160 0.586078 0.289038
O O19 0.207507 0.472624 0.287446
#
# Coordination Sequence:
#
# PCOD9396412 Si02
#       8
#     8   8   8   8   8   8   8   8
#     4  11  24  44  69  93 130 173 219 274 336 411
#     4  10  20  37  68  95 128 186 226 271 334 404
#     4  11  24  40  69  97 124 167 222 273 323 412
#     4  12  25  42  69  97 131 172 216 273 350 408
#     4  10  20  41  60  99 138 170 223 278 330 394
#     4  10  23  44  64  94 132 167 210 273 338 403
#     4  10  22  38  65  93 133 180 211 283 337 381
#     4  11  22  42  66  92 130 174 228 265 338 405
#
# _framework density 21.235023000000002
#
# number of rings (size 3 to 8) (size 9 to 14) (size 15 to 20)
#    0.000    1.375    3.750    1.500    3.500    0.250 
#    0.000   11.250    0.000    0.000    0.000    0.000 
#    0.000    0.000    0.000    0.000    0.000    0.000 
#
# Total GULP energy -356660.838668 kJ/mol
# GULP energy per Si atom -5572.825604 kJ/mol
# Density = 2.118669 g / cm^3
# Si number density = 21.235023 Si / 1000 Ang^3
#
#
#
# Elastic Constant Matrix: (Units=GPa)
#
#
# Indices 1 2 3 4 5 6 
#
# 1 120.7529 -9.5369 13.8852 0.0000 0.0000 0.0000
# 2 -9.5369 67.8038 0.2315 0.0000 0.0000 0.0000
# 3 13.8852 0.2315 46.9818 0.0000 0.0000 0.0000
# 4 0.0000 0.0000 0.0000 15.7687 0.0000 0.0000
# 5 0.0000 0.0000 0.0000 0.0000 38.9632 0.0000
# 6 0.0000 0.0000 0.0000 0.0000 0.0000 20.2408
#
#
#
# Elastic Compliance Matrix: (Units=1/GPa)
#
#
# Indices 1 2 3 4 5 6 
#
# 1 0.008674 0.001229 -0.002570 0.000000 0.000000 0.000000
# 2 0.001229 0.014923 -0.000437 0.000000 0.000000 0.000000
# 3 -0.002570 -0.000437 0.022046 0.000000 0.000000 0.000000
# 4 0.000000 0.000000 0.000000 0.063417 0.000000 0.000000
# 5 0.000000 0.000000 0.000000 0.000000 0.025665 0.000000
# 6 0.000000 0.000000 0.000000 0.000000 0.000000 0.049405
#
#
# Mechanical properties :
#
#
# Convention : Reuss Voigt Hill
#
# Bulk Modulus (GPa) = 23.75969 27.18869 25.47419
# Shear Modulus (GPa) = 24.78752 30.39180 27.58966
#
# Velocity S-wave (km/s) = 3.42028 3.78724 3.60842
# Velocity P-wave (km/s) = 5.17793 5.65294 5.42064
#
# Compressibility (1/GPa) = 0.04208810
#
# Stress axis : x y z
#
# Youngs Moduli (GPa) = 115.28847 67.01177 45.35887
#
# Poissons Ratio (x) = -0.08234 0.11655
# Poissons Ratio (y) = -0.14167 0.01981
# Poissons Ratio (z) = 0.29624 0.02926
#
# Static dielectric constant tensor:
#      x y z
#    x 1.772530 0.000000 0.000000 
#    y 0.000000 1.835520 0.000000 
#    z 0.000000 0.000000 1.830730 
# 
# From -- ./inp_files/31600.got.cif
#   From: 2010.05.17/outbox.cif.g08.bks.cpg/sg50_16_cif.got.tgz:31600.got - 2010.06.03 11:33:33.
