data_PCOD9396509
_publ_section_title
;
Structure prediction by ZEFSAII (Michael W. Deem and Ramdas Pophale) SiO2 
 PCOD9396509
Probable space group: P B A N
;
_chemical_formula_sum "Si O2"
_cell_formula_units_Z 40
_cell_length_a 17.106762
_cell_length_b 17.113935
_cell_length_c 6.034606
_cell_angle_alpha 90.000000
_cell_angle_beta 90.000000
_cell_angle_gamma 90.000000
_cell_volume 1766.715469
_symmetry_space_group_name_H-M "P B A N"
_symmetry_group_IT_number 50
_space_group.IT_coordinate_system_code '2'
_symmetry_cell_setting 'orthorhombic'
loop_
_space_group_symop_operation_xyz
x,y,z
1/2-x,1/2-y,z
x,1/2-y,-z
1/2-x,y,-z
-x,-y,-z
1/2+x,1/2+y,-z
-x,1/2+y,z
1/2+x,-y,z
loop_
_atom_site_type_symbol
_atom_site_label
_atom_site_fract_x
_atom_site_fract_y
_atom_site_fract_z
Si Si1 0.936245 0.062178 0.123437
Si Si2 0.898339 0.958412 0.748972
Si Si3 0.840170 0.388273 0.501307
Si Si4 0.626551 0.775561 0.254505
Si Si5 0.457020 0.802638 0.808626
O O1 0.870367 0.107639 0.250581
O O2 0.007543 0.044078 0.287447
O O3 0.974466 0.115930 0.933512
O O4 0.895687 0.990503 0.000493
O O5 0.870490 0.869700 0.734439
O O6 0.855981 0.024597 0.602708
O O7 0.750000 0.368645 0.500000
O O8 0.896091 0.327678 0.375988
O O9 0.658949 0.750000 0.500000
O O10 0.537363 0.740467 0.256624
O O11 0.654161 0.750000 0.000000
O O12 0.420130 0.750000 0.000000
#
# Coordination Sequence:
#
# PCOD9396509 Si02
#       5
#     8   8   8   8   8
#     4  10  20  39  63  95 125 164 232 280 349 389
#     4  10  21  37  66  96 125 172 226 297 334 409
#     4  11  25  41  63  95 136 186 226 274 345 428
#     4  11  22  37  66 103 135 169 221 297 361 399
#     4  10  21  38  62  89 135 171 224 287 342 408
#
# _framework density 22.640884
#
# number of rings (size 3 to 8) (size 9 to 14) (size 15 to 20)
#    0.000    1.600    4.000    1.800    2.800    3.200 
#    0.000    3.000    0.000    0.600    0.000    0.000 
#    0.000    0.000    0.000    0.000    0.000    0.000 
#
# Total GULP energy -222935.484783 kJ/mol
# GULP energy per Si atom -5573.387120 kJ/mol
# Density = 2.258935 g / cm^3
# Si number density = 22.640884 Si / 1000 Ang^3
#
#
#
# Elastic Constant Matrix: (Units=GPa)
#
#
# Indices 1 2 3 4 5 6 
#
# 1 77.7218 0.5101 12.6150 0.0000 0.0000 0.0000
# 2 0.5101 140.6434 49.7738 0.0000 0.0000 0.0000
# 3 12.6150 49.7738 102.3181 0.0000 0.0000 0.0000
# 4 0.0000 0.0000 0.0000 36.1037 0.0000 0.0000
# 5 0.0000 0.0000 0.0000 0.0000 -4.5461 0.0000
# 6 0.0000 0.0000 0.0000 0.0000 0.0000 6.5456
#
#
#
# Elastic Compliance Matrix: (Units=1/GPa)
#
#
# Indices 1 2 3 4 5 6 
#
# 1 0.013176 0.000637 -0.001934 0.000000 0.000000 0.000000
# 2 0.000637 0.008620 -0.004272 0.000000 0.000000 0.000000
# 3 -0.001934 -0.004272 0.012090 0.000000 0.000000 0.000000
# 4 0.000000 0.000000 0.000000 0.027698 0.000000 0.000000
# 5 0.000000 0.000000 0.000000 0.000000 -0.219968 0.000000
# 6 0.000000 0.000000 0.000000 0.000000 0.000000 0.152774
#
#
# Mechanical properties :
#
#
# Convention : Reuss Voigt Hill
#
# Bulk Modulus (GPa) = 43.96107 49.60903 46.78505
# Shear Modulus (GPa) = 381.37689 24.80626 203.09158
#
# Velocity S-wave (km/s) = 12.99276 3.31364 9.48135
# Velocity P-wave (km/s) = 15.63781 6.04972 11.85623
#
# Compressibility (1/GPa) = 0.02274740
#
# Stress axis : x y z
#
# Youngs Moduli (GPa) = 75.89454 116.01475 82.71376
#
# Poissons Ratio (x) = -0.07387 0.15999
# Poissons Ratio (y) = -0.04833 0.35332
# Poissons Ratio (z) = 0.14680 0.49557
#
# Static dielectric constant tensor:
#      x y z
#    x 1.814840 0.000000 0.000000 
#    y 0.000000 1.920040 0.000000 
#    z 0.000000 0.000000 1.951000 
# 
# From -- ./inp_files/4188.got.cif
#   From: 2010.05.17/outbox.cif.g08.bks.cpg/sg50_3_cif.got.tgz:4188.got - 2010.06.03 11:33:33.
