data_PCOD9396317
_publ_section_title
;
Structure prediction by ZEFSAII (Michael W. Deem and Ramdas Pophale) SiO2 
 PCOD9396317
Probable space group: P B A N
;
_chemical_formula_sum "Si O2"
_cell_formula_units_Z 64
_cell_length_a 31.690773
_cell_length_b 8.277897
_cell_length_c 12.188602
_cell_angle_alpha 90.000000
_cell_angle_beta 90.000000
_cell_angle_gamma 90.000000
_cell_volume 3197.471977
_symmetry_space_group_name_H-M "P B A N"
_symmetry_group_IT_number 50
_space_group.IT_coordinate_system_code '2'
_symmetry_cell_setting 'orthorhombic'
loop_
_space_group_symop_operation_xyz
x,y,z
1/2-x,1/2-y,z
x,1/2-y,-z
1/2-x,y,-z
-x,-y,-z
1/2+x,1/2+y,-z
-x,1/2+y,z
1/2+x,-y,z
loop_
_atom_site_type_symbol
_atom_site_label
_atom_site_fract_x
_atom_site_fract_y
_atom_site_fract_z
Si Si1 0.376832 0.534015 0.893820
Si Si2 0.426927 0.446505 0.506647
Si Si3 0.800150 0.569824 0.743751
Si Si4 0.453753 0.082383 0.252580
Si Si5 0.455544 0.032731 0.725167
Si Si6 0.874342 0.083043 0.857890
Si Si7 0.829358 0.946479 0.496703
Si Si8 0.293846 0.040510 0.727274
O O1 0.335288 0.469435 0.832978
O O2 0.418269 0.466352 0.834039
O O3 0.376346 0.726252 0.877253
O O4 0.376603 0.498833 0.023129
O O5 0.428256 0.250000 0.500000
O O6 0.441862 0.492060 0.628107
O O7 0.453470 0.512012 0.404214
O O8 0.378150 0.494554 0.489680
O O9 0.813990 0.506152 0.623842
O O10 0.753415 0.502929 0.766232
O O11 0.797969 0.764598 0.734832
O O12 0.453542 0.274592 0.265636
O O13 0.500854 0.027900 0.224119
O O14 0.414263 0.965922 0.784658
O O15 0.831077 0.036376 0.797733
O O16 0.828237 0.750000 0.500000
O O17 0.801643 0.003253 0.599458
#
# Coordination Sequence:
#
# PCOD9396317 Si02
#       8
#     8   8   8   8   8   8   8   8
#     4  11  25  43  60  81 114 157 202 247 294 341
#     4   9  17  32  59  90 121 154 186 229 287 347
#     4  10  20  36  62  92 120 153 193 238 290 349
#     4  11  22  39  63  91 121 153 191 236 289 349
#     4  11  22  39  63  91 121 153 191 236 289 349
#     4  11  25  43  60  81 114 157 202 247 294 341
#     4   9  15  31  58  90 122 152 186 230 289 349
#     4  10  20  36  62  92 120 153 193 238 290 349
#
# _framework density 20.015812
#
# number of rings (size 3 to 8) (size 9 to 14) (size 15 to 20)
#    0.000    1.750    2.500    2.250    0.000    5.000 
#    0.000    6.250    0.000    1.500    0.000    0.000 
#    0.000    0.000    0.000    0.000    0.000    0.000 
#
# Total GULP energy -357591.499356 kJ/mol
# GULP energy per Si atom -5587.367177 kJ/mol
# Density = 1.997026 g / cm^3
# Si number density = 20.015812 Si / 1000 Ang^3
#
#
#
# Elastic Constant Matrix: (Units=GPa)
#
#
# Indices 1 2 3 4 5 6 
#
# 1 88.2881 -14.2491 -6.5234 0.0000 0.0000 0.0000
# 2 -14.2491 9.2944 -12.6054 0.0000 0.0000 0.0000
# 3 -6.5234 -12.6054 70.4111 0.0000 0.0000 0.0000
# 4 0.0000 0.0000 0.0000 4.5806 0.0000 0.0000
# 5 0.0000 0.0000 0.0000 0.0000 -0.0574 0.0000
# 6 0.0000 0.0000 0.0000 0.0000 0.0000 40.9816
#
#
#
# Elastic Compliance Matrix: (Units=1/GPa)
#
#
# Indices 1 2 3 4 5 6 
#
# 1 0.018549 0.040634 0.008993 0.000000 0.000000 0.000000
# 2 0.040634 0.231106 0.045138 0.000000 0.000000 0.000000
# 3 0.008993 0.045138 0.023116 0.000000 0.000000 0.000000
# 4 0.000000 0.000000 0.000000 0.218312 0.000000 0.000000
# 5 0.000000 0.000000 0.000000 0.000000-17.434922 0.000000
# 6 0.000000 0.000000 0.000000 0.000000 0.000000 0.024401
#
#
# Mechanical properties :
#
#
# Convention : Reuss Voigt Hill
#
# Bulk Modulus (GPa) = 2.16309 11.24866 6.70587
# Shear Modulus (GPa) = -0.29490 22.52573 11.11541
#
# Velocity S-wave (km/s) = -0.38426 3.35833 2.35910
# Velocity P-wave (km/s) = 0.94136 4.54642 3.28300
#
# Compressibility (1/GPa) = 0.46230237
#
# Stress axis : x y z
#
# Youngs Moduli (GPa) = 53.91099 4.32702 43.25932
#
# Poissons Ratio (x) = -0.17582 -0.38903
# Poissons Ratio (y) = -2.19062 -1.95266
# Poissons Ratio (z) = -0.48482 -0.19532
#
# Static dielectric constant tensor:
#      x y z
#    x 1.690980 0.000000 0.000000 
#    y 0.000000 1.707390 0.000000 
#    z 0.000000 0.000000 1.701320 
# 
# From -- ./inp_files/23428.got.cif
#   From: 2010.05.17/outbox.cif.g08.bks.cpg/sg50_12_cif.got.tgz:23428.got - 2010.06.03 11:33:33.
