data_PCOD9396647
_publ_section_title
;
Structure prediction by ZEFSAII (Michael W. Deem and Ramdas Pophale) SiO2 
 PCOD9396647
Probable space group: P B A N
;
_chemical_formula_sum "Si O2"
_cell_formula_units_Z 58
_cell_length_a 20.021417
_cell_length_b 17.196558
_cell_length_c 8.349998
_cell_angle_alpha 90.000000
_cell_angle_beta 90.000000
_cell_angle_gamma 90.000000
_cell_volume 2874.899791
_symmetry_space_group_name_H-M "P B A N"
_symmetry_group_IT_number 50
_space_group.IT_coordinate_system_code '2'
_symmetry_cell_setting 'orthorhombic'
loop_
_space_group_symop_operation_xyz
x,y,z
1/2-x,1/2-y,z
x,1/2-y,-z
1/2-x,y,-z
-x,-y,-z
1/2+x,1/2+y,-z
-x,1/2+y,z
1/2+x,-y,z
loop_
_atom_site_type_symbol
_atom_site_label
_atom_site_fract_x
_atom_site_fract_y
_atom_site_fract_z
Si Si1 0.566958 0.088302 0.819351
Si Si2 0.750000 0.750000 0.000000
Si Si3 0.442486 0.435439 0.651898
Si Si4 0.086411 0.580789 0.811290
Si Si5 0.943492 0.649397 0.312316
Si Si6 0.823990 0.938316 0.795069
Si Si7 0.433261 0.750250 0.314106
Si Si8 0.817375 0.889923 0.160379
O O1 0.486676 0.102449 0.819773
O O2 0.594752 0.172079 0.767782
O O3 0.581348 0.024492 0.682826
O O4 0.587523 0.069567 0.997896
O O5 0.794241 0.804509 0.111144
O O6 0.512893 0.434599 0.741700
O O7 0.453829 0.397264 0.478913
O O8 0.384183 0.388774 0.739304
O O9 0.139367 0.518007 0.743643
O O10 0.092541 0.672149 0.768087
O O11 0.866760 0.635284 0.270452
O O12 0.985244 0.730630 0.311396
O O13 0.746031 0.930302 0.753272
O O14 0.826735 0.931240 0.988205
O O15 0.415844 0.750000 0.500000
#
# Coordination Sequence:
#
# PCOD9396647 Si02
#       8
#     8   2   8   8   8   8   8   8
#     4  10  21  34  54  90 116 156 200 252 299 369
#     4   8  20  44  60  82 124 158 188 252 312 348
#     4  12  21  36  62  88 123 157 209 250 307 370
#     4  12  19  36  62  89 118 160 200 261 305 366
#     4  10  22  36  55  87 125 159 191 252 313 368
#     4  10  21  39  62  82 122 156 208 253 302 367
#     4  10  22  36  52  93 128 153 193 255 321 362
#     4  10  23  41  59  91 118 162 207 251 302 371
#
# _framework density 20.174617000000001
#
# number of rings (size 3 to 8) (size 9 to 14) (size 15 to 20)
#    0.828    0.828    4.138    2.069    1.931    2.759 
#    0.000    0.000    0.000    4.138    0.000    0.966 
#    0.000    0.000    0.000    0.000    0.000    0.000 
#
# Total GULP energy -322917.265079 kJ/mol
# GULP energy per Si atom -5567.539053 kJ/mol
# Density = 2.012870 g / cm^3
# Si number density = 20.174617 Si / 1000 Ang^3
#
#
#
# Elastic Constant Matrix: (Units=GPa)
#
#
# Indices 1 2 3 4 5 6 
#
# 1 66.5044 41.0826 20.8245 0.0000 0.0000 0.0000
# 2 41.0826 122.1627 8.4981 0.0000 0.0000 0.0000
# 3 20.8245 8.4981 45.0339 0.0000 0.0000 0.0000
# 4 0.0000 0.0000 0.0000 23.1798 0.0000 0.0000
# 5 0.0000 0.0000 0.0000 0.0000 -3.7760 0.0000
# 6 0.0000 0.0000 0.0000 0.0000 0.0000 31.4976
#
#
#
# Elastic Compliance Matrix: (Units=1/GPa)
#
#
# Indices 1 2 3 4 5 6 
#
# 1 0.022014 -0.006784 -0.008900 0.000000 0.000000 0.000000
# 2 -0.006784 0.010385 0.001177 0.000000 0.000000 0.000000
# 3 -0.008900 0.001177 0.026099 0.000000 0.000000 0.000000
# 4 0.000000 0.000000 0.000000 0.043141 0.000000 0.000000
# 5 0.000000 0.000000 0.000000 0.000000 -0.264830 0.000000
# 6 0.000000 0.000000 0.000000 0.000000 0.000000 0.031748
#
#
# Mechanical properties :
#
#
# Convention : Reuss Voigt Hill
#
# Bulk Modulus (GPa) = 33.91500 41.61237 37.76369
# Shear Modulus (GPa) = -53.99499 21.06667 -16.46416
#
# Velocity S-wave (km/s) = -5.17899 3.23494 -2.85982
# Velocity P-wave (km/s) = 4.34918 5.88422 2.80256
#
# Compressibility (1/GPa) = 0.02948548
#
# Stress axis : x y z
#
# Youngs Moduli (GPa) = 45.42523 96.28930 38.31611
#
# Poissons Ratio (x) = 0.65324 0.34100
# Poissons Ratio (y) = 0.30817 -0.04511
# Poissons Ratio (z) = 0.40427 -0.11337
#
# Static dielectric constant tensor:
#      x y z
#    x 1.730440 0.000000 0.000000 
#    y 0.000000 1.804330 0.000000 
#    z 0.000000 0.000000 1.724680 
# 
# From -- ./inp_files/14506.got.cif
#   From: 2010.05.17/outbox.cif.g08.bks.cpg/sg50_8_cif.got.tgz:14506.got - 2010.06.03 11:33:33.
