data_PCOD9396703
_publ_section_title
;
Structure prediction by ZEFSAII (Michael W. Deem and Ramdas Pophale) SiO2 
 PCOD9396703
Probable space group: P B A N
;
_chemical_formula_sum "Si O2"
_cell_formula_units_Z 56
_cell_length_a 15.199233
_cell_length_b 13.951087
_cell_length_c 13.929958
_cell_angle_alpha 90.000000
_cell_angle_beta 90.000000
_cell_angle_gamma 90.000000
_cell_volume 2953.789393
_symmetry_space_group_name_H-M "P B A N"
_symmetry_group_IT_number 50
_space_group.IT_coordinate_system_code '2'
_symmetry_cell_setting 'orthorhombic'
loop_
_space_group_symop_operation_xyz
x,y,z
1/2-x,1/2-y,z
x,1/2-y,-z
1/2-x,y,-z
-x,-y,-z
1/2+x,1/2+y,-z
-x,1/2+y,z
1/2+x,-y,z
loop_
_atom_site_type_symbol
_atom_site_label
_atom_site_fract_x
_atom_site_fract_y
_atom_site_fract_z
Si Si1 0.790649 0.001999 0.321006
Si Si2 0.853461 0.136426 0.983645
Si Si3 0.675230 0.307460 0.402419
Si Si4 0.560340 0.417517 0.173657
Si Si5 0.521205 0.241193 0.288509
Si Si6 0.658478 0.793595 0.608637
Si Si7 0.105836 0.548401 0.776162
O O1 0.792628 0.085268 0.400315
O O2 0.859729 0.038900 0.238784
O O3 0.692694 0.002808 0.273863
O O4 0.824898 0.906713 0.373931
O O5 0.909138 0.078815 0.063491
O O6 0.869622 0.250000 0.000000
O O7 0.750000 0.121300 0.000000
O O8 0.871390 0.098356 0.877312
O O9 0.750000 0.250000 0.341038
O O10 0.669654 0.250000 0.500000
O O11 0.578008 0.302162 0.363061
O O12 0.539098 0.305386 0.195045
O O13 0.472093 0.473572 0.202637
O O14 0.422396 0.235080 0.324281
O O15 0.564132 0.135961 0.284902
O O16 0.750000 0.750000 0.643188
O O17 0.645028 0.750000 0.500000
#
# Coordination Sequence:
#
# PCOD9396703 Si02
#       7
#     8   8   8   8   8   8   8
#     4  11  23  41  65  95 123 175 217 265 332 386
#     4  11  22  37  65  97 132 170 212 272 331 387
#     4  10  21  36  58  91 128 156 207 270 324 377
#     4  11  23  40  64  94 129 174 219 264 326 392
#     4  11  22  41  63  94 123 172 215 269 326 380
#     4  11  25  46  67  89 131 170 220 269 322 398
#     4  12  22  40  67  92 137 169 221 270 323 392
#
# _framework density 18.958697999999998
#
# number of rings (size 3 to 8) (size 9 to 14) (size 15 to 20)
#    0.000    1.000    5.714    1.714    0.000    2.286 
#    2.571    2.143    0.000    0.000    0.000    2.000 
#    0.000    0.000    0.000    0.000    0.000    0.000 
#
# Total GULP energy -311957.133086 kJ/mol
# GULP energy per Si atom -5570.663091 kJ/mol
# Density = 1.891555 g / cm^3
# Si number density = 18.958698 Si / 1000 Ang^3
#
#
#
# Elastic Constant Matrix: (Units=GPa)
#
#
# Indices 1 2 3 4 5 6 
#
# 1 138.7835 27.2512 35.9404 0.0000 0.0000 0.0000
# 2 27.2512 90.4849 14.8343 0.0000 0.0000 0.0000
# 3 35.9404 14.8343 80.7760 0.0000 0.0000 0.0000
# 4 0.0000 0.0000 0.0000 24.4096 0.0000 0.0000
# 5 0.0000 0.0000 0.0000 0.0000 9.0695 0.0000
# 6 0.0000 0.0000 0.0000 0.0000 0.0000 37.8471
#
#
#
# Elastic Compliance Matrix: (Units=1/GPa)
#
#
# Indices 1 2 3 4 5 6 
#
# 1 0.008479 -0.001995 -0.003406 0.000000 0.000000 0.000000
# 2 -0.001995 0.011864 -0.001291 0.000000 0.000000 0.000000
# 3 -0.003406 -0.001291 0.014133 0.000000 0.000000 0.000000
# 4 0.000000 0.000000 0.000000 0.040967 0.000000 0.000000
# 5 0.000000 0.000000 0.000000 0.000000 0.110260 0.000000
# 6 0.000000 0.000000 0.000000 0.000000 0.000000 0.026422
#
#
# Mechanical properties :
#
#
# Convention : Reuss Voigt Hill
#
# Bulk Modulus (GPa) = 47.41414 51.78850 49.60132
# Shear Modulus (GPa) = 21.50153 29.73313 25.61733
#
# Velocity S-wave (km/s) = 3.37133 3.96449 3.67988
# Velocity P-wave (km/s) = 6.34176 6.95212 6.65394
#
# Compressibility (1/GPa) = 0.02109075
#
# Stress axis : x y z
#
# Youngs Moduli (GPa) = 117.93281 84.28763 70.75815
#
# Poissons Ratio (x) = 0.16818 0.24103
# Poissons Ratio (y) = 0.23531 0.09135
# Poissons Ratio (z) = 0.40173 0.10882
#
# Static dielectric constant tensor:
#      x y z
#    x 1.690400 0.000000 0.000000 
#    y 0.000000 1.723550 0.000000 
#    z 0.000000 0.000000 1.656800 
# 
# From -- ./inp_files/26490.got.cif
#   From: 2010.05.17/outbox.cif.g08.bks.cpg/sg50_14_cif.got.tgz:26490.got - 2010.06.03 11:33:33.
