data_PCOD9396608
_publ_section_title
;
Structure prediction by ZEFSAII (Michael W. Deem and Ramdas Pophale) SiO2 
 PCOD9396608
Probable space group: P B A N
;
_chemical_formula_sum "Si O2"
_cell_formula_units_Z 52
_cell_length_a 8.766221
_cell_length_b 21.756073
_cell_length_c 12.742561
_cell_angle_alpha 90.000000
_cell_angle_beta 90.000000
_cell_angle_gamma 90.000000
_cell_volume 2430.242681
_symmetry_space_group_name_H-M "P B A N"
_symmetry_group_IT_number 50
_space_group.IT_coordinate_system_code '2'
_symmetry_cell_setting 'orthorhombic'
loop_
_space_group_symop_operation_xyz
x,y,z
1/2-x,1/2-y,z
x,1/2-y,-z
1/2-x,y,-z
-x,-y,-z
1/2+x,1/2+y,-z
-x,1/2+y,z
1/2+x,-y,z
loop_
_atom_site_type_symbol
_atom_site_label
_atom_site_fract_x
_atom_site_fract_y
_atom_site_fract_z
Si Si1 0.921885 0.562218 0.037484
Si Si2 0.028942 0.684109 0.336728
Si Si3 0.250000 0.750000 0.824349
Si Si4 0.510089 0.662999 0.125214
Si Si5 0.528837 0.051364 0.729258
Si Si6 0.750000 0.750000 0.228731
Si Si7 0.125566 0.925801 0.303597
Si Si8 0.750000 0.152202 0.500000
O O1 0.945927 0.563371 0.160827
O O2 0.750000 0.558524 0.000000
O O3 0.984474 0.621945 0.978270
O O4 0.000000 0.500000 0.000000
O O5 0.155667 0.702506 0.249186
O O6 0.991003 0.611836 0.336882
O O7 0.118858 0.691677 0.444501
O O8 0.881261 0.721781 0.302838
O O9 0.376904 0.787287 0.885642
O O10 0.665639 0.698656 0.156835
O O11 0.462287 0.618619 0.222380
O O12 0.711716 0.052530 0.744456
O O13 0.473966 0.987169 0.681461
O O14 0.171091 0.889804 0.409755
#
# Coordination Sequence:
#
# PCOD9396608 Si02
#       8
#     8   8   4   8   8   4   8   4
#     4  12  25  40  70 102 138 177 232 289 346 416
#     4  10  22  42  69  93 139 179 233 278 351 401
#     4  10  20  45  67  94 136 190 214 282 332 424
#     4  11  23  45  69 101 142 181 233 278 355 410
#     4  11  23  42  67 101 136 180 228 288 352 405
#     4  10  24  44  70 102 146 188 224 299 339 418
#     4  11  24  42  72  99 140 179 230 298 343 416
#     4  10  22  45  70 100 134 189 234 282 360 410
#
# _framework density 21.397040000000001
#
# number of rings (size 3 to 8) (size 9 to 14) (size 15 to 20)
#    0.000    1.231    4.615    1.846    2.154    2.769 
#    0.000    9.615    0.000    0.000    0.000    0.000 
#    0.000    0.000    0.000    0.000    0.000    0.000 
#
# Total GULP energy -290719.673390 kJ/mol
# GULP energy per Si atom -5590.762950 kJ/mol
# Density = 2.134834 g / cm^3
# Si number density = 21.397040 Si / 1000 Ang^3
#
#
#
# Elastic Constant Matrix: (Units=GPa)
#
#
# Indices 1 2 3 4 5 6 
#
# 1 96.8314 22.9170 11.8560 0.0000 0.0000 0.0000
# 2 22.9170 113.1250 14.2646 0.0000 0.0000 0.0000
# 3 11.8560 14.2646 58.9558 0.0000 0.0000 0.0000
# 4 0.0000 0.0000 0.0000 30.6466 0.0000 0.0000
# 5 0.0000 0.0000 0.0000 0.0000 22.8115 0.0000
# 6 0.0000 0.0000 0.0000 0.0000 0.0000 42.6599
#
#
#
# Elastic Compliance Matrix: (Units=1/GPa)
#
#
# Indices 1 2 3 4 5 6 
#
# 1 0.011015 -0.002014 -0.001728 0.000000 0.000000 0.000000
# 2 -0.002014 0.009486 -0.001890 0.000000 0.000000 0.000000
# 3 -0.001728 -0.001890 0.017767 0.000000 0.000000 0.000000
# 4 0.000000 0.000000 0.000000 0.032630 0.000000 0.000000
# 5 0.000000 0.000000 0.000000 0.000000 0.043838 0.000000
# 6 0.000000 0.000000 0.000000 0.000000 0.000000 0.023441
#
#
# Mechanical properties :
#
#
# Convention : Reuss Voigt Hill
#
# Bulk Modulus (GPa) = 37.03097 40.77638 38.90368
# Shear Modulus (GPa) = 31.55727 33.88191 32.71959
#
# Velocity S-wave (km/s) = 3.84453 3.98362 3.91470
# Velocity P-wave (km/s) = 6.08699 6.34487 6.21727
#
# Compressibility (1/GPa) = 0.02700442
#
# Stress axis : x y z
#
# Youngs Moduli (GPa) = 90.78232 105.41787 56.28507
#
# Poissons Ratio (x) = 0.21227 0.09726
# Poissons Ratio (y) = 0.18280 0.10639
# Poissons Ratio (z) = 0.15687 0.19927
#
# Static dielectric constant tensor:
#      x y z
#    x 1.771220 0.000000 0.000000 
#    y 0.000000 1.222990 0.000000 
#    z 0.000000 0.000000 1.689220 
# 
# From -- ./inp_files/25202.got.cif
#   From: 2010.05.17/outbox.cif.g08.bks.cpg/sg50_13_cif.got.tgz:25202.got - 2010.06.03 11:33:33.
