data_PCOD9396880
_publ_section_title
;
Structure prediction by ZEFSAII (Michael W. Deem and Ramdas Pophale) SiO2 
 PCOD9396880
Probable space group: P B A N
;
_chemical_formula_sum "Si O2"
_cell_formula_units_Z 56
_cell_length_a 14.712610
_cell_length_b 18.817383
_cell_length_c 9.802884
_cell_angle_alpha 90.000000
_cell_angle_beta 90.000000
_cell_angle_gamma 90.000000
_cell_volume 2713.956053
_symmetry_space_group_name_H-M "P B A N"
_symmetry_group_IT_number 50
_space_group.IT_coordinate_system_code '2'
_symmetry_cell_setting 'orthorhombic'
loop_
_space_group_symop_operation_xyz
x,y,z
1/2-x,1/2-y,z
x,1/2-y,-z
1/2-x,y,-z
-x,-y,-z
1/2+x,1/2+y,-z
-x,1/2+y,z
1/2+x,-y,z
loop_
_atom_site_type_symbol
_atom_site_label
_atom_site_fract_x
_atom_site_fract_y
_atom_site_fract_z
Si Si1 0.477726 0.750000 0.000000
Si Si2 0.647152 0.011328 0.456564
Si Si3 0.901700 0.844945 0.553481
Si Si4 0.447528 0.586609 0.702471
Si Si5 0.149294 0.615645 0.048656
Si Si6 0.451481 0.959717 0.816100
Si Si7 0.750000 0.750000 0.295685
Si Si8 0.417552 0.328481 0.766358
O O1 0.414566 0.683298 0.970238
O O2 0.534838 0.727707 0.132994
O O3 0.750000 0.027164 0.500000
O O4 0.580605 0.039994 0.573490
O O5 0.614418 0.047006 0.315642
O O6 0.634732 0.926177 0.448466
O O7 0.822360 0.796974 0.618243
O O8 0.928601 0.824741 0.398602
O O9 0.992135 0.848901 0.646223
O O10 0.510401 0.539020 0.801325
O O11 0.358689 0.600437 0.791334
O O12 0.106362 0.555542 0.950637
O O13 0.250000 0.629804 0.000000
O O14 0.535831 0.904019 0.805254
O O15 0.689148 0.691382 0.216734
#
# Coordination Sequence:
#
# PCOD9396880 Si02
#       8
#     4   8   8   8   8   8   4   8
#     4  10  25  41  66  78 122 170 200 251 323 378
#     4  11  20  36  64  95 123 162 207 262 316 365
#     4  11  21  38  61  93 128 160 209 261 317 375
#     4  11  21  39  65  91 124 164 204 257 319 375
#     4  11  23  41  62  89 117 163 213 255 306 376
#     4  10  21  39  61  87 129 163 197 262 317 373
#     4  12  25  35  62  95 124 164 213 254 305 386
#     4  11  20  40  57  88 122 167 203 254 312 376
#
# _framework density 20.634086
#
# number of rings (size 3 to 8) (size 9 to 14) (size 15 to 20)
#    0.000    1.143    2.857    5.357    0.000    0.286 
#    0.000    0.000    0.000    0.000    0.000    0.000 
#    0.000    0.000    0.000    0.000    0.000    0.000 
#
# Total GULP energy -312472.441715 kJ/mol
# GULP energy per Si atom -5579.865031 kJ/mol
# Density = 2.058712 g / cm^3
# Si number density = 20.634086 Si / 1000 Ang^3
#
#
#
# Elastic Constant Matrix: (Units=GPa)
#
#
# Indices 1 2 3 4 5 6 
#
# 1 105.5116 21.8720 42.0755 0.0000 0.0000 0.0000
# 2 21.8720 53.5818 19.0642 0.0000 0.0000 0.0000
# 3 42.0755 19.0642 96.4647 0.0000 0.0000 0.0000
# 4 0.0000 0.0000 0.0000 31.5179 0.0000 0.0000
# 5 0.0000 0.0000 0.0000 0.0000 29.8638 0.0000
# 6 0.0000 0.0000 0.0000 0.0000 0.0000 32.2184
#
#
#
# Elastic Compliance Matrix: (Units=1/GPa)
#
#
# Indices 1 2 3 4 5 6 
#
# 1 0.011980 -0.003260 -0.004581 0.000000 0.000000 0.000000
# 2 -0.003260 0.020962 -0.002721 0.000000 0.000000 0.000000
# 3 -0.004581 -0.002721 0.012902 0.000000 0.000000 0.000000
# 4 0.000000 0.000000 0.000000 0.031728 0.000000 0.000000
# 5 0.000000 0.000000 0.000000 0.000000 0.033485 0.000000
# 6 0.000000 0.000000 0.000000 0.000000 0.000000 0.031038
#
#
# Mechanical properties :
#
#
# Convention : Reuss Voigt Hill
#
# Bulk Modulus (GPa) = 40.45255 46.84237 43.64746
# Shear Modulus (GPa) = 29.16123 30.22312 29.69218
#
# Velocity S-wave (km/s) = 3.76341 3.83132 3.79751
# Velocity P-wave (km/s) = 6.20738 6.50559 6.35823
#
# Compressibility (1/GPa) = 0.02472032
#
# Stress axis : x y z
#
# Youngs Moduli (GPa) = 83.46996 47.70560 77.50530
#
# Poissons Ratio (x) = 0.15554 0.35507
# Poissons Ratio (y) = 0.27214 0.21086
# Poissons Ratio (z) = 0.38239 0.12979
#
# Static dielectric constant tensor:
#      x y z
#    x 1.740220 0.000000 0.000000 
#    y 0.000000 1.770800 0.000000 
#    z 0.000000 0.000000 1.358590 
# 
# From -- ./inp_files/13319.got.cif
#   From: 2010.05.17/outbox.cif.g08.bks.cpg/sg50_7_cif.got.tgz:13319.got - 2010.06.03 11:33:33.
