data_PCOD9396040
_publ_section_title
;
Structure prediction by ZEFSAII (Michael W. Deem and Ramdas Pophale) SiO2 
 PCOD9396040
Probable space group: P B A N
;
_chemical_formula_sum "Si O2"
_cell_formula_units_Z 58
_cell_length_a 17.562788
_cell_length_b 16.034579
_cell_length_c 9.572224
_cell_angle_alpha 90.000000
_cell_angle_beta 90.000000
_cell_angle_gamma 90.000000
_cell_volume 2695.652299
_symmetry_space_group_name_H-M "P B A N"
_symmetry_group_IT_number 50
_space_group.IT_coordinate_system_code '2'
_symmetry_cell_setting 'orthorhombic'
loop_
_space_group_symop_operation_xyz
x,y,z
1/2-x,1/2-y,z
x,1/2-y,-z
1/2-x,y,-z
-x,-y,-z
1/2+x,1/2+y,-z
-x,1/2+y,z
1/2+x,-y,z
loop_
_atom_site_type_symbol
_atom_site_label
_atom_site_fract_x
_atom_site_fract_y
_atom_site_fract_z
Si Si1 0.151085 0.497273 0.711093
Si Si2 0.123943 0.166820 0.797804
Si Si3 0.750000 0.750000 0.000000
Si Si4 0.444832 0.920450 0.506931
Si Si5 0.176380 0.497535 0.313597
Si Si6 0.493558 0.849018 0.010468
Si Si7 0.334012 0.934952 0.004097
Si Si8 0.944514 0.661459 0.315316
O O1 0.094371 0.571039 0.658696
O O2 0.235407 0.509182 0.653864
O O3 0.160995 0.499727 0.877396
O O4 0.119727 0.408469 0.661185
O O5 0.151795 0.099087 0.686042
O O6 0.090237 0.248428 0.719815
O O7 0.057213 0.126984 0.895596
O O8 0.193124 0.196476 0.900039
O O9 0.494186 0.846055 0.440749
O O10 0.500000 0.000000 0.500000
O O11 0.375786 0.943057 0.404910
O O12 0.163493 0.522382 0.153168
O O13 0.408661 0.879892 0.985770
O O14 0.494423 0.750000 0.000000
O O15 0.516944 0.869909 0.169496
O O16 0.250000 0.892919 0.000000
#
# Coordination Sequence:
#
# PCOD9396040 Si02
#       8
#     8   8   2   8   8   8   8   8
#     4  10  22  37  60  90 123 159 208 260 315 378
#     4  11  23  32  60  91 129 171 198 259 324 391
#     4  12  20  36  52  96 144 164 194 256 338 380
#     4  10  22  39  61  81 119 168 208 259 309 368
#     4  11  22  37  61  90 123 159 210 259 326 380
#     4  10  20  36  57  87 123 162 208 256 324 379
#     4  10  22  36  61  93 119 156 209 272 319 379
#     4  10  19  39  55  86 124 165 206 247 312 386
#
# _framework density 21.516127000000001
#
# number of rings (size 3 to 8) (size 9 to 14) (size 15 to 20)
#    0.000    1.655    3.448    2.069    6.759    1.379 
#    0.000    2.759    0.000    3.310    0.000    0.000 
#    0.000    0.000    0.000    0.000    0.000    0.000 
#
# Total GULP energy -323782.085700 kJ/mol
# GULP energy per Si atom -5582.449753 kJ/mol
# Density = 2.146716 g / cm^3
# Si number density = 21.516127 Si / 1000 Ang^3
#
#
#
# Elastic Constant Matrix: (Units=GPa)
#
#
# Indices 1 2 3 4 5 6 
#
# 1 139.9725 12.3364 20.9178 0.0000 0.0000 0.0000
# 2 12.3364 8.6995 9.0237 0.0000 0.0000 0.0000
# 3 20.9178 9.0237 90.4460 0.0000 0.0000 0.0000
# 4 0.0000 0.0000 0.0000 24.7565 0.0000 0.0000
# 5 0.0000 0.0000 0.0000 0.0000 37.0091 0.0000
# 6 0.0000 0.0000 0.0000 0.0000 0.0000 25.6776
#
#
#
# Elastic Compliance Matrix: (Units=1/GPa)
#
#
# Indices 1 2 3 4 5 6 
#
# 1 0.008219 -0.010802 -0.000823 0.000000 0.000000 0.000000
# 2 -0.010802 0.142413 -0.011710 0.000000 0.000000 0.000000
# 3 -0.000823 -0.011710 0.012415 0.000000 0.000000 0.000000
# 4 0.000000 0.000000 0.000000 0.040393 0.000000 0.000000
# 5 0.000000 0.000000 0.000000 0.000000 0.027020 0.000000
# 6 0.000000 0.000000 0.000000 0.000000 0.000000 0.038944
#
#
# Mechanical properties :
#
#
# Convention : Reuss Voigt Hill
#
# Bulk Modulus (GPa) = 8.59272 35.96376 22.27824
# Shear Modulus (GPa) = 14.08972 30.61132 22.35052
#
# Velocity S-wave (km/s) = 2.56177 3.77598 3.22651
# Velocity P-wave (km/s) = 3.57106 5.98012 4.92515
#
# Compressibility (1/GPa) = 0.11637764
#
# Stress axis : x y z
#
# Youngs Moduli (GPa) = 121.66506 7.02181 80.54757
#
# Poissons Ratio (x) = 0.07585 0.06631
# Poissons Ratio (y) = 1.31417 0.94323
# Poissons Ratio (z) = 0.10016 0.08223
#
# Static dielectric constant tensor:
#      x y z
#    x 1.682900 0.000000 0.000000 
#    y 0.000000 1.776450 0.000000 
#    z 0.000000 0.000000 1.857020 
# 
# From -- ./inp_files/14479.got.cif
#   From: 2010.05.17/outbox.cif.g08.bks.cpg/sg50_8_cif.got.tgz:14479.got - 2010.06.03 11:33:33.
