data_PCOD9396536
_publ_section_title
;
Structure prediction by ZEFSAII (Michael W. Deem and Ramdas Pophale) SiO2 
 PCOD9396536
Probable space group: P B A N
;
_chemical_formula_sum "Si O2"
_cell_formula_units_Z 56
_cell_length_a 15.479451
_cell_length_b 16.132240
_cell_length_c 11.385497
_cell_angle_alpha 90.000000
_cell_angle_beta 90.000000
_cell_angle_gamma 90.000000
_cell_volume 2843.166029
_symmetry_space_group_name_H-M "P B A N"
_symmetry_group_IT_number 50
_space_group.IT_coordinate_system_code '2'
_symmetry_cell_setting 'orthorhombic'
loop_
_space_group_symop_operation_xyz
x,y,z
1/2-x,1/2-y,z
x,1/2-y,-z
1/2-x,y,-z
-x,-y,-z
1/2+x,1/2+y,-z
-x,1/2+y,z
1/2+x,-y,z
loop_
_atom_site_type_symbol
_atom_site_label
_atom_site_fract_x
_atom_site_fract_y
_atom_site_fract_z
Si Si1 0.044256 0.609270 0.577977
Si Si2 0.440229 0.071127 0.650320
Si Si3 0.646785 0.262383 0.726289
Si Si4 0.892796 0.590397 0.767358
Si Si5 0.921364 0.411050 0.827538
Si Si6 0.764394 0.846433 0.629354
Si Si7 0.462584 0.663795 0.066717
O O1 0.088302 0.520888 0.609541
O O2 0.101826 0.687817 0.617674
O O3 0.010820 0.603045 0.444737
O O4 0.956368 0.604988 0.655467
O O5 0.484154 0.068289 0.776671
O O6 0.362021 0.133176 0.657807
O O7 0.750000 0.250000 0.714701
O O8 0.611273 0.171260 0.760885
O O9 0.611478 0.317650 0.836282
O O10 0.872890 0.494535 0.793506
O O11 0.802156 0.627198 0.729025
O O12 0.951170 0.629236 0.871103
O O13 0.926182 0.395307 0.965511
O O14 0.750000 0.750000 0.617250
O O15 0.750000 0.886079 0.500000
O O16 0.482266 0.750000 0.000000
#
# Coordination Sequence:
#
# PCOD9396536 Si02
#       7
#     8   8   8   8   8   8   8
#     4   9  20  39  62  88 122 162 194 256 310 371
#     4  10  21  39  61  88 123 159 204 244 313 368
#     4  10  22  38  63  92 121 155 206 257 309 365
#     4  10  20  40  61  88 120 157 212 256 309 366
#     4  10  22  37  63  87 117 169 198 256 306 376
#     4  11  24  36  62  92 120 159 204 255 302 367
#     4   9  20  38  64  84 118 165 207 254 307 371
#
# _framework density 19.696352999999998
#
# number of rings (size 3 to 8) (size 9 to 14) (size 15 to 20)
#    0.000    2.143    1.429    0.429    8.000    3.143 
#    0.000    2.143    3.143    0.000    0.000    0.000 
#    0.000    0.000    0.000    0.000    0.000    0.000 
#
# Total GULP energy -312117.945782 kJ/mol
# GULP energy per Si atom -5573.534746 kJ/mol
# Density = 1.965152 g / cm^3
# Si number density = 19.696353 Si / 1000 Ang^3
#
#
#
# Elastic Constant Matrix: (Units=GPa)
#
#
# Indices 1 2 3 4 5 6 
#
# 1 68.9012 50.1636 23.9291 0.0000 0.0000 0.0000
# 2 50.1636 94.0907 34.9450 0.0000 0.0000 0.0000
# 3 23.9291 34.9450 64.9212 0.0000 0.0000 0.0000
# 4 0.0000 0.0000 0.0000 22.7491 0.0000 0.0000
# 5 0.0000 0.0000 0.0000 0.0000 9.4883 0.0000
# 6 0.0000 0.0000 0.0000 0.0000 0.0000 25.2306
#
#
#
# Elastic Compliance Matrix: (Units=1/GPa)
#
#
# Indices 1 2 3 4 5 6 
#
# 1 0.024029 -0.011900 -0.002451 0.000000 0.000000 0.000000
# 2 -0.011900 0.019177 -0.005936 0.000000 0.000000 0.000000
# 3 -0.002451 -0.005936 0.019502 0.000000 0.000000 0.000000
# 4 0.000000 0.000000 0.000000 0.043958 0.000000 0.000000
# 5 0.000000 0.000000 0.000000 0.000000 0.105393 0.000000
# 6 0.000000 0.000000 0.000000 0.000000 0.000000 0.039634
#
#
# Mechanical properties :
#
#
# Convention : Reuss Voigt Hill
#
# Bulk Modulus (GPa) = 45.18196 49.55430 47.36813
# Shear Modulus (GPa) = 16.68629 19.41861 18.05245
#
# Velocity S-wave (km/s) = 2.91379 3.14331 3.03072
# Velocity P-wave (km/s) = 5.85741 6.19577 6.02897
#
# Compressibility (1/GPa) = 0.02213273
#
# Stress axis : x y z
#
# Youngs Moduli (GPa) = 41.61650 52.14482 51.27675
#
# Poissons Ratio (x) = 0.62055 0.12569
# Poissons Ratio (y) = 0.49526 0.30439
# Poissons Ratio (z) = 0.10201 0.30954
#
# Static dielectric constant tensor:
#      x y z
#    x 1.821900 0.000000 0.000000 
#    y 0.000000 1.717760 0.000000 
#    z 0.000000 0.000000 1.714340 
# 
# From -- ./inp_files/21173.got.cif
#   From: 2010.05.17/outbox.cif.g08.bks.cpg/sg50_11_cif.got.tgz:21173.got - 2010.06.03 11:33:33.
