data_PCOD9396119
_publ_section_title
;
Structure prediction by ZEFSAII (Michael W. Deem and Ramdas Pophale) SiO2 
 PCOD9396119
Probable space group: P B A N
;
_chemical_formula_sum "Si O2"
_cell_formula_units_Z 64
_cell_length_a 9.593049
_cell_length_b 22.228487
_cell_length_c 16.587310
_cell_angle_alpha 90.000000
_cell_angle_beta 90.000000
_cell_angle_gamma 90.000000
_cell_volume 3537.060816
_symmetry_space_group_name_H-M "P B A N"
_symmetry_group_IT_number 50
_space_group.IT_coordinate_system_code '2'
_symmetry_cell_setting 'orthorhombic'
loop_
_space_group_symop_operation_xyz
x,y,z
1/2-x,1/2-y,z
x,1/2-y,-z
1/2-x,y,-z
-x,-y,-z
1/2+x,1/2+y,-z
-x,1/2+y,z
1/2+x,-y,z
loop_
_atom_site_type_symbol
_atom_site_label
_atom_site_fract_x
_atom_site_fract_y
_atom_site_fract_z
Si Si1 0.171506 0.562819 0.075610
Si Si2 0.528340 0.873704 0.358471
Si Si3 0.337837 0.435401 0.072447
Si Si4 0.705998 0.060131 0.740255
Si Si5 0.983730 0.379252 0.324523
Si Si6 0.417670 0.747594 0.405284
Si Si7 0.588671 0.558765 0.483464
Si Si8 0.237037 0.415347 0.244075
O O1 0.256944 0.499553 0.079972
O O2 0.186857 0.584284 0.168003
O O3 0.004557 0.557407 0.058862
O O4 0.250000 0.594649 0.000000
O O5 0.424604 0.919244 0.312874
O O6 0.475202 0.805728 0.358699
O O7 0.541142 0.892255 0.451329
O O8 0.673321 0.884061 0.313592
O O9 0.312431 0.405651 0.158893
O O10 0.250000 0.405052 0.000000
O O11 0.838812 0.090482 0.699167
O O12 0.723216 0.987627 0.742099
O O13 0.964563 0.313066 0.360657
O O14 0.055954 0.418136 0.394787
O O15 0.084861 0.386060 0.248048
O O16 0.250000 0.750000 0.404469
O O17 0.461120 0.750000 0.500000
O O18 0.750000 0.546135 0.500000
O O19 0.500000 0.500000 0.500000
#
# Coordination Sequence:
#
# PCOD9396119 Si02
#       8
#     8   8   8   8   8   8   8   8
#     4  10  20  33  54  87 125 166 196 237 299 368
#     4  12  23  42  61  84 123 159 203 255 299 353
#     4  10  20  33  55  86 126 165 196 236 298 373
#     4  11  23  38  62  90 129 159 197 250 305 372
#     4  12  25  40  61  89 115 165 207 251 305 353
#     4  11  24  44  62  83 115 160 215 261 297 357
#     4  12  26  40  58  89 123 158 198 245 312 372
#     4  11  23  38  58  94 127 155 200 250 311 359
#
# _framework density 18.094118000000002
#
# number of rings (size 3 to 8) (size 9 to 14) (size 15 to 20)
#    0.000    0.875    5.000    3.750    8.750    0.500 
#    0.000    1.250    0.000    0.000    0.000    5.250 
#    0.000    0.000    0.000    0.000    0.000    0.000 
#
# Total GULP energy -357059.199330 kJ/mol
# GULP energy per Si atom -5579.049990 kJ/mol
# Density = 1.805294 g / cm^3
# Si number density = 18.094118 Si / 1000 Ang^3
#
#
#
# Elastic Constant Matrix: (Units=GPa)
#
#
# Indices 1 2 3 4 5 6 
#
# 1 95.8232 25.1660 22.9594 0.0000 0.0000 0.0000
# 2 25.1660 89.9946 16.3384 0.0000 0.0000 0.0000
# 3 22.9594 16.3384 87.3971 0.0000 0.0000 0.0000
# 4 0.0000 0.0000 0.0000 7.5127 0.0000 0.0000
# 5 0.0000 0.0000 0.0000 0.0000 26.1506 0.0000
# 6 0.0000 0.0000 0.0000 0.0000 0.0000 15.6817
#
#
#
# Elastic Compliance Matrix: (Units=1/GPa)
#
#
# Indices 1 2 3 4 5 6 
#
# 1 0.011795 -0.002832 -0.002569 0.000000 0.000000 0.000000
# 2 -0.002832 0.012182 -0.001533 0.000000 0.000000 0.000000
# 3 -0.002569 -0.001533 0.012404 0.000000 0.000000 0.000000
# 4 0.000000 0.000000 0.000000 0.133108 0.000000 0.000000
# 5 0.000000 0.000000 0.000000 0.000000 0.038240 0.000000
# 6 0.000000 0.000000 0.000000 0.000000 0.000000 0.063769
#
#
# Mechanical properties :
#
#
# Convention : Reuss Voigt Hill
#
# Bulk Modulus (GPa) = 44.42119 44.68248 44.55184
# Shear Modulus (GPa) = 17.07238 23.78574 20.42906
#
# Velocity S-wave (km/s) = 3.07503 3.62961 3.36377
# Velocity P-wave (km/s) = 6.10009 6.50489 6.30574
#
# Compressibility (1/GPa) = 0.02251178
#
# Stress axis : x y z
#
# Youngs Moduli (GPa) = 84.78006 82.08767 80.62156
#
# Poissons Ratio (x) = 0.23247 0.20713
# Poissons Ratio (y) = 0.24009 0.12363
# Poissons Ratio (z) = 0.21782 0.12587
#
# Static dielectric constant tensor:
#      x y z
#    x 1.558450 0.000000 0.000000 
#    y 0.000000 1.590990 0.000000 
#    z 0.000000 0.000000 1.687290 
# 
# From -- ./inp_files/28972.got.cif
#   From: 2010.05.17/outbox.cif.g08.bks.cpg/sg50_15_cif.got.tgz:28972.got - 2010.06.03 11:33:33.
