data_PCOD9396203
_publ_section_title
;
Structure prediction by ZEFSAII (Michael W. Deem and Ramdas Pophale) SiO2 
 PCOD9396203
Probable space group: P B A N
;
_chemical_formula_sum "Si O2"
_cell_formula_units_Z 60
_cell_length_a 24.351227
_cell_length_b 21.138495
_cell_length_c 5.829554
_cell_angle_alpha 90.000000
_cell_angle_beta 90.000000
_cell_angle_gamma 90.000000
_cell_volume 3000.752954
_symmetry_space_group_name_H-M "P B A N"
_symmetry_group_IT_number 50
_space_group.IT_coordinate_system_code '2'
_symmetry_cell_setting 'orthorhombic'
loop_
_space_group_symop_operation_xyz
x,y,z
1/2-x,1/2-y,z
x,1/2-y,-z
1/2-x,y,-z
-x,-y,-z
1/2+x,1/2+y,-z
-x,1/2+y,z
1/2+x,-y,z
loop_
_atom_site_type_symbol
_atom_site_label
_atom_site_fract_x
_atom_site_fract_y
_atom_site_fract_z
Si Si1 0.261966 0.141388 0.753935
Si Si2 0.962394 0.811687 0.626197
Si Si3 0.776064 0.002397 0.248953
Si Si4 0.555238 0.143878 0.320158
Si Si5 0.026487 0.750000 0.000000
Si Si6 0.614965 0.032031 0.528946
Si Si7 0.535936 0.543901 0.162702
Si Si8 0.882679 0.914102 0.780747
O O1 0.250000 0.169883 0.500000
O O2 0.325723 0.122693 0.776541
O O3 0.227742 0.074587 0.753070
O O4 0.250000 0.173936 0.000000
O O5 0.937786 0.750000 0.500000
O O6 0.924071 0.872491 0.625368
O O7 0.022256 0.822661 0.521508
O O8 0.981241 0.794319 0.877680
O O9 0.750000 0.020719 0.500000
O O10 0.837678 0.028238 0.279779
O O11 0.750000 0.021383 0.000000
O O12 0.603355 0.100109 0.418281
O O13 0.507933 0.096154 0.233969
O O14 0.563722 0.200384 0.140314
O O15 0.560527 0.001952 0.642960
O O16 0.629374 0.982211 0.329380
O O17 0.500000 0.500000 0.000000
O O18 0.586454 0.574725 0.021173
#
# Coordination Sequence:
#
# PCOD9396203 Si02
#       8
#     8   8   8   8   4   8   8   8
#     4  10  20  35  54  83 116 160 196 248 309 383
#     4  10  22  39  56  80 113 162 213 255 295 366
#     4  10  20  37  54  83 125 165 193 244 311 387
#     4  11  22  36  56  82 123 160 203 249 306 372
#     4  10  22  42  54  74 117 167 206 256 296 360
#     4  12  23  34  57  92 121 160 202 252 316 387
#     4  12  22  32  53  86 128 154 195 247 311 379
#     4  12  21  35  59  85 115 166 202 251 318 382
#
# _framework density 19.994980000000002
#
# number of rings (size 3 to 8) (size 9 to 14) (size 15 to 20)
#    0.000    1.067    6.667    2.800    0.000    0.000 
#    0.000    0.000    0.000    0.400    0.000    0.000 
#    0.000    5.867    0.267    0.000    0.000    0.000 
#
# Total GULP energy -334244.200273 kJ/mol
# GULP energy per Si atom -5570.736671 kJ/mol
# Density = 1.994947 g / cm^3
# Si number density = 19.994980 Si / 1000 Ang^3
#
#
#
# Elastic Constant Matrix: (Units=GPa)
#
#
# Indices 1 2 3 4 5 6 
#
# 1 61.3641 31.9790 28.0742 0.0000 0.0000 0.0000
# 2 31.9790 79.4450 17.8454 0.0000 0.0000 0.0000
# 3 28.0742 17.8454 95.4921 0.0000 0.0000 0.0000
# 4 0.0000 0.0000 0.0000 30.4801 0.0000 0.0000
# 5 0.0000 0.0000 0.0000 0.0000 31.4529 0.0000
# 6 0.0000 0.0000 0.0000 0.0000 0.0000 0.6647
#
#
#
# Elastic Compliance Matrix: (Units=1/GPa)
#
#
# Indices 1 2 3 4 5 6 
#
# 1 0.022872 -0.008034 -0.005223 0.000000 0.000000 0.000000
# 2 -0.008034 0.015961 -0.000621 0.000000 0.000000 0.000000
# 3 -0.005223 -0.000621 0.012124 0.000000 0.000000 0.000000
# 4 0.000000 0.000000 0.000000 0.032808 0.000000 0.000000
# 5 0.000000 0.000000 0.000000 0.000000 0.031794 0.000000
# 6 0.000000 0.000000 0.000000 0.000000 0.000000 1.504451
#
#
# Mechanical properties :
#
#
# Convention : Reuss Voigt Hill
#
# Bulk Modulus (GPa) = 43.10054 43.56650 43.33352
# Shear Modulus (GPa) = 3.02024 23.07970 13.04997
#
# Velocity S-wave (km/s) = 1.23036 3.40115 2.55750
# Velocity P-wave (km/s) = 4.86013 6.10408 5.51727
#
# Compressibility (1/GPa) = 0.02320157
#
# Stress axis : x y z
#
# Youngs Moduli (GPa) = 43.72098 62.65448 82.48347
#
# Poissons Ratio (x) = 0.50334 0.43081
# Poissons Ratio (y) = 0.35124 0.05121
# Poissons Ratio (z) = 0.22836 0.03890
#
# Static dielectric constant tensor:
#      x y z
#    x 1.725550 0.000000 0.000000 
#    y 0.000000 1.635740 0.000000 
#    z 0.000000 0.000000 1.765940 
# 
# From -- ./inp_files/6117.got.cif
#   From: 2010.05.17/outbox.cif.g08.bks.cpg/sg50_4_cif.got.tgz:6117.got - 2010.06.03 11:33:33.
