data_PCOD9396484
_publ_section_title
;
Structure prediction by ZEFSAII (Michael W. Deem and Ramdas Pophale) SiO2 
 PCOD9396484
Probable space group: P B A N
;
_chemical_formula_sum "Si O2"
_cell_formula_units_Z 64
_cell_length_a 9.039276
_cell_length_b 19.168785
_cell_length_c 17.041122
_cell_angle_alpha 90.000000
_cell_angle_beta 90.000000
_cell_angle_gamma 90.000000
_cell_volume 2952.748238
_symmetry_space_group_name_H-M "P B A N"
_symmetry_group_IT_number 50
_space_group.IT_coordinate_system_code '2'
_symmetry_cell_setting 'orthorhombic'
loop_
_space_group_symop_operation_xyz
x,y,z
1/2-x,1/2-y,z
x,1/2-y,-z
1/2-x,y,-z
-x,-y,-z
1/2+x,1/2+y,-z
-x,1/2+y,z
1/2+x,-y,z
loop_
_atom_site_type_symbol
_atom_site_label
_atom_site_fract_x
_atom_site_fract_y
_atom_site_fract_z
Si Si1 0.363283 0.033021 0.425446
Si Si2 0.035506 0.915206 0.057292
Si Si3 0.469593 0.698669 0.169782
Si Si4 0.970525 0.712627 0.364027
Si Si5 0.408703 0.612562 0.522985
Si Si6 0.138899 0.838955 0.777891
Si Si7 0.367563 0.956439 0.108205
Si Si8 0.338572 0.346186 0.687921
O O1 0.250000 0.043133 0.500000
O O2 0.515475 0.068075 0.454406
O O3 0.326822 0.076722 0.348070
O O4 0.382042 0.950469 0.414381
O O5 0.019130 0.836375 0.085542
O O6 0.195616 0.943715 0.086917
O O7 0.038868 0.923002 0.963891
O O8 0.914139 0.963357 0.100166
O O9 0.311527 0.673575 0.205021
O O10 0.456065 0.781801 0.172921
O O11 0.594654 0.667114 0.226589
O O12 0.825172 0.683842 0.320885
O O13 0.945513 0.795337 0.364721
O O14 0.987468 0.673202 0.445506
O O15 0.104244 0.684629 0.310571
O O16 0.250000 0.641559 0.500000
O O17 0.101541 0.915529 0.810949
#
# Coordination Sequence:
#
# PCOD9396484 Si02
#       8
#     8   8   8   8   8   8   8   8
#     4  10  20  39  57  78 109 142 178 219 269 326
#     4   9  18  33  53  79 110 140 182 220 271 320
#     4   9  19  35  54  77 105 143 179 223 269 318
#     4  10  21  38  55  81 108 140 182 222 269 324
#     4  10  22  37  57  82 110 139 176 225 272 321
#     4   9  19  35  54  76 108 139 179 225 270 316
#     4   9  18  33  53  79 109 143 176 226 268 321
#     4  10  21  37  58  77 107 144 180 223 267 325
#
# _framework density 21.674724000000001
#
# number of rings (size 3 to 8) (size 9 to 14) (size 15 to 20)
#    0.000    2.500    1.250    0.000    1.750    3.000 
#    0.000    5.625    0.000    0.000    0.000    7.000 
#    0.000    0.000    0.000    0.000    0.000    0.000 
#
# Total GULP energy -356748.620909 kJ/mol
# GULP energy per Si atom -5574.197202 kJ/mol
# Density = 2.162539 g / cm^3
# Si number density = 21.674724 Si / 1000 Ang^3
#
#
#
# Elastic Constant Matrix: (Units=GPa)
#
#
# Indices 1 2 3 4 5 6 
#
# 1 46.8247 -9.1358 2.2538 0.0000 0.0000 0.0000
# 2 -9.1358 55.1950 5.2549 0.0000 0.0000 0.0000
# 3 2.2538 5.2549 22.4941 0.0000 0.0000 0.0000
# 4 0.0000 0.0000 0.0000 28.7586 0.0000 0.0000
# 5 0.0000 0.0000 0.0000 0.0000 13.2265 0.0000
# 6 0.0000 0.0000 0.0000 0.0000 0.0000 11.8267
#
#
#
# Elastic Compliance Matrix: (Units=1/GPa)
#
#
# Indices 1 2 3 4 5 6 
#
# 1 0.022287 0.003990 -0.003165 0.000000 0.000000 0.000000
# 2 0.003990 0.019244 -0.004895 0.000000 0.000000 0.000000
# 3 -0.003165 -0.004895 0.045917 0.000000 0.000000 0.000000
# 4 0.000000 0.000000 0.000000 0.034772 0.000000 0.000000
# 5 0.000000 0.000000 0.000000 0.000000 0.075606 0.000000
# 6 0.000000 0.000000 0.000000 0.000000 0.000000 0.084555
#
#
# Mechanical properties :
#
#
# Convention : Reuss Voigt Hill
#
# Bulk Modulus (GPa) = 12.60920 13.47330 13.04125
# Shear Modulus (GPa) = 15.77497 19.17173 17.47335
#
# Velocity S-wave (km/s) = 2.70071 2.97731 2.84238
# Velocity P-wave (km/s) = 3.94401 4.24839 4.09903
#
# Compressibility (1/GPa) = 0.07930719
#
# Stress axis : x y z
#
# Youngs Moduli (GPa) = 44.86890 51.96392 21.77849
#
# Poissons Ratio (x) = -0.20735 0.06894
# Poissons Ratio (y) = -0.17904 0.10662
# Poissons Ratio (z) = 0.14202 0.25439
#
# Static dielectric constant tensor:
#      x y z
#    x 1.806310 0.000000 0.000000 
#    y 0.000000 1.821900 0.000000 
#    z 0.000000 0.000000 1.820740 
# 
# From -- ./inp_files/28963.got.cif
#   From: 2010.05.17/outbox.cif.g08.bks.cpg/sg50_15_cif.got.tgz:28963.got - 2010.06.03 11:33:33.
