data_PCOD9396571
_publ_section_title
;
Structure prediction by ZEFSAII (Michael W. Deem and Ramdas Pophale) SiO2 
 PCOD9396571
Probable space group: P B A N
;
_chemical_formula_sum "Si O2"
_cell_formula_units_Z 44
_cell_length_a 17.692129
_cell_length_b 8.588702
_cell_length_c 14.060598
_cell_angle_alpha 90.000000
_cell_angle_beta 90.000000
_cell_angle_gamma 90.000000
_cell_volume 2136.541945
_symmetry_space_group_name_H-M "P B A N"
_symmetry_group_IT_number 50
_space_group.IT_coordinate_system_code '2'
_symmetry_cell_setting 'orthorhombic'
loop_
_space_group_symop_operation_xyz
x,y,z
1/2-x,1/2-y,z
x,1/2-y,-z
1/2-x,y,-z
-x,-y,-z
1/2+x,1/2+y,-z
-x,1/2+y,z
1/2+x,-y,z
loop_
_atom_site_type_symbol
_atom_site_label
_atom_site_fract_x
_atom_site_fract_y
_atom_site_fract_z
Si Si1 0.719675 0.072482 0.391074
Si Si2 0.848463 0.918653 0.296208
Si Si3 0.421399 0.087618 0.702188
Si Si4 0.543634 0.999514 0.858288
Si Si5 0.502439 0.750000 0.000000
Si Si6 0.051673 0.891519 0.563030
O O1 0.750000 0.250000 0.373506
O O2 0.750000 0.038749 0.500000
O O3 0.763374 0.958293 0.319040
O O4 0.632294 0.030988 0.359700
O O5 0.871535 0.740922 0.279084
O O6 0.889167 0.995346 0.387898
O O7 0.885133 0.012122 0.209684
O O8 0.466925 0.011828 0.792191
O O9 0.491661 0.161816 0.642395
O O10 0.546768 0.840918 0.918080
O O11 0.544540 0.128147 0.939411
O O12 0.083136 0.750000 0.500000
O O13 0.000000 0.000000 0.500000
#
# Coordination Sequence:
#
# PCOD9396571 Si02
#       6
#     8   8   8   8   4   8
#     4  11  27  41  60  86 128 178 219 253 297 366
#     4  11  23  39  61  88 126 164 209 256 313 370
#     4  11  23  40  59  90 125 165 208 257 312 373
#     4  10  22  39  68 100 121 155 202 259 329 379
#     4  10  20  40  68  98 126 146 196 266 326 402
#     4  11  22  34  58  87 119 158 210 260 306 358
#
# _framework density 20.594024000000001
#
# number of rings (size 3 to 8) (size 9 to 14) (size 15 to 20)
#    0.000    1.273    3.636    1.636    7.636    0.727 
#    0.000    0.000    0.000    6.545    0.000    0.000 
#    0.000    0.000    0.000    0.000    0.000    0.000 
#
# Total GULP energy -245065.193724 kJ/mol
# GULP energy per Si atom -5569.663494 kJ/mol
# Density = 2.054715 g / cm^3
# Si number density = 20.594024 Si / 1000 Ang^3
#
#
#
# Elastic Constant Matrix: (Units=GPa)
#
#
# Indices 1 2 3 4 5 6 
#
# 1 99.5857 15.0054 38.8110 0.0000 0.0000 0.0000
# 2 15.0054 62.8702 30.0302 0.0000 0.0000 0.0000
# 3 38.8110 30.0302 105.5825 0.0000 0.0000 0.0000
# 4 0.0000 0.0000 0.0000 40.2218 0.0000 0.0000
# 5 0.0000 0.0000 0.0000 0.0000 19.3998 0.0000
# 6 0.0000 0.0000 0.0000 0.0000 0.0000 28.1684
#
#
#
# Elastic Compliance Matrix: (Units=1/GPa)
#
#
# Indices 1 2 3 4 5 6 
#
# 1 0.011761 -0.000859 -0.004079 0.000000 0.000000 0.000000
# 2 -0.000859 0.018469 -0.004937 0.000000 0.000000 0.000000
# 3 -0.004079 -0.004937 0.012375 0.000000 0.000000 0.000000
# 4 0.000000 0.000000 0.000000 0.024862 0.000000 0.000000
# 5 0.000000 0.000000 0.000000 0.000000 0.051547 0.000000
# 6 0.000000 0.000000 0.000000 0.000000 0.000000 0.035501
#
#
# Mechanical properties :
#
#
# Convention : Reuss Voigt Hill
#
# Bulk Modulus (GPa) = 43.75452 48.41461 46.08457
# Shear Modulus (GPa) = 27.49028 29.83747 28.66387
#
# Velocity S-wave (km/s) = 3.65755 3.81049 3.73480
# Velocity P-wave (km/s) = 6.25533 6.55133 6.40504
#
# Compressibility (1/GPa) = 0.02285478
#
# Stress axis : x y z
#
# Youngs Moduli (GPa) = 85.02965 54.14449 80.80858
#
# Poissons Ratio (x) = 0.04649 0.32961
# Poissons Ratio (y) = 0.07301 0.39899
# Poissons Ratio (z) = 0.34682 0.26733
#
# Static dielectric constant tensor:
#      x y z
#    x 1.857290 0.000000 0.000000 
#    y 0.000000 1.863130 0.000000 
#    z 0.000000 0.000000 1.763730 
# 
# From -- ./inp_files/26787.got.cif
#   From: 2010.05.17/outbox.cif.g08.bks.cpg/sg50_14_cif.got.tgz:26787.got - 2010.06.03 11:33:33.
