data_PCOD9396419
_publ_section_title
;
Structure prediction by ZEFSAII (Michael W. Deem and Ramdas Pophale) SiO2 
 PCOD9396419
Probable space group: P B A N
;
_chemical_formula_sum "Si O2"
_cell_formula_units_Z 34
_cell_length_a 9.198215
_cell_length_b 26.760457
_cell_length_c 7.081142
_cell_angle_alpha 90.000000
_cell_angle_beta 90.000000
_cell_angle_gamma 90.000000
_cell_volume 1743.012035
_symmetry_space_group_name_H-M "P B A N"
_symmetry_group_IT_number 50
_space_group.IT_coordinate_system_code '2'
_symmetry_cell_setting 'orthorhombic'
loop_
_space_group_symop_operation_xyz
x,y,z
1/2-x,1/2-y,z
x,1/2-y,-z
1/2-x,y,-z
-x,-y,-z
1/2+x,1/2+y,-z
-x,1/2+y,z
1/2+x,-y,z
loop_
_atom_site_type_symbol
_atom_site_label
_atom_site_fract_x
_atom_site_fract_y
_atom_site_fract_z
Si Si1 0.834388 0.326277 0.304481
Si Si2 0.127757 0.476475 0.125129
Si Si3 0.916301 0.603641 0.549444
Si Si4 0.667917 0.421487 0.302107
Si Si5 0.750000 0.250000 0.000000
O O1 0.750000 0.311119 0.500000
O O2 0.735472 0.371275 0.218056
O O3 0.987332 0.350701 0.368278
O O4 0.841988 0.284040 0.145822
O O5 0.078844 0.440625 0.294676
O O6 0.200041 0.526744 0.205149
O O7 0.250000 0.449569 0.000000
O O8 0.000000 0.500000 0.000000
O O9 0.750000 0.615177 0.500000
O O10 0.000048 0.585296 0.360110
O O11 0.750000 0.424241 0.500000
#
# Coordination Sequence:
#
# PCOD9396419 Si02
#       5
#     8   8   8   8   2
#     4   9  22  40  66  92 117 155 206 258 306 367
#     4  12  22  30  52  89 127 163 202 242 279 346
#     4  10  20  38  57  84 124 169 193 236 305 372
#     4   9  19  37  56  78 119 166 206 231 281 356
#     4  12  22  40  76  92 112 140 218 278 324 356
#
# _framework density 19.506461999999999
#
# number of rings (size 3 to 8) (size 9 to 14) (size 15 to 20)
#    0.000    2.353    0.000    6.000    4.941    0.000 
#    0.000    0.000    0.000   16.941    0.000    0.000 
#    0.000    0.000    0.000    0.000    0.000    0.000 
#
# Total GULP energy -189532.081903 kJ/mol
# GULP energy per Si atom -5574.472997 kJ/mol
# Density = 1.946206 g / cm^3
# Si number density = 19.506462 Si / 1000 Ang^3
#
#
#
# Elastic Constant Matrix: (Units=GPa)
#
#
# Indices 1 2 3 4 5 6 
#
# 1 135.2917 26.5900 34.9343 0.0000 0.0000 0.0000
# 2 26.5900 92.4424 48.4395 0.0000 0.0000 0.0000
# 3 34.9343 48.4395 90.2863 0.0000 0.0000 0.0000
# 4 0.0000 0.0000 0.0000 25.0641 0.0000 0.0000
# 5 0.0000 0.0000 0.0000 0.0000 17.8534 0.0000
# 6 0.0000 0.0000 0.0000 0.0000 0.0000 -18.2167
#
#
#
# Elastic Compliance Matrix: (Units=1/GPa)
#
#
# Indices 1 2 3 4 5 6 
#
# 1 0.008275 -0.000977 -0.002678 0.000000 0.000000 0.000000
# 2 -0.000977 0.015163 -0.007757 0.000000 0.000000 0.000000
# 3 -0.002678 -0.007757 0.016274 0.000000 0.000000 0.000000
# 4 0.000000 0.000000 0.000000 0.039898 0.000000 0.000000
# 5 0.000000 0.000000 0.000000 0.000000 0.056012 0.000000
# 6 0.000000 0.000000 0.000000 0.000000 0.000000 -0.054895
#
#
# Mechanical properties :
#
#
# Convention : Reuss Voigt Hill
#
# Bulk Modulus (GPa) = 59.21309 59.77200 59.49255
# Shear Modulus (GPa) = 45.79599 18.81060 32.30329
#
# Velocity S-wave (km/s) = 4.85060 3.10873 4.07385
# Velocity P-wave (km/s) = 7.86083 6.60260 7.25902
#
# Compressibility (1/GPa) = 0.01688816
#
# Stress axis : x y z
#
# Youngs Moduli (GPa) = 120.84796 65.94844 61.44885
#
# Poissons Ratio (x) = 0.06444 0.16453
# Poissons Ratio (y) = 0.11809 0.47667
# Poissons Ratio (z) = 0.32357 0.51158
#
# Static dielectric constant tensor:
#      x y z
#    x 1.830540 0.000000 0.000000 
#    y 0.000000 1.755740 0.000000 
#    z 0.000000 0.000000 -6.411560 
# 
# From -- ./inp_files/9673.got.cif
#   From: 2010.05.17/outbox.cif.g08.bks.cpg/sg50_5_cif.got.tgz:9673.got - 2010.06.03 11:33:33.
