data_PCOD9396622
_publ_section_title
;
Structure prediction by ZEFSAII (Michael W. Deem and Ramdas Pophale) SiO2 
 PCOD9396622
Probable space group: P B A N
;
_chemical_formula_sum "Si O2"
_cell_formula_units_Z 40
_cell_length_a 15.165087
_cell_length_b 25.230616
_cell_length_c 5.133987
_cell_angle_alpha 90.000000
_cell_angle_beta 90.000000
_cell_angle_gamma 90.000000
_cell_volume 1964.389141
_symmetry_space_group_name_H-M "P B A N"
_symmetry_group_IT_number 50
_space_group.IT_coordinate_system_code '2'
_symmetry_cell_setting 'orthorhombic'
loop_
_space_group_symop_operation_xyz
x,y,z
1/2-x,1/2-y,z
x,1/2-y,-z
1/2-x,y,-z
-x,-y,-z
1/2+x,1/2+y,-z
-x,1/2+y,z
1/2+x,-y,z
loop_
_atom_site_type_symbol
_atom_site_label
_atom_site_fract_x
_atom_site_fract_y
_atom_site_fract_z
Si Si1 0.291192 0.190284 0.241206
Si Si2 0.982565 0.831378 0.032366
Si Si3 0.345480 0.577677 0.590328
Si Si4 0.546675 0.445855 0.922214
Si Si5 0.093053 0.692281 0.467689
O O1 0.250000 0.250000 0.244757
O O2 0.250000 0.165928 0.500000
O O3 0.393674 0.190753 0.167264
O O4 0.250000 0.159895 0.000000
O O5 0.983344 0.895318 0.016610
O O6 0.056195 0.819158 0.245646
O O7 0.014082 0.808167 0.752687
O O8 0.250000 0.559646 0.500000
O O9 0.417408 0.559310 0.373230
O O10 0.348577 0.641866 0.603569
O O11 0.372500 0.559480 0.876504
O O12 0.500000 0.500000 0.000000
O O13 0.134350 0.750000 0.500000
#
# Coordination Sequence:
#
# PCOD9396622 Si02
#       5
#     8   8   8   8   8
#     4  10  21  32  48  74 106 151 186 230 283 329
#     4  10  21  36  53  80 114 148 201 235 278 362
#     4  10  21  39  61  91 119 148 194 241 294 352
#     4  10  21  40  63  85 114 156 196 245 295 350
#     4  10  21  33  57  84 113 155 188 227 288 347
#
# _framework density 20.362563000000002
#
# number of rings (size 3 to 8) (size 9 to 14) (size 15 to 20)
#    0.000    2.000    0.000    3.000    8.400    0.400 
#    0.000    3.000    0.000    7.200    0.000    0.000 
#    0.000    0.000    0.000    0.000    0.000    0.000 
#
# Total GULP energy -222778.070873 kJ/mol
# GULP energy per Si atom -5569.451772 kJ/mol
# Density = 2.031622 g / cm^3
# Si number density = 20.362563 Si / 1000 Ang^3
#
#
#
# Elastic Constant Matrix: (Units=GPa)
#
#
# Indices 1 2 3 4 5 6 
#
# 1 48.2338 10.3907 -13.0277 0.0000 0.0000 0.0000
# 2 10.3907 93.2285 3.5407 0.0000 0.0000 0.0000
# 3 -13.0277 3.5407 120.4805 0.0000 0.0000 0.0000
# 4 0.0000 0.0000 0.0000 3.3087 0.0000 0.0000
# 5 0.0000 0.0000 0.0000 0.0000 24.7366 0.0000
# 6 0.0000 0.0000 0.0000 0.0000 0.0000 4.9264
#
#
#
# Elastic Compliance Matrix: (Units=1/GPa)
#
#
# Indices 1 2 3 4 5 6 
#
# 1 0.021940 -0.002538 0.002447 0.000000 0.000000 0.000000
# 2 -0.002538 0.011032 -0.000599 0.000000 0.000000 0.000000
# 3 0.002447 -0.000599 0.008582 0.000000 0.000000 0.000000
# 4 0.000000 0.000000 0.000000 0.302236 0.000000 0.000000
# 5 0.000000 0.000000 0.000000 0.000000 0.040426 0.000000
# 6 0.000000 0.000000 0.000000 0.000000 0.000000 0.202988
#
#
# Mechanical properties :
#
#
# Convention : Reuss Voigt Hill
#
# Bulk Modulus (GPa) = 24.89139 29.30555 27.09847
# Shear Modulus (GPa) = 8.30598 23.99694 16.15146
#
# Velocity S-wave (km/s) = 2.02186 3.43663 2.81943
# Velocity P-wave (km/s) = 4.20728 5.49275 4.89242
#
# Compressibility (1/GPa) = 0.04017453
#
# Stress axis : x y z
#
# Youngs Moduli (GPa) = 45.57871 90.64564 116.51901
#
# Poissons Ratio (x) = 0.23008 -0.28512
# Poissons Ratio (y) = 0.11569 0.06976
# Poissons Ratio (z) = -0.11153 0.05427
#
# Static dielectric constant tensor:
#      x y z
#    x 2.009200 0.000000 0.000000 
#    y 0.000000 1.742390 0.000000 
#    z 0.000000 0.000000 1.735970 
# 
# From -- ./inp_files/2402.got.cif
#   From: 2010.05.17/outbox.cif.g08.bks.cpg/sg50_2_cif.got.tgz:2402.got - 2010.06.03 11:33:33.
