data_PCOD9396612
_publ_section_title
;
Structure prediction by ZEFSAII (Michael W. Deem and Ramdas Pophale) SiO2 
 PCOD9396612
Probable space group: P B A N
;
_chemical_formula_sum "Si O2"
_cell_formula_units_Z 32
_cell_length_a 9.194945
_cell_length_b 30.921640
_cell_length_c 5.287012
_cell_angle_alpha 90.000000
_cell_angle_beta 90.000000
_cell_angle_gamma 90.000000
_cell_volume 1503.217945
_symmetry_space_group_name_H-M "P B A N"
_symmetry_group_IT_number 50
_space_group.IT_coordinate_system_code '2'
_symmetry_cell_setting 'orthorhombic'
loop_
_space_group_symop_operation_xyz
x,y,z
1/2-x,1/2-y,z
x,1/2-y,-z
1/2-x,y,-z
-x,-y,-z
1/2+x,1/2+y,-z
-x,1/2+y,z
1/2+x,-y,z
loop_
_atom_site_type_symbol
_atom_site_label
_atom_site_fract_x
_atom_site_fract_y
_atom_site_fract_z
Si Si1 0.499751 0.538962 0.698862
Si Si2 0.250000 0.250000 0.000000
Si Si3 0.750000 0.992731 0.000000
Si Si4 0.250000 0.750000 0.000000
Si Si5 0.994853 0.187091 0.885733
Si Si6 0.919112 0.363324 0.585754
O O1 0.500000 0.500000 0.500000
O O2 0.373886 0.523865 0.890659
O O3 0.456614 0.586341 0.613163
O O4 0.661418 0.537706 0.811280
O O5 0.363058 0.217040 0.127759
O O6 0.142277 0.780777 0.155377
O O7 0.004507 0.154448 0.655504
O O8 0.961590 0.162907 0.155637
O O9 0.750000 0.359365 0.500000
#
# Coordination Sequence:
#
# PCOD9396612 Si02
#       6
#     8   2   4   2   8   8
#     4  11  25  45  71 102 149 193 242 295 362 429
#     4  10  28  54  68 108 146 188 228 292 394 432
#     4  10  24  44  70 102 136 210 234 292 362 428
#     4  10  20  46  72 100 130 180 236 276 378 420
#     4  11  26  45  76 103 142 184 231 304 353 444
#     4  12  25  44  74 111 139 183 252 294 351 417
#
# _framework density 21.287663999999999
#
# number of rings (size 3 to 8) (size 9 to 14) (size 15 to 20)
#    0.000    1.000    2.500    2.250   10.500    8.000 
#    4.500    0.000    0.000    0.000    0.000    0.000 
#    0.000    0.000    0.000    0.000    0.000    0.000 
#
# Total GULP energy -178615.553111 kJ/mol
# GULP energy per Si atom -5581.736035 kJ/mol
# Density = 2.123921 g / cm^3
# Si number density = 21.287664 Si / 1000 Ang^3
#
#
#
# Elastic Constant Matrix: (Units=GPa)
#
#
# Indices 1 2 3 4 5 6 
#
# 1 130.2988 55.0829 35.2481 0.0000 0.0000 0.0000
# 2 55.0829 153.0917 63.9218 0.0000 0.0000 0.0000
# 3 35.2481 63.9218 119.0612 0.0000 0.0000 0.0000
# 4 0.0000 0.0000 0.0000 65.1770 0.0000 0.0000
# 5 0.0000 0.0000 0.0000 0.0000 4.5386 0.0000
# 6 0.0000 0.0000 0.0000 0.0000 0.0000 32.8269
#
#
#
# Elastic Compliance Matrix: (Units=1/GPa)
#
#
# Indices 1 2 3 4 5 6 
#
# 1 0.009186 -0.002797 -0.001218 0.000000 0.000000 0.000000
# 2 -0.002797 0.009271 -0.004149 0.000000 0.000000 0.000000
# 3 -0.001218 -0.004149 0.010987 0.000000 0.000000 0.000000
# 4 0.000000 0.000000 0.000000 0.015343 0.000000 0.000000
# 5 0.000000 0.000000 0.000000 0.000000 0.220332 0.000000
# 6 0.000000 0.000000 0.000000 0.000000 0.000000 0.030463
#
#
# Mechanical properties :
#
#
# Convention : Reuss Voigt Hill
#
# Bulk Modulus (GPa) = 76.24135 78.99525 77.61830
# Shear Modulus (GPa) = 15.80866 37.05510 26.43188
#
# Velocity S-wave (km/s) = 2.72806 4.17668 3.52753
# Velocity P-wave (km/s) = 6.76873 7.77487 7.28918
#
# Compressibility (1/GPa) = 0.01311624
#
# Stress axis : x y z
#
# Youngs Moduli (GPa) = 108.85553 107.86529 91.01336
#
# Poissons Ratio (x) = 0.30167 0.11087
# Poissons Ratio (y) = 0.30444 0.37765
# Poissons Ratio (z) = 0.13260 0.44757
#
# Static dielectric constant tensor:
#      x y z
#    x 1.792470 0.000000 0.000000 
#    y 0.000000 1.810430 0.000000 
#    z 0.000000 0.000000 1.844580 
# 
# From -- ./inp_files/1294.got.cif
#   From: 2010.05.17/outbox.cif.g08.bks.cpg/sg50_1_cif.got.tgz:1294.got - 2010.06.03 11:33:33.
