data_PCOD9396409
_publ_section_title
;
Structure prediction by ZEFSAII (Michael W. Deem and Ramdas Pophale) SiO2 
 PCOD9396409
Probable space group: P B A N
;
_chemical_formula_sum "Si O2"
_cell_formula_units_Z 48
_cell_length_a 13.827578
_cell_length_b 8.627584
_cell_length_c 18.153918
_cell_angle_alpha 90.000000
_cell_angle_beta 90.000000
_cell_angle_gamma 90.000000
_cell_volume 2165.736833
_symmetry_space_group_name_H-M "P B A N"
_symmetry_group_IT_number 50
_space_group.IT_coordinate_system_code '2'
_symmetry_cell_setting 'orthorhombic'
loop_
_space_group_symop_operation_xyz
x,y,z
1/2-x,1/2-y,z
x,1/2-y,-z
1/2-x,y,-z
-x,-y,-z
1/2+x,1/2+y,-z
-x,1/2+y,z
1/2+x,-y,z
loop_
_atom_site_type_symbol
_atom_site_label
_atom_site_fract_x
_atom_site_fract_y
_atom_site_fract_z
Si Si1 0.239400 0.065643 0.912166
Si Si2 0.556916 0.386639 0.054694
Si Si3 0.965466 0.075897 0.384769
Si Si4 0.635845 0.931861 0.483444
Si Si5 0.032577 0.174994 0.720737
Si Si6 0.584266 0.566064 0.820141
O O1 0.250000 0.250000 0.899125
O O2 0.323519 0.997114 0.861736
O O3 0.139110 0.978516 0.901056
O O4 0.250000 0.045523 0.000000
O O5 0.478024 0.347088 0.116259
O O6 0.591172 0.250000 0.000000
O O7 0.500000 0.500000 0.000000
O O8 0.079240 0.045807 0.405778
O O9 0.963750 0.225508 0.333418
O O10 0.912408 0.058303 0.462164
O O11 0.917795 0.942871 0.334811
O O12 0.611257 0.750000 0.500000
O O13 0.750000 0.944969 0.500000
O O14 0.100764 0.297826 0.761270
O O15 0.974133 0.068684 0.778475
#
# Coordination Sequence:
#
# PCOD9396409 Si02
#       6
#     8   8   8   8   8   8
#     4  11  23  41  67  94 126 165 219 286 355 412
#     4  12  24  43  70  97 127 166 221 290 357 418
#     4  10  20  41  65  98 134 183 215 281 325 399
#     4  10  20  37  68 103 133 172 238 273 325 388
#     4  10  22  41  65  89 139 182 217 262 351 408
#     4  11  23  43  63  94 128 172 224 278 335 425
#
# _framework density 22.163356
#
# number of rings (size 3 to 8) (size 9 to 14) (size 15 to 20)
#    0.000    1.333    3.333    3.000    0.000    0.333 
#    0.000   15.000    0.000    0.000    0.000    0.000 
#    0.000    0.000    0.000    0.000    0.000    0.000 
#
# Total GULP energy -267535.390886 kJ/mol
# GULP energy per Si atom -5573.653977 kJ/mol
# Density = 2.211291 g / cm^3
# Si number density = 22.163356 Si / 1000 Ang^3
#
#
#
# Elastic Constant Matrix: (Units=GPa)
#
#
# Indices 1 2 3 4 5 6 
#
# 1 95.7149 12.3670 22.9488 0.0000 0.0000 0.0000
# 2 12.3670 79.5241 29.0583 0.0000 0.0000 0.0000
# 3 22.9488 29.0583 103.3210 0.0000 0.0000 0.0000
# 4 0.0000 0.0000 0.0000 45.4077 0.0000 0.0000
# 5 0.0000 0.0000 0.0000 0.0000 19.2456 0.0000
# 6 0.0000 0.0000 0.0000 0.0000 0.0000 18.1260
#
#
#
# Elastic Compliance Matrix: (Units=1/GPa)
#
#
# Indices 1 2 3 4 5 6 
#
# 1 0.011095 -0.000919 -0.002206 0.000000 0.000000 0.000000
# 2 -0.000919 0.014091 -0.003759 0.000000 0.000000 0.000000
# 3 -0.002206 -0.003759 0.011226 0.000000 0.000000 0.000000
# 4 0.000000 0.000000 0.000000 0.022023 0.000000 0.000000
# 5 0.000000 0.000000 0.000000 0.000000 0.051960 0.000000
# 6 0.000000 0.000000 0.000000 0.000000 0.000000 0.055169
#
#
# Mechanical properties :
#
#
# Convention : Reuss Voigt Hill
#
# Bulk Modulus (GPa) = 44.16171 45.25648 44.70910
# Shear Modulus (GPa) = 26.75505 30.83492 28.79499
#
# Velocity S-wave (km/s) = 3.47821 3.73400 3.60837
# Velocity P-wave (km/s) = 6.00828 6.24934 6.12999
#
# Compressibility (1/GPa) = 0.02264405
#
# Stress axis : x y z
#
# Youngs Moduli (GPa) = 90.12776 70.96578 89.08156
#
# Poissons Ratio (x) = 0.06525 0.19650
# Poissons Ratio (y) = 0.08287 0.33485
# Poissons Ratio (z) = 0.19881 0.26675
#
# Static dielectric constant tensor:
#      x y z
#    x 1.950050 0.000000 0.000000 
#    y 0.000000 1.845500 0.000000 
#    z 0.000000 0.000000 1.846810 
# 
# From -- ./inp_files/28737.got.cif
#   From: 2010.05.17/outbox.cif.g08.bks.cpg/sg50_15_cif.got.tgz:28737.got - 2010.06.03 11:33:33.
