data_PCOD9396967
_publ_section_title
;
Structure prediction by ZEFSAII (Michael W. Deem and Ramdas Pophale) SiO2 
 PCOD9396967
Probable space group: P B A N
;
_chemical_formula_sum "Si O2"
_cell_formula_units_Z 46
_cell_length_a 22.132043
_cell_length_b 16.779872
_cell_length_c 6.129044
_cell_angle_alpha 90.000000
_cell_angle_beta 90.000000
_cell_angle_gamma 90.000000
_cell_volume 2276.160530
_symmetry_space_group_name_H-M "P B A N"
_symmetry_group_IT_number 50
_space_group.IT_coordinate_system_code '2'
_symmetry_cell_setting 'orthorhombic'
loop_
_space_group_symop_operation_xyz
x,y,z
1/2-x,1/2-y,z
x,1/2-y,-z
1/2-x,y,-z
-x,-y,-z
1/2+x,1/2+y,-z
-x,1/2+y,z
1/2+x,-y,z
loop_
_atom_site_type_symbol
_atom_site_label
_atom_site_fract_x
_atom_site_fract_y
_atom_site_fract_z
Si Si1 0.250000 0.479164 0.500000
Si Si2 0.915467 0.342417 0.959521
Si Si3 0.561258 0.061710 0.580944
Si Si4 0.029429 0.400580 0.231635
Si Si5 0.836121 0.885223 0.174056
Si Si6 0.250000 0.250000 0.000000
Si Si7 0.848949 0.021324 0.799047
O O1 0.301122 0.428796 0.628126
O O2 0.285227 0.528168 0.319372
O O3 0.907339 0.367537 0.708849
O O4 0.907554 0.250000 0.000000
O O5 0.868263 0.398844 0.081034
O O6 0.982311 0.367695 0.053694
O O7 0.504845 0.102355 0.462204
O O8 0.600045 0.017365 0.393471
O O9 0.543804 0.996029 0.764284
O O10 0.095023 0.361425 0.225703
O O11 0.794551 0.809602 0.125611
O O12 0.842787 0.946418 0.966247
#
# Coordination Sequence:
#
# PCOD9396967 Si02
#       7
#     4   8   8   8   8   2   8
#     4  12  22  43  68  93 122 182 234 266 333 413
#     4  11  24  41  65 102 140 170 220 291 347 398
#     4  10  21  40  67  99 128 178 227 278 336 411
#     4  10  22  37  66  98 131 175 229 267 338 416
#     4  12  25  45  66  98 134 184 225 281 330 410
#     4  12  28  46  64 100 148 168 232 278 338 400
#     4  11  22  42  69  92 131 174 233 272 335 415
#
# _framework density 20.209471000000001
#
# number of rings (size 3 to 8) (size 9 to 14) (size 15 to 20)
#    0.000    1.043    5.217    0.522    6.087    3.130 
#    0.000    3.478    0.000   14.609    0.000    0.000 
#    0.000    0.000    0.000    0.000    0.000    0.000 
#
# Total GULP energy -256370.284759 kJ/mol
# GULP energy per Si atom -5573.267060 kJ/mol
# Density = 2.016347 g / cm^3
# Si number density = 20.209471 Si / 1000 Ang^3
#
#
#
# Elastic Constant Matrix: (Units=GPa)
#
#
# Indices 1 2 3 4 5 6 
#
# 1 120.0240 32.8981 39.9954 0.0000 0.0000 0.0000
# 2 32.8981 111.3525 44.7149 0.0000 0.0000 0.0000
# 3 39.9954 44.7149 67.1631 0.0000 0.0000 0.0000
# 4 0.0000 0.0000 0.0000 8.2576 0.0000 0.0000
# 5 0.0000 0.0000 0.0000 0.0000 32.5150 0.0000
# 6 0.0000 0.0000 0.0000 0.0000 0.0000 25.0444
#
#
#
# Elastic Compliance Matrix: (Units=1/GPa)
#
#
# Indices 1 2 3 4 5 6 
#
# 1 0.010447 -0.000803 -0.005686 0.000000 0.000000 0.000000
# 2 -0.000803 0.012319 -0.007724 0.000000 0.000000 0.000000
# 3 -0.005686 -0.007724 0.023417 0.000000 0.000000 0.000000
# 4 0.000000 0.000000 0.000000 0.121101 0.000000 0.000000
# 5 0.000000 0.000000 0.000000 0.000000 0.030755 0.000000
# 6 0.000000 0.000000 0.000000 0.000000 0.000000 0.039929
#
#
# Mechanical properties :
#
#
# Convention : Reuss Voigt Hill
#
# Bulk Modulus (GPa) = 56.31415 59.30627 57.81021
# Shear Modulus (GPa) = 18.36119 25.22546 21.79332
#
# Velocity S-wave (km/s) = 3.01748 3.53682 3.28742
# Velocity P-wave (km/s) = 6.32977 6.78883 6.56332
#
# Compressibility (1/GPa) = 0.01775753
#
# Stress axis : x y z
#
# Youngs Moduli (GPa) = 95.72491 81.17414 42.70331
#
# Poissons Ratio (x) = 0.06518 0.24283
# Poissons Ratio (y) = 0.07686 0.32982
# Poissons Ratio (z) = 0.54432 0.62695
#
# Static dielectric constant tensor:
#      x y z
#    x 1.760950 0.000000 0.000000 
#    y 0.000000 1.715300 0.000000 
#    z 0.000000 0.000000 1.806740 
# 
# From -- ./inp_files/6014.got.cif
#   From: 2010.05.17/outbox.cif.g08.bks.cpg/sg50_4_cif.got.tgz:6014.got - 2010.06.03 11:33:33.
