data_PCOD9396163
_publ_section_title
;
Structure prediction by ZEFSAII (Michael W. Deem and Ramdas Pophale) SiO2 
 PCOD9396163
Probable space group: P B A N
;
_chemical_formula_sum "Si O2"
_cell_formula_units_Z 40
_cell_length_a 13.163554
_cell_length_b 10.900712
_cell_length_c 11.743146
_cell_angle_alpha 90.000000
_cell_angle_beta 90.000000
_cell_angle_gamma 90.000000
_cell_volume 1685.048810
_symmetry_space_group_name_H-M "P B A N"
_symmetry_group_IT_number 50
_space_group.IT_coordinate_system_code '2'
_symmetry_cell_setting 'orthorhombic'
loop_
_space_group_symop_operation_xyz
x,y,z
1/2-x,1/2-y,z
x,1/2-y,-z
1/2-x,y,-z
-x,-y,-z
1/2+x,1/2+y,-z
-x,1/2+y,z
1/2+x,-y,z
loop_
_atom_site_type_symbol
_atom_site_label
_atom_site_fract_x
_atom_site_fract_y
_atom_site_fract_z
Si Si1 0.371626 0.615707 0.551644
Si Si2 0.337946 0.650394 0.808248
Si Si3 0.608170 0.943933 0.961346
Si Si4 0.918328 0.792585 0.823872
Si Si5 0.885800 0.631630 0.424567
O O1 0.348617 0.750000 0.500000
O O2 0.327906 0.602442 0.678738
O O3 0.492729 0.618963 0.565939
O O4 0.349034 0.499874 0.470590
O O5 0.250000 0.750000 0.823382
O O6 0.326667 0.550928 0.906943
O O7 0.457754 0.690901 0.818524
O O8 0.594375 0.848139 0.858352
O O9 0.634725 0.868731 0.074439
O O10 0.500000 0.000000 0.000000
O O11 0.868461 0.835519 0.706710
O O12 0.857186 0.750000 0.500000
#
# Coordination Sequence:
#
# PCOD9396163 Si02
#       5
#     8   8   8   8   8
#     4   9  18  30  49  81 121 158 198 255 315 375
#     4  10  20  34  56  89 127 162 208 269 332 385
#     4   9  18  34  55  84 122 164 214 266 317 383
#     4   9  18  33  57  87 122 171 220 266 317 387
#     4   9  16  29  53  84 114 153 209 258 303 372
#
# _framework density 23.738185999999999
#
# number of rings (size 3 to 8) (size 9 to 14) (size 15 to 20)
#    0.000    2.800    0.000    1.200    0.000   10.000 
#    0.000    8.000    0.000    1.200    0.000   56.000 
#    0.000   20.800    0.000    0.000    0.000    0.600 
#
# Total GULP energy -223445.346309 kJ/mol
# GULP energy per Si atom -5586.133658 kJ/mol
# Density = 2.368416 g / cm^3
# Si number density = 23.738186 Si / 1000 Ang^3
#
#
#
# Elastic Constant Matrix: (Units=GPa)
#
#
# Indices 1 2 3 4 5 6 
#
# 1 102.4281 43.9604 51.6558 0.0000 0.0000 0.0000
# 2 43.9604 199.6491 130.8538 0.0000 0.0000 0.0000
# 3 51.6558 130.8538 208.1581 0.0000 0.0000 0.0000
# 4 0.0000 0.0000 0.0000 35.2395 0.0000 0.0000
# 5 0.0000 0.0000 0.0000 0.0000 17.8497 0.0000
# 6 0.0000 0.0000 0.0000 0.0000 0.0000 -35.4012
#
#
#
# Elastic Compliance Matrix: (Units=1/GPa)
#
#
# Indices 1 2 3 4 5 6 
#
# 1 0.011301 -0.001106 -0.002109 0.000000 0.000000 0.000000
# 2 -0.001106 0.008627 -0.005149 0.000000 0.000000 0.000000
# 3 -0.002109 -0.005149 0.008564 0.000000 0.000000 0.000000
# 4 0.000000 0.000000 0.000000 0.028377 0.000000 0.000000
# 5 0.000000 0.000000 0.000000 0.000000 0.056023 0.000000
# 6 0.000000 0.000000 0.000000 0.000000 0.000000 -0.028248
#
#
# Mechanical properties :
#
#
# Convention : Reuss Voigt Hill
#
# Bulk Modulus (GPa) = 85.00143 107.01948 96.01046
# Shear Modulus (GPa) = 47.48603 22.45529 34.97066
#
# Velocity S-wave (km/s) = 4.47744 3.07898 3.84237
# Velocity P-wave (km/s) = 7.91300 7.60403 7.76005
#
# Compressibility (1/GPa) = 0.01176451
#
# Stress axis : x y z
#
# Youngs Moduli (GPa) = 88.48513 115.91798 116.76793
#
# Poissons Ratio (x) = 0.12820 0.24629
# Poissons Ratio (y) = 0.09786 0.60119
# Poissons Ratio (z) = 0.18664 0.59681
#
# Static dielectric constant tensor:
#      x y z
#    x 1.946280 0.000000 0.000000 
#    y 0.000000 18.004550 0.000000 
#    z 0.000000 0.000000 1.857680 
# 
# From -- ./inp_files/21597.got.cif
#   From: 2010.05.17/outbox.cif.g08.bks.cpg/sg50_11_cif.got.tgz:21597.got - 2010.06.03 11:33:33.
