data_PCOD9396545
_publ_section_title
;
Structure prediction by ZEFSAII (Michael W. Deem and Ramdas Pophale) SiO2 
 PCOD9396545
Probable space group: P B A N
;
_chemical_formula_sum "Si O2"
_cell_formula_units_Z 48
_cell_length_a 16.514794
_cell_length_b 18.318251
_cell_length_c 7.432804
_cell_angle_alpha 90.000000
_cell_angle_beta 90.000000
_cell_angle_gamma 90.000000
_cell_volume 2248.587785
_symmetry_space_group_name_H-M "P B A N"
_symmetry_group_IT_number 50
_space_group.IT_coordinate_system_code '2'
_symmetry_cell_setting 'orthorhombic'
loop_
_space_group_symop_operation_xyz
x,y,z
1/2-x,1/2-y,z
x,1/2-y,-z
1/2-x,y,-z
-x,-y,-z
1/2+x,1/2+y,-z
-x,1/2+y,z
1/2+x,-y,z
loop_
_atom_site_type_symbol
_atom_site_label
_atom_site_fract_x
_atom_site_fract_y
_atom_site_fract_z
Si Si1 0.750000 0.250000 0.500000
Si Si2 0.987007 0.040933 0.191548
Si Si3 0.878615 0.917587 0.294019
Si Si4 0.536064 0.766419 0.788495
Si Si5 0.362666 0.132214 0.681876
Si Si6 0.622646 0.316144 0.252970
Si Si7 0.750000 0.250000 0.000000
Si Si8 0.750000 0.900947 0.000000
O O1 0.683988 0.307158 0.418434
O O2 0.928886 0.112236 0.204323
O O3 0.073748 0.070862 0.252317
O O4 0.942087 0.982591 0.316941
O O5 0.000000 0.000000 0.000000
O O6 0.931024 0.847057 0.238719
O O7 0.838192 0.893825 0.482581
O O8 0.817386 0.938554 0.130144
O O9 0.589359 0.708277 0.678584
O O10 0.443380 0.749226 0.739022
O O11 0.544148 0.750000 0.000000
O O12 0.297858 0.141276 0.842313
O O13 0.688282 0.301856 0.100881
#
# Coordination Sequence:
#
# PCOD9396545 Si02
#       8
#     2   8   8   8   8   8   2   4
#     4  10  24  46  64 110 144 172 234 310 364 406
#     4  11  23  47  68 100 139 185 237 285 360 435
#     4  12  25  43  70 100 135 183 231 290 353 428
#     4  11  21  43  71  94 131 182 236 288 341 426
#     4  11  25  44  68  98 130 181 236 283 345 420
#     4  10  23  41  69 100 134 182 232 289 355 426
#     4  10  20  40  64 100 132 176 238 274 352 412
#     4  12  24  46  64  95 142 169 232 290 350 412
#
# _framework density 21.346730999999998
#
# number of rings (size 3 to 8) (size 9 to 14) (size 15 to 20)
#    0.000    1.000    4.167    2.500    4.667    2.000 
#    3.000    1.667    0.000    0.000    0.000    0.000 
#    0.000    0.000    0.000    0.000    0.000    0.000 
#
# Total GULP energy -267338.974643 kJ/mol
# GULP energy per Si atom -5569.561972 kJ/mol
# Density = 2.129814 g / cm^3
# Si number density = 21.346731 Si / 1000 Ang^3
#
#
#
# Elastic Constant Matrix: (Units=GPa)
#
#
# Indices 1 2 3 4 5 6 
#
# 1 124.5084 39.1352 44.6490 0.0000 0.0000 0.0000
# 2 39.1352 82.2960 23.2070 0.0000 0.0000 0.0000
# 3 44.6490 23.2070 113.4436 0.0000 0.0000 0.0000
# 4 0.0000 0.0000 0.0000 19.9616 0.0000 0.0000
# 5 0.0000 0.0000 0.0000 0.0000 40.6967 0.0000
# 6 0.0000 0.0000 0.0000 0.0000 0.0000 -63.7309
#
#
#
# Elastic Compliance Matrix: (Units=1/GPa)
#
#
# Indices 1 2 3 4 5 6 
#
# 1 0.010490 -0.004058 -0.003298 0.000000 0.000000 0.000000
# 2 -0.004058 0.014465 -0.001362 0.000000 0.000000 0.000000
# 3 -0.003298 -0.001362 0.010392 0.000000 0.000000 0.000000
# 4 0.000000 0.000000 0.000000 0.050096 0.000000 0.000000
# 5 0.000000 0.000000 0.000000 0.000000 0.024572 0.000000
# 6 0.000000 0.000000 0.000000 0.000000 0.000000 -0.015691
#
#
# Mechanical properties :
#
#
# Convention : Reuss Voigt Hill
#
# Bulk Modulus (GPa) = 55.83558 59.35895 57.59726
# Shear Modulus (GPa) = 42.46958 13.60261 28.03610
#
# Velocity S-wave (km/s) = 4.46523 2.52706 3.62797
# Velocity P-wave (km/s) = 7.26620 6.03176 6.67757
#
# Compressibility (1/GPa) = 0.01790973
#
# Stress axis : x y z
#
# Youngs Moduli (GPa) = 95.32879 69.13145 96.23027
#
# Poissons Ratio (x) = 0.28056 0.31741
# Poissons Ratio (y) = 0.38687 0.13105
# Poissons Ratio (z) = 0.31444 0.09415
#
# Static dielectric constant tensor:
#      x y z
#    x 1.780250 0.000000 0.000000 
#    y 0.000000 1.729570 0.000000 
#    z 0.000000 0.000000 1.860160 
# 
# From -- ./inp_files/13057.got.cif
#   From: 2010.05.17/outbox.cif.g08.bks.cpg/sg50_7_cif.got.tgz:13057.got - 2010.06.03 11:33:33.
