data_PCOD9396164
_publ_section_title
;
Structure prediction by ZEFSAII (Michael W. Deem and Ramdas Pophale) SiO2 
 PCOD9396164
Probable space group: P B A N
;
_chemical_formula_sum "Si O2"
_cell_formula_units_Z 58
_cell_length_a 12.142551
_cell_length_b 8.850611
_cell_length_c 29.681798
_cell_angle_alpha 90.000000
_cell_angle_beta 90.000000
_cell_angle_gamma 90.000000
_cell_volume 3189.873014
_symmetry_space_group_name_H-M "P B A N"
_symmetry_group_IT_number 50
_space_group.IT_coordinate_system_code '2'
_symmetry_cell_setting 'orthorhombic'
loop_
_space_group_symop_operation_xyz
x,y,z
1/2-x,1/2-y,z
x,1/2-y,-z
1/2-x,y,-z
-x,-y,-z
1/2+x,1/2+y,-z
-x,1/2+y,z
1/2+x,-y,z
loop_
_atom_site_type_symbol
_atom_site_label
_atom_site_fract_x
_atom_site_fract_y
_atom_site_fract_z
Si Si1 0.250000 0.750000 0.000000
Si Si2 0.620851 0.724018 0.203877
Si Si3 0.559159 0.878059 0.468023
Si Si4 0.368899 0.825736 0.579351
Si Si5 0.119401 0.220153 0.902017
Si Si6 0.876927 0.226538 0.685405
Si Si7 0.947014 0.070960 0.045135
Si Si8 0.494510 0.524737 0.739456
O O1 0.164381 0.656683 0.030575
O O2 0.750000 0.750000 0.208122
O O3 0.593259 0.727883 0.150983
O O4 0.558329 0.857356 0.229503
O O5 0.587568 0.569494 0.228780
O O6 0.616001 0.750000 0.500000
O O7 0.465274 0.778911 0.442480
O O8 0.500000 0.000000 0.500000
O O9 0.625908 0.997358 0.436497
O O10 0.250000 0.750000 0.568289
O O11 0.386696 0.814656 0.632944
O O12 0.250000 0.250000 0.908461
O O13 0.041263 0.329891 0.931058
O O14 0.089872 0.056397 0.920389
O O15 0.750000 0.250000 0.695717
O O16 0.937228 0.380302 0.699800
O O17 0.925622 0.094756 0.716054
O O18 0.000000 0.000000 0.000000
#
# Coordination Sequence:
#
# PCOD9396164 Si02
#       8
#     2   8   8   8   8   8   8   8
#     4  12  24  40  64  88 116 152 194 238 284 344
#     4  10  21  38  58  83 114 148 187 229 277 338
#     4   9  19  35  54  78 109 146 189 232 280 337
#     4  10  20  36  56  81 113 147 189 237 285 335
#     4  11  24  40  62  86 117 153 192 239 287 342
#     4  10  20  34  57  84 111 147 186 230 282 333
#     4  12  23  42  62  87 117 151 195 237 292 343
#     4  10  20  36  58  82 115 147 184 229 281 334
#
# _framework density 18.182542000000002
#
# number of rings (size 3 to 8) (size 9 to 14) (size 15 to 20)
#    0.000    1.655    1.379    3.310    0.000    3.034 
#    0.000    4.828    3.034   11.586    0.000    0.000 
#    0.000    0.000    0.000    0.000    0.000    0.000 
#
# Total GULP energy -323485.358130 kJ/mol
# GULP energy per Si atom -5577.333761 kJ/mol
# Density = 1.814116 g / cm^3
# Si number density = 18.182542 Si / 1000 Ang^3
#
#
#
# Elastic Constant Matrix: (Units=GPa)
#
#
# Indices 1 2 3 4 5 6 
#
# 1 101.5539 59.3804 66.7118 0.0000 0.0000 0.0000
# 2 59.3804 136.9032 61.5245 0.0000 0.0000 0.0000
# 3 66.7118 61.5245 101.6522 0.0000 0.0000 0.0000
# 4 0.0000 0.0000 0.0000 28.5320 0.0000 0.0000
# 5 0.0000 0.0000 0.0000 0.0000 28.8206 0.0000
# 6 0.0000 0.0000 0.0000 0.0000 0.0000 25.3535
#
#
#
# Elastic Compliance Matrix: (Units=1/GPa)
#
#
# Indices 1 2 3 4 5 6 
#
# 1 0.018467 -0.003521 -0.009989 0.000000 0.000000 0.000000
# 2 -0.003521 0.010705 -0.004168 0.000000 0.000000 0.000000
# 3 -0.009989 -0.004168 0.018915 0.000000 0.000000 0.000000
# 4 0.000000 0.000000 0.000000 0.035048 0.000000 0.000000
# 5 0.000000 0.000000 0.000000 0.000000 0.034697 0.000000
# 6 0.000000 0.000000 0.000000 0.000000 0.000000 0.039442
#
#
# Mechanical properties :
#
#
# Convention : Reuss Voigt Hill
#
# Bulk Modulus (GPa) = 78.54263 79.48251 79.01257
# Shear Modulus (GPa) = 25.39671 26.70740 26.05205
#
# Velocity S-wave (km/s) = 3.74138 3.83671 3.78935
# Velocity P-wave (km/s) = 7.87111 7.96465 7.91802
#
# Compressibility (1/GPa) = 0.01273194
#
# Stress axis : x y z
#
# Youngs Moduli (GPa) = 54.14920 93.41495 52.86674
#
# Poissons Ratio (x) = 0.32894 0.52806
# Poissons Ratio (y) = 0.19067 0.22036
# Poissons Ratio (z) = 0.54087 0.38937
#
# Static dielectric constant tensor:
#      x y z
#    x 1.604400 0.000000 0.000000 
#    y 0.000000 1.053870 0.000000 
#    z 0.000000 0.000000 1.631270 
# 
# From -- ./inp_files/32146.got.cif
#   From: 2010.05.17/outbox.cif.g08.bks.cpg/sg50_17_cif.got.tgz:32146.got - 2010.06.03 11:33:33.
