data_PCOD9396036
_publ_section_title
;
Structure prediction by ZEFSAII (Michael W. Deem and Ramdas Pophale) SiO2 
 PCOD9396036
Probable space group: P B A N
;
_chemical_formula_sum "Si O2"
_cell_formula_units_Z 40
_cell_length_a 15.237701
_cell_length_b 14.253655
_cell_length_c 7.519136
_cell_angle_alpha 90.000000
_cell_angle_beta 90.000000
_cell_angle_gamma 90.000000
_cell_volume 1633.103202
_symmetry_space_group_name_H-M "P B A N"
_symmetry_group_IT_number 50
_space_group.IT_coordinate_system_code '2'
_symmetry_cell_setting 'orthorhombic'
loop_
_space_group_symop_operation_xyz
x,y,z
1/2-x,1/2-y,z
x,1/2-y,-z
1/2-x,y,-z
-x,-y,-z
1/2+x,1/2+y,-z
-x,1/2+y,z
1/2+x,-y,z
loop_
_atom_site_type_symbol
_atom_site_label
_atom_site_fract_x
_atom_site_fract_y
_atom_site_fract_z
Si Si1 0.220490 0.350971 0.295006
Si Si2 0.911581 0.150604 0.804026
Si Si3 0.949163 0.374225 0.814317
Si Si4 0.542330 0.861443 0.524153
Si Si5 0.240838 0.551750 0.284898
O O1 0.250000 0.250000 0.216531
O O2 0.250000 0.345258 0.500000
O O3 0.118715 0.376228 0.331073
O O4 0.261902 0.445765 0.219574
O O5 0.928212 0.262249 0.799047
O O6 0.810012 0.122858 0.802322
O O7 0.953005 0.112496 0.622804
O O8 0.961215 0.110698 0.976350
O O9 0.858396 0.422404 0.760536
O O10 0.028247 0.397233 0.677706
O O11 0.550071 0.750000 0.500000
O O12 0.250000 0.554657 0.500000
#
# Coordination Sequence:
#
# PCOD9396036 Si02
#       5
#     8   8   8   8   8
#     4  10  21  41  66  91 119 171 220 263 311 367
#     4  10  21  38  63  98 132 165 201 258 321 384
#     4  10  21  37  65  97 133 164 202 258 321 384
#     4  10  19  38  68  92 121 165 214 259 312 375
#     4  11  21  36  62  95 129 169 209 252 319 380
#
# _framework density 24.493247
#
# number of rings (size 3 to 8) (size 9 to 14) (size 15 to 20)
#    0.000    1.800    4.000    1.200    0.000    3.200 
#    0.000    1.000    8.800    3.600    0.000    0.000 
#    0.000    0.000    0.000    0.000    0.000    0.000 
#
# Total GULP energy -223133.934393 kJ/mol
# GULP energy per Si atom -5578.348360 kJ/mol
# Density = 2.443750 g / cm^3
# Si number density = 24.493247 Si / 1000 Ang^3
#
#
#
# Elastic Constant Matrix: (Units=GPa)
#
#
# Indices 1 2 3 4 5 6 
#
# 1 87.5848 6.7144 2.2534 0.0000 0.0000 0.0000
# 2 6.7144 94.7982 15.0261 0.0000 0.0000 0.0000
# 3 2.2534 15.0261 100.7216 0.0000 0.0000 0.0000
# 4 0.0000 0.0000 0.0000 16.4829 0.0000 0.0000
# 5 0.0000 0.0000 0.0000 0.0000 -36.6338 0.0000
# 6 0.0000 0.0000 0.0000 0.0000 0.0000 15.2232
#
#
#
# Elastic Compliance Matrix: (Units=1/GPa)
#
#
# Indices 1 2 3 4 5 6 
#
# 1 0.011482 -0.000791 -0.000139 0.000000 0.000000 0.000000
# 2 -0.000791 0.010859 -0.001602 0.000000 0.000000 0.000000
# 3 -0.000139 -0.001602 0.010170 0.000000 0.000000 0.000000
# 4 0.000000 0.000000 0.000000 0.060669 0.000000 0.000000
# 5 0.000000 0.000000 0.000000 0.000000 -0.027297 0.000000
# 6 0.000000 0.000000 0.000000 0.000000 0.000000 0.065689
#
#
# Mechanical properties :
#
#
# Convention : Reuss Voigt Hill
#
# Bulk Modulus (GPa) = 36.43473 36.78803 36.61138
# Shear Modulus (GPa) = 34.29700 16.28850 25.29275
#
# Velocity S-wave (km/s) = 3.74607 2.58160 3.21696
# Velocity P-wave (km/s) = 5.79814 4.89269 5.36455
#
# Compressibility (1/GPa) = 0.02744634
#
# Stress axis : x y z
#
# Youngs Moduli (GPa) = 87.09483 92.09178 98.32361
#
# Poissons Ratio (x) = 0.07287 0.01365
# Poissons Ratio (y) = 0.06891 0.15754
# Poissons Ratio (z) = 0.01209 0.14755
#
# Static dielectric constant tensor:
#      x y z
#    x 2.560620 0.000000 0.000000 
#    y 0.000000 1.988530 0.000000 
#    z 0.000000 0.000000 1.959820 
# 
# From -- ./inp_files/12546.got.cif
#   From: 2010.05.17/outbox.cif.g08.bks.cpg/sg50_7_cif.got.tgz:12546.got - 2010.06.03 11:33:33.
