data_PCOD9396468
_publ_section_title
;
Structure prediction by ZEFSAII (Michael W. Deem and Ramdas Pophale) SiO2 
 PCOD9396468
Probable space group: P B A N
;
_chemical_formula_sum "Si O2"
_cell_formula_units_Z 46
_cell_length_a 10.439894
_cell_length_b 23.751001
_cell_length_c 9.635701
_cell_angle_alpha 90.000000
_cell_angle_beta 90.000000
_cell_angle_gamma 90.000000
_cell_volume 2389.248501
_symmetry_space_group_name_H-M "P B A N"
_symmetry_group_IT_number 50
_space_group.IT_coordinate_system_code '2'
_symmetry_cell_setting 'orthorhombic'
loop_
_space_group_symop_operation_xyz
x,y,z
1/2-x,1/2-y,z
x,1/2-y,-z
1/2-x,y,-z
-x,-y,-z
1/2+x,1/2+y,-z
-x,1/2+y,z
1/2+x,-y,z
loop_
_atom_site_type_symbol
_atom_site_label
_atom_site_fract_x
_atom_site_fract_y
_atom_site_fract_z
Si Si1 0.557441 0.475400 0.644829
Si Si2 0.520334 0.186438 0.549457
Si Si3 0.378218 0.343765 0.175121
Si Si4 0.163043 0.391878 0.372806
Si Si5 0.750000 0.750000 0.000000
Si Si6 0.750000 0.396981 0.500000
Si Si7 0.890813 0.962371 0.926804
O O1 0.500000 0.500000 0.500000
O O2 0.439069 0.435485 0.688865
O O3 0.680689 0.437443 0.609836
O O4 0.599742 0.517958 0.764763
O O5 0.546709 0.250000 0.500000
O O6 0.467447 0.179765 0.703832
O O7 0.415896 0.158631 0.445653
O O8 0.640013 0.144659 0.549592
O O9 0.254339 0.368685 0.254610
O O10 0.337886 0.290895 0.087511
O O11 0.424937 0.395975 0.081335
O O12 0.250000 0.416346 0.500000
O O13 0.750000 0.969456 0.000000
O O14 0.000000 0.000000 0.000000
#
# Coordination Sequence:
#
# PCOD9396468 Si02
#       7
#     8   8   8   8   2   4   8
#     4  11  24  38  67  94 134 172 215 273 333 407
#     4  10  20  38  64  93 126 161 211 278 335 389
#     4  11  23  41  64  91 129 167 222 269 332 391
#     4   9  19  37  61  96 123 159 211 272 332 389
#     4  12  24  40  62  88 122 176 228 272 302 404
#     4  10  23  38  62 100 126 163 212 266 340 398
#     4  12  27  44  67  98 142 183 225 276 349 425
#
# _framework density 19.252917
#
# number of rings (size 3 to 8) (size 9 to 14) (size 15 to 20)
#    0.000    1.391    0.870    5.478    8.522    2.435 
#    0.000    0.000    0.000    0.000    0.000    0.000 
#    0.000    0.000    0.000    0.000    0.000    0.000 
#
# Total GULP energy -256840.740366 kJ/mol
# GULP energy per Si atom -5583.494356 kJ/mol
# Density = 1.920910 g / cm^3
# Si number density = 19.252917 Si / 1000 Ang^3
#
#
#
# Elastic Constant Matrix: (Units=GPa)
#
#
# Indices 1 2 3 4 5 6 
#
# 1 62.1116 36.9964 29.9947 0.0000 0.0000 0.0000
# 2 36.9964 142.2099 56.0892 0.0000 0.0000 0.0000
# 3 29.9947 56.0892 92.2426 0.0000 0.0000 0.0000
# 4 0.0000 0.0000 0.0000 30.1491 0.0000 0.0000
# 5 0.0000 0.0000 0.0000 0.0000 19.9885 0.0000
# 6 0.0000 0.0000 0.0000 0.0000 0.0000 19.5724
#
#
#
# Elastic Compliance Matrix: (Units=1/GPa)
#
#
# Indices 1 2 3 4 5 6 
#
# 1 0.020365 -0.003534 -0.004474 0.000000 0.000000 0.000000
# 2 -0.003534 0.009863 -0.004849 0.000000 0.000000 0.000000
# 3 -0.004474 -0.004849 0.015244 0.000000 0.000000 0.000000
# 4 0.000000 0.000000 0.000000 0.033168 0.000000 0.000000
# 5 0.000000 0.000000 0.000000 0.000000 0.050029 0.000000
# 6 0.000000 0.000000 0.000000 0.000000 0.000000 0.051092
#
#
# Mechanical properties :
#
#
# Convention : Reuss Voigt Hill
#
# Bulk Modulus (GPa) = 50.60454 60.30275 55.45365
# Shear Modulus (GPa) = 23.57816 25.50758 24.54287
#
# Velocity S-wave (km/s) = 3.50330 3.64382 3.57425
# Velocity P-wave (km/s) = 6.53493 7.00661 6.77488
#
# Compressibility (1/GPa) = 0.01976107
#
# Stress axis : x y z
#
# Youngs Moduli (GPa) = 49.10338 101.38403 65.60011
#
# Poissons Ratio (x) = 0.35826 0.29346
# Poissons Ratio (y) = 0.17352 0.31807
# Poissons Ratio (z) = 0.21966 0.49157
#
# Static dielectric constant tensor:
#      x y z
#    x 1.625380 0.000000 0.000000 
#    y 0.000000 1.717860 0.000000 
#    z 0.000000 0.000000 1.722930 
# 
# From -- ./inp_files/11582.got.cif
#   From: 2010.05.17/outbox.cif.g08.bks.cpg/sg50_6_cif.got.tgz:11582.got - 2010.06.03 11:33:33.
