data_PCOD9396790
_publ_section_title
;
Structure prediction by ZEFSAII (Michael W. Deem and Ramdas Pophale) SiO2 
 PCOD9396790
Probable space group: P B A N
;
_chemical_formula_sum "Si O2"
_cell_formula_units_Z 44
_cell_length_a 8.464415
_cell_length_b 15.774172
_cell_length_c 13.984618
_cell_angle_alpha 90.000000
_cell_angle_beta 90.000000
_cell_angle_gamma 90.000000
_cell_volume 1867.214142
_symmetry_space_group_name_H-M "P B A N"
_symmetry_group_IT_number 50
_space_group.IT_coordinate_system_code '2'
_symmetry_cell_setting 'orthorhombic'
loop_
_space_group_symop_operation_xyz
x,y,z
1/2-x,1/2-y,z
x,1/2-y,-z
1/2-x,y,-z
-x,-y,-z
1/2+x,1/2+y,-z
-x,1/2+y,z
1/2+x,-y,z
loop_
_atom_site_type_symbol
_atom_site_label
_atom_site_fract_x
_atom_site_fract_y
_atom_site_fract_z
Si Si1 0.250000 0.250000 0.500000
Si Si2 0.259490 0.060906 0.801223
Si Si3 0.215131 0.965381 0.397276
Si Si4 0.064317 0.336317 0.334462
Si Si5 0.109851 0.889960 0.863955
Si Si6 0.866874 0.182088 0.332254
Si Si7 0.750000 0.250000 0.000000
O O1 0.163006 0.314058 0.428312
O O2 0.130196 0.129234 0.766921
O O3 0.423917 0.094314 0.843890
O O4 0.290561 0.026034 0.693308
O O5 0.188232 0.984454 0.866088
O O6 0.250000 0.004469 0.500000
O O7 0.370086 0.902977 0.391243
O O8 0.069057 0.901784 0.374531
O O9 0.014305 0.239378 0.311398
O O10 0.192622 0.849647 0.769991
O O11 0.142819 0.818068 0.942008
O O12 0.750000 0.250000 0.379563
#
# Coordination Sequence:
#
# PCOD9396790 Si02
#       7
#     2   8   8   8   8   8   2
#     4  12  24  32  54  96 144 176 268 298 332 376
#     4  11  24  43  70  99 153 189 236 300 380 442
#     4  10  21  37  63  96 142 200 250 292 345 418
#     4  11  22  39  60  97 139 207 241 313 335 427
#     4  11  24  47  72 110 136 189 231 306 396 459
#     4   9  19  39  65  91 136 184 233 284 361 424
#     4  12  28  48  88 106 138 174 258 328 380 504
#
# _framework density 23.564516999999999
#
# number of rings (size 3 to 8) (size 9 to 14) (size 15 to 20)
#    0.000    1.455    2.727    2.182    1.273    5.455 
#    0.000    0.000    0.000    4.364    0.000    0.000 
#    0.000    0.000    0.000    0.000    0.000    0.000 
#
# Total GULP energy -244936.115386 kJ/mol
# GULP energy per Si atom -5566.729895 kJ/mol
# Density = 2.351088 g / cm^3
# Si number density = 23.564517 Si / 1000 Ang^3
#
#
#
# Elastic Constant Matrix: (Units=GPa)
#
#
# Indices 1 2 3 4 5 6 
#
# 1 88.6958 48.1840 33.9654 0.0000 0.0000 0.0000
# 2 48.1840 126.6995 48.2229 0.0000 0.0000 0.0000
# 3 33.9654 48.2229 73.2292 0.0000 0.0000 0.0000
# 4 0.0000 0.0000 0.0000 7.7509 0.0000 0.0000
# 5 0.0000 0.0000 0.0000 0.0000 5.6198 0.0000
# 6 0.0000 0.0000 0.0000 0.0000 0.0000 37.9768
#
#
#
# Elastic Compliance Matrix: (Units=1/GPa)
#
#
# Indices 1 2 3 4 5 6 
#
# 1 0.015170 -0.004125 -0.004320 0.000000 0.000000 0.000000
# 2 -0.004125 0.011654 -0.005761 0.000000 0.000000 0.000000
# 3 -0.004320 -0.005761 0.019453 0.000000 0.000000 0.000000
# 4 0.000000 0.000000 0.000000 0.129017 0.000000 0.000000
# 5 0.000000 0.000000 0.000000 0.000000 0.177942 0.000000
# 6 0.000000 0.000000 0.000000 0.000000 0.000000 0.026332
#
#
# Mechanical properties :
#
#
# Convention : Reuss Voigt Hill
#
# Bulk Modulus (GPa) = 55.97452 61.04101 58.50776
# Shear Modulus (GPa) = 12.07920 20.81966 16.44943
#
# Velocity S-wave (km/s) = 2.26653 2.97563 2.64495
# Velocity P-wave (km/s) = 5.53668 6.14539 5.84896
#
# Compressibility (1/GPa) = 0.01786527
#
# Stress axis : x y z
#
# Youngs Moduli (GPa) = 65.92167 85.80599 51.40527
#
# Poissons Ratio (x) = 0.35394 0.22205
# Poissons Ratio (y) = 0.27192 0.29616
# Poissons Ratio (z) = 0.28476 0.49436
#
# Static dielectric constant tensor:
#      x y z
#    x 2.157550 0.000000 0.000000 
#    y 0.000000 2.108780 0.000000 
#    z 0.000000 0.000000 1.897630 
# 
# From -- ./inp_files/24928.got.cif
#   From: 2010.05.17/outbox.cif.g08.bks.cpg/sg50_13_cif.got.tgz:24928.got - 2010.06.03 11:33:33.
