data_PCOD9396919
_publ_section_title
;
Structure prediction by ZEFSAII (Michael W. Deem and Ramdas Pophale) SiO2 
 PCOD9396919
Probable space group: P B A N
;
_chemical_formula_sum "Si O2"
_cell_formula_units_Z 52
_cell_length_a 14.428424
_cell_length_b 8.180946
_cell_length_c 19.791683
_cell_angle_alpha 90.000000
_cell_angle_beta 90.000000
_cell_angle_gamma 90.000000
_cell_volume 2336.173797
_symmetry_space_group_name_H-M "P B A N"
_symmetry_group_IT_number 50
_space_group.IT_coordinate_system_code '2'
_symmetry_cell_setting 'orthorhombic'
loop_
_space_group_symop_operation_xyz
x,y,z
1/2-x,1/2-y,z
x,1/2-y,-z
1/2-x,y,-z
-x,-y,-z
1/2+x,1/2+y,-z
-x,1/2+y,z
1/2+x,-y,z
loop_
_atom_site_type_symbol
_atom_site_label
_atom_site_fract_x
_atom_site_fract_y
_atom_site_fract_z
Si Si1 0.461930 0.750000 0.500000
Si Si2 0.537644 0.425875 0.929968
Si Si3 0.796456 0.923229 0.855098
Si Si4 0.101967 0.634597 0.294970
Si Si5 0.308651 0.507827 0.296911
Si Si6 0.608654 0.396821 0.137872
Si Si7 0.561548 0.523387 0.603073
O O1 0.527094 0.637347 0.543963
O O2 0.413737 0.639902 0.441606
O O3 0.618790 0.543939 0.904106
O O4 0.580240 0.247236 0.914123
O O5 0.448567 0.443432 0.882367
O O6 0.500000 0.500000 0.000000
O O7 0.750000 0.750000 0.866907
O O8 0.827748 0.938118 0.777199
O O9 0.717137 0.061440 0.864260
O O10 0.200038 0.541374 0.302158
O O11 0.131014 0.824708 0.307359
O O12 0.079922 0.638699 0.214892
O O13 0.023748 0.547588 0.341278
O O14 0.350225 0.404994 0.357570
#
# Coordination Sequence:
#
# PCOD9396919 Si02
#       7
#     4   8   8   8   8   8   8
#     4  10  24  38  60  92 138 180 224 260 336 412
#     4  12  25  44  68 101 138 187 231 272 346 438
#     4  11  24  45  71 103 138 176 227 303 361 410
#     4  10  21  39  69  98 126 174 221 285 343 401
#     4  10  21  41  68  98 130 164 231 279 348 403
#     4  11  24  43  70 101 139 173 232 293 348 415
#     4  11  21  42  63  94 133 181 218 279 332 405
#
# _framework density 22.258617000000001
#
# number of rings (size 3 to 8) (size 9 to 14) (size 15 to 20)
#    0.000    1.231    3.077    2.769    0.000    3.077 
#    0.000    6.923    0.000    0.000    0.000    0.000 
#    0.000    0.000    0.000    0.000    0.000    0.000 
#
# Total GULP energy -289814.182213 kJ/mol
# GULP energy per Si atom -5573.349658 kJ/mol
# Density = 2.220796 g / cm^3
# Si number density = 22.258617 Si / 1000 Ang^3
#
#
#
# Elastic Constant Matrix: (Units=GPa)
#
#
# Indices 1 2 3 4 5 6 
#
# 1 84.5189 14.3823 55.2534 0.0000 0.0000 0.0000
# 2 14.3823 58.7451 32.7258 0.0000 0.0000 0.0000
# 3 55.2534 32.7258 134.9097 0.0000 0.0000 0.0000
# 4 0.0000 0.0000 0.0000 26.9992 0.0000 0.0000
# 5 0.0000 0.0000 0.0000 0.0000 -611.5752 0.0000
# 6 0.0000 0.0000 0.0000 0.0000 0.0000 31.0778
#
#
#
# Elastic Compliance Matrix: (Units=1/GPa)
#
#
# Indices 1 2 3 4 5 6 
#
# 1 0.016163 -0.000312 -0.006544 0.000000 0.000000 0.000000
# 2 -0.000312 0.019688 -0.004648 0.000000 0.000000 0.000000
# 3 -0.006544 -0.004648 0.011220 0.000000 0.000000 0.000000
# 4 0.000000 0.000000 0.000000 0.037038 0.000000 0.000000
# 5 0.000000 0.000000 0.000000 0.000000 -0.001635 0.000000
# 6 0.000000 0.000000 0.000000 0.000000 0.000000 0.032177
#
#
# Mechanical properties :
#
#
# Convention : Reuss Voigt Hill
#
# Bulk Modulus (GPa) = 41.55665 53.65520 47.60593
# Shear Modulus (GPa) = 34.32162 -98.97884 -32.32861
#
# Velocity S-wave (km/s) = 3.93102 -6.67564 -3.81518
# Velocity P-wave (km/s) = 6.27012 5.93812 1.42358
#
# Compressibility (1/GPa) = 0.02406354
#
# Stress axis : x y z
#
# Youngs Moduli (GPa) = 61.87048 50.79119 89.12566
#
# Poissons Ratio (x) = 0.01582 0.58324
# Poissons Ratio (y) = 0.01927 0.41429
# Poissons Ratio (z) = 0.40488 0.23610
#
# Static dielectric constant tensor:
#      x y z
#    x 1.791160 0.000000 0.000000 
#    y 0.000000 1.993470 0.000000 
#    z 0.000000 0.000000 2.043520 
# 
# From -- ./inp_files/30956.got.cif
#   From: 2010.05.17/outbox.cif.g08.bks.cpg/sg50_16_cif.got.tgz:30956.got - 2010.06.03 11:33:33.
