data_PCOD9396179
_publ_section_title
;
Structure prediction by ZEFSAII (Michael W. Deem and Ramdas Pophale) SiO2 
 PCOD9396179
Probable space group: P B A N
;
_chemical_formula_sum "Si O2"
_cell_formula_units_Z 40
_cell_length_a 18.352810
_cell_length_b 5.522198
_cell_length_c 17.053695
_cell_angle_alpha 90.000000
_cell_angle_beta 90.000000
_cell_angle_gamma 90.000000
_cell_volume 1728.355334
_symmetry_space_group_name_H-M "P B A N"
_symmetry_group_IT_number 50
_space_group.IT_coordinate_system_code '2'
_symmetry_cell_setting 'orthorhombic'
loop_
_space_group_symop_operation_xyz
x,y,z
1/2-x,1/2-y,z
x,1/2-y,-z
1/2-x,y,-z
-x,-y,-z
1/2+x,1/2+y,-z
-x,1/2+y,z
1/2+x,-y,z
loop_
_atom_site_type_symbol
_atom_site_label
_atom_site_fract_x
_atom_site_fract_y
_atom_site_fract_z
Si Si1 0.709159 0.515215 0.874808
Si Si2 0.319889 0.891772 0.703051
Si Si3 0.439519 0.900535 0.937662
Si Si4 0.536889 0.205756 0.769074
Si Si5 0.334706 0.494086 0.468425
O O1 0.750000 0.750000 0.906387
O O2 0.704024 0.532735 0.780306
O O3 0.624379 0.555554 0.899546
O O4 0.750000 0.250000 0.889085
O O5 0.250000 0.750000 0.673684
O O6 0.381732 0.714244 0.736899
O O7 0.343294 0.026673 0.625199
O O8 0.466379 0.733546 0.864755
O O9 0.391919 0.750000 0.000000
O O10 0.500000 0.000000 0.000000
O O11 0.500709 0.458835 0.743965
O O12 0.364630 0.750000 0.500000
O O13 0.250000 0.492411 0.500000
O O14 0.369962 0.250000 0.500000
#
# Coordination Sequence:
#
# PCOD9396179 Si02
#       5
#     8   8   8   8   8
#     4  10  25  44  66 100 138 172 218 281 355 390
#     4  10  22  42  71 101 138 175 226 284 331 405
#     4  11  23  43  74  93 131 179 232 275 330 414
#     4  11  25  45  68 100 133 181 225 275 342 404
#     4  10  20  34  60 100 131 167 217 268 327 384
#
# _framework density 23.143388999999999
#
# number of rings (size 3 to 8) (size 9 to 14) (size 15 to 20)
#    0.000    1.600    4.000    0.000    2.800   13.200 
#    0.000    1.000    0.000    3.600    0.000    0.000 
#    0.000    0.000    0.000    0.000    0.000    0.000 
#
# Total GULP energy -222721.638341 kJ/mol
# GULP energy per Si atom -5568.040959 kJ/mol
# Density = 2.309071 g / cm^3
# Si number density = 23.143389 Si / 1000 Ang^3
#
#
#
# Elastic Constant Matrix: (Units=GPa)
#
#
# Indices 1 2 3 4 5 6 
#
# 1 74.0933 26.7406 23.8602 0.0000 0.0000 0.0000
# 2 26.7406 142.1222 26.9599 0.0000 0.0000 0.0000
# 3 23.8602 26.9599 97.5425 0.0000 0.0000 0.0000
# 4 0.0000 0.0000 0.0000 -14.2661 0.0000 0.0000
# 5 0.0000 0.0000 0.0000 0.0000 20.2097 0.0000
# 6 0.0000 0.0000 0.0000 0.0000 0.0000 -43.3406
#
#
#
# Elastic Compliance Matrix: (Units=1/GPa)
#
#
# Indices 1 2 3 4 5 6 
#
# 1 0.015327 -0.002293 -0.003116 0.000000 0.000000 0.000000
# 2 -0.002293 0.007769 -0.001586 0.000000 0.000000 0.000000
# 3 -0.003116 -0.001586 0.011452 0.000000 0.000000 0.000000
# 4 0.000000 0.000000 0.000000 -0.070096 0.000000 0.000000
# 5 0.000000 0.000000 0.000000 0.000000 0.049481 0.000000
# 6 0.000000 0.000000 0.000000 0.000000 0.000000 -0.023073
#
#
# Mechanical properties :
#
#
# Convention : Reuss Voigt Hill
#
# Bulk Modulus (GPa) = 48.64068 52.09772 50.36920
# Shear Modulus (GPa) = 427.26614 8.26710 217.76662
#
# Velocity S-wave (km/s) = 13.60212 1.89206 9.71076
# Velocity P-wave (km/s) = 16.36316 5.22809 12.14673
#
# Compressibility (1/GPa) = 0.02055893
#
# Stress axis : x y z
#
# Youngs Moduli (GPa) = 65.24305 128.72468 87.31736
#
# Poissons Ratio (x) = 0.29515 0.27204
# Poissons Ratio (y) = 0.14959 0.13851
# Poissons Ratio (z) = 0.20327 0.20419
#
# Static dielectric constant tensor:
#      x y z
#    x 1.902790 0.000000 0.000000 
#    y 0.000000 1.758820 0.000000 
#    z 0.000000 0.000000 1.743580 
# 
# From -- ./inp_files/29601.got.cif
#   From: 2010.05.17/outbox.cif.g08.bks.cpg/sg50_15_cif.got.tgz:29601.got - 2010.06.03 11:33:33.
