data_PCOD9396299
_publ_section_title
;
Structure prediction by ZEFSAII (Michael W. Deem and Ramdas Pophale) SiO2 
 PCOD9396299
Probable space group: P B A N
;
_chemical_formula_sum "Si O2"
_cell_formula_units_Z 58
_cell_length_a 7.596328
_cell_length_b 13.485245
_cell_length_c 26.049127
_cell_angle_alpha 90.000000
_cell_angle_beta 90.000000
_cell_angle_gamma 90.000000
_cell_volume 2668.429437
_symmetry_space_group_name_H-M "P B A N"
_symmetry_group_IT_number 50
_space_group.IT_coordinate_system_code '2'
_symmetry_cell_setting 'orthorhombic'
loop_
_space_group_symop_operation_xyz
x,y,z
1/2-x,1/2-y,z
x,1/2-y,-z
1/2-x,y,-z
-x,-y,-z
1/2+x,1/2+y,-z
-x,1/2+y,z
1/2+x,-y,z
loop_
_atom_site_type_symbol
_atom_site_label
_atom_site_fract_x
_atom_site_fract_y
_atom_site_fract_z
Si Si1 0.219698 0.365898 0.560450
Si Si2 0.748107 0.129479 0.316225
Si Si3 0.250000 0.250000 0.000000
Si Si4 0.294075 0.139642 0.147045
Si Si5 0.850537 0.353416 0.203831
Si Si6 0.953152 0.112319 0.011337
Si Si7 0.985339 0.005750 0.378432
Si Si8 0.569888 0.065997 0.873586
O O1 0.250000 0.250000 0.571984
O O2 0.250000 0.379429 0.500000
O O3 0.345987 0.433733 0.594708
O O4 0.035895 0.412771 0.578436
O O5 0.750000 0.250000 0.321328
O O6 0.683278 0.099905 0.259316
O O7 0.930286 0.075093 0.330231
O O8 0.623841 0.074595 0.357138
O O9 0.399964 0.326133 0.980577
O O10 0.250000 0.250000 0.126057
O O11 0.442572 0.155340 0.190899
O O12 0.398062 0.406490 0.160104
O O13 0.388775 0.049933 0.115839
O O14 0.750000 0.250000 0.208403
O O15 0.742774 0.400064 0.156489
O O16 0.967949 0.121466 0.073004
O O17 0.750000 0.134723 0.000000
O O18 0.000000 0.000000 0.000000
#
# Coordination Sequence:
#
# PCOD9396299 Si02
#       8
#     8   8   2   8   8   8   8   8
#     4  10  20  36  60  92 126 165 218 277 333 395
#     4  10  23  41  60  90 129 170 219 273 334 398
#     4  12  30  48  80 104 148 192 234 288 360 424
#     4  12  26  44  72 106 136 184 226 283 352 405
#     4  11  25  45  68 100 140 177 234 292 341 417
#     4  12  28  50  73 109 146 187 234 291 356 430
#     4  10  21  38  62  88 125 176 216 269 333 409
#     4  12  27  45  74 102 143 179 231 289 343 416
#
# _framework density 21.735631000000001
#
# number of rings (size 3 to 8) (size 9 to 14) (size 15 to 20)
#    0.000    0.966    3.448    2.276    2.897    1.103 
#    2.483    0.690    0.000    6.621    0.000    0.000 
#    0.000    0.000    0.000    0.000    0.000    0.000 
#
# Total GULP energy -322876.565469 kJ/mol
# GULP energy per Si atom -5566.837336 kJ/mol
# Density = 2.168616 g / cm^3
# Si number density = 21.735631 Si / 1000 Ang^3
#
#
#
# Elastic Constant Matrix: (Units=GPa)
#
#
# Indices 1 2 3 4 5 6 
#
# 1 122.3838 42.4438 21.6140 0.0000 0.0000 0.0000
# 2 42.4438 148.9060 39.5337 0.0000 0.0000 0.0000
# 3 21.6140 39.5337 98.9647 0.0000 0.0000 0.0000
# 4 0.0000 0.0000 0.0000 33.0393 0.0000 0.0000
# 5 0.0000 0.0000 0.0000 0.0000 22.9138 0.0000
# 6 0.0000 0.0000 0.0000 0.0000 0.0000 118.4526
#
#
#
# Elastic Compliance Matrix: (Units=1/GPa)
#
#
# Indices 1 2 3 4 5 6 
#
# 1 0.009168 -0.002329 -0.001072 0.000000 0.000000 0.000000
# 2 -0.002329 0.008104 -0.002729 0.000000 0.000000 0.000000
# 3 -0.001072 -0.002729 0.011429 0.000000 0.000000 0.000000
# 4 0.000000 0.000000 0.000000 0.030267 0.000000 0.000000
# 5 0.000000 0.000000 0.000000 0.000000 0.043642 0.000000
# 6 0.000000 0.000000 0.000000 0.000000 0.000000 0.008442
#
#
# Mechanical properties :
#
#
# Convention : Reuss Voigt Hill
#
# Bulk Modulus (GPa) = 60.82043 64.15974 62.49008
# Shear Modulus (GPa) = 38.82263 52.65868 45.74065
#
# Velocity S-wave (km/s) = 4.23085 4.92742 4.59236
# Velocity P-wave (km/s) = 7.20482 7.87115 7.54534
#
# Compressibility (1/GPa) = 0.01644184
#
# Stress axis : x y z
#
# Youngs Moduli (GPa) = 109.07595 123.39842 87.49825
#
# Poissons Ratio (x) = 0.28734 0.09381
# Poissons Ratio (y) = 0.25399 0.23876
# Poissons Ratio (z) = 0.11694 0.33672
#
# Static dielectric constant tensor:
#      x y z
#    x 1.916370 0.000000 0.000000 
#    y 0.000000 1.863270 0.000000 
#    z 0.000000 0.000000 1.826130 
# 
# From -- ./inp_files/32152.got.cif
#   From: 2010.05.17/outbox.cif.g08.bks.cpg/sg50_17_cif.got.tgz:32152.got - 2010.06.03 11:33:33.
