data_PCOD9396773
_publ_section_title
;
Structure prediction by ZEFSAII (Michael W. Deem and Ramdas Pophale) SiO2 
 PCOD9396773
Probable space group: P B A N
;
_chemical_formula_sum "Si O2"
_cell_formula_units_Z 58
_cell_length_a 14.440300
_cell_length_b 8.865121
_cell_length_c 21.352643
_cell_angle_alpha 90.000000
_cell_angle_beta 90.000000
_cell_angle_gamma 90.000000
_cell_volume 2733.458738
_symmetry_space_group_name_H-M "P B A N"
_symmetry_group_IT_number 50
_space_group.IT_coordinate_system_code '2'
_symmetry_cell_setting 'orthorhombic'
loop_
_space_group_symop_operation_xyz
x,y,z
1/2-x,1/2-y,z
x,1/2-y,-z
1/2-x,y,-z
-x,-y,-z
1/2+x,1/2+y,-z
-x,1/2+y,z
1/2+x,-y,z
loop_
_atom_site_type_symbol
_atom_site_label
_atom_site_fract_x
_atom_site_fract_y
_atom_site_fract_z
Si Si1 0.082175 0.608479 0.079008
Si Si2 0.165186 0.421342 0.823955
Si Si3 0.024166 0.811578 0.637278
Si Si4 0.384478 0.539571 0.054410
Si Si5 0.543361 0.054275 0.277093
Si Si6 0.575521 0.564582 0.448868
Si Si7 0.250000 0.250000 0.500000
Si Si8 0.367857 0.081571 0.199948
O O1 0.094358 0.788020 0.074666
O O2 0.107637 0.536572 0.145337
O O3 0.976656 0.560455 0.064488
O O4 0.137907 0.542615 0.018958
O O5 0.184968 0.473705 0.894402
O O6 0.094007 0.527093 0.787995
O O7 0.259758 0.430640 0.785436
O O8 0.123963 0.253304 0.824806
O O9 0.072889 0.705236 0.688065
O O10 0.975025 0.699251 0.588763
O O11 0.087406 0.926231 0.599054
O O12 0.950270 0.913620 0.675671
O O13 0.435421 0.064797 0.258321
O O14 0.500000 0.500000 0.500000
O O15 0.673901 0.634111 0.469682
#
# Coordination Sequence:
#
# PCOD9396773 Si02
#       8
#     8   8   8   8   8   8   2   8
#     4  10  21  37  60  88 118 160 217 276 348 424
#     4  11  24  41  62  89 128 170 219 279 341 408
#     4  10  23  43  74  98 148 182 231 282 328 404
#     4  10  21  37  60  87 119 160 212 281 351 413
#     4  11  22  44  63  95 132 186 221 277 334 388
#     4  11  22  48  75 114 147 191 233 289 347 410
#     4  12  24  44  86 110 160 196 226 300 366 394
#     4  11  24  41  62  91 124 170 224 275 339 414
#
# _framework density 21.218539
#
# number of rings (size 3 to 8) (size 9 to 14) (size 15 to 20)
#    0.000    1.379    4.138    0.828    1.931    2.759 
#    4.966    5.517    0.000    0.000    0.000    0.000 
#    0.000    0.000    0.000    0.000    0.000    0.000 
#
# Total GULP energy -323626.303033 kJ/mol
# GULP energy per Si atom -5579.763845 kJ/mol
# Density = 2.117024 g / cm^3
# Si number density = 21.218539 Si / 1000 Ang^3
#
#
#
# Elastic Constant Matrix: (Units=GPa)
#
#
# Indices 1 2 3 4 5 6 
#
# 1 61.8911 13.8207 20.0053 0.0000 0.0000 0.0000
# 2 13.8207 110.5182 40.2913 0.0000 0.0000 0.0000
# 3 20.0053 40.2913 83.2342 0.0000 0.0000 0.0000
# 4 0.0000 0.0000 0.0000 47.5249 0.0000 0.0000
# 5 0.0000 0.0000 0.0000 0.0000 16.3556 0.0000
# 6 0.0000 0.0000 0.0000 0.0000 0.0000 16.5255
#
#
#
# Elastic Compliance Matrix: (Units=1/GPa)
#
#
# Indices 1 2 3 4 5 6 
#
# 1 0.017576 -0.000799 -0.003838 0.000000 0.000000 0.000000
# 2 -0.000799 0.011024 -0.005144 0.000000 0.000000 0.000000
# 3 -0.003838 -0.005144 0.015427 0.000000 0.000000 0.000000
# 4 0.000000 0.000000 0.000000 0.021042 0.000000 0.000000
# 5 0.000000 0.000000 0.000000 0.000000 0.061141 0.000000
# 6 0.000000 0.000000 0.000000 0.000000 0.000000 0.060513
#
#
# Mechanical properties :
#
#
# Convention : Reuss Voigt Hill
#
# Bulk Modulus (GPa) = 40.87451 44.87534 42.87493
# Shear Modulus (GPa) = 23.31668 28.18295 25.74981
#
# Velocity S-wave (km/s) = 3.31854 3.64843 3.48739
# Velocity P-wave (km/s) = 5.83001 6.24044 6.03871
#
# Compressibility (1/GPa) = 0.02446512
#
# Stress axis : x y z
#
# Youngs Moduli (GPa) = 56.89482 90.71452 64.82202
#
# Poissons Ratio (x) = 0.07247 0.24877
# Poissons Ratio (y) = 0.04545 0.33346
# Poissons Ratio (z) = 0.21835 0.46665
#
# Static dielectric constant tensor:
#      x y z
#    x 1.775340 0.000000 0.000000 
#    y 0.000000 1.775820 0.000000 
#    z 0.000000 0.000000 1.778950 
# 
# From -- ./inp_files/31761.got.cif
#   From: 2010.05.17/outbox.cif.g08.bks.cpg/sg50_16_cif.got.tgz:31761.got - 2010.06.03 11:33:33.
