data_PCOD9396825
_publ_section_title
;
Structure prediction by ZEFSAII (Michael W. Deem and Ramdas Pophale) SiO2 
 PCOD9396825
Probable space group: P B A N
;
_chemical_formula_sum "Si O2"
_cell_formula_units_Z 40
_cell_length_a 9.611060
_cell_length_b 12.965961
_cell_length_c 15.522959
_cell_angle_alpha 90.000000
_cell_angle_beta 90.000000
_cell_angle_gamma 90.000000
_cell_volume 1934.418825
_symmetry_space_group_name_H-M "P B A N"
_symmetry_group_IT_number 50
_space_group.IT_coordinate_system_code '2'
_symmetry_cell_setting 'orthorhombic'
loop_
_space_group_symop_operation_xyz
x,y,z
1/2-x,1/2-y,z
x,1/2-y,-z
1/2-x,y,-z
-x,-y,-z
1/2+x,1/2+y,-z
-x,1/2+y,z
1/2+x,-y,z
loop_
_atom_site_type_symbol
_atom_site_label
_atom_site_fract_x
_atom_site_fract_y
_atom_site_fract_z
Si Si1 0.094675 0.626269 0.013306
Si Si2 0.089556 0.142704 0.169146
Si Si3 0.243138 0.871774 0.396655
Si Si4 0.499776 0.006464 0.687873
Si Si5 0.106179 0.112806 0.856140
O O1 0.986332 0.591326 0.940272
O O2 0.098873 0.750000 0.000000
O O3 0.250000 0.587439 0.000000
O O4 0.040886 0.611796 0.110177
O O5 0.092907 0.265483 0.164698
O O6 0.230303 0.098199 0.127955
O O7 0.082765 0.099481 0.265322
O O8 0.250000 0.750000 0.368059
O O9 0.250000 0.871474 0.500000
O O10 0.103898 0.931239 0.364263
O O11 0.373966 0.938975 0.362431
O O12 0.557648 0.943452 0.769769
#
# Coordination Sequence:
#
# PCOD9396825 Si02
#       5
#     8   8   8   8   8
#     4   9  19  34  57  90 129 175 224 275 325 380
#     4  10  21  38  60  89 129 175 222 271 326 389
#     4  11  26  48  73 102 137 174 217 276 344 413
#     4  12  23  43  68 100 132 174 220 279 333 406
#     4  10  21  38  60  89 129 175 222 271 326 389
#
# _framework density 20.678046999999999
#
# number of rings (size 3 to 8) (size 9 to 14) (size 15 to 20)
#    0.000    1.600    2.000    2.400    2.800    3.200 
#    0.000    0.000    0.000    4.800    0.000    0.000 
#    0.000    0.000    0.000    0.000    0.000    0.000 
#
# Total GULP energy -223437.595050 kJ/mol
# GULP energy per Si atom -5585.939876 kJ/mol
# Density = 2.063098 g / cm^3
# Si number density = 20.678047 Si / 1000 Ang^3
#
#
#
# Elastic Constant Matrix: (Units=GPa)
#
#
# Indices 1 2 3 4 5 6 
#
# 1 137.8164 31.3463 51.9245 0.0000 0.0000 0.0000
# 2 31.3463 94.5393 42.8934 0.0000 0.0000 0.0000
# 3 51.9245 42.8934 106.7811 0.0000 0.0000 0.0000
# 4 0.0000 0.0000 0.0000 39.7089 0.0000 0.0000
# 5 0.0000 0.0000 0.0000 0.0000 37.7273 0.0000
# 6 0.0000 0.0000 0.0000 0.0000 0.0000 25.6563
#
#
#
# Elastic Compliance Matrix: (Units=1/GPa)
#
#
# Indices 1 2 3 4 5 6 
#
# 1 0.008997 -0.001221 -0.003885 0.000000 0.000000 0.000000
# 2 -0.001221 0.013101 -0.004669 0.000000 0.000000 0.000000
# 3 -0.003885 -0.004669 0.013129 0.000000 0.000000 0.000000
# 4 0.000000 0.000000 0.000000 0.025183 0.000000 0.000000
# 5 0.000000 0.000000 0.000000 0.000000 0.026506 0.000000
# 6 0.000000 0.000000 0.000000 0.000000 0.000000 0.038977
#
#
# Mechanical properties :
#
#
# Convention : Reuss Voigt Hill
#
# Bulk Modulus (GPa) = 63.78051 65.71833 64.74942
# Shear Modulus (GPa) = 33.18541 34.81666 34.00103
#
# Velocity S-wave (km/s) = 4.01042 4.10780 4.05940
# Velocity P-wave (km/s) = 7.23575 7.37221 7.30430
#
# Compressibility (1/GPa) = 0.01567877
#
# Stress axis : x y z
#
# Youngs Moduli (GPa) = 111.14413 76.33196 76.16443
#
# Poissons Ratio (x) = 0.09318 0.29588
# Poissons Ratio (y) = 0.13567 0.35560
# Poissons Ratio (z) = 0.43177 0.35639
#
# Static dielectric constant tensor:
#      x y z
#    x 1.750270 0.000000 0.000000 
#    y 0.000000 1.819550 0.000000 
#    z 0.000000 0.000000 1.675120 
# 
# From -- ./inp_files/24641.got.cif
#   From: 2010.05.17/outbox.cif.g08.bks.cpg/sg50_13_cif.got.tgz:24641.got - 2010.06.03 11:33:33.
