data_PCOD9396423
_publ_section_title
;
Structure prediction by ZEFSAII (Michael W. Deem and Ramdas Pophale) SiO2 
 PCOD9396423
Probable space group: P B A N
;
_chemical_formula_sum "Si O2"
_cell_formula_units_Z 64
_cell_length_a 9.202998
_cell_length_b 29.939497
_cell_length_c 13.178090
_cell_angle_alpha 90.000000
_cell_angle_beta 90.000000
_cell_angle_gamma 90.000000
_cell_volume 3631.000398
_symmetry_space_group_name_H-M "P B A N"
_symmetry_group_IT_number 50
_space_group.IT_coordinate_system_code '2'
_symmetry_cell_setting 'orthorhombic'
loop_
_space_group_symop_operation_xyz
x,y,z
1/2-x,1/2-y,z
x,1/2-y,-z
1/2-x,y,-z
-x,-y,-z
1/2+x,1/2+y,-z
-x,1/2+y,z
1/2+x,-y,z
loop_
_atom_site_type_symbol
_atom_site_label
_atom_site_fract_x
_atom_site_fract_y
_atom_site_fract_z
Si Si1 0.623182 0.554617 0.061768
Si Si2 0.414627 0.755539 0.378044
Si Si3 0.388461 0.170922 0.368116
Si Si4 0.841313 0.075360 0.308412
Si Si5 0.046592 0.348660 0.598765
Si Si6 0.140006 0.544625 0.083538
Si Si7 0.123905 0.482715 0.425118
Si Si8 0.992667 0.089457 0.730220
O O1 0.686490 0.507012 0.101283
O O2 0.533527 0.573912 0.156381
O O3 0.750000 0.580143 0.000000
O O4 0.511637 0.544618 0.972558
O O5 0.250000 0.750000 0.337961
O O6 0.406567 0.750000 0.500000
O O7 0.541206 0.719828 0.349933
O O8 0.461400 0.806033 0.358015
O O9 0.454259 0.153717 0.476015
O O10 0.215344 0.162278 0.375128
O O11 0.443382 0.138262 0.282208
O O12 0.877351 0.068156 0.190453
O O13 0.675472 0.092282 0.302860
O O14 0.961759 0.107291 0.361476
O O15 0.832422 0.027144 0.363086
O O16 0.250000 0.564404 0.000000
O O17 0.250000 0.465530 0.500000
O O18 0.000000 0.500000 0.500000
O O19 0.069883 0.445041 0.347653
#
# Coordination Sequence:
#
# PCOD9396423 Si02
#       8
#     8   8   8   8   8   8   8   8
#     4  10  22  36  59  80 107 143 193 251 297 334
#     4   9  17  35  59  83 113 151 187 233 285 338
#     4  10  22  36  56  84 119 151 193 236 281 344
#     4  12  24  38  57  81 112 158 197 240 291 351
#     4  10  22  36  57  84 118 153 192 234 283 341
#     4  10  20  38  58  80 106 143 194 250 295 333
#     4  12  26  38  53  77 119 164 201 238 282 343
#     4  12  24  38  56  82 114 155 198 238 292 349
#
# _framework density 17.625997999999999
#
# number of rings (size 3 to 8) (size 9 to 14) (size 15 to 20)
#    0.000    1.375    3.750    1.875    5.250    2.500 
#    0.000    0.000    0.000    0.000    0.000    0.875 
#    0.000    0.000    0.000    0.000    0.000    0.000 
#
# Total GULP energy -356456.728586 kJ/mol
# GULP energy per Si atom -5569.636384 kJ/mol
# Density = 1.758588 g / cm^3
# Si number density = 17.625998 Si / 1000 Ang^3
#
#
#
# Elastic Constant Matrix: (Units=GPa)
#
#
# Indices 1 2 3 4 5 6 
#
# 1 92.8886 12.2061 19.7867 0.0000 0.0000 0.0000
# 2 12.2061 63.7187 10.6982 0.0000 0.0000 0.0000
# 3 19.7867 10.6982 61.0093 0.0000 0.0000 0.0000
# 4 0.0000 0.0000 0.0000 8.7695 0.0000 0.0000
# 5 0.0000 0.0000 0.0000 0.0000 26.0971 0.0000
# 6 0.0000 0.0000 0.0000 0.0000 0.0000 27.0976
#
#
#
# Elastic Compliance Matrix: (Units=1/GPa)
#
#
# Indices 1 2 3 4 5 6 
#
# 1 0.011732 -0.001657 -0.003514 0.000000 0.000000 0.000000
# 2 -0.001657 0.016404 -0.002339 0.000000 0.000000 0.000000
# 3 -0.003514 -0.002339 0.017941 0.000000 0.000000 0.000000
# 4 0.000000 0.000000 0.000000 0.114032 0.000000 0.000000
# 5 0.000000 0.000000 0.000000 0.000000 0.038318 0.000000
# 6 0.000000 0.000000 0.000000 0.000000 0.000000 0.036904
#
#
# Mechanical properties :
#
#
# Convention : Reuss Voigt Hill
#
# Bulk Modulus (GPa) = 32.20027 33.66652 32.93339
# Shear Modulus (GPa) = 19.17884 24.05455 21.61669
#
# Velocity S-wave (km/s) = 3.30221 3.69822 3.50581
# Velocity P-wave (km/s) = 5.73130 6.11373 5.92560
#
# Compressibility (1/GPa) = 0.03105564
#
# Stress axis : x y z
#
# Youngs Moduli (GPa) = 85.23714 60.96012 55.73863
#
# Poissons Ratio (x) = 0.10103 0.19588
# Poissons Ratio (y) = 0.14127 0.13037
# Poissons Ratio (z) = 0.29955 0.14259
#
# Static dielectric constant tensor:
#      x y z
#    x 1.716880 0.000000 0.000000 
#    y 0.000000 1.622270 0.000000 
#    z 0.000000 0.000000 1.582850 
# 
# From -- ./inp_files/19526.got.cif
#   From: 2010.05.17/outbox.cif.g08.bks.cpg/sg50_10_cif.got.tgz:19526.got - 2010.06.03 11:33:33.
