data_PCOD9396223
_publ_section_title
;
Structure prediction by ZEFSAII (Michael W. Deem and Ramdas Pophale) SiO2 
 PCOD9396223
Probable space group: P B A N
;
_chemical_formula_sum "Si O2"
_cell_formula_units_Z 58
_cell_length_a 10.637318
_cell_length_b 25.082388
_cell_length_c 12.149318
_cell_angle_alpha 90.000000
_cell_angle_beta 90.000000
_cell_angle_gamma 90.000000
_cell_volume 3241.551485
_symmetry_space_group_name_H-M "P B A N"
_symmetry_group_IT_number 50
_space_group.IT_coordinate_system_code '2'
_symmetry_cell_setting 'orthorhombic'
loop_
_space_group_symop_operation_xyz
x,y,z
1/2-x,1/2-y,z
x,1/2-y,-z
1/2-x,y,-z
-x,-y,-z
1/2+x,1/2+y,-z
-x,1/2+y,z
1/2+x,-y,z
loop_
_atom_site_type_symbol
_atom_site_label
_atom_site_fract_x
_atom_site_fract_y
_atom_site_fract_z
Si Si1 0.005007 0.803379 0.377384
Si Si2 0.250000 0.750000 0.000000
Si Si3 0.869410 0.593770 0.633008
Si Si4 0.282455 0.827784 0.793540
Si Si5 0.252489 0.948672 0.871020
Si Si6 0.012388 0.489526 0.221731
Si Si7 0.944288 0.312883 0.625328
Si Si8 0.923186 0.924080 0.610882
O O1 0.092852 0.821088 0.277900
O O2 0.975386 0.741240 0.363501
O O3 0.080748 0.812340 0.492908
O O4 0.887293 0.842889 0.377429
O O5 0.297010 0.793447 0.906440
O O6 0.724607 0.578128 0.636473
O O7 0.931403 0.571735 0.520719
O O8 0.939412 0.567335 0.734860
O O9 0.255968 0.890126 0.816038
O O10 0.170499 0.808124 0.711164
O O11 0.380085 0.980322 0.839197
O O12 0.250000 0.939666 0.000000
O O13 0.127361 0.981733 0.840173
O O14 0.985208 0.527551 0.325564
O O15 0.014691 0.368210 0.646651
#
# Coordination Sequence:
#
# PCOD9396223 Si02
#       8
#     8   2   8   8   8   8   8   8
#     4  10  20  35  58  86 118 154 192 242 297 357
#     4  12  24  36  62  84 122 156 184 250 306 346
#     4  10  21  36  57  89 121 154 195 238 299 372
#     4  12  21  37  58  88 118 149 196 243 299 357
#     4  12  26  41  62  89 114 158 213 257 297 351
#     4  12  22  42  62  84 120 160 198 254 306 350
#     4  10  20  35  58  86 118 154 192 242 297 357
#     4  10  21  36  57  89 121 154 195 238 299 372
#
# _framework density 17.892666999999999
#
# number of rings (size 3 to 8) (size 9 to 14) (size 15 to 20)
#    0.000    1.103    6.207    1.241    0.000    1.655 
#    0.000    2.759    0.000    0.000    0.000    0.966 
#    0.000    0.000    0.000    0.000    0.000    0.000 
#
# Total GULP energy -323076.087773 kJ/mol
# GULP energy per Si atom -5570.277375 kJ/mol
# Density = 1.785194 g / cm^3
# Si number density = 17.892667 Si / 1000 Ang^3
#
#
#
# Elastic Constant Matrix: (Units=GPa)
#
#
# Indices 1 2 3 4 5 6 
#
# 1 38.2727 13.1808 9.3024 0.0000 0.0000 0.0000
# 2 13.1808 99.5805 16.3303 0.0000 0.0000 0.0000
# 3 9.3024 16.3303 68.4509 0.0000 0.0000 0.0000
# 4 0.0000 0.0000 0.0000 30.0553 0.0000 0.0000
# 5 0.0000 0.0000 0.0000 0.0000 15.3994 0.0000
# 6 0.0000 0.0000 0.0000 0.0000 0.0000 18.6549
#
#
#
# Elastic Compliance Matrix: (Units=1/GPa)
#
#
# Indices 1 2 3 4 5 6 
#
# 1 0.027970 -0.003204 -0.003037 0.000000 0.000000 0.000000
# 2 -0.003204 0.010818 -0.002145 0.000000 0.000000 0.000000
# 3 -0.003037 -0.002145 0.015534 0.000000 0.000000 0.000000
# 4 0.000000 0.000000 0.000000 0.033272 0.000000 0.000000
# 5 0.000000 0.000000 0.000000 0.000000 0.064938 0.000000
# 6 0.000000 0.000000 0.000000 0.000000 0.000000 0.053605
#
#
# Mechanical properties :
#
#
# Convention : Reuss Voigt Hill
#
# Bulk Modulus (GPa) = 26.63191 31.54789 29.08990
# Shear Modulus (GPa) = 21.23817 23.98796 22.61307
#
# Velocity S-wave (km/s) = 3.44899 3.66547 3.55888
# Velocity P-wave (km/s) = 5.54773 5.96526 5.76028
#
# Compressibility (1/GPa) = 0.03754894
#
# Stress axis : x y z
#
# Youngs Moduli (GPa) = 35.75277 92.43791 64.37686
#
# Poissons Ratio (x) = 0.29619 0.19549
# Poissons Ratio (y) = 0.11456 0.13812
# Poissons Ratio (z) = 0.10857 0.19832
#
# Static dielectric constant tensor:
#      x y z
#    x 1.596760 0.000000 0.000000 
#    y 0.000000 1.635890 0.000000 
#    z 0.000000 0.000000 1.608750 
# 
# From -- ./inp_files/19408.got.cif
#   From: 2010.05.17/outbox.cif.g08.bks.cpg/sg50_10_cif.got.tgz:19408.got - 2010.06.03 11:33:33.
