data_PCOD9396787
_publ_section_title
;
Structure prediction by ZEFSAII (Michael W. Deem and Ramdas Pophale) SiO2 
 PCOD9396787
Probable space group: P B A N
;
_chemical_formula_sum "Si O2"
_cell_formula_units_Z 32
_cell_length_a 5.227236
_cell_length_b 36.677576
_cell_length_c 7.229039
_cell_angle_alpha 90.000000
_cell_angle_beta 90.000000
_cell_angle_gamma 90.000000
_cell_volume 1385.968314
_symmetry_space_group_name_H-M "P B A N"
_symmetry_group_IT_number 50
_space_group.IT_coordinate_system_code '2'
_symmetry_cell_setting 'orthorhombic'
loop_
_space_group_symop_operation_xyz
x,y,z
1/2-x,1/2-y,z
x,1/2-y,-z
1/2-x,y,-z
-x,-y,-z
1/2+x,1/2+y,-z
-x,1/2+y,z
1/2+x,-y,z
loop_
_atom_site_type_symbol
_atom_site_label
_atom_site_fract_x
_atom_site_fract_y
_atom_site_fract_z
Si Si1 0.986737 0.410090 0.381324
Si Si2 0.249462 0.664532 0.223091
Si Si3 0.741372 0.791882 0.775226
Si Si4 0.975475 0.983450 0.207037
O O1 0.750000 0.425602 0.500000
O O2 0.859025 0.373233 0.302393
O O3 0.250000 0.404765 0.500000
O O4 0.038947 0.439943 0.222139
O O5 0.465580 0.693257 0.278477
O O6 0.972468 0.680714 0.280129
O O7 0.250000 0.661236 0.000000
O O8 0.750000 0.750000 0.714555
O O9 0.750000 0.791565 0.000000
O O10 0.726830 0.000280 0.296195
O O11 0.000000 0.000000 0.000000
#
# Coordination Sequence:
#
# PCOD9396787 Si02
#       4
#     8   8   8   8
#     4  12  26  43  65  95 134 173 214 272 332 394
#     4  10  21  37  62  93 126 174 215 263 326 391
#     4   9  17  33  59  95 129 162 215 275 320 367
#     4  10  23  43  67  94 122 168 214 275 319 392
#
# _framework density 23.088549
#
# number of rings (size 3 to 8) (size 9 to 14) (size 15 to 20)
#    0.000    1.750    0.000    3.750    3.500    6.000 
#    9.000    0.000    0.000   11.250    0.000    0.000 
#    0.000    0.000    0.000    0.000    0.000    0.000 
#
# Total GULP energy -178599.337141 kJ/mol
# GULP energy per Si atom -5581.229286 kJ/mol
# Density = 2.303600 g / cm^3
# Si number density = 23.088549 Si / 1000 Ang^3
#
#
#
# Elastic Constant Matrix: (Units=GPa)
#
#
# Indices 1 2 3 4 5 6 
#
# 1 198.6018 43.0305 21.3307 0.0000 0.0000 0.0000
# 2 43.0305 179.0821 33.2108 0.0000 0.0000 0.0000
# 3 21.3307 33.2108 109.9418 0.0000 0.0000 0.0000
# 4 0.0000 0.0000 0.0000 473.4182 0.0000 0.0000
# 5 0.0000 0.0000 0.0000 0.0000 -3.9813 0.0000
# 6 0.0000 0.0000 0.0000 0.0000 0.0000 30.5501
#
#
#
# Elastic Compliance Matrix: (Units=1/GPa)
#
#
# Indices 1 2 3 4 5 6 
#
# 1 0.005361 -0.001160 -0.000690 0.000000 0.000000 0.000000
# 2 -0.001160 0.006167 -0.001638 0.000000 0.000000 0.000000
# 3 -0.000690 -0.001638 0.009724 0.000000 0.000000 0.000000
# 4 0.000000 0.000000 0.000000 0.002112 0.000000 0.000000
# 5 0.000000 0.000000 0.000000 0.000000 -0.251174 0.000000
# 6 0.000000 0.000000 0.000000 0.000000 0.000000 0.032733
#
#
# Mechanical properties :
#
#
# Convention : Reuss Voigt Hill
#
# Bulk Modulus (GPa) = 70.04529 75.86331 72.95430
# Shear Modulus (GPa) = -27.27116 126.00099 49.36492
#
# Velocity S-wave (km/s) = -3.44052 7.39536 4.62894
# Velocity P-wave (km/s) = 3.82369 10.28838 7.76117
#
# Compressibility (1/GPa) = 0.01427648
#
# Stress axis : x y z
#
# Youngs Moduli (GPa) = 186.54480 162.16627 102.83604
#
# Poissons Ratio (x) = 0.18814 0.07092
# Poissons Ratio (y) = 0.21643 0.16841
# Poissons Ratio (z) = 0.12864 0.26557
#
# Static dielectric constant tensor:
#      x y z
#    x 1.805840 0.000000 0.000000 
#    y 0.000000 1.873730 0.000000 
#    z 0.000000 0.000000 1.905780 
# 
# From -- ./inp_files/7900.got.cif
#   From: 2010.05.17/outbox.cif.g08.bks.cpg/sg50_4_cif.got.tgz:7900.got - 2010.06.03 11:33:33.
