data_PCOD9396262
_publ_section_title
;
Structure prediction by ZEFSAII (Michael W. Deem and Ramdas Pophale) SiO2 
 PCOD9396262
Probable space group: P B A N
;
_chemical_formula_sum "Si O2"
_cell_formula_units_Z 56
_cell_length_a 20.146106
_cell_length_b 19.960701
_cell_length_c 8.467896
_cell_angle_alpha 90.000000
_cell_angle_beta 90.000000
_cell_angle_gamma 90.000000
_cell_volume 3405.198390
_symmetry_space_group_name_H-M "P B A N"
_symmetry_group_IT_number 50
_space_group.IT_coordinate_system_code '2'
_symmetry_cell_setting 'orthorhombic'
loop_
_space_group_symop_operation_xyz
x,y,z
1/2-x,1/2-y,z
x,1/2-y,-z
1/2-x,y,-z
-x,-y,-z
1/2+x,1/2+y,-z
-x,1/2+y,z
1/2+x,-y,z
loop_
_atom_site_type_symbol
_atom_site_label
_atom_site_fract_x
_atom_site_fract_y
_atom_site_fract_z
Si Si1 0.393259 0.644355 0.685608
Si Si2 0.934723 0.027866 0.092312
Si Si3 0.562796 0.959847 0.573775
Si Si4 0.181257 0.909926 0.100595
Si Si5 0.179777 0.542485 0.540889
Si Si6 0.095520 0.779276 0.158746
Si Si7 0.003857 0.318088 0.431288
O O1 0.431885 0.600750 0.818795
O O2 0.339847 0.598740 0.592051
O O3 0.369962 0.715575 0.754671
O O4 0.446426 0.662764 0.554093
O O5 0.926358 0.980433 0.244155
O O6 0.871407 0.037944 0.977877
O O7 0.000000 0.000000 0.000000
O O8 0.551422 0.881184 0.571659
O O9 0.500000 0.000000 0.500000
O O10 0.623233 0.987304 0.471857
O O11 0.186822 0.928230 0.284468
O O12 0.146955 0.836718 0.108680
O O13 0.250000 0.909670 0.000000
O O14 0.250000 0.511931 0.500000
O O15 0.036973 0.806963 0.269780
O O16 0.064614 0.750000 0.000000
O O17 0.034457 0.250000 0.500000
#
# Coordination Sequence:
#
# PCOD9396262 Si02
#       7
#     8   8   8   8   8   8   8
#     4  10  20  36  54  78 108 151 192 230 278 343
#     4  11  21  33  55  82 109 145 192 240 287 320
#     4  11  19  36  61  82 109 148 194 236 290 342
#     4  12  24  39  53  81 119 155 195 239 282 340
#     4  11  23  39  57  78 112 149 197 240 286 339
#     4  11  21  35  54  76 118 152 190 231 283 330
#     4  10  20  36  59  84 111 147 189 239 281 345
#
# _framework density 16.445444999999999
#
# number of rings (size 3 to 8) (size 9 to 14) (size 15 to 20)
#    0.000    1.143    5.714    3.429    0.000    0.286 
#    0.000    0.714    0.000    0.429    0.000    0.000 
#    0.000    0.000    0.000    0.000    0.000    0.000 
#
# Total GULP energy -311893.407669 kJ/mol
# GULP energy per Si atom -5569.525137 kJ/mol
# Density = 1.640801 g / cm^3
# Si number density = 16.445445 Si / 1000 Ang^3
#
#
#
# Elastic Constant Matrix: (Units=GPa)
#
#
# Indices 1 2 3 4 5 6 
#
# 1 97.3617 64.1237 41.9161 0.0000 0.0000 0.0000
# 2 64.1237 112.2155 35.4085 0.0000 0.0000 0.0000
# 3 41.9161 35.4085 102.3721 0.0000 0.0000 0.0000
# 4 0.0000 0.0000 0.0000 29.6018 0.0000 0.0000
# 5 0.0000 0.0000 0.0000 0.0000 27.6519 0.0000
# 6 0.0000 0.0000 0.0000 0.0000 0.0000 20.1289
#
#
#
# Elastic Compliance Matrix: (Units=1/GPa)
#
#
# Indices 1 2 3 4 5 6 
#
# 1 0.017997 -0.008934 -0.004279 0.000000 0.000000 0.000000
# 2 -0.008934 0.014438 -0.001336 0.000000 0.000000 0.000000
# 3 -0.004279 -0.001336 0.011982 0.000000 0.000000 0.000000
# 4 0.000000 0.000000 0.000000 0.033782 0.000000 0.000000
# 5 0.000000 0.000000 0.000000 0.000000 0.036164 0.000000
# 6 0.000000 0.000000 0.000000 0.000000 0.000000 0.049680
#
#
# Mechanical properties :
#
#
# Convention : Reuss Voigt Hill
#
# Bulk Modulus (GPa) = 65.27325 66.09399 65.68362
# Shear Modulus (GPa) = 25.22103 26.84325 26.03214
#
# Velocity S-wave (km/s) = 3.92039 4.04451 3.98293
# Velocity P-wave (km/s) = 7.76335 7.87958 7.82168
#
# Compressibility (1/GPa) = 0.01532021
#
# Stress axis : x y z
#
# Youngs Moduli (GPa) = 55.56425 69.26084 83.45667
#
# Poissons Ratio (x) = 0.61878 0.35709
# Poissons Ratio (y) = 0.49641 0.11148
# Poissons Ratio (z) = 0.23775 0.09252
#
# Static dielectric constant tensor:
#      x y z
#    x 1.538040 0.000000 0.000000 
#    y 0.000000 1.598700 0.000000 
#    z 0.000000 0.000000 1.618860 
# 
# From -- ./inp_files/14580.got.cif
#   From: 2010.05.17/outbox.cif.g08.bks.cpg/sg50_8_cif.got.tgz:14580.got - 2010.06.03 11:33:33.
