data_PCOD9396670
_publ_section_title
;
Structure prediction by ZEFSAII (Michael W. Deem and Ramdas Pophale) SiO2 
 PCOD9396670
Probable space group: P B A N
;
_chemical_formula_sum "Si O2"
_cell_formula_units_Z 44
_cell_length_a 15.991905
_cell_length_b 15.578864
_cell_length_c 6.804078
_cell_angle_alpha 90.000000
_cell_angle_beta 90.000000
_cell_angle_gamma 90.000000
_cell_volume 1695.138824
_symmetry_space_group_name_H-M "P B A N"
_symmetry_group_IT_number 50
_space_group.IT_coordinate_system_code '2'
_symmetry_cell_setting 'orthorhombic'
loop_
_space_group_symop_operation_xyz
x,y,z
1/2-x,1/2-y,z
x,1/2-y,-z
1/2-x,y,-z
-x,-y,-z
1/2+x,1/2+y,-z
-x,1/2+y,z
1/2+x,-y,z
loop_
_atom_site_type_symbol
_atom_site_label
_atom_site_fract_x
_atom_site_fract_y
_atom_site_fract_z
Si Si1 0.043834 0.714629 0.309839
Si Si2 0.795442 0.528022 0.180958
Si Si3 0.617396 0.372415 0.789150
Si Si4 0.113556 0.127562 0.520784
Si Si5 0.628469 0.448647 0.342573
Si Si6 0.250000 0.750000 0.000000
Si Si7 0.750000 0.750000 0.500000
O O1 0.094958 0.750000 0.500000
O O2 0.039572 0.804745 0.192637
O O3 0.090232 0.632131 0.224324
O O4 0.961650 0.674571 0.409010
O O5 0.866995 0.463368 0.102613
O O6 0.833013 0.588685 0.342100
O O7 0.722377 0.470074 0.278814
O O8 0.750000 0.572558 0.000000
O O9 0.621439 0.412442 0.566791
O O10 0.692122 0.309558 0.861639
O O11 0.181638 0.191590 0.617080
O O12 0.086700 0.043986 0.647242
#
# Coordination Sequence:
#
# PCOD9396670 Si02
#       7
#     8   8   8   8   8   2   2
#     4  10  21  36  63  96 132 166 214 274 332 396
#     4  11  22  41  67  96 133 175 226 275 331 393
#     4  10  21  35  61  96 131 170 210 267 334 399
#     4  11  21  40  67  93 121 170 229 275 326 398
#     4  10  21  39  63  97 126 170 223 273 329 396
#     4  12  20  36  66  96 142 172 212 276 330 408
#     4  12  20  40  74  88 122 166 230 280 324 386
#
# _framework density 25.956576999999999
#
# number of rings (size 3 to 8) (size 9 to 14) (size 15 to 20)
#    0.000    1.455    3.636    3.273    0.000    2.909 
#    0.000    1.364   12.000    0.000    0.000    0.000 
#    0.000    0.000    0.000    0.000    0.000    0.000 
#
# Total GULP energy -244988.922935 kJ/mol
# GULP energy per Si atom -5567.930067 kJ/mol
# Density = 2.589750 g / cm^3
# Si number density = 25.956577 Si / 1000 Ang^3
#
#
#
# Elastic Constant Matrix: (Units=GPa)
#
#
# Indices 1 2 3 4 5 6 
#
# 1 96.5032 53.8715 0.3832 0.0000 0.0000 0.0000
# 2 53.8715 157.2862 11.1584 0.0000 0.0000 0.0000
# 3 0.3832 11.1584 51.7226 0.0000 0.0000 0.0000
# 4 0.0000 0.0000 0.0000 28.9921 0.0000 0.0000
# 5 0.0000 0.0000 0.0000 0.0000 21.5161 0.0000
# 6 0.0000 0.0000 0.0000 0.0000 0.0000 65.1309
#
#
#
# Elastic Compliance Matrix: (Units=1/GPa)
#
#
# Indices 1 2 3 4 5 6 
#
# 1 0.012850 -0.004463 0.000868 0.000000 0.000000 0.000000
# 2 -0.004463 0.008007 -0.001694 0.000000 0.000000 0.000000
# 3 0.000868 -0.001694 0.019693 0.000000 0.000000 0.000000
# 4 0.000000 0.000000 0.000000 0.034492 0.000000 0.000000
# 5 0.000000 0.000000 0.000000 0.000000 0.046477 0.000000
# 6 0.000000 0.000000 0.000000 0.000000 0.000000 0.015354
#
#
# Mechanical properties :
#
#
# Convention : Reuss Voigt Hill
#
# Bulk Modulus (GPa) = 33.36578 48.48203 40.92391
# Shear Modulus (GPa) = 31.75780 39.13441 35.44610
#
# Velocity S-wave (km/s) = 3.50165 3.88711 3.69940
# Velocity P-wave (km/s) = 5.40658 6.23417 5.83506
#
# Compressibility (1/GPa) = 0.02997082
#
# Stress axis : x y z
#
# Youngs Moduli (GPa) = 77.81975 124.89728 50.77949
#
# Poissons Ratio (x) = 0.55740 -0.04406
# Poissons Ratio (y) = 0.34730 0.08603
# Poissons Ratio (z) = -0.06752 0.21161
#
# Static dielectric constant tensor:
#      x y z
#    x 2.134190 0.000000 0.000000 
#    y 0.000000 2.212980 0.000000 
#    z 0.000000 0.000000 2.231060 
# 
# From -- ./inp_files/14169.got.cif
#   From: 2010.05.17/outbox.cif.g08.bks.cpg/sg50_8_cif.got.tgz:14169.got - 2010.06.03 11:33:33.
