data_PCOD9396145
_publ_section_title
;
Structure prediction by ZEFSAII (Michael W. Deem and Ramdas Pophale) SiO2 
 PCOD9396145
Probable space group: P B A N
;
_chemical_formula_sum "Si O2"
_cell_formula_units_Z 34
_cell_length_a 13.812033
_cell_length_b 29.827227
_cell_length_c 5.056193
_cell_angle_alpha 90.000000
_cell_angle_beta 90.000000
_cell_angle_gamma 90.000000
_cell_volume 2083.023309
_symmetry_space_group_name_H-M "P B A N"
_symmetry_group_IT_number 50
_space_group.IT_coordinate_system_code '2'
_symmetry_cell_setting 'orthorhombic'
loop_
_space_group_symop_operation_xyz
x,y,z
1/2-x,1/2-y,z
x,1/2-y,-z
1/2-x,y,-z
-x,-y,-z
1/2+x,1/2+y,-z
-x,1/2+y,z
1/2+x,-y,z
loop_
_atom_site_type_symbol
_atom_site_label
_atom_site_fract_x
_atom_site_fract_y
_atom_site_fract_z
Si Si1 0.750000 0.974426 0.500000
Si Si2 0.750000 0.250000 0.500000
Si Si3 0.943461 0.091625 0.960725
Si Si4 0.538798 0.948572 0.475191
Si Si5 0.684978 0.336724 0.742855
Si Si6 0.750000 0.035115 0.000000
O O1 0.652900 0.948835 0.416115
O O2 0.722836 0.005221 0.749075
O O3 0.817332 0.284398 0.337653
O O4 0.913496 0.139815 0.837377
O O5 0.021639 0.071432 0.763561
O O6 0.842824 0.064612 0.927931
O O7 0.980431 0.080776 0.256826
O O8 0.500000 0.000000 0.500000
O O9 0.750000 0.357592 0.500000
O O10 0.750000 0.339828 0.000000
#
# Coordination Sequence:
#
# PCOD9396145 Si02
#       6
#     4   2   8   8   8   4
#     4  12  24  35  52  68 104 146 190 242 283 296
#     4   8  22  34  58  80 118 146 166 208 296 352
#     4  12  22  34  54  79 106 143 193 224 268 330
#     4  12  23  37  50  75 103 148 197 240 270 311
#     4  10  20  34  54  81 111 147 170 212 275 344
#     4  12  20  32  54  73 100 142 190 235 262 316
#
# _framework density 16.322431000000002
#
# number of rings (size 3 to 8) (size 9 to 14) (size 15 to 20)
#    0.706    0.000    5.882    3.882    1.647    0.000 
#    0.000    0.000    0.000    0.000    0.000    0.000 
#    0.000    0.941    1.882    0.000    0.000    0.000 
#
# Total GULP energy -189309.002093 kJ/mol
# GULP energy per Si atom -5567.911826 kJ/mol
# Density = 1.628528 g / cm^3
# Si number density = 16.322431 Si / 1000 Ang^3
#
#
#
# Elastic Constant Matrix: (Units=GPa)
#
#
# Indices 1 2 3 4 5 6 
#
# 1 74.1543 18.3794 -5.3532 0.0000 0.0000 0.0000
# 2 18.3794 61.0277 12.8667 0.0000 0.0000 0.0000
# 3 -5.3532 12.8667 90.4518 0.0000 0.0000 0.0000
# 4 0.0000 0.0000 0.0000 -58.1648 0.0000 0.0000
# 5 0.0000 0.0000 0.0000 0.0000 30.4551 0.0000
# 6 0.0000 0.0000 0.0000 0.0000 0.0000 25.2818
#
#
#
# Elastic Compliance Matrix: (Units=1/GPa)
#
#
# Indices 1 2 3 4 5 6 
#
# 1 0.014782 -0.004780 0.001555 0.000000 0.000000 0.000000
# 2 -0.004780 0.018438 -0.002906 0.000000 0.000000 0.000000
# 3 0.001555 -0.002906 0.011561 0.000000 0.000000 0.000000
# 4 0.000000 0.000000 0.000000 -0.017193 0.000000 0.000000
# 5 0.000000 0.000000 0.000000 0.000000 0.032835 0.000000
# 6 0.000000 0.000000 0.000000 0.000000 0.000000 0.039554
#
#
# Mechanical properties :
#
#
# Convention : Reuss Voigt Hill
#
# Bulk Modulus (GPa) = 30.75020 30.82440 30.78730
# Shear Modulus (GPa) = 40.62414 12.83048 26.72731
#
# Velocity S-wave (km/s) = 4.99425 2.80673 4.05094
# Velocity P-wave (km/s) = 7.22059 5.42488 6.38616
#
# Compressibility (1/GPa) = 0.03252012
#
# Stress axis : x y z
#
# Youngs Moduli (GPa) = 67.64850 54.23549 86.49801
#
# Poissons Ratio (x) = 0.25923 -0.13448
# Poissons Ratio (y) = 0.32334 0.25134
# Poissons Ratio (z) = -0.10518 0.15759
#
# Static dielectric constant tensor:
#      x y z
#    x 1.522690 0.000000 0.000000 
#    y 0.000000 1.614150 0.000000 
#    z 0.000000 0.000000 1.554360 
# 
# From -- ./inp_files/2527.got.cif
#   From: 2010.05.17/outbox.cif.g08.bks.cpg/sg50_2_cif.got.tgz:2527.got - 2010.06.03 11:33:33.
