data_PCOD9396916
_publ_section_title
;
Structure prediction by ZEFSAII (Michael W. Deem and Ramdas Pophale) SiO2 
 PCOD9396916
Probable space group: P B A N
;
_chemical_formula_sum "Si O2"
_cell_formula_units_Z 58
_cell_length_a 24.135269
_cell_length_b 8.757098
_cell_length_c 14.008514
_cell_angle_alpha 90.000000
_cell_angle_beta 90.000000
_cell_angle_gamma 90.000000
_cell_volume 2960.768298
_symmetry_space_group_name_H-M "P B A N"
_symmetry_group_IT_number 50
_space_group.IT_coordinate_system_code '2'
_symmetry_cell_setting 'orthorhombic'
loop_
_space_group_symop_operation_xyz
x,y,z
1/2-x,1/2-y,z
x,1/2-y,-z
1/2-x,y,-z
-x,-y,-z
1/2+x,1/2+y,-z
-x,1/2+y,z
1/2+x,-y,z
loop_
_atom_site_type_symbol
_atom_site_label
_atom_site_fract_x
_atom_site_fract_y
_atom_site_fract_z
Si Si1 0.066064 0.340721 0.098425
Si Si2 0.326904 0.098448 0.210936
Si Si3 0.794127 0.925229 0.822588
Si Si4 0.060706 0.070625 0.475442
Si Si5 0.605938 0.068356 0.284927
Si Si6 0.904555 0.406526 0.655844
Si Si7 0.505326 0.565775 0.802171
Si Si8 0.250000 0.250000 0.000000
O O1 0.129378 0.380888 0.124511
O O2 0.031868 0.497551 0.111956
O O3 0.039473 0.219250 0.173783
O O4 0.062556 0.250000 0.000000
O O5 0.268230 0.016735 0.194178
O O6 0.309153 0.270741 0.235720
O O7 0.362051 0.011227 0.287739
O O8 0.787048 0.857149 0.930383
O O9 0.842082 0.034066 0.784103
O O10 0.059214 0.250000 0.500000
O O11 0.087130 0.045830 0.370681
O O12 0.095507 0.971681 0.550266
O O13 0.000000 0.000000 0.500000
O O14 0.611734 0.231377 0.334030
O O15 0.552122 0.060267 0.217989
O O16 0.963992 0.420564 0.711441
#
# Coordination Sequence:
#
# PCOD9396916 Si02
#       8
#     8   8   8   8   8   8   8   2
#     4  11  22  37  59  89 126 171 218 271 332 400
#     4   9  21  37  63  89 120 167 214 274 324 386
#     4  10  21  39  67  93 122 171 232 275 332 389
#     4  12  25  38  65  98 132 171 221 269 330 415
#     4  12  23  39  64  94 130 176 216 276 337 398
#     4  11  23  41  61  93 133 169 211 269 341 403
#     4  11  22  36  58  88 127 168 208 265 330 396
#     4   8  20  40  68  98 122 176 236 286 324 402
#
# _framework density 19.589509
#
# number of rings (size 3 to 8) (size 9 to 14) (size 15 to 20)
#    0.000    1.379    4.138    2.483    5.793    0.552 
#    0.000    0.690    0.000    9.103    0.000    0.000 
#    0.000    0.000    0.000    0.000    0.000    0.000 
#
# Total GULP energy -322980.093537 kJ/mol
# GULP energy per Si atom -5568.622302 kJ/mol
# Density = 1.954492 g / cm^3
# Si number density = 19.589509 Si / 1000 Ang^3
#
#
#
# Elastic Constant Matrix: (Units=GPa)
#
#
# Indices 1 2 3 4 5 6 
#
# 1 137.3836 22.8741 51.2991 0.0000 0.0000 0.0000
# 2 22.8741 72.5298 10.2969 0.0000 0.0000 0.0000
# 3 51.2991 10.2969 84.9346 0.0000 0.0000 0.0000
# 4 0.0000 0.0000 0.0000 19.2296 0.0000 0.0000
# 5 0.0000 0.0000 0.0000 0.0000 23.5617 0.0000
# 6 0.0000 0.0000 0.0000 0.0000 0.0000 28.7726
#
#
#
# Elastic Compliance Matrix: (Units=1/GPa)
#
#
# Indices 1 2 3 4 5 6 
#
# 1 0.009755 -0.002279 -0.005616 0.000000 0.000000 0.000000
# 2 -0.002279 0.014561 -0.000389 0.000000 0.000000 0.000000
# 3 -0.005616 -0.000389 0.015213 0.000000 0.000000 0.000000
# 4 0.000000 0.000000 0.000000 0.052003 0.000000 0.000000
# 5 0.000000 0.000000 0.000000 0.000000 0.042442 0.000000
# 6 0.000000 0.000000 0.000000 0.000000 0.000000 0.034755
#
#
# Mechanical properties :
#
#
# Convention : Reuss Voigt Hill
#
# Bulk Modulus (GPa) = 43.55013 51.53203 47.54108
# Shear Modulus (GPa) = 25.91331 28.33797 27.12564
#
# Velocity S-wave (km/s) = 3.64100 3.80753 3.72520
# Velocity P-wave (km/s) = 6.32103 6.75964 6.54401
#
# Compressibility (1/GPa) = 0.02296204
#
# Stress axis : x y z
#
# Youngs Moduli (GPa) = 102.50836 68.67448 65.73457
#
# Poissons Ratio (x) = 0.15653 0.36915
# Poissons Ratio (y) = 0.23365 0.02555
# Poissons Ratio (z) = 0.57566 0.02669
#
# Static dielectric constant tensor:
#      x y z
#    x 1.839180 0.000000 0.000000 
#    y 0.000000 1.682560 0.000000 
#    z 0.000000 0.000000 1.516500 
# 
# From -- ./inp_files/27474.got.cif
#   From: 2010.05.17/outbox.cif.g08.bks.cpg/sg50_14_cif.got.tgz:27474.got - 2010.06.03 11:33:33.
