data_PCOD9396107
_publ_section_title
;
Structure prediction by ZEFSAII (Michael W. Deem and Ramdas Pophale) SiO2 
 PCOD9396107
Probable space group: P B A N
;
_chemical_formula_sum "Si O2"
_cell_formula_units_Z 48
_cell_length_a 4.915812
_cell_length_b 24.784179
_cell_length_c 17.236961
_cell_angle_alpha 90.000000
_cell_angle_beta 90.000000
_cell_angle_gamma 90.000000
_cell_volume 2100.054190
_symmetry_space_group_name_H-M "P B A N"
_symmetry_group_IT_number 50
_space_group.IT_coordinate_system_code '2'
_symmetry_cell_setting 'orthorhombic'
loop_
_space_group_symop_operation_xyz
x,y,z
1/2-x,1/2-y,z
x,1/2-y,-z
1/2-x,y,-z
-x,-y,-z
1/2+x,1/2+y,-z
-x,1/2+y,z
1/2+x,-y,z
loop_
_atom_site_type_symbol
_atom_site_label
_atom_site_fract_x
_atom_site_fract_y
_atom_site_fract_z
Si Si1 0.148508 0.877991 0.918035
Si Si2 0.764134 0.415894 0.754016
Si Si3 0.015055 0.642379 0.552520
Si Si4 0.148736 0.307478 0.118987
Si Si5 0.271504 0.152544 0.284269
Si Si6 0.300901 0.530703 0.604831
O O1 0.180218 0.917838 0.845058
O O2 0.345963 0.826459 0.900893
O O3 0.847437 0.853740 0.914162
O O4 0.250000 0.900096 0.000000
O O5 0.453568 0.398730 0.741282
O O6 0.818108 0.465174 0.697853
O O7 0.960818 0.367950 0.719590
O O8 0.750000 0.633530 0.500000
O O9 0.892098 0.668193 0.631882
O O10 0.250000 0.670653 0.500000
O O11 0.164113 0.586363 0.577766
O O12 0.250000 0.250000 0.089880
O O13 0.179361 0.307933 0.212512
O O14 0.604028 0.517531 0.579857
#
# Coordination Sequence:
#
# PCOD9396107 Si02
#       6
#     8   8   8   8   8   8
#     4  10  20  33  52  77 105 135 165 203 248 294
#     4   9  18  34  51  68  96 135 173 196 230 296
#     4  11  21  33  50  73 100 129 161 203 251 299
#     4  10  20  33  52  78 105 134 166 203 247 294
#     4   9  18  34  51  69  96 134 172 196 230 295
#     4  11  21  33  50  72  99 129 161 204 252 297
#
# _framework density 22.856551
#
# number of rings (size 3 to 8) (size 9 to 14) (size 15 to 20)
#    0.000    2.000    0.000    6.000    0.000    4.000 
#    0.000    0.000    0.000    1.500    0.000    5.833 
#    0.000    0.000    0.000    0.000    0.000    0.000 
#
# Total GULP energy -267872.281397 kJ/mol
# GULP energy per Si atom -5580.672529 kJ/mol
# Density = 2.280453 g / cm^3
# Si number density = 22.856551 Si / 1000 Ang^3
#
#
#
# Elastic Constant Matrix: (Units=GPa)
#
#
# Indices 1 2 3 4 5 6 
#
# 1 85.9036 -0.7413 26.1039 0.0000 0.0000 0.0000
# 2 -0.7413 8.9484 12.8007 0.0000 0.0000 0.0000
# 3 26.1039 12.8007 206.8554 0.0000 0.0000 0.0000
# 4 0.0000 0.0000 0.0000 -2.5934 0.0000 0.0000
# 5 0.0000 0.0000 0.0000 0.0000 40.7222 0.0000
# 6 0.0000 0.0000 0.0000 0.0000 0.0000 7.3228
#
#
#
# Elastic Compliance Matrix: (Units=1/GPa)
#
#
# Indices 1 2 3 4 5 6 
#
# 1 0.012206 0.003527 -0.001759 0.000000 0.000000 0.000000
# 2 0.003527 0.123625 -0.008095 0.000000 0.000000 0.000000
# 3 -0.001759 -0.008095 0.005557 0.000000 0.000000 0.000000
# 4 0.000000 0.000000 0.000000 -0.385592 0.000000 0.000000
# 5 0.000000 0.000000 0.000000 0.000000 0.024557 0.000000
# 6 0.000000 0.000000 0.000000 0.000000 0.000000 0.136559
#
#
# Mechanical properties :
#
#
# Convention : Reuss Voigt Hill
#
# Bulk Modulus (GPa) = 7.76800 42.00380 24.88590
# Shear Modulus (GPa) = -181.66013 26.65993 -77.50010
#
# Velocity S-wave (km/s) = -8.92474 3.41897 -5.82930
# Velocity P-wave (km/s) = 10.13880 5.83119 5.86483
#
# Compressibility (1/GPa) = 0.12873333
#
# Stress axis : x y z
#
# Youngs Moduli (GPa) = 81.92849 8.08901 179.94789
#
# Poissons Ratio (x) = -0.02853 0.31645
# Poissons Ratio (y) = -0.28894 1.45672
# Poissons Ratio (z) = 0.14407 0.06548
#
# Static dielectric constant tensor:
#      x y z
#    x 1.808710 0.000000 0.000000 
#    y 0.000000 1.827730 0.000000 
#    z 0.000000 0.000000 1.963770 
# 
# From -- ./inp_files/28282.got.cif
#   From: 2010.05.17/outbox.cif.g08.bks.cpg/sg50_15_cif.got.tgz:28282.got - 2010.06.03 11:33:33.
