data_PCOD9396034
_publ_section_title
;
Structure prediction by ZEFSAII (Michael W. Deem and Ramdas Pophale) SiO2 
 PCOD9396034
Probable space group: P B A N
;
_chemical_formula_sum "Si O2"
_cell_formula_units_Z 58
_cell_length_a 18.077062
_cell_length_b 16.767815
_cell_length_c 8.294893
_cell_angle_alpha 90.000000
_cell_angle_beta 90.000000
_cell_angle_gamma 90.000000
_cell_volume 2514.288503
_symmetry_space_group_name_H-M "P B A N"
_symmetry_group_IT_number 50
_space_group.IT_coordinate_system_code '2'
_symmetry_cell_setting 'orthorhombic'
loop_
_space_group_symop_operation_xyz
x,y,z
1/2-x,1/2-y,z
x,1/2-y,-z
1/2-x,y,-z
-x,-y,-z
1/2+x,1/2+y,-z
-x,1/2+y,z
1/2+x,-y,z
loop_
_atom_site_type_symbol
_atom_site_label
_atom_site_fract_x
_atom_site_fract_y
_atom_site_fract_z
Si Si1 0.250000 0.250000 0.000000
Si Si2 0.470126 0.641676 0.778458
Si Si3 0.622268 0.169379 0.460638
Si Si4 0.412885 0.641634 0.115847
Si Si5 0.785168 0.020388 0.839977
Si Si6 0.561413 0.546957 0.196839
Si Si7 0.677166 0.001990 0.570584
Si Si8 0.368117 0.125861 0.877945
O O1 0.305436 0.307541 0.099454
O O2 0.439341 0.660139 0.601058
O O3 0.455744 0.547084 0.809776
O O4 0.556995 0.659131 0.798506
O O5 0.430430 0.674828 0.939162
O O6 0.667182 0.250000 0.500000
O O7 0.595466 0.189281 0.281216
O O8 0.657096 0.080229 0.464621
O O9 0.336353 0.592849 0.106984
O O10 0.481871 0.586531 0.172242
O O11 0.714797 0.040341 0.731156
O O12 0.838084 0.949552 0.776855
O O13 0.750000 0.983439 0.000000
O O14 0.609457 0.550704 0.363004
O O15 0.607313 0.587503 0.051070
O O16 0.750000 0.959270 0.500000
#
# Coordination Sequence:
#
# PCOD9396034 Si02
#       8
#     2   8   8   8   8   8   8   8
#     4  12  24  32  56 104 134 192 200 246 360 424
#     4  10  21  40  68  97 121 165 223 278 313 376
#     4  11  26  43  59  92 131 168 208 262 325 399
#     4  11  21  39  70  91 125 164 217 273 328 365
#     4  12  19  37  63  92 122 163 205 274 317 371
#     4  10  19  38  66  96 121 165 220 284 321 364
#     4  11  22  36  59  91 126 159 209 257 329 383
#     4  11  20  37  61  92 137 161 218 263 316 396
#
# _framework density 23.068155999999998
#
# number of rings (size 3 to 8) (size 9 to 14) (size 15 to 20)
#    0.000    1.103    6.207    1.655    0.000    6.345 
#    0.000    0.000    0.000    0.000    0.000    5.793 
#    0.000    0.000    0.000    0.000    0.000    0.000 
#
# Total GULP energy -323144.274815 kJ/mol
# GULP energy per Si atom -5571.453014 kJ/mol
# Density = 2.301565 g / cm^3
# Si number density = 23.068156 Si / 1000 Ang^3
#
#
#
# Elastic Constant Matrix: (Units=GPa)
#
#
# Indices 1 2 3 4 5 6 
#
# 1 102.2635 2.5081 19.9757 0.0000 0.0000 0.0000
# 2 2.5081 55.0149 5.7837 0.0000 0.0000 0.0000
# 3 19.9757 5.7837 100.2338 0.0000 0.0000 0.0000
# 4 0.0000 0.0000 0.0000 29.0520 0.0000 0.0000
# 5 0.0000 0.0000 0.0000 0.0000 49.0517 0.0000
# 6 0.0000 0.0000 0.0000 0.0000 0.0000 -31.4795
#
#
#
# Elastic Compliance Matrix: (Units=1/GPa)
#
#
# Indices 1 2 3 4 5 6 
#
# 1 0.010178 -0.000252 -0.002014 0.000000 0.000000 0.000000
# 2 -0.000252 0.018294 -0.001005 0.000000 0.000000 0.000000
# 3 -0.002014 -0.001005 0.010436 0.000000 0.000000 0.000000
# 4 0.000000 0.000000 0.000000 0.034421 0.000000 0.000000
# 5 0.000000 0.000000 0.000000 0.000000 0.020387 0.000000
# 6 0.000000 0.000000 0.000000 0.000000 0.000000 -0.031767
#
#
# Mechanical properties :
#
#
# Convention : Reuss Voigt Hill
#
# Bulk Modulus (GPa) = 30.89723 34.89413 32.89568
# Shear Modulus (GPa) = 63.06691 24.60779 43.83735
#
# Velocity S-wave (km/s) = 5.23438 3.26965 4.36402
# Velocity P-wave (km/s) = 7.06786 5.42342 6.29953
#
# Compressibility (1/GPa) = 0.03236536
#
# Stress axis : x y z
#
# Youngs Moduli (GPa) = 98.24887 54.66243 95.82185
#
# Poissons Ratio (x) = 0.01379 0.19297
# Poissons Ratio (y) = 0.02479 0.09633
# Poissons Ratio (z) = 0.19786 0.05495
#
# Static dielectric constant tensor:
#      x y z
#    x 1.874420 0.000000 0.000000 
#    y 0.000000 1.941420 0.000000 
#    z 0.000000 0.000000 1.936590 
# 
# From -- ./inp_files/14489.got.cif
#   From: 2010.05.17/outbox.cif.g08.bks.cpg/sg50_8_cif.got.tgz:14489.got - 2010.06.03 11:33:33.
