data_PCOD9396205
_publ_section_title
;
Structure prediction by ZEFSAII (Michael W. Deem and Ramdas Pophale) SiO2 
 PCOD9396205
Probable space group: P B A N
;
_chemical_formula_sum "Si O2"
_cell_formula_units_Z 48
_cell_length_a 25.491238
_cell_length_b 14.969266
_cell_length_c 6.244564
_cell_angle_alpha 90.000000
_cell_angle_beta 90.000000
_cell_angle_gamma 90.000000
_cell_volume 2382.832718
_symmetry_space_group_name_H-M "P B A N"
_symmetry_group_IT_number 50
_space_group.IT_coordinate_system_code '2'
_symmetry_cell_setting 'orthorhombic'
loop_
_space_group_symop_operation_xyz
x,y,z
1/2-x,1/2-y,z
x,1/2-y,-z
1/2-x,y,-z
-x,-y,-z
1/2+x,1/2+y,-z
-x,1/2+y,z
1/2+x,-y,z
loop_
_atom_site_type_symbol
_atom_site_label
_atom_site_fract_x
_atom_site_fract_y
_atom_site_fract_z
Si Si1 0.348633 0.420893 0.775440
Si Si2 0.411011 0.334378 0.385788
Si Si3 0.843517 0.750000 0.000000
Si Si4 0.177239 0.750000 0.500000
Si Si5 0.056775 0.484982 0.904763
Si Si6 0.797265 0.104937 0.169302
Si Si7 0.392297 0.831384 0.871783
O O1 0.372387 0.382905 0.554812
O O2 0.311218 0.506109 0.747178
O O3 0.318801 0.339035 0.895960
O O4 0.398750 0.451273 0.923652
O O5 0.438426 0.250000 0.500000
O O6 0.378223 0.289148 0.193938
O O7 0.445651 0.410551 0.279385
O O8 0.207965 0.822504 0.643465
O O9 0.138759 0.699206 0.663166
O O10 0.074341 0.581647 0.820915
O O11 0.000000 0.500000 0.000000
O O12 0.750000 0.104247 0.000000
O O13 0.847800 0.137464 0.038071
O O14 0.420209 0.750000 0.000000
#
# Coordination Sequence:
#
# PCOD9396205 Si02
#       7
#     8   8   4   4   8   8   8
#     4   9  18  35  56  80 114 146 192 238 292 348
#     4   9  17  33  56  80 108 148 192 231 288 349
#     4   8  16  32  57  80 108 146 178 238 285 340
#     4  10  20  37  60  78 116 154 190 234 294 347
#     4  10  20  35  55  78 112 148 187 241 291 339
#     4  10  21  35  56  85 114 149 193 238 286 348
#     4   9  20  37  54  79 111 147 189 237 286 338
#
# _framework density 20.144089999999998
#
# number of rings (size 3 to 8) (size 9 to 14) (size 15 to 20)
#    0.000    2.667    0.000    1.000    0.000    5.000 
#    9.000    0.417    7.333    0.000    0.000   17.500 
#    0.000    0.000    0.000    0.000    0.000    0.000 
#
# Total GULP energy -267531.843179 kJ/mol
# GULP energy per Si atom -5573.580066 kJ/mol
# Density = 2.009824 g / cm^3
# Si number density = 20.144090 Si / 1000 Ang^3
#
#
#
# Elastic Constant Matrix: (Units=GPa)
#
#
# Indices 1 2 3 4 5 6 
#
# 1 49.9211 56.5157 24.6164 0.0000 0.0000 0.0000
# 2 56.5157 207.4065 78.6871 0.0000 0.0000 0.0000
# 3 24.6164 78.6871 107.8250 0.0000 0.0000 0.0000
# 4 0.0000 0.0000 0.0000 32.8642 0.0000 0.0000
# 5 0.0000 0.0000 0.0000 0.0000 18.1680 0.0000
# 6 0.0000 0.0000 0.0000 0.0000 0.0000 -7.0135
#
#
#
# Elastic Compliance Matrix: (Units=1/GPa)
#
#
# Indices 1 2 3 4 5 6 
#
# 1 0.029077 -0.007474 -0.001184 0.000000 0.000000 0.000000
# 2 -0.007474 0.008588 -0.004561 0.000000 0.000000 0.000000
# 3 -0.001184 -0.004561 0.012873 0.000000 0.000000 0.000000
# 4 0.000000 0.000000 0.000000 0.030428 0.000000 0.000000
# 5 0.000000 0.000000 0.000000 0.000000 0.055042 0.000000
# 6 0.000000 0.000000 0.000000 0.000000 0.000000 -0.142582
#
#
# Mechanical properties :
#
#
# Convention : Reuss Voigt Hill
#
# Bulk Modulus (GPa) = 41.49374 76.08789 58.79082
# Shear Modulus (GPa) = 179.22468 22.49262 100.85865
#
# Velocity S-wave (km/s) = 9.44270 3.34516 7.08359
# Velocity P-wave (km/s) = 11.81225 7.26457 9.80569
#
# Compressibility (1/GPa) = 0.02410002
#
# Stress axis : x y z
#
# Youngs Moduli (GPa) = 34.39195 116.43524 77.68018
#
# Poissons Ratio (x) = 0.87021 0.09198
# Poissons Ratio (y) = 0.25704 0.35432
# Poissons Ratio (z) = 0.04072 0.53110
#
# Static dielectric constant tensor:
#      x y z
#    x 1.673060 0.000000 0.000000 
#    y 0.000000 1.768650 0.000000 
#    z 0.000000 0.000000 1.710170 
# 
# From -- ./inp_files/6657.got.cif
#   From: 2010.05.17/outbox.cif.g08.bks.cpg/sg50_4_cif.got.tgz:6657.got - 2010.06.03 11:33:33.
