data_PCOD9396528
_publ_section_title
;
Structure prediction by ZEFSAII (Michael W. Deem and Ramdas Pophale) SiO2 
 PCOD9396528
Probable space group: P B A N
;
_chemical_formula_sum "Si O2"
_cell_formula_units_Z 28
_cell_length_a 5.419413
_cell_length_b 27.866172
_cell_length_c 7.696738
_cell_angle_alpha 90.000000
_cell_angle_beta 90.000000
_cell_angle_gamma 90.000000
_cell_volume 1162.348248
_symmetry_space_group_name_H-M "P B A N"
_symmetry_group_IT_number 50
_space_group.IT_coordinate_system_code '2'
_symmetry_cell_setting 'orthorhombic'
loop_
_space_group_symop_operation_xyz
x,y,z
1/2-x,1/2-y,z
x,1/2-y,-z
1/2-x,y,-z
-x,-y,-z
1/2+x,1/2+y,-z
-x,1/2+y,z
1/2+x,-y,z
loop_
_atom_site_type_symbol
_atom_site_label
_atom_site_fract_x
_atom_site_fract_y
_atom_site_fract_z
Si Si1 0.004067 0.279668 0.748659
Si Si2 0.901655 0.380854 0.664852
Si Si3 0.750000 0.160820 0.000000
Si Si4 0.454067 0.018858 0.698823
O O1 0.250000 0.250000 0.727381
O O2 0.750000 0.250000 0.715886
O O3 0.010017 0.327954 0.632680
O O4 0.968422 0.303680 0.940566
O O5 0.750000 0.397017 0.500000
O O6 0.086813 0.423939 0.703717
O O7 0.722498 0.371059 0.829525
O O8 0.500000 0.000000 0.500000
O O9 0.220352 0.992535 0.779203
#
# Coordination Sequence:
#
# PCOD9396528 Si02
#       4
#     8   8   4   8
#     4  10  23  45  68  98 143 185 226 291 351 412
#     4  10  21  44  70 104 142 182 245 290 348 428
#     4   8  23  42  70  98 142 188 234 284 357 412
#     4  10  20  39  69  97 136 188 224 287 367 398
#
# _framework density 24.089164
#
# number of rings (size 3 to 8) (size 9 to 14) (size 15 to 20)
#    1.714    0.571    2.857    0.429    0.000    5.143 
#    0.000    4.286    0.000    0.000    0.000    0.000 
#    0.000    0.000    0.000    0.000    0.000    0.000 
#
# Total GULP energy -156077.134846 kJ/mol
# GULP energy per Si atom -5574.183387 kJ/mol
# Density = 2.403434 g / cm^3
# Si number density = 24.089164 Si / 1000 Ang^3
#
#
#
# Elastic Constant Matrix: (Units=GPa)
#
#
# Indices 1 2 3 4 5 6 
#
# 1 152.4892 55.6267 -0.2589 0.0000 0.0000 0.0000
# 2 55.6267 176.1319 1.8876 0.0000 0.0000 0.0000
# 3 -0.2589 1.8876 73.7027 0.0000 0.0000 0.0000
# 4 0.0000 0.0000 0.0000 958.7025 0.0000 0.0000
# 5 0.0000 0.0000 0.0000 0.0000 8.5130 0.0000
# 6 0.0000 0.0000 0.0000 0.0000 0.0000 38.2278
#
#
#
# Elastic Compliance Matrix: (Units=1/GPa)
#
#
# Indices 1 2 3 4 5 6 
#
# 1 0.007412 -0.002342 0.000086 0.000000 0.000000 0.000000
# 2 -0.002342 0.006419 -0.000173 0.000000 0.000000 0.000000
# 3 0.000086 -0.000173 0.013573 0.000000 0.000000 0.000000
# 4 0.000000 0.000000 0.000000 0.001043 0.000000 0.000000
# 5 0.000000 0.000000 0.000000 0.000000 0.117467 0.000000
# 6 0.000000 0.000000 0.000000 0.000000 0.000000 0.026159
#
#
# Mechanical properties :
#
#
# Convention : Reuss Voigt Hill
#
# Bulk Modulus (GPa) = 44.35168 57.42607 50.88887
# Shear Modulus (GPa) = 27.10820 224.09322 125.60071
#
# Velocity S-wave (km/s) = 3.35823 9.65549 7.22863
# Velocity P-wave (km/s) = 5.78691 12.17355 9.53110
#
# Compressibility (1/GPa) = 0.02254706
#
# Stress axis : x y z
#
# Youngs Moduli (GPa) = 134.91105 155.78650 73.67705
#
# Poissons Ratio (x) = 0.36484 -0.00634
# Poissons Ratio (y) = 0.31595 0.01272
# Poissons Ratio (z) = -0.01160 0.02689
#
# Static dielectric constant tensor:
#      x y z
#    x 1.962940 0.000000 0.000000 
#    y 0.000000 1.943340 0.000000 
#    z 0.000000 0.000000 2.010490 
# 
# From -- ./inp_files/7785.got.cif
#   From: 2010.05.17/outbox.cif.g08.bks.cpg/sg50_4_cif.got.tgz:7785.got - 2010.06.03 11:33:33.
