data_PCOD9396359
_publ_section_title
;
Structure prediction by ZEFSAII (Michael W. Deem and Ramdas Pophale) SiO2 
 PCOD9396359
Probable space group: P B A N
;
_chemical_formula_sum "Si O2"
_cell_formula_units_Z 64
_cell_length_a 22.953814
_cell_length_b 17.166310
_cell_length_c 8.026747
_cell_angle_alpha 90.000000
_cell_angle_beta 90.000000
_cell_angle_gamma 90.000000
_cell_volume 3162.797476
_symmetry_space_group_name_H-M "P B A N"
_symmetry_group_IT_number 50
_space_group.IT_coordinate_system_code '2'
_symmetry_cell_setting 'orthorhombic'
loop_
_space_group_symop_operation_xyz
x,y,z
1/2-x,1/2-y,z
x,1/2-y,-z
1/2-x,y,-z
-x,-y,-z
1/2+x,1/2+y,-z
-x,1/2+y,z
1/2+x,-y,z
loop_
_atom_site_type_symbol
_atom_site_label
_atom_site_fract_x
_atom_site_fract_y
_atom_site_fract_z
Si Si1 0.016515 0.339108 0.299665
Si Si2 0.391960 0.898784 0.701425
Si Si3 0.891960 0.101216 0.298575
Si Si4 0.750000 0.840288 0.204151
Si Si5 0.683103 0.250000 0.296303
Si Si6 0.133599 0.426977 0.801779
Si Si7 0.633599 0.573023 0.198221
Si Si8 0.516515 0.660892 0.700335
O O1 0.075158 0.384558 0.258352
O O2 0.018081 0.250000 0.237197
O O3 0.012097 0.335535 0.500000
O O4 0.958039 0.382368 0.239793
O O5 0.392606 0.898024 0.500000
O O6 0.351321 0.827310 0.757018
O O7 0.369124 0.982519 0.755295
O O8 0.851321 0.172690 0.242982
O O9 0.958039 0.117632 0.239793
O O10 0.869124 0.017481 0.244705
O O11 0.750000 0.750000 0.254767
O O12 0.691736 0.884250 0.262119
O O13 0.808264 0.884250 0.262119
O O14 0.750000 0.841493 0.000000
O O15 0.750000 0.250000 0.241749
O O16 0.682805 0.250000 0.500000
O O17 0.075158 0.384558 0.741648
O O18 0.134567 0.420640 1.000000
#
# Coordination Sequence:
#
# PCOD9396359 Si02
#       8
#     8   8   8   8   8   8   8   8
#     4  10  20  37  59  83 113 148 187 231 280 330
#     4  10  20  37  59  85 115 148 186 230 280 330
#     4  10  20  37  59  85 115 148 186 230 280 330
#     4   9  20  40  59  76 107 150 188 225 275 333
#     4   9  18  34  59  87 113 148 191 230 272 331
#     4  11  23  37  57  84 113 147 189 232 281 336
#     4  11  23  37  57  84 113 147 189 232 281 336
#     4  10  20  37  59  83 113 148 187 231 280 330
#
# _framework density 20.235251000000002
#
# number of rings (size 3 to 8) (size 9 to 14) (size 15 to 20)
#    0.000    2.000    1.250    2.250    1.750    5.500 
#    0.000    2.500    0.000    5.250    0.000    0.000 
#    0.000    0.000    0.000    0.000    0.000    0.000 
#
# Total GULP energy -357605.755674 kJ/mol
# GULP energy per Si atom -5587.589932 kJ/mol
# Density = 2.018919 g / cm^3
# Si number density = 20.235251 Si / 1000 Ang^3
#
#
#
# Elastic Constant Matrix: (Units=GPa)
#
#
# Indices 1 2 3 4 5 6 
#
# 1 212.6827 112.0851 6.4248 0.0000 0.0000 0.0000
# 2 112.0851 186.8372 0.4731 0.0000 0.0000 0.0000
# 3 6.4248 0.4731 12.7498 0.0000 0.0000 0.0000
# 4 0.0000 0.0000 0.0000 1.9090 0.0000 0.0000
# 5 0.0000 0.0000 0.0000 0.0000 -30.2414 0.0000
# 6 0.0000 0.0000 0.0000 0.0000 0.0000 18.1709
#
#
#
# Elastic Compliance Matrix: (Units=1/GPa)
#
#
# Indices 1 2 3 4 5 6 
#
# 1 0.007018 -0.004202 -0.003381 0.000000 0.000000 0.000000
# 2 -0.004202 0.007868 0.001825 0.000000 0.000000 0.000000
# 3 -0.003381 0.001825 0.080069 0.000000 0.000000 0.000000
# 4 0.000000 0.000000 0.000000 0.523822 0.000000 0.000000
# 5 0.000000 0.000000 0.000000 0.000000 -0.033067 0.000000
# 6 0.000000 0.000000 0.000000 0.000000 0.000000 0.055033
#
#
# Mechanical properties :
#
#
# Convention : Reuss Voigt Hill
#
# Bulk Modulus (GPa) = 11.98453 72.24841 42.11647
# Shear Modulus (GPa) = 7.35218 17.52014 12.43616
#
# Velocity S-wave (km/s) = 1.90820 2.94568 2.48176
# Velocity P-wave (km/s) = 3.28488 6.88121 5.39173
#
# Compressibility (1/GPa) = 0.08344091
#
# Stress axis : x y z
#
# Youngs Moduli (GPa) = 142.48382 127.09185 12.48930
#
# Poissons Ratio (x) = 0.53401 0.04222
# Poissons Ratio (y) = 0.59869 -0.02280
# Poissons Ratio (z) = 0.48170 -0.23200
#
# Static dielectric constant tensor:
#      x y z
#    x 1.699710 0.000000 0.000000 
#    y 0.000000 1.684960 0.000000 
#    z 0.000000 0.000000 1.738500 
# 
# From -- ./inp_files/16138.got.cif
#   From: 2010.05.17/outbox.cif.g08.bks.cpg/sg50_9_cif.got.tgz:16138.got - 2010.06.03 11:33:33.
