data_PCOD9396436
_publ_section_title
;
Structure prediction by ZEFSAII (Michael W. Deem and Ramdas Pophale) SiO2 
 PCOD9396436
Probable space group: P B A N
;
_chemical_formula_sum "Si O2"
_cell_formula_units_Z 40
_cell_length_a 18.609720
_cell_length_b 11.425716
_cell_length_c 8.200552
_cell_angle_alpha 90.000000
_cell_angle_beta 90.000000
_cell_angle_gamma 90.000000
_cell_volume 1743.678251
_symmetry_space_group_name_H-M "P B A N"
_symmetry_group_IT_number 50
_space_group.IT_coordinate_system_code '2'
_symmetry_cell_setting 'orthorhombic'
loop_
_space_group_symop_operation_xyz
x,y,z
1/2-x,1/2-y,z
x,1/2-y,-z
1/2-x,y,-z
-x,-y,-z
1/2+x,1/2+y,-z
-x,1/2+y,z
1/2+x,-y,z
loop_
_atom_site_type_symbol
_atom_site_label
_atom_site_fract_x
_atom_site_fract_y
_atom_site_fract_z
Si Si1 0.619293 0.176829 0.265019
Si Si2 0.086911 0.371318 0.906090
Si Si3 0.779998 0.504265 0.173583
Si Si4 0.646106 0.068776 0.618433
Si Si5 0.977570 0.526642 0.778306
O O1 0.646363 0.119630 0.436522
O O2 0.628220 0.314933 0.275438
O O3 0.539191 0.126278 0.233775
O O4 0.676625 0.116996 0.146163
O O5 0.156815 0.401233 0.800338
O O6 0.020206 0.404211 0.791756
O O7 0.089805 0.250000 0.000000
O O8 0.070670 0.457999 0.059224
O O9 0.717924 0.487767 0.306892
O O10 0.750000 0.541606 0.000000
O O11 0.579511 0.980000 0.634210
#
# Coordination Sequence:
#
# PCOD9396436 Si02
#       5
#     8   8   8   8   8
#     4  10  23  37  61  86 121 159 195 247 303 352
#     4  10  21  38  60  89 124 157 198 247 304 354
#     4  11  22  39  56  89 116 156 198 248 298 349
#     4  11  21  39  59  89 119 157 201 244 299 358
#     4  10  20  38  60  91 119 158 199 248 294 358
#
# _framework density 22.940010999999998
#
# number of rings (size 3 to 8) (size 9 to 14) (size 15 to 20)
#    0.000    1.600    2.000    3.000    0.000    3.600 
#    0.000    0.000    0.000    0.000   10.400    0.000 
#    0.000    0.000    0.000    0.000    0.000    0.000 
#
# Total GULP energy -223105.380423 kJ/mol
# GULP energy per Si atom -5577.634511 kJ/mol
# Density = 2.288780 g / cm^3
# Si number density = 22.940011 Si / 1000 Ang^3
#
#
#
# Elastic Constant Matrix: (Units=GPa)
#
#
# Indices 1 2 3 4 5 6 
#
# 1 161.5813 43.4662 32.7809 0.0000 0.0000 0.0000
# 2 43.4662 75.1270 0.5719 0.0000 0.0000 0.0000
# 3 32.7809 0.5719 48.3413 0.0000 0.0000 0.0000
# 4 0.0000 0.0000 0.0000 29.8534 0.0000 0.0000
# 5 0.0000 0.0000 0.0000 0.0000 35.9673 0.0000
# 6 0.0000 0.0000 0.0000 0.0000 0.0000 19.4304
#
#
#
# Elastic Compliance Matrix: (Units=1/GPa)
#
#
# Indices 1 2 3 4 5 6 
#
# 1 0.008722 -0.005002 -0.005856 0.000000 0.000000 0.000000
# 2 -0.005002 0.016180 0.003200 0.000000 0.000000 0.000000
# 3 -0.005856 0.003200 0.024619 0.000000 0.000000 0.000000
# 4 0.000000 0.000000 0.000000 0.033497 0.000000 0.000000
# 5 0.000000 0.000000 0.000000 0.000000 0.027803 0.000000
# 6 0.000000 0.000000 0.000000 0.000000 0.000000 0.051466
#
#
# Mechanical properties :
#
#
# Convention : Reuss Voigt Hill
#
# Bulk Modulus (GPa) = 29.23312 48.74308 38.98810
# Shear Modulus (GPa) = 26.45446 30.93228 28.69337
#
# Velocity S-wave (km/s) = 3.39957 3.67604 3.54050
# Velocity P-wave (km/s) = 5.30852 6.26992 5.80914
#
# Compressibility (1/GPa) = 0.03420777
#
# Stress axis : x y z
#
# Youngs Moduli (GPa) = 114.64845 61.80325 40.61886
#
# Poissons Ratio (x) = 0.30913 0.23785
# Poissons Ratio (y) = 0.57346 -0.13000
# Poissons Ratio (z) = 0.67133 -0.19780
#
# Static dielectric constant tensor:
#      x y z
#    x 1.915290 0.000000 0.000000 
#    y 0.000000 1.883810 0.000000 
#    z 0.000000 0.000000 1.916110 
# 
# From -- ./inp_files/11025.got.cif
#   From: 2010.05.17/outbox.cif.g08.bks.cpg/sg50_6_cif.got.tgz:11025.got - 2010.06.03 11:33:33.
