data_PCOD9396646
_publ_section_title
;
Structure prediction by ZEFSAII (Michael W. Deem and Ramdas Pophale) SiO2 
 PCOD9396646
Probable space group: P B A N
;
_chemical_formula_sum "Si O2"
_cell_formula_units_Z 40
_cell_length_a 16.074447
_cell_length_b 7.711766
_cell_length_c 14.405925
_cell_angle_alpha 90.000000
_cell_angle_beta 90.000000
_cell_angle_gamma 90.000000
_cell_volume 1785.792660
_symmetry_space_group_name_H-M "P B A N"
_symmetry_group_IT_number 50
_space_group.IT_coordinate_system_code '2'
_symmetry_cell_setting 'orthorhombic'
loop_
_space_group_symop_operation_xyz
x,y,z
1/2-x,1/2-y,z
x,1/2-y,-z
1/2-x,y,-z
-x,-y,-z
1/2+x,1/2+y,-z
-x,1/2+y,z
1/2+x,-y,z
loop_
_atom_site_type_symbol
_atom_site_label
_atom_site_fract_x
_atom_site_fract_y
_atom_site_fract_z
Si Si1 0.134102 0.889987 0.295744
Si Si2 0.399535 0.443591 0.107880
Si Si3 0.250000 0.250000 0.824677
Si Si4 0.903293 0.042640 0.503905
Si Si5 0.173966 0.992960 0.688092
Si Si6 0.969154 0.250000 0.000000
O O1 0.114878 0.994442 0.389361
O O2 0.119249 0.681426 0.295027
O O3 0.232855 0.923167 0.294926
O O4 0.088684 0.970409 0.208137
O O5 0.305955 0.373280 0.112084
O O6 0.413484 0.589105 0.029989
O O7 0.468385 0.301106 0.083110
O O8 0.319462 0.345803 0.758900
O O9 0.886611 0.250000 0.500000
O O10 0.850840 0.961215 0.418643
O O11 0.000000 0.000000 0.500000
#
# Coordination Sequence:
#
# PCOD9396646 Si02
#       6
#     8   8   4   8   8   4
#     4   9  19  38  62  84 116 163 210 252 305 373
#     4  10  23  43  66  93 123 166 212 264 329 388
#     4  10  22  41  67  98 130 168 218 263 311 392
#     4  10  21  34  53  85 122 160 200 246 299 362
#     4   9  19  37  59  87 123 160 203 253 302 361
#     4  10  24  45  68  93 128 162 204 274 342 386
#
# _framework density 22.399016
#
# number of rings (size 3 to 8) (size 9 to 14) (size 15 to 20)
#    0.000    2.400    0.000    0.600    0.000   14.000 
#    0.000   10.000    0.000    0.000    0.000    0.000 
#    0.000    0.000    0.000    0.000    0.000    0.000 
#
# Total GULP energy -222763.495110 kJ/mol
# GULP energy per Si atom -5569.087378 kJ/mol
# Density = 2.234803 g / cm^3
# Si number density = 22.399016 Si / 1000 Ang^3
#
#
#
# Elastic Constant Matrix: (Units=GPa)
#
#
# Indices 1 2 3 4 5 6 
#
# 1 55.6302 31.9275 54.3819 0.0000 0.0000 0.0000
# 2 31.9275 60.7358 30.8803 0.0000 0.0000 0.0000
# 3 54.3819 30.8803 112.1396 0.0000 0.0000 0.0000
# 4 0.0000 0.0000 0.0000 16.5568 0.0000 0.0000
# 5 0.0000 0.0000 0.0000 0.0000 199.7408 0.0000
# 6 0.0000 0.0000 0.0000 0.0000 0.0000 18.9420
#
#
#
# Elastic Compliance Matrix: (Units=1/GPa)
#
#
# Indices 1 2 3 4 5 6 
#
# 1 0.042095 -0.013662 -0.016652 0.000000 0.000000 0.000000
# 2 -0.013662 0.023579 0.000132 0.000000 0.000000 0.000000
# 3 -0.016652 0.000132 0.016956 0.000000 0.000000 0.000000
# 4 0.000000 0.000000 0.000000 0.060398 0.000000 0.000000
# 5 0.000000 0.000000 0.000000 0.000000 0.005006 0.000000
# 6 0.000000 0.000000 0.000000 0.000000 0.000000 0.052793
#
#
# Mechanical properties :
#
#
# Convention : Reuss Voigt Hill
#
# Bulk Modulus (GPa) = 44.90840 51.43164 48.17002
# Shear Modulus (GPa) = 18.61413 54.46899 36.54156
#
# Velocity S-wave (km/s) = 2.88588 4.93664 4.04343
# Velocity P-wave (km/s) = 5.58544 7.45018 6.58416
#
# Compressibility (1/GPa) = 0.02226755
#
# Stress axis : x y z
#
# Youngs Moduli (GPa) = 23.75587 42.40998 58.97531
#
# Poissons Ratio (x) = 0.57941 0.98204
# Poissons Ratio (y) = 0.32455 -0.00780
# Poissons Ratio (z) = 0.39558 -0.00561
#
# Static dielectric constant tensor:
#      x y z
#    x 1.950770 0.000000 0.000000 
#    y 0.000000 1.966940 0.000000 
#    z 0.000000 0.000000 1.921290 
# 
# From -- ./inp_files/26328.got.cif
#   From: 2010.05.17/outbox.cif.g08.bks.cpg/sg50_14_cif.got.tgz:26328.got - 2010.06.03 11:33:33.
