data_PCOD9396890
_publ_section_title
;
Structure prediction by ZEFSAII (Michael W. Deem and Ramdas Pophale) SiO2 
 PCOD9396890
Probable space group: P B A N
;
_chemical_formula_sum "Si O2"
_cell_formula_units_Z 36
_cell_length_a 14.490656
_cell_length_b 19.796800
_cell_length_c 6.047014
_cell_angle_alpha 90.000000
_cell_angle_beta 90.000000
_cell_angle_gamma 90.000000
_cell_volume 1734.698553
_symmetry_space_group_name_H-M "P B A N"
_symmetry_group_IT_number 50
_space_group.IT_coordinate_system_code '2'
_symmetry_cell_setting 'orthorhombic'
loop_
_space_group_symop_operation_xyz
x,y,z
1/2-x,1/2-y,z
x,1/2-y,-z
1/2-x,y,-z
-x,-y,-z
1/2+x,1/2+y,-z
-x,1/2+y,z
1/2+x,-y,z
loop_
_atom_site_type_symbol
_atom_site_label
_atom_site_fract_x
_atom_site_fract_y
_atom_site_fract_z
Si Si1 0.896954 0.568405 0.797236
Si Si2 0.994230 0.434559 0.804445
Si Si3 0.011820 0.825208 0.420053
Si Si4 0.837393 0.390119 0.151222
Si Si5 0.750000 0.005101 0.500000
O O1 0.971847 0.510429 0.729020
O O2 0.809013 0.541948 0.665625
O O3 0.930183 0.642226 0.725687
O O4 0.908936 0.568117 0.063009
O O5 0.986087 0.377488 0.622984
O O6 0.911955 0.419020 0.977973
O O7 0.996286 0.750000 0.500000
O O8 0.107077 0.832319 0.282965
O O9 0.806194 0.444831 0.335640
O O10 0.750000 0.370315 0.000000
#
# Coordination Sequence:
#
# PCOD9396890 Si02
#       5
#     8   8   8   8   4
#     4  10  22  36  66  92 124 161 215 266 317 377
#     4  10  21  39  62  94 121 163 212 262 313 383
#     4  11  24  42  61  89 129 174 210 255 323 400
#     4  11  21  37  61  91 126 159 208 265 325 380
#     4  12  22  38  62 102 124 158 210 284 328 366
#
# _framework density 20.752884999999999
#
# number of rings (size 3 to 8) (size 9 to 14) (size 15 to 20)
#    0.000    1.333    4.444    0.667    6.222    3.556 
#    0.000    8.889    0.000    0.000    5.778    0.000 
#    0.000    0.000    0.000    0.000    0.000    0.000 
#
# Total GULP energy -200796.448969 kJ/mol
# GULP energy per Si atom -5577.679138 kJ/mol
# Density = 2.070565 g / cm^3
# Si number density = 20.752885 Si / 1000 Ang^3
#
#
#
# Elastic Constant Matrix: (Units=GPa)
#
#
# Indices 1 2 3 4 5 6 
#
# 1 46.5780 0.3264 5.8420 0.0000 0.0000 0.0000
# 2 0.3264 121.9715 1.9826 0.0000 0.0000 0.0000
# 3 5.8420 1.9826 51.8280 0.0000 0.0000 0.0000
# 4 0.0000 0.0000 0.0000 25.6195 0.0000 0.0000
# 5 0.0000 0.0000 0.0000 0.0000 51.4063 0.0000
# 6 0.0000 0.0000 0.0000 0.0000 0.0000 20.2747
#
#
#
# Elastic Compliance Matrix: (Units=1/GPa)
#
#
# Indices 1 2 3 4 5 6 
#
# 1 0.021777 -0.000018 -0.002454 0.000000 0.000000 0.000000
# 2 -0.000018 0.008204 -0.000312 0.000000 0.000000 0.000000
# 3 -0.002454 -0.000312 0.019583 0.000000 0.000000 0.000000
# 4 0.000000 0.000000 0.000000 0.039033 0.000000 0.000000
# 5 0.000000 0.000000 0.000000 0.000000 0.019453 0.000000
# 6 0.000000 0.000000 0.000000 0.000000 0.000000 0.049322
#
#
# Mechanical properties :
#
#
# Convention : Reuss Voigt Hill
#
# Bulk Modulus (GPa) = 22.72939 26.29772 24.51356
# Shear Modulus (GPa) = 28.15223 33.60855 30.88039
#
# Velocity S-wave (km/s) = 3.68713 4.02862 3.86165
# Velocity P-wave (km/s) = 5.39469 5.85996 5.63213
#
# Compressibility (1/GPa) = 0.04399589
#
# Stress axis : x y z
#
# Youngs Moduli (GPa) = 45.91940 121.89548 51.06437
#
# Poissons Ratio (x) = 0.00224 0.12531
# Poissons Ratio (y) = 0.00084 0.01592
# Poissons Ratio (z) = 0.11269 0.03800
#
# Static dielectric constant tensor:
#      x y z
#    x 1.819720 0.000000 0.000000 
#    y 0.000000 1.693300 0.000000 
#    z 0.000000 0.000000 1.845410 
# 
# From -- ./inp_files/3230.got.cif
#   From: 2010.05.17/outbox.cif.g08.bks.cpg/sg50_2_cif.got.tgz:3230.got - 2010.06.03 11:33:33.
