data_PCOD9396538
_publ_section_title
;
Structure prediction by ZEFSAII (Michael W. Deem and Ramdas Pophale) SiO2 
 PCOD9396538
Probable space group: P B A N
;
_chemical_formula_sum "Si O2"
_cell_formula_units_Z 54
_cell_length_a 21.769881
_cell_length_b 21.291262
_cell_length_c 5.068017
_cell_angle_alpha 90.000000
_cell_angle_beta 90.000000
_cell_angle_gamma 90.000000
_cell_volume 2349.067640
_symmetry_space_group_name_H-M "P B A N"
_symmetry_group_IT_number 50
_space_group.IT_coordinate_system_code '2'
_symmetry_cell_setting 'orthorhombic'
loop_
_space_group_symop_operation_xyz
x,y,z
1/2-x,1/2-y,z
x,1/2-y,-z
1/2-x,y,-z
-x,-y,-z
1/2+x,1/2+y,-z
-x,1/2+y,z
1/2+x,-y,z
loop_
_atom_site_type_symbol
_atom_site_label
_atom_site_fract_x
_atom_site_fract_y
_atom_site_fract_z
Si Si1 0.512768 0.864642 0.036452
Si Si2 0.192704 0.862067 0.684135
Si Si3 0.565458 0.323735 0.536126
Si Si4 0.250000 0.750000 0.000000
Si Si5 0.667310 0.489784 0.109494
Si Si6 0.129186 0.399126 0.722911
Si Si7 0.250000 0.075850 0.500000
Si Si8 0.951806 0.531246 0.686125
O O1 0.473347 0.833003 0.804080
O O2 0.516888 0.936415 0.936613
O O3 0.476235 0.850363 0.300060
O O4 0.586171 0.854887 0.095700
O O5 0.250000 0.878649 0.500000
O O6 0.132321 0.854747 0.501661
O O7 0.186808 0.917686 0.900288
O O8 0.208078 0.796112 0.824588
O O9 0.574214 0.250000 0.500000
O O10 0.715809 0.530323 0.285477
O O11 0.602274 0.483956 0.254055
O O12 0.647554 0.534543 0.866988
O O13 0.196404 0.381031 0.622847
O O14 0.085462 0.415076 0.476035
O O15 0.000000 0.500000 0.500000
#
# Coordination Sequence:
#
# PCOD9396538 Si02
#       8
#     8   8   8   2   8   8   4   8
#     4  11  24  45  69 103 139 180 234 298 369 444
#     4  12  28  48  66  96 134 194 258 317 363 410
#     4  12  27  47  74  99 140 192 252 309 368 424
#     4  12  30  44  68  86 132 184 274 320 354 412
#     4  10  22  37  65  94 138 181 234 288 355 431
#     4  10  22  39  66 103 143 180 229 276 367 443
#     4  10  20  40  62 103 143 182 220 282 338 452
#     4  10  21  38  62  98 139 177 220 284 364 444
#
# _framework density 22.987843999999999
#
# number of rings (size 3 to 8) (size 9 to 14) (size 15 to 20)
#    0.000    1.185    2.222    2.889    8.296    1.185 
#    0.000    0.000    0.000    0.000    0.000    0.519 
#    8.889    0.000    0.000    0.000    0.000    0.000 
#
# Total GULP energy -301570.830794 kJ/mol
# GULP energy per Si atom -5584.645015 kJ/mol
# Density = 2.293552 g / cm^3
# Si number density = 22.987844 Si / 1000 Ang^3
#
#
#
# Elastic Constant Matrix: (Units=GPa)
#
#
# Indices 1 2 3 4 5 6 
#
# 1 207.9186 27.9991 56.2284 0.0000 0.0000 0.0000
# 2 27.9991 46.1765 6.4257 0.0000 0.0000 0.0000
# 3 56.2284 6.4257 98.7494 0.0000 0.0000 0.0000
# 4 0.0000 0.0000 0.0000 25.1045 0.0000 0.0000
# 5 0.0000 0.0000 0.0000 0.0000 48.9398 0.0000
# 6 0.0000 0.0000 0.0000 0.0000 0.0000 29.8979
#
#
#
# Elastic Compliance Matrix: (Units=1/GPa)
#
#
# Indices 1 2 3 4 5 6 
#
# 1 0.006137 -0.003264 -0.003282 0.000000 0.000000 0.000000
# 2 -0.003264 0.023590 0.000324 0.000000 0.000000 0.000000
# 3 -0.003282 0.000324 0.011974 0.000000 0.000000 0.000000
# 4 0.000000 0.000000 0.000000 0.039834 0.000000 0.000000
# 5 0.000000 0.000000 0.000000 0.000000 0.020433 0.000000
# 6 0.000000 0.000000 0.000000 0.000000 0.000000 0.033447
#
#
# Mechanical properties :
#
#
# Convention : Reuss Voigt Hill
#
# Bulk Modulus (GPa) = 34.18063 59.35010 46.76536
# Shear Modulus (GPa) = 31.72340 38.26785 34.99563
#
# Velocity S-wave (km/s) = 3.71888 4.08450 3.90597
# Velocity P-wave (km/s) = 5.77419 6.93673 6.38199
#
# Compressibility (1/GPa) = 0.02925634
#
# Stress axis : x y z
#
# Youngs Moduli (GPa) = 162.95455 42.39026 83.51238
#
# Poissons Ratio (x) = 0.13837 0.27407
# Poissons Ratio (y) = 0.53193 -0.02703
# Poissons Ratio (z) = 0.53479 -0.01372
#
# Static dielectric constant tensor:
#      x y z
#    x 1.930610 0.000000 0.000000 
#    y 0.000000 1.851650 0.000000 
#    z 0.000000 0.000000 2.063260 
# 
# From -- ./inp_files/5469.got.cif
#   From: 2010.05.17/outbox.cif.g08.bks.cpg/sg50_3_cif.got.tgz:5469.got - 2010.06.03 11:33:33.
