data_PCOD9396892
_publ_section_title
;
Structure prediction by ZEFSAII (Michael W. Deem and Ramdas Pophale) SiO2 
 PCOD9396892
Probable space group: P B A N
;
_chemical_formula_sum "Si O2"
_cell_formula_units_Z 58
_cell_length_a 8.754881
_cell_length_b 18.317145
_cell_length_c 16.333260
_cell_angle_alpha 90.000000
_cell_angle_beta 90.000000
_cell_angle_gamma 90.000000
_cell_volume 2619.273844
_symmetry_space_group_name_H-M "P B A N"
_symmetry_group_IT_number 50
_space_group.IT_coordinate_system_code '2'
_symmetry_cell_setting 'orthorhombic'
loop_
_space_group_symop_operation_xyz
x,y,z
1/2-x,1/2-y,z
x,1/2-y,-z
1/2-x,y,-z
-x,-y,-z
1/2+x,1/2+y,-z
-x,1/2+y,z
1/2+x,-y,z
loop_
_atom_site_type_symbol
_atom_site_label
_atom_site_fract_x
_atom_site_fract_y
_atom_site_fract_z
Si Si1 0.525000 0.913964 0.572380
Si Si2 0.114519 0.424437 0.602781
Si Si3 0.469659 0.636763 0.765925
Si Si4 0.668139 0.588671 0.085023
Si Si5 0.074649 0.997957 0.168145
Si Si6 0.131079 0.639070 0.721337
Si Si7 0.750000 0.250000 0.000000
Si Si8 0.492123 0.274966 0.868448
O O1 0.533943 0.890149 0.477731
O O2 0.702432 0.923261 0.596889
O O3 0.436490 0.858961 0.631209
O O4 0.442529 0.991868 0.589606
O O5 0.070140 0.383189 0.686283
O O6 0.450131 0.558485 0.808526
O O7 0.306075 0.660976 0.731805
O O8 0.524621 0.691916 0.837383
O O9 0.501659 0.551006 0.096779
O O10 0.780228 0.548238 0.148136
O O11 0.643764 0.675047 0.097648
O O12 0.750000 0.575324 0.000000
O O13 0.108522 0.942660 0.241791
O O14 0.034761 0.687387 0.783097
O O15 0.629233 0.284119 0.934790
#
# Coordination Sequence:
#
# PCOD9396892 Si02
#       8
#     8   8   8   8   8   8   2   8
#     4  10  21  39  63 104 138 183 230 291 348 409
#     4  10  22  37  66  99 143 182 231 287 348 411
#     4  12  23  43  67 101 136 185 233 283 350 420
#     4  11  26  48  70 102 136 181 236 297 361 430
#     4  11  24  42  68 102 137 176 229 300 356 411
#     4  11  22  44  68  99 135 179 235 283 345 420
#     4  12  24  56  66  96 130 196 226 298 336 448
#     4  11  28  46  73  96 137 186 234 282 357 426
#
# _framework density 22.143542
#
# number of rings (size 3 to 8) (size 9 to 14) (size 15 to 20)
#    0.000    1.103    4.138    1.241    5.793    2.207 
#    6.207    0.690    0.000    3.310    0.000    0.000 
#    0.000    0.000    0.000    0.000    0.000    0.000 
#
# Total GULP energy -323485.279620 kJ/mol
# GULP energy per Si atom -5577.332407 kJ/mol
# Density = 2.209314 g / cm^3
# Si number density = 22.143542 Si / 1000 Ang^3
#
#
#
# Elastic Constant Matrix: (Units=GPa)
#
#
# Indices 1 2 3 4 5 6 
#
# 1 57.7634 13.9682 7.3040 0.0000 0.0000 0.0000
# 2 13.9682 78.1816 27.0809 0.0000 0.0000 0.0000
# 3 7.3040 27.0809 96.8986 0.0000 0.0000 0.0000
# 4 0.0000 0.0000 0.0000 17.5019 0.0000 0.0000
# 5 0.0000 0.0000 0.0000 0.0000 36.2053 0.0000
# 6 0.0000 0.0000 0.0000 0.0000 0.0000 15.2805
#
#
#
# Elastic Compliance Matrix: (Units=1/GPa)
#
#
# Indices 1 2 3 4 5 6 
#
# 1 0.018117 -0.003060 -0.000510 0.000000 0.000000 0.000000
# 2 -0.003060 0.014679 -0.003872 0.000000 0.000000 0.000000
# 3 -0.000510 -0.003872 0.011441 0.000000 0.000000 0.000000
# 4 0.000000 0.000000 0.000000 0.057137 0.000000 0.000000
# 5 0.000000 0.000000 0.000000 0.000000 0.027620 0.000000
# 6 0.000000 0.000000 0.000000 0.000000 0.000000 0.065443
#
#
# Mechanical properties :
#
#
# Convention : Reuss Voigt Hill
#
# Bulk Modulus (GPa) = 34.06970 36.61661 35.34316
# Shear Modulus (GPa) = 22.82027 26.09689 24.45858
#
# Velocity S-wave (km/s) = 3.21372 3.43670 3.32708
# Velocity P-wave (km/s) = 5.40277 5.68505 5.54571
#
# Compressibility (1/GPa) = 0.02935160
#
# Stress axis : x y z
#
# Youngs Moduli (GPa) = 55.19828 68.12675 87.40821
#
# Poissons Ratio (x) = 0.20847 0.04461
# Poissons Ratio (y) = 0.16890 0.33841
# Poissons Ratio (z) = 0.02817 0.26376
#
# Static dielectric constant tensor:
#      x y z
#    x 1.880440 0.000000 0.000000 
#    y 0.000000 1.875340 0.000000 
#    z 0.000000 0.000000 1.775700 
# 
# From -- ./inp_files/28881.got.cif
#   From: 2010.05.17/outbox.cif.g08.bks.cpg/sg50_15_cif.got.tgz:28881.got - 2010.06.03 11:33:33.
