data_PCOD9396924
_publ_section_title
;
Structure prediction by ZEFSAII (Michael W. Deem and Ramdas Pophale) SiO2 
 PCOD9396924
Probable space group: P B A N
;
_chemical_formula_sum "Si O2"
_cell_formula_units_Z 32
_cell_length_a 5.445373
_cell_length_b 14.123441
_cell_length_c 17.646361
_cell_angle_alpha 90.000000
_cell_angle_beta 90.000000
_cell_angle_gamma 90.000000
_cell_volume 1357.135820
_symmetry_space_group_name_H-M "P B A N"
_symmetry_group_IT_number 50
_space_group.IT_coordinate_system_code '2'
_symmetry_cell_setting 'orthorhombic'
loop_
_space_group_symop_operation_xyz
x,y,z
1/2-x,1/2-y,z
x,1/2-y,-z
1/2-x,y,-z
-x,-y,-z
1/2+x,1/2+y,-z
-x,1/2+y,z
1/2+x,-y,z
loop_
_atom_site_type_symbol
_atom_site_label
_atom_site_fract_x
_atom_site_fract_y
_atom_site_fract_z
Si Si1 0.996798 0.392206 0.532094
Si Si2 0.777529 0.558906 0.911464
Si Si3 0.015860 0.864958 0.710667
Si Si4 0.973950 0.649676 0.772463
O O1 0.250000 0.351457 0.500000
O O2 0.750000 0.348765 0.500000
O O3 0.000000 0.500000 0.500000
O O4 0.967066 0.383534 0.621876
O O5 0.503742 0.515903 0.897189
O O6 0.876160 0.644227 0.858654
O O7 0.750000 0.584384 0.000000
O O8 0.260268 0.893879 0.755797
O O9 0.993750 0.753996 0.735533
O O10 0.748401 0.904177 0.731662
#
# Coordination Sequence:
#
# PCOD9396924 Si02
#       4
#     8   8   8   8
#     4  10  21  40  59  87 124 164 214 269 326 385
#     4  10  21  40  64  95 130 166 209 261 320 389
#     4  10  21  40  63  89 129 161 217 264 322 392
#     4  10  21  40  61  93 123 167 208 263 323 384
#
# _framework density 23.579069
#
# number of rings (size 3 to 8) (size 9 to 14) (size 15 to 20)
#    0.000    2.000    0.000    3.000    0.000    0.000 
#   27.000   17.500    0.000    6.000    0.000    0.000 
#    0.000    0.000    0.000    0.000    0.000    0.000 
#
# Total GULP energy -178292.684582 kJ/mol
# GULP energy per Si atom -5571.646393 kJ/mol
# Density = 2.352540 g / cm^3
# Si number density = 23.579069 Si / 1000 Ang^3
#
#
#
# Elastic Constant Matrix: (Units=GPa)
#
#
# Indices 1 2 3 4 5 6 
#
# 1 275.5870 14.4311 92.3734 0.0000 0.0000 0.0000
# 2 14.4311 140.7251 50.2705 0.0000 0.0000 0.0000
# 3 92.3734 50.2705 206.3198 0.0000 0.0000 0.0000
# 4 0.0000 0.0000 0.0000 81.9421 0.0000 0.0000
# 5 0.0000 0.0000 0.0000 0.0000 36.0989 0.0000
# 6 0.0000 0.0000 0.0000 0.0000 0.0000 -20.0840
#
#
#
# Elastic Compliance Matrix: (Units=1/GPa)
#
#
# Indices 1 2 3 4 5 6 
#
# 1 0.004279 0.000269 -0.001981 0.000000 0.000000 0.000000
# 2 0.000269 0.007800 -0.002021 0.000000 0.000000 0.000000
# 3 -0.001981 -0.002021 0.006226 0.000000 0.000000 0.000000
# 4 0.000000 0.000000 0.000000 0.012204 0.000000 0.000000
# 5 0.000000 0.000000 0.000000 0.000000 0.027702 0.000000
# 6 0.000000 0.000000 0.000000 0.000000 0.000000 -0.049791
#
#
# Mechanical properties :
#
#
# Convention : Reuss Voigt Hill
#
# Bulk Modulus (GPa) = 92.26047 104.08687 98.17367
# Shear Modulus (GPa) = 256.42241 50.62854 153.52547
#
# Velocity S-wave (km/s) = 10.43964 4.63880 8.07789
# Velocity P-wave (km/s) = 13.58410 8.53995 11.34590
#
# Compressibility (1/GPa) = 0.01083888
#
# Stress axis : x y z
#
# Youngs Moduli (GPa) = 233.72201 128.19809 160.60996
#
# Poissons Ratio (x) = -0.03448 0.31819
# Poissons Ratio (y) = -0.06286 0.32459
# Poissons Ratio (z) = 0.46304 0.25909
#
# Static dielectric constant tensor:
#      x y z
#    x 1.969280 0.000000 0.000000 
#    y 0.000000 1.833660 0.000000 
#    z 0.000000 0.000000 1.988600 
# 
# From -- ./inp_files/23706.got.cif
#   From: 2010.05.17/outbox.cif.g08.bks.cpg/sg50_12_cif.got.tgz:23706.got - 2010.06.03 11:33:33.
