data_PCOD9396627
_publ_section_title
;
Structure prediction by ZEFSAII (Michael W. Deem and Ramdas Pophale) SiO2 
 PCOD9396627
Probable space group: P B A N
;
_chemical_formula_sum "Si O2"
_cell_formula_units_Z 64
_cell_length_a 13.902433
_cell_length_b 17.789696
_cell_length_c 12.562741
_cell_angle_alpha 90.000000
_cell_angle_beta 90.000000
_cell_angle_gamma 90.000000
_cell_volume 3107.017817
_symmetry_space_group_name_H-M "P B A N"
_symmetry_group_IT_number 50
_space_group.IT_coordinate_system_code '2'
_symmetry_cell_setting 'orthorhombic'
loop_
_space_group_symop_operation_xyz
x,y,z
1/2-x,1/2-y,z
x,1/2-y,-z
1/2-x,y,-z
-x,-y,-z
1/2+x,1/2+y,-z
-x,1/2+y,z
1/2+x,-y,z
loop_
_atom_site_type_symbol
_atom_site_label
_atom_site_fract_x
_atom_site_fract_y
_atom_site_fract_z
Si Si1 0.641627 0.245832 0.626368
Si Si2 0.395820 0.261294 0.161119
Si Si3 0.044228 0.628610 0.224847
Si Si4 0.583902 0.492986 0.702064
Si Si5 0.219127 0.131464 0.887905
Si Si6 0.972730 0.853173 0.327370
Si Si7 0.303420 0.985426 0.246849
Si Si8 0.858396 0.955447 0.471735
O O1 0.750000 0.250000 0.669796
O O2 0.647342 0.250000 0.500000
O O3 0.587036 0.174136 0.674590
O O4 0.575593 0.315837 0.654430
O O5 0.493669 0.308789 0.150258
O O6 0.307107 0.319567 0.160321
O O7 0.363820 0.192589 0.085251
O O8 0.410436 0.210753 0.268451
O O9 0.133202 0.577094 0.187507
O O10 0.958880 0.571517 0.256534
O O11 0.506522 0.429498 0.731408
O O12 0.689078 0.472550 0.745826
O O13 0.596669 0.503450 0.574065
O O14 0.189245 0.066993 0.807433
O O15 0.250000 0.096807 0.000000
O O16 0.919591 0.884332 0.431898
O O17 0.343891 0.991588 0.368065
O O18 0.750000 0.931177 0.500000
#
# Coordination Sequence:
#
# PCOD9396627 Si02
#       8
#     8   8   8   8   8   8   8   8
#     4  10  22  35  50  81 121 165 216 253 294 355
#     4  10  21  38  62  88 116 155 198 260 322 386
#     4  11  21  36  60  85 125 160 202 262 313 369
#     4  11  21  35  59  84 123 168 213 244 305 365
#     4  11  22  42  70  90 118 159 209 265 332 399
#     4  11  20  36  57  81 123 162 206 255 304 375
#     4  11  22  39  59  90 122 161 209 262 311 370
#     4  10  21  32  54  83 119 166 214 246 300 366
#
# _framework density 20.598528999999999
#
# number of rings (size 3 to 8) (size 9 to 14) (size 15 to 20)
#    0.000    1.375    3.750    2.625    1.750    0.000 
#    0.000    0.625    5.500    0.000    0.000    0.000 
#    0.000    0.000    0.000    0.000    0.000    0.000 
#
# Total GULP energy -356705.361773 kJ/mol
# GULP energy per Si atom -5573.521278 kJ/mol
# Density = 2.055165 g / cm^3
# Si number density = 20.598529 Si / 1000 Ang^3
#
#
#
# Elastic Constant Matrix: (Units=GPa)
#
#
# Indices 1 2 3 4 5 6 
#
# 1 124.1253 39.4182 17.4275 0.0000 0.0000 0.0000
# 2 39.4182 95.1898 12.0874 0.0000 0.0000 0.0000
# 3 17.4275 12.0874 30.2917 0.0000 0.0000 0.0000
# 4 0.0000 0.0000 0.0000 11.2140 0.0000 0.0000
# 5 0.0000 0.0000 0.0000 0.0000 14.0031 0.0000
# 6 0.0000 0.0000 0.0000 0.0000 0.0000 44.8287
#
#
#
# Elastic Compliance Matrix: (Units=1/GPa)
#
#
# Indices 1 2 3 4 5 6 
#
# 1 0.009762 -0.003507 -0.004217 0.000000 0.000000 0.000000
# 2 -0.003507 0.012326 -0.002901 0.000000 0.000000 0.000000
# 3 -0.004217 -0.002901 0.036596 0.000000 0.000000 0.000000
# 4 0.000000 0.000000 0.000000 0.089175 0.000000 0.000000
# 5 0.000000 0.000000 0.000000 0.000000 0.071413 0.000000
# 6 0.000000 0.000000 0.000000 0.000000 0.000000 0.022307
#
#
# Mechanical properties :
#
#
# Convention : Reuss Voigt Hill
#
# Bulk Modulus (GPa) = 26.71333 43.05256 34.88294
# Shear Modulus (GPa) = 18.16157 26.05405 22.10781
#
# Velocity S-wave (km/s) = 2.97255 3.56033 3.27964
# Velocity P-wave (km/s) = 4.97776 6.15203 5.59578
#
# Compressibility (1/GPa) = 0.03743450
#
# Stress axis : x y z
#
# Youngs Moduli (GPa) = 102.43623 81.12965 27.32541
#
# Poissons Ratio (x) = 0.28453 0.11523
# Poissons Ratio (y) = 0.35925 0.07927
# Poissons Ratio (z) = 0.43197 0.23534
#
# Static dielectric constant tensor:
#      x y z
#    x 1.803330 0.000000 0.000000 
#    y 0.000000 1.769770 0.000000 
#    z 0.000000 0.000000 1.687220 
# 
# From -- ./inp_files/21329.got.cif
#   From: 2010.05.17/outbox.cif.g08.bks.cpg/sg50_11_cif.got.tgz:21329.got - 2010.06.03 11:33:33.
