data_PCOD9396027
_publ_section_title
;
Structure prediction by ZEFSAII (Michael W. Deem and Ramdas Pophale) SiO2 
 PCOD9396027
Probable space group: P B A N
;
_chemical_formula_sum "Si O2"
_cell_formula_units_Z 56
_cell_length_a 15.567501
_cell_length_b 14.160151
_cell_length_c 11.531404
_cell_angle_alpha 90.000000
_cell_angle_beta 90.000000
_cell_angle_gamma 90.000000
_cell_volume 2541.961536
_symmetry_space_group_name_H-M "P B A N"
_symmetry_group_IT_number 50
_space_group.IT_coordinate_system_code '2'
_symmetry_cell_setting 'orthorhombic'
loop_
_space_group_symop_operation_xyz
x,y,z
1/2-x,1/2-y,z
x,1/2-y,-z
1/2-x,y,-z
-x,-y,-z
1/2+x,1/2+y,-z
-x,1/2+y,z
1/2+x,-y,z
loop_
_atom_site_type_symbol
_atom_site_label
_atom_site_fract_x
_atom_site_fract_y
_atom_site_fract_z
Si Si1 0.845357 0.442666 0.843450
Si Si2 0.926090 0.044528 0.921649
Si Si3 0.034137 0.092368 0.732566
Si Si4 0.619108 0.398533 0.572462
Si Si5 0.186973 0.050818 0.262871
Si Si6 0.601519 0.729661 0.637241
Si Si7 0.103091 0.808644 0.663900
O O1 0.924494 0.498355 0.782166
O O2 0.768302 0.511769 0.807425
O O3 0.851022 0.342782 0.779665
O O4 0.857082 0.429169 0.980675
O O5 0.968239 0.122407 0.836319
O O6 0.888090 0.970315 0.830335
O O7 0.000000 0.000000 0.000000
O O8 0.104121 0.171229 0.705019
O O9 0.977926 0.078927 0.616775
O O10 0.675690 0.479160 0.629329
O O11 0.626577 0.383543 0.436702
O O12 0.635265 0.294804 0.626138
O O13 0.169095 0.154290 0.313669
O O14 0.611256 0.750000 0.500000
O O15 0.501778 0.696961 0.660145
#
# Coordination Sequence:
#
# PCOD9396027 Si02
#       7
#     8   8   8   8   8   8   8
#     4  11  23  37  61  91 130 168 201 262 335 393
#     4   9  19  42  65  87 114 161 222 267 302 377
#     4   9  19  38  62  90 115 158 222 262 305 372
#     4   9  19  38  60  87 115 162 219 266 311 366
#     4  11  24  38  59  92 133 169 199 258 341 394
#     4  11  21  39  65  92 128 169 217 270 312 388
#     4  10  19  38  63  87 118 162 222 270 304 375
#
# _framework density 22.030232000000002
#
# number of rings (size 3 to 8) (size 9 to 14) (size 15 to 20)
#    0.000    2.000    2.857    3.000    2.000    2.857 
#    0.000   18.571    0.000    8.571    0.000    0.000 
#    0.000    0.000    0.000    0.000    0.000    0.000 
#
# Total GULP energy -312307.665712 kJ/mol
# GULP energy per Si atom -5576.922602 kJ/mol
# Density = 2.198009 g / cm^3
# Si number density = 22.030232 Si / 1000 Ang^3
#
#
#
# Elastic Constant Matrix: (Units=GPa)
#
#
# Indices 1 2 3 4 5 6 
#
# 1 50.8672 -5.1596 -1.7176 0.0000 0.0000 0.0000
# 2 -5.1596 39.6980 18.5525 0.0000 0.0000 0.0000
# 3 -1.7176 18.5525 88.3453 0.0000 0.0000 0.0000
# 4 0.0000 0.0000 0.0000 26.6213 0.0000 0.0000
# 5 0.0000 0.0000 0.0000 0.0000 16.7003 0.0000
# 6 0.0000 0.0000 0.0000 0.0000 0.0000 22.6089
#
#
#
# Elastic Compliance Matrix: (Units=1/GPa)
#
#
# Indices 1 2 3 4 5 6 
#
# 1 0.019924 0.002671 -0.000173 0.000000 0.000000 0.000000
# 2 0.002671 0.028289 -0.005889 0.000000 0.000000 0.000000
# 3 -0.000173 -0.005889 0.012553 0.000000 0.000000 0.000000
# 4 0.000000 0.000000 0.000000 0.037564 0.000000 0.000000
# 5 0.000000 0.000000 0.000000 0.000000 0.059879 0.000000
# 6 0.000000 0.000000 0.000000 0.000000 0.000000 0.044230
#
#
# Mechanical properties :
#
#
# Convention : Reuss Voigt Hill
#
# Bulk Modulus (GPa) = 18.52451 22.47347 20.49899
# Shear Modulus (GPa) = 22.00540 24.33512 23.17026
#
# Velocity S-wave (km/s) = 3.16392 3.32719 3.24659
# Velocity P-wave (km/s) = 4.66628 4.99836 4.83517
#
# Compressibility (1/GPa) = 0.05398254
#
# Stress axis : x y z
#
# Youngs Moduli (GPa) = 50.19058 35.34898 79.66538
#
# Poissons Ratio (x) = -0.09440 0.01382
# Poissons Ratio (y) = -0.13404 0.46914
# Poissons Ratio (z) = 0.00871 0.20816
#
# Static dielectric constant tensor:
#      x y z
#    x 1.940000 0.000000 0.000000 
#    y 0.000000 1.812500 0.000000 
#    z 0.000000 0.000000 1.817760 
# 
# From -- ./inp_files/21142.got.cif
#   From: 2010.05.17/outbox.cif.g08.bks.cpg/sg50_11_cif.got.tgz:21142.got - 2010.06.03 11:33:33.
