data_PCOD9396389
_publ_section_title
;
Structure prediction by ZEFSAII (Michael W. Deem and Ramdas Pophale) SiO2 
 PCOD9396389
Probable space group: P B A N
;
_chemical_formula_sum "Si O2"
_cell_formula_units_Z 58
_cell_length_a 12.796833
_cell_length_b 8.991924
_cell_length_c 23.935252
_cell_angle_alpha 90.000000
_cell_angle_beta 90.000000
_cell_angle_gamma 90.000000
_cell_volume 2754.185162
_symmetry_space_group_name_H-M "P B A N"
_symmetry_group_IT_number 50
_space_group.IT_coordinate_system_code '2'
_symmetry_cell_setting 'orthorhombic'
loop_
_space_group_symop_operation_xyz
x,y,z
1/2-x,1/2-y,z
x,1/2-y,-z
1/2-x,y,-z
-x,-y,-z
1/2+x,1/2+y,-z
-x,1/2+y,z
1/2+x,-y,z
loop_
_atom_site_type_symbol
_atom_site_label
_atom_site_fract_x
_atom_site_fract_y
_atom_site_fract_z
Si Si1 0.250000 0.750000 0.500000
Si Si2 0.872377 0.737894 0.933327
Si Si3 0.866508 0.239508 0.811664
Si Si4 0.864978 0.744641 0.291125
Si Si5 0.495303 0.512429 0.869840
Si Si6 0.431500 0.597571 0.293523
Si Si7 0.925366 0.089774 0.574787
Si Si8 0.368615 0.248809 0.422139
O O1 0.170178 0.842648 0.460669
O O2 0.750000 0.750000 0.919316
O O3 0.919861 0.585363 0.909046
O O4 0.936414 0.871588 0.905200
O O5 0.883766 0.750000 0.000000
O O6 0.750000 0.250000 0.834606
O O7 0.927939 0.102449 0.839436
O O8 0.861788 0.199290 0.746223
O O9 0.928872 0.388333 0.826685
O O10 0.750000 0.750000 0.264991
O O11 0.906351 0.576265 0.287191
O O12 0.855639 0.787014 0.356524
O O13 0.952531 0.859375 0.272046
O O14 0.418490 0.635432 0.359376
O O15 0.041278 0.139979 0.555053
O O16 0.914930 0.913248 0.573554
O O17 0.250000 0.250000 0.443770
#
# Coordination Sequence:
#
# PCOD9396389 Si02
#       8
#     2   8   8   8   8   8   8   8
#     4  12  28  44  64  96 128 160 210 266 326 372
#     4  10  20  37  63  90 123 171 213 253 309 361
#     4  11  23  38  59  87 121 166 208 255 320 362
#     4   9  19  37  60  89 121 153 195 254 305 367
#     4  10  22  39  57  89 131 158 210 267 302 364
#     4  10  21  39  62  90 118 164 210 253 309 389
#     4  10  24  43  66  93 128 160 209 259 319 391
#     4   9  20  42  68  93 123 159 196 249 309 379
#
# _framework density 21.058859000000002
#
# number of rings (size 3 to 8) (size 9 to 14) (size 15 to 20)
#    0.000    2.069    0.000    2.069    2.897    2.759 
#    4.966    3.448    0.000    6.621    0.000    0.000 
#    0.000    0.000    0.000    0.000    0.000    0.000 
#
# Total GULP energy -324005.404987 kJ/mol
# GULP energy per Si atom -5586.300086 kJ/mol
# Density = 2.101093 g / cm^3
# Si number density = 21.058859 Si / 1000 Ang^3
#
#
#
# Elastic Constant Matrix: (Units=GPa)
#
#
# Indices 1 2 3 4 5 6 
#
# 1 169.6988 49.2191 24.8239 0.0000 0.0000 0.0000
# 2 49.2191 70.2828 23.8844 0.0000 0.0000 0.0000
# 3 24.8239 23.8844 80.3511 0.0000 0.0000 0.0000
# 4 0.0000 0.0000 0.0000 30.6957 0.0000 0.0000
# 5 0.0000 0.0000 0.0000 0.0000 27.7305 0.0000
# 6 0.0000 0.0000 0.0000 0.0000 0.0000 -14.4867
#
#
#
# Elastic Compliance Matrix: (Units=1/GPa)
#
#
# Indices 1 2 3 4 5 6 
#
# 1 0.007445 -0.004930 -0.000835 0.000000 0.000000 0.000000
# 2 -0.004930 0.019092 -0.004152 0.000000 0.000000 0.000000
# 3 -0.000835 -0.004152 0.013937 0.000000 0.000000 0.000000
# 4 0.000000 0.000000 0.000000 0.032578 0.000000 0.000000
# 5 0.000000 0.000000 0.000000 0.000000 0.036061 0.000000
# 6 0.000000 0.000000 0.000000 0.000000 0.000000 -0.069029
#
#
# Mechanical properties :
#
#
# Convention : Reuss Voigt Hill
#
# Bulk Modulus (GPa) = 48.44759 57.35418 52.90089
# Shear Modulus (GPa) = 74.85328 23.61493 49.23410
#
# Velocity S-wave (km/s) = 5.96841 3.35233 4.84046
# Velocity P-wave (km/s) = 8.39951 6.50219 7.51100
#
# Compressibility (1/GPa) = 0.02064086
#
# Stress axis : x y z
#
# Youngs Moduli (GPa) = 134.32288 52.37895 71.74949
#
# Poissons Ratio (x) = 0.25823 0.05988
# Poissons Ratio (y) = 0.66220 0.29790
# Poissons Ratio (z) = 0.11210 0.21747
#
# Static dielectric constant tensor:
#      x y z
#    x 1.793100 0.000000 0.000000 
#    y 0.000000 1.647610 0.000000 
#    z 0.000000 0.000000 1.785050 
# 
# From -- ./inp_files/32193.got.cif
#   From: 2010.05.17/outbox.cif.g08.bks.cpg/sg50_17_cif.got.tgz:32193.got - 2010.06.03 11:33:33.
