data_PCOD9396152
_publ_section_title
;
Structure prediction by ZEFSAII (Michael W. Deem and Ramdas Pophale) SiO2 
 PCOD9396152
Probable space group: P B A N
;
_chemical_formula_sum "Si O2"
_cell_formula_units_Z 42
_cell_length_a 9.178361
_cell_length_b 12.087661
_cell_length_c 21.642729
_cell_angle_alpha 90.000000
_cell_angle_beta 90.000000
_cell_angle_gamma 90.000000
_cell_volume 2401.150757
_symmetry_space_group_name_H-M "P B A N"
_symmetry_group_IT_number 50
_space_group.IT_coordinate_system_code '2'
_symmetry_cell_setting 'orthorhombic'
loop_
_space_group_symop_operation_xyz
x,y,z
1/2-x,1/2-y,z
x,1/2-y,-z
1/2-x,y,-z
-x,-y,-z
1/2+x,1/2+y,-z
-x,1/2+y,z
1/2+x,-y,z
loop_
_atom_site_type_symbol
_atom_site_label
_atom_site_fract_x
_atom_site_fract_y
_atom_site_fract_z
Si Si1 0.069026 0.945127 0.438838
Si Si2 0.501303 0.500473 0.850983
Si Si3 0.750000 0.250000 0.500000
Si Si4 0.250876 0.119350 0.225219
Si Si5 0.221419 0.119029 0.629134
Si Si6 0.751744 0.382159 0.928341
O O1 0.154420 0.834041 0.458744
O O2 0.940799 0.911097 0.392497
O O3 0.172503 0.037875 0.408830
O O4 0.000000 0.000000 0.500000
O O5 0.391774 0.429517 0.809056
O O6 0.606976 0.569938 0.806446
O O7 0.610170 0.428874 0.893231
O O8 0.395988 0.573394 0.894219
O O9 0.250000 0.250000 0.216921
O O10 0.256972 0.096480 0.298257
O O11 0.250000 0.250000 0.617441
O O12 0.750000 0.250000 0.925947
O O13 0.750000 0.417581 0.000000
#
# Coordination Sequence:
#
# PCOD9396152 Si02
#       6
#     8   8   2   8   8   8
#     4  12  23  42  62  87 117 150 190 235 294 346
#     4  10  20  36  57  80 114 148 186 229 278 328
#     4  12  24  40  64  88 116 152 190 230 294 356
#     4  10  21  38  58  82 111 148 188 230 278 330
#     4  11  24  40  62  86 116 150 192 240 286 345
#     4  10  20  34  55  83 113 147 187 229 276 328
#
# _framework density 17.491613999999998
#
# number of rings (size 3 to 8) (size 9 to 14) (size 15 to 20)
#    0.000    1.333    1.905    4.000    0.000    0.762 
#    0.000    0.000    4.190    9.143    0.000    0.000 
#    0.000    0.000    0.000    0.000    0.000    0.000 
#
# Total GULP energy -234602.760121 kJ/mol
# GULP energy per Si atom -5585.780003 kJ/mol
# Density = 1.745180 g / cm^3
# Si number density = 17.491614 Si / 1000 Ang^3
#
#
#
# Elastic Constant Matrix: (Units=GPa)
#
#
# Indices 1 2 3 4 5 6 
#
# 1 164.0208 80.4463 94.3764 0.0000 0.0000 0.0000
# 2 80.4463 120.7155 96.1096 0.0000 0.0000 0.0000
# 3 94.3764 96.1096 151.2176 0.0000 0.0000 0.0000
# 4 0.0000 0.0000 0.0000 34.8843 0.0000 0.0000
# 5 0.0000 0.0000 0.0000 0.0000 27.5972 0.0000
# 6 0.0000 0.0000 0.0000 0.0000 0.0000 25.9557
#
#
#
# Elastic Compliance Matrix: (Units=1/GPa)
#
#
# Indices 1 2 3 4 5 6 
#
# 1 0.010194 -0.003498 -0.004139 0.000000 0.000000 0.000000
# 2 -0.003498 0.017970 -0.009238 0.000000 0.000000 0.000000
# 3 -0.004139 -0.009238 0.015068 0.000000 0.000000 0.000000
# 4 0.000000 0.000000 0.000000 0.028666 0.000000 0.000000
# 5 0.000000 0.000000 0.000000 0.000000 0.036236 0.000000
# 6 0.000000 0.000000 0.000000 0.000000 0.000000 0.038527
#
#
# Mechanical properties :
#
#
# Convention : Reuss Voigt Hill
#
# Bulk Modulus (GPa) = 105.46834 108.64648 107.05741
# Shear Modulus (GPa) = 27.23735 28.68888 27.96312
#
# Velocity S-wave (km/s) = 3.95038 4.05427 4.00266
# Velocity P-wave (km/s) = 9.01303 9.17412 9.09393
#
# Compressibility (1/GPa) = 0.00948152
#
# Stress axis : x y z
#
# Youngs Moduli (GPa) = 98.09722 55.64742 66.36790
#
# Poissons Ratio (x) = 0.19467 0.27468
# Poissons Ratio (y) = 0.34317 0.61311
# Poissons Ratio (z) = 0.40600 0.51408
#
# Static dielectric constant tensor:
#      x y z
#    x 1.570420 0.000000 0.000000 
#    y 0.000000 1.565120 0.000000 
#    z 0.000000 0.000000 1.580420 
# 
# From -- ./inp_files/30565.got.cif
#   From: 2010.05.17/outbox.cif.g08.bks.cpg/sg50_16_cif.got.tgz:30565.got - 2010.06.03 11:33:33.
