data_PCOD9396935
_publ_section_title
;
Structure prediction by ZEFSAII (Michael W. Deem and Ramdas Pophale) SiO2 
 PCOD9396935
Probable space group: P B A N
;
_chemical_formula_sum "Si O2"
_cell_formula_units_Z 34
_cell_length_a 8.812946
_cell_length_b 11.954165
_cell_length_c 16.837992
_cell_angle_alpha 90.000000
_cell_angle_beta 90.000000
_cell_angle_gamma 90.000000
_cell_volume 1773.906209
_symmetry_space_group_name_H-M "P B A N"
_symmetry_group_IT_number 50
_space_group.IT_coordinate_system_code '2'
_symmetry_cell_setting 'orthorhombic'
loop_
_space_group_symop_operation_xyz
x,y,z
1/2-x,1/2-y,z
x,1/2-y,-z
1/2-x,y,-z
-x,-y,-z
1/2+x,1/2+y,-z
-x,1/2+y,z
1/2+x,-y,z
loop_
_atom_site_type_symbol
_atom_site_label
_atom_site_fract_x
_atom_site_fract_y
_atom_site_fract_z
Si Si1 0.250000 0.250000 0.500000
Si Si2 0.879244 0.937056 0.944101
Si Si3 0.179491 0.869341 0.861329
Si Si4 0.215634 0.622718 0.327794
Si Si5 0.927374 0.551575 0.419887
O O1 0.157303 0.335673 0.554387
O O2 0.999677 0.873988 0.885724
O O3 0.777891 0.030715 0.899893
O O4 0.750000 0.878411 0.000000
O O5 0.000000 0.000000 0.000000
O O6 0.250000 0.750000 0.886979
O O7 0.209922 0.882475 0.767394
O O8 0.250000 0.750000 0.350840
O O9 0.327196 0.540052 0.374720
O O10 0.053573 0.587445 0.358738
O O11 0.000000 0.500000 0.500000
#
# Coordination Sequence:
#
# PCOD9396935 Si02
#       5
#     2   8   8   8   8
#     4  12  24  40  64  92 120 160 212 258 316 364
#     4   9  19  37  62  90 121 156 198 248 298 369
#     4  10  21  40  62  90 125 161 202 253 312 367
#     4  11  24  40  64  90 124 168 206 261 316 367
#     4  12  23  42  63  90 125 164 214 262 307 377
#
# _framework density 19.166740999999998
#
# number of rings (size 3 to 8) (size 9 to 14) (size 15 to 20)
#    0.000    1.412    2.353    2.824    0.000    5.176 
#    0.000    8.235    0.000    0.000    0.000    0.000 
#    0.000    0.000    0.000    0.000    0.000    0.000 
#
# Total GULP energy -189519.742965 kJ/mol
# GULP energy per Si atom -5574.110087 kJ/mol
# Density = 1.912312 g / cm^3
# Si number density = 19.166741 Si / 1000 Ang^3
#
#
#
# Elastic Constant Matrix: (Units=GPa)
#
#
# Indices 1 2 3 4 5 6 
#
# 1 150.5268 83.0477 46.3110 0.0000 0.0000 0.0000
# 2 83.0477 157.5013 58.2689 0.0000 0.0000 0.0000
# 3 46.3110 58.2689 79.5141 0.0000 0.0000 0.0000
# 4 0.0000 0.0000 0.0000 -7.5741 0.0000 0.0000
# 5 0.0000 0.0000 0.0000 0.0000 53.8784 0.0000
# 6 0.0000 0.0000 0.0000 0.0000 0.0000 163.6648
#
#
#
# Elastic Compliance Matrix: (Units=1/GPa)
#
#
# Indices 1 2 3 4 5 6 
#
# 1 0.009752 -0.004172 -0.002623 0.000000 0.000000 0.000000
# 2 -0.004172 0.010495 -0.005261 0.000000 0.000000 0.000000
# 3 -0.002623 -0.005261 0.017959 0.000000 0.000000 0.000000
# 4 0.000000 0.000000 0.000000 -0.132028 0.000000 0.000000
# 5 0.000000 0.000000 0.000000 0.000000 0.018560 0.000000
# 6 0.000000 0.000000 0.000000 0.000000 0.000000 0.006110
#
#
# Mechanical properties :
#
#
# Convention : Reuss Voigt Hill
#
# Bulk Modulus (GPa) = 70.94630 84.75528 77.85079
# Shear Modulus (GPa) = -123.94115 55.32145 -34.30985
#
# Velocity S-wave (km/s) = -8.05016 5.37828 -4.23551
# Velocity P-wave (km/s) = 7.02219 9.10406 4.09712
#
# Compressibility (1/GPa) = 0.01409517
#
# Stress axis : x y z
#
# Youngs Moduli (GPa) = 102.54536 95.28069 55.68096
#
# Poissons Ratio (x) = 0.39748 0.14603
# Poissons Ratio (y) = 0.42779 0.29296
# Poissons Ratio (z) = 0.26894 0.50131
#
# Static dielectric constant tensor:
#      x y z
#    x 1.674270 0.000000 0.000000 
#    y 0.000000 1.645960 0.000000 
#    z 0.000000 0.000000 5.939480 
# 
# From -- ./inp_files/24442.got.cif
#   From: 2010.05.17/outbox.cif.g08.bks.cpg/sg50_13_cif.got.tgz:24442.got - 2010.06.03 11:33:33.
