data_PCOD9396517
_publ_section_title
;
Structure prediction by ZEFSAII (Michael W. Deem and Ramdas Pophale) SiO2 
 PCOD9396517
Probable space group: P B A N
;
_chemical_formula_sum "Si O2"
_cell_formula_units_Z 48
_cell_length_a 16.245573
_cell_length_b 10.200736
_cell_length_c 12.224263
_cell_angle_alpha 90.000000
_cell_angle_beta 90.000000
_cell_angle_gamma 90.000000
_cell_volume 2025.765763
_symmetry_space_group_name_H-M "P B A N"
_symmetry_group_IT_number 50
_space_group.IT_coordinate_system_code '2'
_symmetry_cell_setting 'orthorhombic'
loop_
_space_group_symop_operation_xyz
x,y,z
1/2-x,1/2-y,z
x,1/2-y,-z
1/2-x,y,-z
-x,-y,-z
1/2+x,1/2+y,-z
-x,1/2+y,z
1/2+x,-y,z
loop_
_atom_site_type_symbol
_atom_site_label
_atom_site_fract_x
_atom_site_fract_y
_atom_site_fract_z
Si Si1 0.338868 0.214258 0.873080
Si Si2 0.652933 0.234149 0.821811
Si Si3 0.605168 0.891041 0.532865
Si Si4 0.405384 0.460614 0.765841
Si Si5 0.557348 0.467304 0.894082
Si Si6 0.909839 0.146856 0.590743
O O1 0.250000 0.250000 0.826204
O O2 0.399068 0.315289 0.814714
O O3 0.367725 0.066361 0.874120
O O4 0.338376 0.250000 0.000000
O O5 0.750000 0.250000 0.836637
O O6 0.596519 0.324121 0.899121
O O7 0.621624 0.290471 0.703668
O O8 0.637070 0.079087 0.829831
O O9 0.639927 0.750000 0.500000
O O10 0.633750 0.955462 0.646189
O O11 0.509014 0.863366 0.567902
O O12 0.616975 0.998530 0.438533
O O13 0.501128 0.490458 0.786104
O O14 0.500000 0.500000 0.000000
O O15 0.879252 0.250000 0.500000
#
# Coordination Sequence:
#
# PCOD9396517 Si02
#       6
#     8   8   8   8   8   8
#     4  11  25  46  69  99 142 185 224 289 369 430
#     4  12  27  45  71 108 148 191 238 309 379 441
#     4  10  22  38  67 104 136 184 242 302 347 421
#     4  12  24  44  72 103 135 186 252 297 355 436
#     4  12  26  47  74 106 136 187 247 302 355 439
#     4  10  20  39  64  97 139 183 240 292 358 424
#
# _framework density 23.694744
#
# number of rings (size 3 to 8) (size 9 to 14) (size 15 to 20)
#    0.000    0.833    5.000    2.000    2.333    0.333 
#    0.000    0.833    0.000    0.000    0.000    0.000 
#    0.000    0.000    0.000    0.000    0.000    0.000 
#
# Total GULP energy -268044.457157 kJ/mol
# GULP energy per Si atom -5584.259524 kJ/mol
# Density = 2.364081 g / cm^3
# Si number density = 23.694744 Si / 1000 Ang^3
#
#
#
# Elastic Constant Matrix: (Units=GPa)
#
#
# Indices 1 2 3 4 5 6 
#
# 1 62.4208 2.9759 2.0177 0.0000 0.0000 0.0000
# 2 2.9759 119.2011 25.6153 0.0000 0.0000 0.0000
# 3 2.0177 25.6153 89.0227 0.0000 0.0000 0.0000
# 4 0.0000 0.0000 0.0000 38.9208 0.0000 0.0000
# 5 0.0000 0.0000 0.0000 0.0000 -1.8234 0.0000
# 6 0.0000 0.0000 0.0000 0.0000 0.0000 9.5737
#
#
#
# Elastic Compliance Matrix: (Units=1/GPa)
#
#
# Indices 1 2 3 4 5 6 
#
# 1 0.016045 -0.000344 -0.000265 0.000000 0.000000 0.000000
# 2 -0.000344 0.008949 -0.002567 0.000000 0.000000 0.000000
# 3 -0.000265 -0.002567 0.011978 0.000000 0.000000 0.000000
# 4 0.000000 0.000000 0.000000 0.025693 0.000000 0.000000
# 5 0.000000 0.000000 0.000000 0.000000 -0.548420 0.000000
# 6 0.000000 0.000000 0.000000 0.000000 0.000000 0.104453
#
#
# Mechanical properties :
#
#
# Convention : Reuss Voigt Hill
#
# Bulk Modulus (GPa) = 32.65733 36.87358 34.76545
# Shear Modulus (GPa) = -13.70829 25.33660 5.81415
#
# Velocity S-wave (km/s) = -2.40789 3.27355 1.56815
# Velocity P-wave (km/s) = 2.46614 5.46662 4.24062
#
# Compressibility (1/GPa) = 0.03062100
#
# Stress axis : x y z
#
# Youngs Moduli (GPa) = 62.32374 111.73862 83.48769
#
# Poissons Ratio (x) = 0.03840 0.02210
# Poissons Ratio (y) = 0.02142 0.21434
# Poissons Ratio (z) = 0.01650 0.28687
#
# Static dielectric constant tensor:
#      x y z
#    x 2.168300 0.000000 0.000000 
#    y 0.000000 2.255510 0.000000 
#    z 0.000000 0.000000 1.972240 
# 
# From -- ./inp_files/26877.got.cif
#   From: 2010.05.17/outbox.cif.g08.bks.cpg/sg50_14_cif.got.tgz:26877.got - 2010.06.03 11:33:33.
