data_PCOD9396768
_publ_section_title
;
Structure prediction by ZEFSAII (Michael W. Deem and Ramdas Pophale) SiO2 
 PCOD9396768
Probable space group: P B A N
;
_chemical_formula_sum "Si O2"
_cell_formula_units_Z 38
_cell_length_a 5.395192
_cell_length_b 15.871983
_cell_length_c 21.398507
_cell_angle_alpha 90.000000
_cell_angle_beta 90.000000
_cell_angle_gamma 90.000000
_cell_volume 1832.405419
_symmetry_space_group_name_H-M "P B A N"
_symmetry_group_IT_number 50
_space_group.IT_coordinate_system_code '2'
_symmetry_cell_setting 'orthorhombic'
loop_
_space_group_symop_operation_xyz
x,y,z
1/2-x,1/2-y,z
x,1/2-y,-z
1/2-x,y,-z
-x,-y,-z
1/2+x,1/2+y,-z
-x,1/2+y,z
1/2+x,-y,z
loop_
_atom_site_type_symbol
_atom_site_label
_atom_site_fract_x
_atom_site_fract_y
_atom_site_fract_z
Si Si1 0.951591 0.055562 0.146456
Si Si2 0.410787 0.553104 0.708745
Si Si3 0.498354 0.846599 0.026729
Si Si4 0.750000 0.552700 0.500000
Si Si5 0.750000 0.250000 0.500000
Si Si6 0.596354 0.669076 0.602284
O O1 0.940104 0.081384 0.219201
O O2 0.982037 0.135269 0.100281
O O3 0.194196 0.996063 0.136016
O O4 0.139782 0.512322 0.699885
O O5 0.455749 0.625932 0.658845
O O6 0.498284 0.750000 0.000000
O O7 0.250000 0.887153 0.000000
O O8 0.750000 0.884914 0.000000
O O9 0.500000 0.500000 0.500000
O O10 0.769143 0.604907 0.564472
O O11 0.584568 0.304155 0.453646
O O12 0.750000 0.750000 0.623334
#
# Coordination Sequence:
#
# PCOD9396768 Si02
#       6
#     8   8   8   4   2   8
#     4  10  21  40  65  92 126 167 213 264 315 373
#     4  10  24  45  68  95 127 168 221 267 319 386
#     4  10  21  37  58  92 131 164 207 257 311 372
#     4  12  24  40  65  93 122 166 212 262 320 376
#     4  12  24  44  64  92 144 162 220 258 338 394
#     4  12  25  43  64  96 131 171 212 269 326 396
#
# _framework density 20.737770000000001
#
# number of rings (size 3 to 8) (size 9 to 14) (size 15 to 20)
#    0.000    1.263    2.105    3.158    2.947    2.526 
#    3.789    2.105    0.000    0.000    0.000    0.000 
#    0.000    0.000    0.000    0.000    0.000    0.000 
#
# Total GULP energy -212177.485813 kJ/mol
# GULP energy per Si atom -5583.618048 kJ/mol
# Density = 2.069057 g / cm^3
# Si number density = 20.737770 Si / 1000 Ang^3
#
#
#
# Elastic Constant Matrix: (Units=GPa)
#
#
# Indices 1 2 3 4 5 6 
#
# 1 129.0172 11.0775 14.8737 0.0000 0.0000 0.0000
# 2 11.0775 63.0871 49.2828 0.0000 0.0000 0.0000
# 3 14.8737 49.2828 127.8311 0.0000 0.0000 0.0000
# 4 0.0000 0.0000 0.0000 38.6080 0.0000 0.0000
# 5 0.0000 0.0000 0.0000 0.0000 25.7312 0.0000
# 6 0.0000 0.0000 0.0000 0.0000 0.0000 -5.9446
#
#
#
# Elastic Compliance Matrix: (Units=1/GPa)
#
#
# Indices 1 2 3 4 5 6 
#
# 1 0.007896 -0.000957 -0.000550 0.000000 0.000000 0.000000
# 2 -0.000957 0.022798 -0.008678 0.000000 0.000000 0.000000
# 3 -0.000550 -0.008678 0.011232 0.000000 0.000000 0.000000
# 4 0.000000 0.000000 0.000000 0.025901 0.000000 0.000000
# 5 0.000000 0.000000 0.000000 0.000000 0.038863 0.000000
# 6 0.000000 0.000000 0.000000 0.000000 0.000000 -0.168219
#
#
# Mechanical properties :
#
#
# Convention : Reuss Voigt Hill
#
# Bulk Modulus (GPa) = 46.38782 52.26704 49.32743
# Shear Modulus (GPa) = -147.18415 27.99234 -59.59591
#
# Velocity S-wave (km/s) = -8.43374 3.67798 -5.36659
# Velocity P-wave (km/s) = 8.51000 6.57991 3.81607
#
# Compressibility (1/GPa) = 0.02155738
#
# Stress axis : x y z
#
# Youngs Moduli (GPa) = 126.63898 43.86277 89.02762
#
# Poissons Ratio (x) = 0.04198 0.04895
# Poissons Ratio (y) = 0.12120 0.77259
# Poissons Ratio (z) = 0.06963 0.38065
#
# Static dielectric constant tensor:
#      x y z
#    x 1.818730 0.000000 0.000000 
#    y 0.000000 -21.489130 0.000000 
#    z 0.000000 0.000000 1.692600 
# 
# From -- ./inp_files/28088.got.cif
#   From: 2010.05.17/outbox.cif.g08.bks.cpg/sg50_15_cif.got.tgz:28088.got - 2010.06.03 11:33:33.
