data_PCOD9396527
_publ_section_title
;
Structure prediction by ZEFSAII (Michael W. Deem and Ramdas Pophale) SiO2 
 PCOD9396527
Probable space group: P B A N
;
_chemical_formula_sum "Si O2"
_cell_formula_units_Z 58
_cell_length_a 18.671658
_cell_length_b 11.452160
_cell_length_c 14.259333
_cell_angle_alpha 90.000000
_cell_angle_beta 90.000000
_cell_angle_gamma 90.000000
_cell_volume 3049.084795
_symmetry_space_group_name_H-M "P B A N"
_symmetry_group_IT_number 50
_space_group.IT_coordinate_system_code '2'
_symmetry_cell_setting 'orthorhombic'
loop_
_space_group_symop_operation_xyz
x,y,z
1/2-x,1/2-y,z
x,1/2-y,-z
1/2-x,y,-z
-x,-y,-z
1/2+x,1/2+y,-z
-x,1/2+y,z
1/2+x,-y,z
loop_
_atom_site_type_symbol
_atom_site_label
_atom_site_fract_x
_atom_site_fract_y
_atom_site_fract_z
Si Si1 0.865431 0.914777 0.163651
Si Si2 0.419393 0.334090 0.225321
Si Si3 0.750000 0.250000 0.000000
Si Si4 0.785250 0.369162 0.602961
Si Si5 0.920967 0.518138 0.034941
Si Si6 0.720515 0.527795 0.751861
Si Si7 0.922166 0.136729 0.281786
Si Si8 0.351855 0.688068 0.143027
O O1 0.905314 0.801014 0.203364
O O2 0.781186 0.908419 0.187464
O O3 0.898213 0.025243 0.219729
O O4 0.876215 0.932539 0.052577
O O5 0.423950 0.396570 0.123867
O O6 0.348439 0.393517 0.268189
O O7 0.491597 0.358307 0.284720
O O8 0.691589 0.217476 0.919189
O O9 0.750000 0.250000 0.643757
O O10 0.750000 0.375642 0.500000
O O11 0.757505 0.480891 0.658575
O O12 0.870784 0.362157 0.625478
O O13 0.894976 0.392886 0.071499
O O14 0.000000 0.500000 0.000000
O O15 0.696809 0.410600 0.807184
O O16 0.898712 0.248216 0.220047
#
# Coordination Sequence:
#
# PCOD9396527 Si02
#       8
#     8   8   2   8   8   8   8   8
#     4  11  22  37  57  83 123 172 220 249 300 359
#     4  11  24  37  59  84 126 169 208 254 307 367
#     4  12  20  28  48  80 108 144 190 252 288 330
#     4  10  20  39  69  96 118 146 194 260 322 394
#     4  11  21  36  53  82 121 170 216 258 295 341
#     4  10  22  40  59  86 120 159 203 253 310 374
#     4  11  22  37  60  88 121 155 200 262 315 374
#     4  11  21  33  53  81 116 152 202 256 303 347
#
# _framework density 19.022100999999999
#
# number of rings (size 3 to 8) (size 9 to 14) (size 15 to 20)
#    0.000    1.241    2.759    4.966    1.931    1.655 
#    0.000    3.448    0.000    8.276    0.000    0.000 
#    0.000    0.000    0.000    0.000    0.000    0.000 
#
# Total GULP energy -323030.221023 kJ/mol
# GULP energy per Si atom -5569.486569 kJ/mol
# Density = 1.897881 g / cm^3
# Si number density = 19.022101 Si / 1000 Ang^3
#
#
#
# Elastic Constant Matrix: (Units=GPa)
#
#
# Indices 1 2 3 4 5 6 
#
# 1 155.5109 33.5698 49.6776 0.0000 0.0000 0.0000
# 2 33.5698 79.1172 14.9446 0.0000 0.0000 0.0000
# 3 49.6776 14.9446 70.6582 0.0000 0.0000 0.0000
# 4 0.0000 0.0000 0.0000 18.4791 0.0000 0.0000
# 5 0.0000 0.0000 0.0000 0.0000 27.6775 0.0000
# 6 0.0000 0.0000 0.0000 0.0000 0.0000 27.2686
#
#
#
# Elastic Compliance Matrix: (Units=1/GPa)
#
#
# Indices 1 2 3 4 5 6 
#
# 1 0.008804 -0.002673 -0.005625 0.000000 0.000000 0.000000
# 2 -0.002673 0.013977 -0.001077 0.000000 0.000000 0.000000
# 3 -0.005625 -0.001077 0.018335 0.000000 0.000000 0.000000
# 4 0.000000 0.000000 0.000000 0.054115 0.000000 0.000000
# 5 0.000000 0.000000 0.000000 0.000000 0.036130 0.000000
# 6 0.000000 0.000000 0.000000 0.000000 0.000000 0.036672
#
#
# Mechanical properties :
#
#
# Convention : Reuss Voigt Hill
#
# Bulk Modulus (GPa) = 44.70865 55.74117 50.22491
# Shear Modulus (GPa) = 25.74150 28.49133 27.11642
#
# Velocity S-wave (km/s) = 3.68263 3.87434 3.77970
# Velocity P-wave (km/s) = 6.45267 7.02716 6.74604
#
# Compressibility (1/GPa) = 0.02236703
#
# Stress axis : x y z
#
# Youngs Moduli (GPa) = 113.58151 71.54539 54.54087
#
# Poissons Ratio (x) = 0.19126 0.30677
# Poissons Ratio (y) = 0.30363 0.05873
# Poissons Ratio (z) = 0.63885 0.07704
#
# Static dielectric constant tensor:
#      x y z
#    x 1.691770 0.000000 0.000000 
#    y 0.000000 1.640020 0.000000 
#    z 0.000000 0.000000 1.709420 
# 
# From -- ./inp_files/26982.got.cif
#   From: 2010.05.17/outbox.cif.g08.bks.cpg/sg50_14_cif.got.tgz:26982.got - 2010.06.03 11:33:33.
