data_PCOD9396122
_publ_section_title
;
Structure prediction by ZEFSAII (Michael W. Deem and Ramdas Pophale) SiO2 
 PCOD9396122
Probable space group: P B A N
;
_chemical_formula_sum "Si O2"
_cell_formula_units_Z 48
_cell_length_a 13.280117
_cell_length_b 23.207437
_cell_length_c 8.215559
_cell_angle_alpha 90.000000
_cell_angle_beta 90.000000
_cell_angle_gamma 90.000000
_cell_volume 2532.014569
_symmetry_space_group_name_H-M "P B A N"
_symmetry_group_IT_number 50
_space_group.IT_coordinate_system_code '2'
_symmetry_cell_setting 'orthorhombic'
loop_
_space_group_symop_operation_xyz
x,y,z
1/2-x,1/2-y,z
x,1/2-y,-z
1/2-x,y,-z
-x,-y,-z
1/2+x,1/2+y,-z
-x,1/2+y,z
1/2+x,-y,z
loop_
_atom_site_type_symbol
_atom_site_label
_atom_site_fract_x
_atom_site_fract_y
_atom_site_fract_z
Si Si1 0.552022 0.070834 0.178293
Si Si2 0.491790 0.422006 0.305841
Si Si3 0.127721 0.816092 0.684205
Si Si4 0.857785 0.316184 0.290005
Si Si5 0.868519 0.002078 0.504678
Si Si6 0.368704 0.031506 0.000194
O O1 0.575518 0.137665 0.196096
O O2 0.598411 0.041324 0.340177
O O3 0.607445 0.036251 0.031624
O O4 0.434492 0.057500 0.147045
O O5 0.538747 0.359774 0.274971
O O6 0.587385 0.462586 0.352225
O O7 0.420118 0.440159 0.458984
O O8 0.422273 0.438845 0.154906
O O9 0.115551 0.750328 0.743172
O O10 0.240543 0.831056 0.743750
O O11 0.131515 0.819643 0.486504
O O12 0.750000 0.997400 0.500000
O O13 0.250000 0.040999 0.000000
#
# Coordination Sequence:
#
# PCOD9396122 Si02
#       6
#     8   8   8   8   8   8
#     4  10  20  36  58  81 111 152 189 236 294 346
#     4  10  20  34  55  80 115 149 195 238 284 343
#     4   9  17  32  54  90 116 145 179 231 297 357
#     4   9  17  31  58  85 118 144 178 234 300 348
#     4  10  20  33  55  88 115 147 190 238 293 346
#     4  10  24  40  54  79 115 159 198 235 289 343
#
# _framework density 18.957236999999999
#
# number of rings (size 3 to 8) (size 9 to 14) (size 15 to 20)
#    0.000    2.333    1.667    2.000    0.000   14.667 
#    0.000    0.833    0.000    4.000    0.000    0.000 
#    0.000    0.000    0.000    0.000    0.000    0.000 
#
# Total GULP energy -267389.707002 kJ/mol
# GULP energy per Si atom -5570.618896 kJ/mol
# Density = 1.891409 g / cm^3
# Si number density = 18.957237 Si / 1000 Ang^3
#
#
#
# Elastic Constant Matrix: (Units=GPa)
#
#
# Indices 1 2 3 4 5 6 
#
# 1 185.3780 78.7259 35.5899 0.0000 0.0000 0.0000
# 2 78.7259 117.4215 33.8003 0.0000 0.0000 0.0000
# 3 35.5899 33.8003 55.0567 0.0000 0.0000 0.0000
# 4 0.0000 0.0000 0.0000 18.4016 0.0000 0.0000
# 5 0.0000 0.0000 0.0000 0.0000 27.5712 0.0000
# 6 0.0000 0.0000 0.0000 0.0000 0.0000 25.5022
#
#
#
# Elastic Compliance Matrix: (Units=1/GPa)
#
#
# Indices 1 2 3 4 5 6 
#
# 1 0.007757 -0.004564 -0.002213 0.000000 0.000000 0.000000
# 2 -0.004564 0.013030 -0.005049 0.000000 0.000000 0.000000
# 3 -0.002213 -0.005049 0.022693 0.000000 0.000000 0.000000
# 4 0.000000 0.000000 0.000000 0.054343 0.000000 0.000000
# 5 0.000000 0.000000 0.000000 0.000000 0.036270 0.000000
# 6 0.000000 0.000000 0.000000 0.000000 0.000000 0.039212
#
#
# Mechanical properties :
#
#
# Convention : Reuss Voigt Hill
#
# Bulk Modulus (GPa) = 50.43118 72.67651 61.55385
# Shear Modulus (GPa) = 24.56209 28.27769 26.41989
#
# Velocity S-wave (km/s) = 3.60343 3.86639 3.73722
# Velocity P-wave (km/s) = 6.63124 7.63886 7.15282
#
# Compressibility (1/GPa) = 0.01982900
#
# Stress axis : x y z
#
# Youngs Moduli (GPa) = 128.90832 76.74781 44.06661
#
# Poissons Ratio (x) = 0.35029 0.09750
# Poissons Ratio (y) = 0.58835 0.22248
# Poissons Ratio (z) = 0.28522 0.38749
#
# Static dielectric constant tensor:
#      x y z
#    x 1.656140 0.000000 0.000000 
#    y 0.000000 1.701010 0.000000 
#    z 0.000000 0.000000 1.799810 
# 
# From -- ./inp_files/11543.got.cif
#   From: 2010.05.17/outbox.cif.g08.bks.cpg/sg50_6_cif.got.tgz:11543.got - 2010.06.03 11:33:33.
