data_PCOD9396159
_publ_section_title
;
Structure prediction by ZEFSAII (Michael W. Deem and Ramdas Pophale) SiO2 
 PCOD9396159
Probable space group: P B A N
;
_chemical_formula_sum "Si O2"
_cell_formula_units_Z 48
_cell_length_a 18.383196
_cell_length_b 8.846417
_cell_length_c 14.530982
_cell_angle_alpha 90.000000
_cell_angle_beta 90.000000
_cell_angle_gamma 90.000000
_cell_volume 2363.107016
_symmetry_space_group_name_H-M "P B A N"
_symmetry_group_IT_number 50
_space_group.IT_coordinate_system_code '2'
_symmetry_cell_setting 'orthorhombic'
loop_
_space_group_symop_operation_xyz
x,y,z
1/2-x,1/2-y,z
x,1/2-y,-z
1/2-x,y,-z
-x,-y,-z
1/2+x,1/2+y,-z
-x,1/2+y,z
1/2+x,-y,z
loop_
_atom_site_type_symbol
_atom_site_label
_atom_site_fract_x
_atom_site_fract_y
_atom_site_fract_z
Si Si1 0.146616 0.056916 0.790613
Si Si2 0.565559 0.622344 0.776870
Si Si3 0.049043 0.993760 0.630157
Si Si4 0.802736 0.504870 0.132675
Si Si5 0.452089 0.609268 0.935902
Si Si6 0.750000 0.250000 0.000000
Si Si7 0.250000 0.250000 0.000000
Si Si8 0.501317 0.250000 0.500000
O O1 0.114911 0.225839 0.772132
O O2 0.115140 0.975782 0.700526
O O3 0.232473 0.037077 0.803639
O O4 0.111160 0.983945 0.883129
O O5 0.522664 0.549571 0.690899
O O6 0.622071 0.499035 0.814335
O O7 0.504835 0.660768 0.852985
O O8 0.042470 0.155345 0.578226
O O9 0.050423 0.872311 0.550131
O O10 0.791550 0.360031 0.069673
O O11 0.800610 0.646347 0.062744
O O12 0.431204 0.750000 0.000000
O O13 0.500000 0.500000 0.000000
#
# Coordination Sequence:
#
# PCOD9396159 Si02
#       8
#     8   8   8   8   8   2   2   4
#     4  11  22  39  60  90 119 162 207 255 301 366
#     4  11  22  40  59  90 118 165 204 258 300 369
#     4  10  22  39  66  95 124 146 206 245 324 375
#     4  11  24  39  61  79 126 169 210 258 293 353
#     4  11  24  34  55  84 122 161 208 257 300 341
#     4  10  28  38  48  92 116 168 228 244 284 350
#     4  10  20  34  56  80 108 168 216 232 280 338
#     4  10  20  40  68  94 118 158 182 260 308 404
#
# _framework density 20.312239999999999
#
# number of rings (size 3 to 8) (size 9 to 14) (size 15 to 20)
#    0.000    1.333    5.000    0.000    7.000    1.333 
#    0.000    0.000    0.000    6.000    0.000    0.000 
#    0.000    0.000    0.000    0.000    0.000    0.000 
#
# Total GULP energy -268058.874177 kJ/mol
# GULP energy per Si atom -5584.559879 kJ/mol
# Density = 2.026601 g / cm^3
# Si number density = 20.312240 Si / 1000 Ang^3
#
#
#
# Elastic Constant Matrix: (Units=GPa)
#
#
# Indices 1 2 3 4 5 6 
#
# 1 95.1146 17.3228 38.2382 0.0000 0.0000 0.0000
# 2 17.3228 91.1422 35.1062 0.0000 0.0000 0.0000
# 3 38.2382 35.1062 105.9552 0.0000 0.0000 0.0000
# 4 0.0000 0.0000 0.0000 33.8681 0.0000 0.0000
# 5 0.0000 0.0000 0.0000 0.0000 19.7967 0.0000
# 6 0.0000 0.0000 0.0000 0.0000 0.0000 10.8129
#
#
#
# Elastic Compliance Matrix: (Units=1/GPa)
#
#
# Indices 1 2 3 4 5 6 
#
# 1 0.012339 -0.000722 -0.004214 0.000000 0.000000 0.000000
# 2 -0.000722 0.012619 -0.003921 0.000000 0.000000 0.000000
# 3 -0.004214 -0.003921 0.012258 0.000000 0.000000 0.000000
# 4 0.000000 0.000000 0.000000 0.029526 0.000000 0.000000
# 5 0.000000 0.000000 0.000000 0.000000 0.050514 0.000000
# 6 0.000000 0.000000 0.000000 0.000000 0.000000 0.092482
#
#
# Mechanical properties :
#
#
# Convention : Reuss Voigt Hill
#
# Bulk Modulus (GPa) = 51.27388 52.61628 51.94508
# Shear Modulus (GPa) = 21.37190 26.33185 23.85187
#
# Velocity S-wave (km/s) = 3.24723 3.60440 3.43047
# Velocity P-wave (km/s) = 6.27352 6.57892 6.42803
#
# Compressibility (1/GPa) = 0.01950311
#
# Stress axis : x y z
#
# Youngs Moduli (GPa) = 81.04246 79.24414 81.58159
#
# Poissons Ratio (x) = 0.05723 0.34377
# Poissons Ratio (y) = 0.05852 0.31984
# Poissons Ratio (z) = 0.34150 0.31068
#
# Static dielectric constant tensor:
#      x y z
#    x 1.751500 0.000000 0.000000 
#    y 0.000000 1.827580 0.000000 
#    z 0.000000 0.000000 1.740310 
# 
# From -- ./inp_files/25155.got.cif
#   From: 2010.05.17/outbox.cif.g08.bks.cpg/sg50_13_cif.got.tgz:25155.got - 2010.06.03 11:33:33.
