data_PCOD9396414
_publ_section_title
;
Structure prediction by ZEFSAII (Michael W. Deem and Ramdas Pophale) SiO2 
 PCOD9396414
Probable space group: P B A N
;
_chemical_formula_sum "Si O2"
_cell_formula_units_Z 52
_cell_length_a 15.060972
_cell_length_b 19.331574
_cell_length_c 8.988853
_cell_angle_alpha 90.000000
_cell_angle_beta 90.000000
_cell_angle_gamma 90.000000
_cell_volume 2617.125178
_symmetry_space_group_name_H-M "P B A N"
_symmetry_group_IT_number 50
_space_group.IT_coordinate_system_code '2'
_symmetry_cell_setting 'orthorhombic'
loop_
_space_group_symop_operation_xyz
x,y,z
1/2-x,1/2-y,z
x,1/2-y,-z
1/2-x,y,-z
-x,-y,-z
1/2+x,1/2+y,-z
-x,1/2+y,z
1/2+x,-y,z
loop_
_atom_site_type_symbol
_atom_site_label
_atom_site_fract_x
_atom_site_fract_y
_atom_site_fract_z
Si Si1 0.250000 0.917630 0.500000
Si Si2 0.515705 0.938335 0.124201
Si Si3 0.604544 0.250000 0.000000
Si Si4 0.488603 0.162123 0.240969
Si Si5 0.851072 0.667248 0.974578
Si Si6 0.928431 0.025687 0.617997
Si Si7 0.044422 0.750000 0.500000
Si Si8 0.143184 0.652537 0.259926
O O1 0.162164 0.960116 0.466236
O O2 0.271049 0.876342 0.346422
O O3 0.575668 0.874997 0.067113
O O4 0.424991 0.906358 0.196376
O O5 0.574925 0.969556 0.254394
O O6 0.500000 0.000000 0.000000
O O7 0.544252 0.298009 0.889339
O O8 0.657081 0.201641 0.883325
O O9 0.538341 0.093809 0.294725
O O10 0.486514 0.209142 0.384296
O O11 0.388626 0.150586 0.188172
O O12 0.856066 0.750000 0.000000
O O13 0.750000 0.645484 0.000000
O O14 0.000000 0.000000 0.500000
O O15 0.099782 0.697522 0.394943
#
# Coordination Sequence:
#
# PCOD9396414 Si02
#       8
#     4   8   4   8   8   8   4   8
#     4  12  26  45  68 104 146 185 246 284 362 440
#     4  12  23  43  73  99 136 185 241 294 365 422
#     4  10  20  40  72 100 134 178 232 284 361 421
#     4  11  19  41  66 100 133 188 228 286 365 426
#     4  11  23  40  70 105 138 178 239 303 357 425
#     4  12  25  43  67  96 141 187 230 292 353 432
#     4  10  20  37  72  93 138 188 224 275 366 445
#     4  11  22  42  69 101 137 189 227 287 351 437
#
# _framework density 19.869129999999998
#
# number of rings (size 3 to 8) (size 9 to 14) (size 15 to 20)
#    0.000    0.769    6.923    0.923    0.000    2.769 
#    0.000    3.077    0.000   10.154    0.000    0.000 
#    0.000    0.000    0.000    0.000    0.000    0.000 
#
# Total GULP energy -289895.236537 kJ/mol
# GULP energy per Si atom -5574.908395 kJ/mol
# Density = 1.982391 g / cm^3
# Si number density = 19.869130 Si / 1000 Ang^3
#
#
#
# Elastic Constant Matrix: (Units=GPa)
#
#
# Indices 1 2 3 4 5 6 
#
# 1 113.7726 42.5505 47.4523 0.0000 0.0000 0.0000
# 2 42.5505 89.3577 49.4466 0.0000 0.0000 0.0000
# 3 47.4523 49.4466 142.6002 0.0000 0.0000 0.0000
# 4 0.0000 0.0000 0.0000 51.4703 0.0000 0.0000
# 5 0.0000 0.0000 0.0000 0.0000 38.3617 0.0000
# 6 0.0000 0.0000 0.0000 0.0000 0.0000 25.9650
#
#
#
# Elastic Compliance Matrix: (Units=1/GPa)
#
#
# Indices 1 2 3 4 5 6 
#
# 1 0.011293 -0.004081 -0.002343 0.000000 0.000000 0.000000
# 2 -0.004081 0.015323 -0.003955 0.000000 0.000000 0.000000
# 3 -0.002343 -0.003955 0.009164 0.000000 0.000000 0.000000
# 4 0.000000 0.000000 0.000000 0.019429 0.000000 0.000000
# 5 0.000000 0.000000 0.000000 0.000000 0.026068 0.000000
# 6 0.000000 0.000000 0.000000 0.000000 0.000000 0.038513
#
#
# Mechanical properties :
#
#
# Convention : Reuss Voigt Hill
#
# Bulk Modulus (GPa) = 66.57157 69.40326 67.98742
# Shear Modulus (GPa) = 34.35140 36.91146 35.63143
#
# Velocity S-wave (km/s) = 4.16249 4.31481 4.23934
# Velocity P-wave (km/s) = 7.52858 7.73495 7.63247
#
# Compressibility (1/GPa) = 0.01502143
#
# Stress axis : x y z
#
# Youngs Moduli (GPa) = 88.55128 65.26166 109.12669
#
# Poissons Ratio (x) = 0.26634 0.25566
# Poissons Ratio (y) = 0.36138 0.43162
# Poissons Ratio (z) = 0.20745 0.25812
#
# Static dielectric constant tensor:
#      x y z
#    x 1.700650 0.000000 0.000000 
#    y 0.000000 1.862110 0.000000 
#    z 0.000000 0.000000 1.760430 
# 
# From -- ./inp_files/13259.got.cif
#   From: 2010.05.17/outbox.cif.g08.bks.cpg/sg50_7_cif.got.tgz:13259.got - 2010.06.03 11:33:33.
