data_PCOD9396728
_publ_section_title
;
Structure prediction by ZEFSAII (Michael W. Deem and Ramdas Pophale) SiO2 
 PCOD9396728
Probable space group: P B A N
;
_chemical_formula_sum "Si O2"
_cell_formula_units_Z 48
_cell_length_a 31.472053
_cell_length_b 8.919874
_cell_length_c 8.099121
_cell_angle_alpha 90.000000
_cell_angle_beta 90.000000
_cell_angle_gamma 90.000000
_cell_volume 2273.639894
_symmetry_space_group_name_H-M "P B A N"
_symmetry_group_IT_number 50
_space_group.IT_coordinate_system_code '2'
_symmetry_cell_setting 'orthorhombic'
loop_
_space_group_symop_operation_xyz
x,y,z
1/2-x,1/2-y,z
x,1/2-y,-z
1/2-x,y,-z
-x,-y,-z
1/2+x,1/2+y,-z
-x,1/2+y,z
1/2+x,-y,z
loop_
_atom_site_type_symbol
_atom_site_label
_atom_site_fract_x
_atom_site_fract_y
_atom_site_fract_z
Si Si1 0.884205 0.550659 0.165652
Si Si2 0.024845 0.532077 0.333238
Si Si3 0.297964 0.427581 0.684290
Si Si4 0.706174 0.932969 0.291506
Si Si5 0.459293 0.663540 0.174047
Si Si6 0.890358 0.893854 0.220188
O O1 0.834810 0.509143 0.193874
O O2 0.916487 0.423633 0.223167
O O3 0.889585 0.714203 0.249776
O O4 0.896302 0.577634 0.974542
O O5 0.028790 0.706903 0.300963
O O6 0.071707 0.463100 0.324080
O O7 0.000000 0.500000 0.500000
O O8 0.997278 0.455724 0.187045
O O9 0.295126 0.248629 0.721200
O O10 0.253428 0.488173 0.756667
O O11 0.297862 0.457627 0.488198
O O12 0.344641 0.467964 0.744510
O O13 0.454464 0.750000 0.000000
#
# Coordination Sequence:
#
# PCOD9396728 Si02
#       6
#     8   8   8   8   8   8
#     4  10  21  36  62  92 123 167 206 258 315 386
#     4  12  27  44  64  92 122 161 210 266 322 386
#     4   8  15  30  54  86 128 161 199 264 307 366
#     4   8  15  30  54  88 123 164 206 248 319 363
#     4  12  25  45  66  88 124 167 209 263 326 389
#     4  10  21  37  59  92 127 160 210 261 318 370
#
# _framework density 21.111523999999999
#
# number of rings (size 3 to 8) (size 9 to 14) (size 15 to 20)
#    0.000    2.000    1.667    3.000    4.667    0.667 
#    3.000    3.333    0.000    1.000    0.000    2.333 
#    0.000    0.000    0.000    0.000    0.000    0.000 
#
# Total GULP energy -267862.400319 kJ/mol
# GULP energy per Si atom -5580.466673 kJ/mol
# Density = 2.106347 g / cm^3
# Si number density = 21.111524 Si / 1000 Ang^3
#
#
#
# Elastic Constant Matrix: (Units=GPa)
#
#
# Indices 1 2 3 4 5 6 
#
# 1 181.2851 60.4100 41.5551 0.0000 0.0000 0.0000
# 2 60.4100 75.5737 24.7409 0.0000 0.0000 0.0000
# 3 41.5551 24.7409 46.6615 0.0000 0.0000 0.0000
# 4 0.0000 0.0000 0.0000 18.1112 0.0000 0.0000
# 5 0.0000 0.0000 0.0000 0.0000 27.5506 0.0000
# 6 0.0000 0.0000 0.0000 0.0000 0.0000 23.1460
#
#
#
# Elastic Compliance Matrix: (Units=1/GPa)
#
#
# Indices 1 2 3 4 5 6 
#
# 1 0.008285 -0.005091 -0.004679 0.000000 0.000000 0.000000
# 2 -0.005091 0.019140 -0.005614 0.000000 0.000000 0.000000
# 3 -0.004679 -0.005614 0.028575 0.000000 0.000000 0.000000
# 4 0.000000 0.000000 0.000000 0.055214 0.000000 0.000000
# 5 0.000000 0.000000 0.000000 0.000000 0.036297 0.000000
# 6 0.000000 0.000000 0.000000 0.000000 0.000000 0.043204
#
#
# Mechanical properties :
#
#
# Convention : Reuss Voigt Hill
#
# Bulk Modulus (GPa) = 39.63430 61.88135 50.75783
# Shear Modulus (GPa) = 21.74912 25.54918 23.64915
#
# Velocity S-wave (km/s) = 3.21316 3.48257 3.35057
# Velocity P-wave (km/s) = 5.70792 6.74880 6.25007
#
# Compressibility (1/GPa) = 0.02523067
#
# Stress axis : x y z
#
# Youngs Moduli (GPa) = 120.69669 52.24767 34.99567
#
# Poissons Ratio (x) = 0.26599 0.16375
# Poissons Ratio (y) = 0.61446 0.19648
# Poissons Ratio (z) = 0.56476 0.29334
#
# Static dielectric constant tensor:
#      x y z
#    x 1.797750 0.000000 0.000000 
#    y 0.000000 1.755140 0.000000 
#    z 0.000000 0.000000 1.783200 
# 
# From -- ./inp_files/16962.got.cif
#   From: 2010.05.17/outbox.cif.g08.bks.cpg/sg50_9_cif.got.tgz:16962.got - 2010.06.03 11:33:33.
