data_PCOD9396224
_publ_section_title
;
Structure prediction by ZEFSAII (Michael W. Deem and Ramdas Pophale) SiO2 
 PCOD9396224
Probable space group: P B A N
;
_chemical_formula_sum "Si O2"
_cell_formula_units_Z 32
_cell_length_a 8.929148
_cell_length_b 19.641521
_cell_length_c 8.488298
_cell_angle_alpha 90.000000
_cell_angle_beta 90.000000
_cell_angle_gamma 90.000000
_cell_volume 1488.695087
_symmetry_space_group_name_H-M "P B A N"
_symmetry_group_IT_number 50
_space_group.IT_coordinate_system_code '2'
_symmetry_cell_setting 'orthorhombic'
loop_
_space_group_symop_operation_xyz
x,y,z
1/2-x,1/2-y,z
x,1/2-y,-z
1/2-x,y,-z
-x,-y,-z
1/2+x,1/2+y,-z
-x,1/2+y,z
1/2+x,-y,z
loop_
_atom_site_type_symbol
_atom_site_label
_atom_site_fract_x
_atom_site_fract_y
_atom_site_fract_z
Si Si1 0.886103 0.902328 0.816263
Si Si2 0.071143 0.267426 0.670737
Si Si3 0.460584 0.138963 0.149117
Si Si4 0.885834 0.036424 0.617102
O O1 0.953786 0.847170 0.696937
O O2 0.717236 0.874706 0.836435
O O3 0.862330 0.977407 0.748945
O O4 0.984128 0.892095 0.974730
O O5 0.250000 0.250000 0.664301
O O6 0.007806 0.250000 0.500000
O O7 0.014240 0.218689 0.811993
O O8 0.546227 0.098531 0.285393
O O9 0.750000 0.053613 0.500000
O O10 0.000000 0.000000 0.500000
#
# Coordination Sequence:
#
# PCOD9396224 Si02
#       4
#     8   8   8   8
#     4  10  20  35  58  87 120 159 199 255 310 363
#     4   9  17  30  56  86 118 150 196 251 301 354
#     4  10  20  36  56  88 122 155 204 253 309 365
#     4  12  23  38  59  86 121 161 203 248 301 364
#
# _framework density 21.495335000000001
#
# number of rings (size 3 to 8) (size 9 to 14) (size 15 to 20)
#    0.000    1.750    2.500    3.000    3.500    3.000 
#    0.000    0.000    0.000    6.750    0.000    7.000 
#    0.000    0.000    0.000    0.000    0.000    0.000 
#
# Total GULP energy -178230.099268 kJ/mol
# GULP energy per Si atom -5569.690602 kJ/mol
# Density = 2.144641 g / cm^3
# Si number density = 21.495335 Si / 1000 Ang^3
#
#
#
# Elastic Constant Matrix: (Units=GPa)
#
#
# Indices 1 2 3 4 5 6 
#
# 1 38.0122 -2.1822 24.9151 0.0000 0.0000 0.0000
# 2 -2.1822 76.1707 20.5070 0.0000 0.0000 0.0000
# 3 24.9151 20.5070 128.5045 0.0000 0.0000 0.0000
# 4 0.0000 0.0000 0.0000 -13.9402 0.0000 0.0000
# 5 0.0000 0.0000 0.0000 0.0000 28.1843 0.0000
# 6 0.0000 0.0000 0.0000 0.0000 0.0000 12.5191
#
#
#
# Elastic Compliance Matrix: (Units=1/GPa)
#
#
# Indices 1 2 3 4 5 6 
#
# 1 0.030617 0.002586 -0.006349 0.000000 0.000000 0.000000
# 2 0.002586 0.013936 -0.002725 0.000000 0.000000 0.000000
# 3 -0.006349 -0.002725 0.009448 0.000000 0.000000 0.000000
# 4 0.000000 0.000000 0.000000 -0.071735 0.000000 0.000000
# 5 0.000000 0.000000 0.000000 0.000000 0.035481 0.000000
# 6 0.000000 0.000000 0.000000 0.000000 0.000000 0.079878
#
#
# Mechanical properties :
#
#
# Convention : Reuss Voigt Hill
#
# Bulk Modulus (GPa) = 24.37520 36.57413 30.47467
# Shear Modulus (GPa) = 40.23297 18.64913 29.44105
#
# Velocity S-wave (km/s) = 4.33102 2.94868 3.70489
# Velocity P-wave (km/s) = 6.03114 5.35209 5.70173
#
# Compressibility (1/GPa) = 0.04102530
#
# Stress axis : x y z
#
# Youngs Moduli (GPa) = 32.66128 71.75525 105.84541
#
# Poissons Ratio (x) = -0.18559 0.67201
# Poissons Ratio (y) = -0.08448 0.28848
# Poissons Ratio (z) = 0.20737 0.19557
#
# Static dielectric constant tensor:
#      x y z
#    x 2.072360 0.000000 0.000000 
#    y 0.000000 1.854710 0.000000 
#    z 0.000000 0.000000 2.692940 
# 
# From -- ./inp_files/9046.got.cif
#   From: 2010.05.17/outbox.cif.g08.bks.cpg/sg50_5_cif.got.tgz:9046.got - 2010.06.03 11:33:33.
