data_PCOD9396686
_publ_section_title
;
Structure prediction by ZEFSAII (Michael W. Deem and Ramdas Pophale) SiO2 
 PCOD9396686
Probable space group: P B A N
;
_chemical_formula_sum "Si O2"
_cell_formula_units_Z 64
_cell_length_a 16.898889
_cell_length_b 9.081370
_cell_length_c 22.748852
_cell_angle_alpha 90.000000
_cell_angle_beta 90.000000
_cell_angle_gamma 90.000000
_cell_volume 3491.154019
_symmetry_space_group_name_H-M "P B A N"
_symmetry_group_IT_number 50
_space_group.IT_coordinate_system_code '2'
_symmetry_cell_setting 'orthorhombic'
loop_
_space_group_symop_operation_xyz
x,y,z
1/2-x,1/2-y,z
x,1/2-y,-z
1/2-x,y,-z
-x,-y,-z
1/2+x,1/2+y,-z
-x,1/2+y,z
1/2+x,-y,z
loop_
_atom_site_type_symbol
_atom_site_label
_atom_site_fract_x
_atom_site_fract_y
_atom_site_fract_z
Si Si1 0.750000 0.928869 0.068247
Si Si2 0.413141 0.071375 0.134051
Si Si3 0.416111 0.576673 0.500000
Si Si4 0.416441 0.426397 0.730889
Si Si5 0.842985 0.583525 0.390437
Si Si6 0.413141 0.428626 0.134051
Si Si7 0.657015 0.583525 0.390437
Si Si8 0.083559 0.073603 0.269111
O O1 0.750000 0.750000 0.071877
O O2 0.834332 0.974110 0.097628
O O3 0.665669 0.974110 0.097628
O O4 0.750000 0.972011 0.000000
O O5 0.394532 0.032652 0.202350
O O6 0.421292 0.250000 0.128955
O O7 0.500000 0.000001 0.119630
O O8 0.422467 0.750000 0.500000
O O9 0.500000 0.500000 0.500000
O O10 0.374455 0.521522 0.440765
O O11 0.374455 0.521522 0.559236
O O12 0.361099 0.465189 0.676196
O O13 0.423596 0.250000 0.731418
O O14 0.500000 0.500000 0.718207
O O15 0.750000 0.593199 0.397498
O O16 0.876699 0.750000 0.398368
O O17 0.861099 0.534811 0.323805
O O18 0.394532 0.467348 0.202350
#
# Coordination Sequence:
#
# PCOD9396686 Si02
#       8
#     8   8   8   8   8   8   8   8
#     4   9  18  32  53  81 111 146 187 226 268 327
#     4   9  18  33  54  79 110 145 185 229 274 323
#     4  12  25  40  57  75 101 137 177 216 263 316
#     4   9  18  32  52  77 103 135 174 217 264 314
#     4  10  21  36  55  79 106 135 171 215 265 318
#     4   9  18  33  54  79 110 145 185 229 274 323
#     4  10  21  36  55  79 106 135 171 215 265 318
#     4   9  18  32  52  77 103 135 174 217 264 314
#
# _framework density 18.332048
#
# number of rings (size 3 to 8) (size 9 to 14) (size 15 to 20)
#    0.000    2.375    0.000    2.250    1.750    5.500 
#    0.000    0.625    0.000    0.750    0.000    0.000 
#    0.000    0.000    0.000    0.000    0.000    0.000 
#
# Total GULP energy -356493.510985 kJ/mol
# GULP energy per Si atom -5570.211109 kJ/mol
# Density = 1.829032 g / cm^3
# Si number density = 18.332048 Si / 1000 Ang^3
#
#
#
# Elastic Constant Matrix: (Units=GPa)
#
#
# Indices 1 2 3 4 5 6 
#
# 1 131.8140 44.8489 91.7933 0.0000 0.0000 0.0000
# 2 44.8489 39.9676 53.2177 0.0000 0.0000 0.0000
# 3 91.7933 53.2177 115.2701 0.0000 0.0000 0.0000
# 4 0.0000 0.0000 0.0000 39.2375 0.0000 0.0000
# 5 0.0000 0.0000 0.0000 0.0000 50.1952 0.0000
# 6 0.0000 0.0000 0.0000 0.0000 0.0000 26.7629
#
#
#
# Elastic Compliance Matrix: (Units=1/GPa)
#
#
# Indices 1 2 3 4 5 6 
#
# 1 0.017147 -0.002750 -0.012385 0.000000 0.000000 0.000000
# 2 -0.002750 0.065384 -0.027996 0.000000 0.000000 0.000000
# 3 -0.012385 -0.027996 0.031463 0.000000 0.000000 0.000000
# 4 0.000000 0.000000 0.000000 0.025486 0.000000 0.000000
# 5 0.000000 0.000000 0.000000 0.000000 0.019922 0.000000
# 6 0.000000 0.000000 0.000000 0.000000 0.000000 0.037365
#
#
# Mechanical properties :
#
#
# Convention : Reuss Voigt Hill
#
# Bulk Modulus (GPa) = 36.06055 74.08574 55.07315
# Shear Modulus (GPa) = 17.10725 29.71857 23.41291
#
# Velocity S-wave (km/s) = 3.05813 4.03069 3.57761
# Velocity P-wave (km/s) = 5.67301 7.88435 6.86826
#
# Compressibility (1/GPa) = 0.02773113
#
# Stress axis : x y z
#
# Youngs Moduli (GPa) = 58.31984 15.29420 31.78342
#
# Poissons Ratio (x) = 0.04207 0.39363
# Poissons Ratio (y) = 0.16040 0.88982
# Poissons Ratio (z) = 0.72228 0.42818
#
# Static dielectric constant tensor:
#      x y z
#    x 1.628470 0.000000 0.000000 
#    y 0.000000 1.621560 0.000000 
#    z 0.000000 0.000000 1.684430 
# 
# From -- ./inp_files/31763.got.cif
#   From: 2010.05.17/outbox.cif.g08.bks.cpg/sg50_16_cif.got.tgz:31763.got - 2010.06.03 11:33:33.
