data_PCOD9396946
_publ_section_title
;
Structure prediction by ZEFSAII (Michael W. Deem and Ramdas Pophale) SiO2 
 PCOD9396946
Probable space group: P B A N
;
_chemical_formula_sum "Si O2"
_cell_formula_units_Z 34
_cell_length_a 12.881602
_cell_length_b 20.468948
_cell_length_c 5.411746
_cell_angle_alpha 90.000000
_cell_angle_beta 90.000000
_cell_angle_gamma 90.000000
_cell_volume 1426.930445
_symmetry_space_group_name_H-M "P B A N"
_symmetry_group_IT_number 50
_space_group.IT_coordinate_system_code '2'
_symmetry_cell_setting 'orthorhombic'
loop_
_space_group_symop_operation_xyz
x,y,z
1/2-x,1/2-y,z
x,1/2-y,-z
1/2-x,y,-z
-x,-y,-z
1/2+x,1/2+y,-z
-x,1/2+y,z
1/2+x,-y,z
loop_
_atom_site_type_symbol
_atom_site_label
_atom_site_fract_x
_atom_site_fract_y
_atom_site_fract_z
Si Si1 0.639957 0.655653 0.872801
Si Si2 0.910029 0.323193 0.961564
Si Si3 0.632733 0.950900 0.450697
Si Si4 0.916031 0.398855 0.442501
Si Si5 0.250000 0.250000 0.500000
O O1 0.535157 0.680742 0.992065
O O2 0.615843 0.579093 0.820658
O O3 0.669396 0.702752 0.643763
O O4 0.750000 0.658601 0.000000
O O5 0.896082 0.354775 0.687416
O O6 0.869419 0.250000 0.000000
O O7 0.872815 0.367568 0.191164
O O8 0.750000 0.930399 0.500000
O O9 0.539989 0.913374 0.589097
O O10 0.624968 0.027807 0.482777
#
# Coordination Sequence:
#
# PCOD9396946 Si02
#       5
#     8   8   8   8   2
#     4  11  23  34  59  87 129 165 208 243 313 390
#     4  11  23  39  63  85 125 163 202 261 318 364
#     4  10  21  40  64  88 126 164 206 255 311 361
#     4  10  24  40  61  96 121 158 215 255 302 382
#     4  12  22  36  48  98 128 160 210 244 298 412
#
# _framework density 23.827369999999998
#
# number of rings (size 3 to 8) (size 9 to 14) (size 15 to 20)
#    0.000    1.412    1.176    3.882    9.882   10.353 
#    0.000    0.000    0.000    4.235    0.000    0.000 
#    0.000    0.000    0.000    0.000    0.000    0.000 
#
# Total GULP energy -189580.620666 kJ/mol
# GULP energy per Si atom -5575.900608 kJ/mol
# Density = 2.377314 g / cm^3
# Si number density = 23.827370 Si / 1000 Ang^3
#
#
#
# Elastic Constant Matrix: (Units=GPa)
#
#
# Indices 1 2 3 4 5 6 
#
# 1 71.9294 -9.0209 -9.6946 0.0000 0.0000 0.0000
# 2 -9.0209 174.9062 68.2945 0.0000 0.0000 0.0000
# 3 -9.6946 68.2945 120.3374 0.0000 0.0000 0.0000
# 4 0.0000 0.0000 0.0000 -53.4029 0.0000 0.0000
# 5 0.0000 0.0000 0.0000 0.0000 -10.1863 0.0000
# 6 0.0000 0.0000 0.0000 0.0000 0.0000 1.6199
#
#
#
# Elastic Compliance Matrix: (Units=1/GPa)
#
#
# Indices 1 2 3 4 5 6 
#
# 1 0.014073 0.000364 0.000927 0.000000 0.000000 0.000000
# 2 0.000364 0.007354 -0.004144 0.000000 0.000000 0.000000
# 3 0.000927 -0.004144 0.010737 0.000000 0.000000 0.000000
# 4 0.000000 0.000000 0.000000 -0.018726 0.000000 0.000000
# 5 0.000000 0.000000 0.000000 0.000000 -0.098171 0.000000
# 6 0.000000 0.000000 0.000000 0.000000 0.000000 0.617314
#
#
# Mechanical properties :
#
#
# Convention : Reuss Voigt Hill
#
# Bulk Modulus (GPa) = 37.79658 51.81455 44.80556
# Shear Modulus (GPa) = 9.13898 8.77909 8.95903
#
# Velocity S-wave (km/s) = 1.96057 1.92158 1.94117
# Velocity P-wave (km/s) = 4.58500 5.16878 4.88562
#
# Compressibility (1/GPa) = 0.02645742
#
# Stress axis : x y z
#
# Youngs Moduli (GPa) = 71.05748 135.97332 93.13779
#
# Poissons Ratio (x) = -0.04946 -0.08637
# Poissons Ratio (y) = -0.02585 0.38601
# Poissons Ratio (z) = -0.06589 0.56354
#
# Static dielectric constant tensor:
#      x y z
#    x 1.943020 0.000000 0.000000 
#    y 0.000000 1.909240 0.000000 
#    z 0.000000 0.000000 2.141310 
# 
# From -- ./inp_files/3049.got.cif
#   From: 2010.05.17/outbox.cif.g08.bks.cpg/sg50_2_cif.got.tgz:3049.got - 2010.06.03 11:33:33.
