data_PCOD9396856
_publ_section_title
;
Structure prediction by ZEFSAII (Michael W. Deem and Ramdas Pophale) SiO2 
 PCOD9396856
Probable space group: P B A N
;
_chemical_formula_sum "Si O2"
_cell_formula_units_Z 48
_cell_length_a 29.335582
_cell_length_b 8.940699
_cell_length_c 8.375964
_cell_angle_alpha 90.000000
_cell_angle_beta 90.000000
_cell_angle_gamma 90.000000
_cell_volume 2196.852936
_symmetry_space_group_name_H-M "P B A N"
_symmetry_group_IT_number 50
_space_group.IT_coordinate_system_code '2'
_symmetry_cell_setting 'orthorhombic'
loop_
_space_group_symop_operation_xyz
x,y,z
1/2-x,1/2-y,z
x,1/2-y,-z
1/2-x,y,-z
-x,-y,-z
1/2+x,1/2+y,-z
-x,1/2+y,z
1/2+x,-y,z
loop_
_atom_site_type_symbol
_atom_site_label
_atom_site_fract_x
_atom_site_fract_y
_atom_site_fract_z
Si Si1 0.065360 0.116200 0.194380
Si Si2 0.974204 0.386270 0.616835
Si Si3 0.763579 0.085152 0.814284
Si Si4 0.907299 0.539684 0.858103
Si Si5 0.344058 0.440985 0.344821
Si Si6 0.818636 0.906097 0.297428
O O1 0.082644 0.284917 0.168739
O O2 0.101635 0.051114 0.320342
O O3 0.014215 0.139300 0.253043
O O4 0.072450 0.017389 0.035015
O O5 0.962315 0.250000 0.500000
O O6 0.932582 0.449394 0.719352
O O7 0.000000 0.500000 0.500000
O O8 0.750000 0.250000 0.754659
O O9 0.815536 0.049586 0.769587
O O10 0.732347 0.958188 0.733782
O O11 0.750000 0.079717 0.000000
O O12 0.853038 0.525748 0.835015
O O13 0.332868 0.465834 0.529071
O O14 0.326865 0.272210 0.302854
#
# Coordination Sequence:
#
# PCOD9396856 Si02
#       6
#     8   8   8   8   8   8
#     4  10  21  39  65  90 124 161 208 260 308 372
#     4  12  23  40  63  90 127 163 209 257 310 372
#     4  11  24  41  58  87 128 162 197 249 310 370
#     4  10  21  40  62  93 123 162 207 258 313 366
#     4  10  21  38  66  92 116 158 205 256 303 361
#     4  10  21  39  65  91 120 153 210 253 301 370
#
# _framework density 21.849435
#
# number of rings (size 3 to 8) (size 9 to 14) (size 15 to 20)
#    0.000    1.500    1.667    3.500    2.333    5.333 
#    6.000    0.000    0.000    0.000    0.000    0.000 
#    0.000    0.000    0.000    0.000    0.000    0.000 
#
# Total GULP energy -268016.553922 kJ/mol
# GULP energy per Si atom -5583.678207 kJ/mol
# Density = 2.179971 g / cm^3
# Si number density = 21.849435 Si / 1000 Ang^3
#
#
#
# Elastic Constant Matrix: (Units=GPa)
#
#
# Indices 1 2 3 4 5 6 
#
# 1 81.0282 -1.1487 5.3814 0.0000 0.0000 0.0000
# 2 -1.1487 41.0834 21.3072 0.0000 0.0000 0.0000
# 3 5.3814 21.3072 87.0144 0.0000 0.0000 0.0000
# 4 0.0000 0.0000 0.0000 28.3475 0.0000 0.0000
# 5 0.0000 0.0000 0.0000 0.0000 -6.5978 0.0000
# 6 0.0000 0.0000 0.0000 0.0000 0.0000 21.4053
#
#
#
# Elastic Compliance Matrix: (Units=1/GPa)
#
#
# Indices 1 2 3 4 5 6 
#
# 1 0.012418 0.000854 -0.000977 0.000000 0.000000 0.000000
# 2 0.000854 0.027940 -0.006895 0.000000 0.000000 0.000000
# 3 -0.000977 -0.006895 0.013241 0.000000 0.000000 0.000000
# 4 0.000000 0.000000 0.000000 0.035276 0.000000 0.000000
# 5 0.000000 0.000000 0.000000 0.000000 -0.151566 0.000000
# 6 0.000000 0.000000 0.000000 0.000000 0.000000 0.046717
#
#
# Mechanical properties :
#
#
# Convention : Reuss Voigt Hill
#
# Bulk Modulus (GPa) = 25.27523 28.91175 27.09349
# Shear Modulus (GPa) = 444.40321 20.87007 232.63664
#
# Velocity S-wave (km/s) = 14.27708 3.09395 10.32975
# Velocity P-wave (km/s) = 16.83369 5.10140 12.43779
#
# Compressibility (1/GPa) = 0.03956442
#
# Stress axis : x y z
#
# Youngs Moduli (GPa) = 80.52575 35.79051 75.52274
#
# Poissons Ratio (x) = -0.03057 0.07380
# Poissons Ratio (y) = -0.06877 0.52070
# Poissons Ratio (z) = 0.07868 0.24676
#
# Static dielectric constant tensor:
#      x y z
#    x 1.818100 0.000000 0.000000 
#    y 0.000000 1.772000 0.000000 
#    z 0.000000 0.000000 1.730760 
# 
# From -- ./inp_files/16928.got.cif
#   From: 2010.05.17/outbox.cif.g08.bks.cpg/sg50_9_cif.got.tgz:16928.got - 2010.06.03 11:33:33.
