data_PCOD9396447
_publ_section_title
;
Structure prediction by ZEFSAII (Michael W. Deem and Ramdas Pophale) SiO2 
 PCOD9396447
Probable space group: P B A N
;
_chemical_formula_sum "Si O2"
_cell_formula_units_Z 52
_cell_length_a 6.108228
_cell_length_b 24.432498
_cell_length_c 17.423052
_cell_angle_alpha 90.000000
_cell_angle_beta 90.000000
_cell_angle_gamma 90.000000
_cell_volume 2600.203534
_symmetry_space_group_name_H-M "P B A N"
_symmetry_group_IT_number 50
_space_group.IT_coordinate_system_code '2'
_symmetry_cell_setting 'orthorhombic'
loop_
_space_group_symop_operation_xyz
x,y,z
1/2-x,1/2-y,z
x,1/2-y,-z
1/2-x,y,-z
-x,-y,-z
1/2+x,1/2+y,-z
-x,1/2+y,z
1/2+x,-y,z
loop_
_atom_site_type_symbol
_atom_site_label
_atom_site_fract_x
_atom_site_fract_y
_atom_site_fract_z
Si Si1 0.686408 0.514119 0.269814
Si Si2 0.750000 0.250000 0.500000
Si Si3 0.470533 0.332933 0.397925
Si Si4 0.223217 0.815131 0.758105
Si Si5 0.250000 0.250000 0.000000
Si Si6 0.205105 0.940272 0.581423
Si Si7 0.578590 0.626544 0.334140
Si Si8 0.866681 0.309376 0.925801
O O1 0.430650 0.504909 0.236321
O O2 0.661468 0.481462 0.349955
O O3 0.707451 0.577981 0.291072
O O4 0.597498 0.288639 0.447520
O O5 0.559100 0.329583 0.310506
O O6 0.520497 0.393976 0.428387
O O7 0.212045 0.330987 0.386350
O O8 0.250000 0.750000 0.759326
O O9 0.449216 0.841404 0.731264
O O10 0.154595 0.835644 0.842455
O O11 0.391474 0.290758 0.052037
O O12 0.250000 0.967679 0.500000
O O13 0.409638 0.904340 0.610523
O O14 0.750000 0.250000 0.919282
O O15 0.750000 0.336685 0.000000
#
# Coordination Sequence:
#
# PCOD9396447 Si02
#       8
#     8   2   8   8   2   8   8   8
#     4  10  20  38  62  85 111 144 185 259 326 375
#     4  12  24  44  54  72 116 156 224 258 296 350
#     4  11  22  41  55  76 108 157 203 256 292 364
#     4  10  21  38  54  79 117 156 197 242 285 352
#     4   8  14  28  52  86 108 154 182 228 292 354
#     4  10  21  39  56  81 109 135 192 257 325 370
#     4  10  23  38  57  81 109 150 200 245 305 364
#     4   8  16  30  53  81 115 143 189 236 285 349
#
# _framework density 19.998432999999999
#
# number of rings (size 3 to 8) (size 9 to 14) (size 15 to 20)
#    0.000    2.308    3.077    0.000    0.000    7.385 
#    0.000    4.615    0.000    0.000    0.000    0.000 
#    0.000   11.077    0.000    1.385    0.000    0.000 
#
# Total GULP energy -289667.155713 kJ/mol
# GULP energy per Si atom -5570.522225 kJ/mol
# Density = 1.995292 g / cm^3
# Si number density = 19.998433 Si / 1000 Ang^3
#
#
#
# Elastic Constant Matrix: (Units=GPa)
#
#
# Indices 1 2 3 4 5 6 
#
# 1 105.6612 27.1714 31.7992 0.0000 0.0000 0.0000
# 2 27.1714 71.9159 22.6370 0.0000 0.0000 0.0000
# 3 31.7992 22.6370 97.9321 0.0000 0.0000 0.0000
# 4 0.0000 0.0000 0.0000 5.2692 0.0000 0.0000
# 5 0.0000 0.0000 0.0000 0.0000 -4.3007 0.0000
# 6 0.0000 0.0000 0.0000 0.0000 0.0000 20.4130
#
#
#
# Elastic Compliance Matrix: (Units=1/GPa)
#
#
# Indices 1 2 3 4 5 6 
#
# 1 0.011180 -0.003323 -0.002862 0.000000 0.000000 0.000000
# 2 -0.003323 0.015984 -0.002616 0.000000 0.000000 0.000000
# 3 -0.002862 -0.002616 0.011745 0.000000 0.000000 0.000000
# 4 0.000000 0.000000 0.000000 0.189781 0.000000 0.000000
# 5 0.000000 0.000000 0.000000 0.000000 -0.232518 0.000000
# 6 0.000000 0.000000 0.000000 0.000000 0.000000 0.048988
#
#
# Mechanical properties :
#
#
# Convention : Reuss Voigt Hill
#
# Bulk Modulus (GPa) = 46.93206 48.74714 47.83960
# Shear Modulus (GPa) = 71.56589 17.20307 44.38448
#
# Velocity S-wave (km/s) = 5.98861 2.93613 4.71616
# Velocity P-wave (km/s) = 8.44611 5.99357 7.32324
#
# Compressibility (1/GPa) = 0.02130740
#
# Stress axis : x y z
#
# Youngs Moduli (GPa) = 89.44417 62.56246 85.14178
#
# Poissons Ratio (x) = 0.20791 0.24369
# Poissons Ratio (y) = 0.29724 0.22270
# Poissons Ratio (z) = 0.25600 0.16364
#
# Static dielectric constant tensor:
#      x y z
#    x 1.794490 0.000000 0.000000 
#    y 0.000000 1.902810 0.000000 
#    z 0.000000 0.000000 1.733040 
# 
# From -- ./inp_files/28369.got.cif
#   From: 2010.05.17/outbox.cif.g08.bks.cpg/sg50_15_cif.got.tgz:28369.got - 2010.06.03 11:33:33.
