data_PCOD9396041
_publ_section_title
;
Structure prediction by ZEFSAII (Michael W. Deem and Ramdas Pophale) SiO2 
 PCOD9396041
Probable space group: P B A N
;
_chemical_formula_sum "Si O2"
_cell_formula_units_Z 58
_cell_length_a 14.197452
_cell_length_b 13.074753
_cell_length_c 16.410731
_cell_angle_alpha 90.000000
_cell_angle_beta 90.000000
_cell_angle_gamma 90.000000
_cell_volume 3046.294097
_symmetry_space_group_name_H-M "P B A N"
_symmetry_group_IT_number 50
_space_group.IT_coordinate_system_code '2'
_symmetry_cell_setting 'orthorhombic'
loop_
_space_group_symop_operation_xyz
x,y,z
1/2-x,1/2-y,z
x,1/2-y,-z
1/2-x,y,-z
-x,-y,-z
1/2+x,1/2+y,-z
-x,1/2+y,z
1/2+x,-y,z
loop_
_atom_site_type_symbol
_atom_site_label
_atom_site_fract_x
_atom_site_fract_y
_atom_site_fract_z
Si Si1 0.750000 0.750000 0.500000
Si Si2 0.534675 0.351993 0.693700
Si Si3 0.355289 0.219216 0.094397
Si Si4 0.879278 0.969483 0.199845
Si Si5 0.012347 0.155862 0.211007
Si Si6 0.632084 0.575334 0.530583
Si Si7 0.566228 0.363832 0.504967
Si Si8 0.321036 0.021316 0.711295
O O1 0.675042 0.663475 0.473405
O O2 0.449609 0.409201 0.739225
O O3 0.528986 0.235664 0.723217
O O4 0.528096 0.368668 0.597436
O O5 0.632605 0.408561 0.714807
O O6 0.250000 0.250000 0.125075
O O7 0.368298 0.100721 0.119374
O O8 0.439307 0.279302 0.139174
O O9 0.358015 0.250000 0.000000
O O10 0.778446 0.977181 0.243774
O O11 0.931012 0.077089 0.184911
O O12 0.100420 0.093091 0.247229
O O13 0.630851 0.462624 0.491866
O O14 0.526036 0.613678 0.548559
O O15 0.681894 0.560929 0.617946
O O16 0.606989 0.250000 0.500000
#
# Coordination Sequence:
#
# PCOD9396041 Si02
#       8
#     2   8   8   8   8   8   8   8
#     4  12  24  36  50  84 100 138 190 254 288 364
#     4   9  21  35  56  83 110 150 200 244 298 348
#     4  10  20  37  61  90 121 152 190 237 285 347
#     4  10  21  36  60  85 115 152 191 242 290 354
#     4  10  20  36  59  86 114 154 192 233 294 350
#     4  10  23  34  55  81 110 148 198 248 310 349
#     4  10  19  39  56  76 112 157 194 252 305 365
#     4  10  20  37  54  84 113 147 197 246 291 354
#
# _framework density 19.039527
#
# number of rings (size 3 to 8) (size 9 to 14) (size 15 to 20)
#    0.000    2.069    2.069    0.828    1.931    3.310 
#    0.000    0.345    0.000    0.000    0.000    0.966 
#    0.000    0.000    0.000    0.000    0.000    0.000 
#
# Total GULP energy -322947.755613 kJ/mol
# GULP energy per Si atom -5568.064752 kJ/mol
# Density = 1.899619 g / cm^3
# Si number density = 19.039527 Si / 1000 Ang^3
#
#
#
# Elastic Constant Matrix: (Units=GPa)
#
#
# Indices 1 2 3 4 5 6 
#
# 1 103.9264 60.9441 37.6256 0.0000 0.0000 0.0000
# 2 60.9441 157.3009 25.1424 0.0000 0.0000 0.0000
# 3 37.6256 25.1424 54.3289 0.0000 0.0000 0.0000
# 4 0.0000 0.0000 0.0000 20.0326 0.0000 0.0000
# 5 0.0000 0.0000 0.0000 0.0000 17.1526 0.0000
# 6 0.0000 0.0000 0.0000 0.0000 0.0000 27.5291
#
#
#
# Elastic Compliance Matrix: (Units=1/GPa)
#
#
# Indices 1 2 3 4 5 6 
#
# 1 0.015418 -0.004608 -0.008545 0.000000 0.000000 0.000000
# 2 -0.004608 0.008242 -0.000623 0.000000 0.000000 0.000000
# 3 -0.008545 -0.000623 0.024613 0.000000 0.000000 0.000000
# 4 0.000000 0.000000 0.000000 0.049919 0.000000 0.000000
# 5 0.000000 0.000000 0.000000 0.000000 0.058300 0.000000
# 6 0.000000 0.000000 0.000000 0.000000 0.000000 0.036325
#
#
# Mechanical properties :
#
#
# Convention : Reuss Voigt Hill
#
# Bulk Modulus (GPa) = 48.26160 62.55338 55.40749
# Shear Modulus (GPa) = 21.99965 25.73248 23.86607
#
# Velocity S-wave (km/s) = 3.40291 3.68030 3.54432
# Velocity P-wave (km/s) = 6.39084 7.14040 6.77599
#
# Compressibility (1/GPa) = 0.02072041
#
# Stress axis : x y z
#
# Youngs Moduli (GPa) = 64.85940 121.32963 40.62896
#
# Poissons Ratio (x) = 0.55904 0.34719
# Poissons Ratio (y) = 0.29885 0.02532
# Poissons Ratio (z) = 0.55425 0.07562
#
# Static dielectric constant tensor:
#      x y z
#    x 1.701350 0.000000 0.000000 
#    y 0.000000 1.706600 0.000000 
#    z 0.000000 0.000000 1.663520 
# 
# From -- ./inp_files/29519.got.cif
#   From: 2010.05.17/outbox.cif.g08.bks.cpg/sg50_15_cif.got.tgz:29519.got - 2010.06.03 11:33:33.
