data_PCOD9396539
_publ_section_title
;
Structure prediction by ZEFSAII (Michael W. Deem and Ramdas Pophale) SiO2 
 PCOD9396539
Probable space group: P B A N
;
_chemical_formula_sum "Si O2"
_cell_formula_units_Z 58
_cell_length_a 12.416357
_cell_length_b 29.743540
_cell_length_c 8.725068
_cell_angle_alpha 90.000000
_cell_angle_beta 90.000000
_cell_angle_gamma 90.000000
_cell_volume 3222.223550
_symmetry_space_group_name_H-M "P B A N"
_symmetry_group_IT_number 50
_space_group.IT_coordinate_system_code '2'
_symmetry_cell_setting 'orthorhombic'
loop_
_space_group_symop_operation_xyz
x,y,z
1/2-x,1/2-y,z
x,1/2-y,-z
1/2-x,y,-z
-x,-y,-z
1/2+x,1/2+y,-z
-x,1/2+y,z
1/2+x,-y,z
loop_
_atom_site_type_symbol
_atom_site_label
_atom_site_fract_x
_atom_site_fract_y
_atom_site_fract_z
Si Si1 0.518692 0.607979 0.887698
Si Si2 0.187629 0.392795 0.641183
Si Si3 0.690819 0.047530 0.840002
Si Si4 0.140874 0.663799 0.913921
Si Si5 0.750000 0.250000 0.000000
Si Si6 0.978707 0.551029 0.540815
Si Si7 0.830528 0.106767 0.617854
Si Si8 0.135512 0.057496 0.840880
O O1 0.591908 0.626354 0.748219
O O2 0.423459 0.573649 0.837366
O O3 0.458936 0.647370 0.982841
O O4 0.595089 0.578555 0.000796
O O5 0.250000 0.367972 0.500000
O O6 0.126152 0.432838 0.550666
O O7 0.275877 0.411408 0.759269
O O8 0.766197 0.066644 0.704972
O O9 0.674913 0.993851 0.840080
O O10 0.750000 0.056201 0.000000
O O11 0.170426 0.716649 0.906940
O O12 0.131523 0.640453 0.749783
O O13 0.250000 0.647302 0.000000
O O14 0.963131 0.555975 0.722749
O O15 0.000000 0.500000 0.500000
O O16 0.076395 0.584816 0.516023
O O17 0.750000 0.130278 0.500000
#
# Coordination Sequence:
#
# PCOD9396539 Si02
#       8
#     8   8   8   8   2   8   8   8
#     4  12  19  36  55  77 107 147 194 238 291 356
#     4  10  23  36  47  71 109 147 200 243 281 319
#     4  12  20  33  48  75 109 151 202 248 290 331
#     4  10  20  40  62  89 117 142 178 233 308 370
#     4   8  20  40  70  92 126 128 170 240 304 384
#     4  11  21  34  46  71 110 159 206 244 290 328
#     4  12  21  34  54  81 115 155 192 237 294 354
#     4  11  22  33  48  71 108 155 209 254 275 321
#
# _framework density 17.999991999999999
#
# number of rings (size 3 to 8) (size 9 to 14) (size 15 to 20)
#    0.414    0.552    4.138    4.966    0.000    1.103 
#    0.000    0.345    0.000    0.000    0.000    1.931 
#    4.138    0.000    0.000    0.000    0.000    0.000 
#
# Total GULP energy -323161.854599 kJ/mol
# GULP energy per Si atom -5571.756114 kJ/mol
# Density = 1.795902 g / cm^3
# Si number density = 17.999992 Si / 1000 Ang^3
#
#
#
# Elastic Constant Matrix: (Units=GPa)
#
#
# Indices 1 2 3 4 5 6 
#
# 1 82.1840 17.0703 39.4326 0.0000 0.0000 0.0000
# 2 17.0703 72.9878 13.3884 0.0000 0.0000 0.0000
# 3 39.4326 13.3884 92.9411 0.0000 0.0000 0.0000
# 4 0.0000 0.0000 0.0000 0.2257 0.0000 0.0000
# 5 0.0000 0.0000 0.0000 0.0000 56.6258 0.0000
# 6 0.0000 0.0000 0.0000 0.0000 0.0000 10.4076
#
#
#
# Elastic Compliance Matrix: (Units=1/GPa)
#
#
# Indices 1 2 3 4 5 6 
#
# 1 0.015716 -0.002519 -0.006305 0.000000 0.000000 0.000000
# 2 -0.002519 0.014477 -0.001017 0.000000 0.000000 0.000000
# 3 -0.006305 -0.001017 0.013581 0.000000 0.000000 0.000000
# 4 0.000000 0.000000 0.000000 4.430897 0.000000 0.000000
# 5 0.000000 0.000000 0.000000 0.000000 0.017660 0.000000
# 6 0.000000 0.000000 0.000000 0.000000 0.000000 0.096083
#
#
# Mechanical properties :
#
#
# Convention : Reuss Voigt Hill
#
# Bulk Modulus (GPa) = 41.50720 43.09952 42.30336
# Shear Modulus (GPa) = 1.08316 25.33326 13.20821
#
# Velocity S-wave (km/s) = 0.77657 3.75561 2.71179
# Velocity P-wave (km/s) = 4.89016 6.54235 5.77564
#
# Compressibility (1/GPa) = 0.02409220
#
# Stress axis : x y z
#
# Youngs Moduli (GPa) = 63.62804 69.07712 73.63193
#
# Poissons Ratio (x) = 0.17402 0.46426
# Poissons Ratio (y) = 0.16029 0.07485
# Poissons Ratio (z) = 0.40119 0.07022
#
# Static dielectric constant tensor:
#      x y z
#    x 1.385930 0.000000 0.000000 
#    y 0.000000 1.599040 0.000000 
#    z 0.000000 0.000000 1.651120 
# 
# From -- ./inp_files/11818.got.cif
#   From: 2010.05.17/outbox.cif.g08.bks.cpg/sg50_6_cif.got.tgz:11818.got - 2010.06.03 11:33:33.
