data_PCOD9396920
_publ_section_title
;
Structure prediction by ZEFSAII (Michael W. Deem and Ramdas Pophale) SiO2 
 PCOD9396920
Probable space group: P B A N
;
_chemical_formula_sum "Si O2"
_cell_formula_units_Z 40
_cell_length_a 8.938315
_cell_length_b 25.642096
_cell_length_c 8.161079
_cell_angle_alpha 90.000000
_cell_angle_beta 90.000000
_cell_angle_gamma 90.000000
_cell_volume 1870.495895
_symmetry_space_group_name_H-M "P B A N"
_symmetry_group_IT_number 50
_space_group.IT_coordinate_system_code '2'
_symmetry_cell_setting 'orthorhombic'
loop_
_space_group_symop_operation_xyz
x,y,z
1/2-x,1/2-y,z
x,1/2-y,-z
1/2-x,y,-z
-x,-y,-z
1/2+x,1/2+y,-z
-x,1/2+y,z
1/2+x,-y,z
loop_
_atom_site_type_symbol
_atom_site_label
_atom_site_fract_x
_atom_site_fract_y
_atom_site_fract_z
Si Si1 0.466536 0.971551 0.669279
Si Si2 0.949900 0.856822 0.831799
Si Si3 0.392300 0.132847 0.215899
Si Si4 0.568644 0.753063 0.688778
Si Si5 0.664363 0.051674 0.826339
O O1 0.537926 0.914516 0.685326
O O2 0.291992 0.965344 0.700808
O O3 0.500000 0.000000 0.500000
O O4 0.539307 0.007008 0.812535
O O5 0.786541 0.866251 0.751375
O O6 0.985785 0.796114 0.795731
O O7 0.081646 0.894946 0.777216
O O8 0.922157 0.871709 0.021659
O O9 0.465081 0.188655 0.254955
O O10 0.750000 0.750000 0.697352
O O11 0.522386 0.750000 0.500000
O O12 0.750000 0.056760 0.000000
#
# Coordination Sequence:
#
# PCOD9396920 Si02
#       5
#     8   8   8   8   8
#     4  12  27  44  66  97 137 176 224 287 352 415
#     4  10  21  39  70  99 131 175 229 285 335 407
#     4  10  21  40  67  98 134 176 228 280 339 405
#     4   9  19  37  64 100 135 172 223 280 337 405
#     4  12  25  45  68  98 133 178 234 284 343 420
#
# _framework density 21.384705
#
# number of rings (size 3 to 8) (size 9 to 14) (size 15 to 20)
#    0.000    1.400    2.000    3.000    5.600    2.400 
#    3.600    1.000    0.000    1.200    0.000    0.000 
#    0.000    0.000    0.000    0.000    0.000    0.000 
#
# Total GULP energy -223497.718725 kJ/mol
# GULP energy per Si atom -5587.442968 kJ/mol
# Density = 2.133603 g / cm^3
# Si number density = 21.384705 Si / 1000 Ang^3
#
#
#
# Elastic Constant Matrix: (Units=GPa)
#
#
# Indices 1 2 3 4 5 6 
#
# 1 84.0287 70.2792 36.6325 0.0000 0.0000 0.0000
# 2 70.2792 176.6915 42.7524 0.0000 0.0000 0.0000
# 3 36.6325 42.7524 74.0589 0.0000 0.0000 0.0000
# 4 0.0000 0.0000 0.0000 32.7294 0.0000 0.0000
# 5 0.0000 0.0000 0.0000 0.0000 22.5473 0.0000
# 6 0.0000 0.0000 0.0000 0.0000 0.0000 34.1937
#
#
#
# Elastic Compliance Matrix: (Units=1/GPa)
#
#
# Indices 1 2 3 4 5 6 
#
# 1 0.019989 -0.006461 -0.006158 0.000000 0.000000 0.000000
# 2 -0.006461 0.008667 -0.001807 0.000000 0.000000 0.000000
# 3 -0.006158 -0.001807 0.017592 0.000000 0.000000 0.000000
# 4 0.000000 0.000000 0.000000 0.030554 0.000000 0.000000
# 5 0.000000 0.000000 0.000000 0.000000 0.044351 0.000000
# 6 0.000000 0.000000 0.000000 0.000000 0.000000 0.029245
#
#
# Mechanical properties :
#
#
# Convention : Reuss Voigt Hill
#
# Bulk Modulus (GPa) = 57.48452 70.45634 63.97043
# Shear Modulus (GPa) = 27.02021 30.23508 28.62765
#
# Velocity S-wave (km/s) = 3.55847 3.76422 3.66279
# Velocity P-wave (km/s) = 6.61990 7.20493 6.91860
#
# Compressibility (1/GPa) = 0.01739599
#
# Stress axis : x y z
#
# Youngs Moduli (GPa) = 50.02872 115.38576 56.84437
#
# Poissons Ratio (x) = 0.74546 0.35002
# Poissons Ratio (y) = 0.32321 0.10274
# Poissons Ratio (z) = 0.30806 0.20854
#
# Static dielectric constant tensor:
#      x y z
#    x 1.772130 0.000000 0.000000 
#    y 0.000000 1.778590 0.000000 
#    z 0.000000 0.000000 1.739160 
# 
# From -- ./inp_files/9527.got.cif
#   From: 2010.05.17/outbox.cif.g08.bks.cpg/sg50_5_cif.got.tgz:9527.got - 2010.06.03 11:33:33.
