data_PCOD9396516
_publ_section_title
;
Structure prediction by ZEFSAII (Michael W. Deem and Ramdas Pophale) SiO2 
 PCOD9396516
Probable space group: P B A N
;
_chemical_formula_sum "Si O2"
_cell_formula_units_Z 56
_cell_length_a 14.269089
_cell_length_b 23.297538
_cell_length_c 8.317720
_cell_angle_alpha 90.000000
_cell_angle_beta 90.000000
_cell_angle_gamma 90.000000
_cell_volume 2765.098280
_symmetry_space_group_name_H-M "P B A N"
_symmetry_group_IT_number 50
_space_group.IT_coordinate_system_code '2'
_symmetry_cell_setting 'orthorhombic'
loop_
_space_group_symop_operation_xyz
x,y,z
1/2-x,1/2-y,z
x,1/2-y,-z
1/2-x,y,-z
-x,-y,-z
1/2+x,1/2+y,-z
-x,1/2+y,z
1/2+x,-y,z
loop_
_atom_site_type_symbol
_atom_site_label
_atom_site_fract_x
_atom_site_fract_y
_atom_site_fract_z
Si Si1 0.250000 0.889068 0.000000
Si Si2 0.933544 0.317430 0.029192
Si Si3 0.721671 0.460380 0.689403
Si Si4 0.428517 0.250000 0.500000
Si Si5 0.009763 0.144417 0.304992
Si Si6 0.779552 0.903425 0.687112
Si Si7 0.025840 0.937772 0.432492
Si Si8 0.895724 0.653037 0.735059
O O1 0.335010 0.848490 0.940799
O O2 0.269707 0.928008 0.159793
O O3 0.969419 0.347171 0.868143
O O4 0.919595 0.250000 0.000000
O O5 0.018798 0.326428 0.153910
O O6 0.750000 0.450056 0.500000
O O7 0.727718 0.528725 0.716222
O O8 0.611664 0.443692 0.688273
O O9 0.487676 0.294177 0.393328
O O10 0.374683 0.206831 0.382288
O O11 0.115391 0.119689 0.293378
O O12 0.950259 0.101373 0.414218
O O13 0.750000 0.894046 0.500000
O O14 0.704271 0.869160 0.795105
O O15 0.940293 0.902858 0.353679
O O16 0.000000 0.000000 0.500000
#
# Coordination Sequence:
#
# PCOD9396516 Si02
#       8
#     4   8   8   4   8   8   8   8
#     4  12  27  48  70  94 130 179 226 290 350 398
#     4  12  26  47  63  95 132 172 226 286 337 399
#     4  11  23  42  67 100 137 172 230 277 336 411
#     4  10  20  39  64  97 126 174 228 263 320 405
#     4  11  23  38  69  98 133 176 223 269 336 401
#     4  11  21  40  65 100 136 175 216 269 330 413
#     4  11  19  40  67  95 132 174 219 274 332 395
#     4  11  23  40  67  93 133 175 219 272 334 398
#
# _framework density 20.252445999999999
#
# number of rings (size 3 to 8) (size 9 to 14) (size 15 to 20)
#    0.000    0.857    7.143    1.929    0.000    2.857 
#    0.000    2.857    0.000    1.714    0.000    0.000 
#    0.000    0.000    0.000    0.000    0.000    0.000 
#
# Total GULP energy -312355.055057 kJ/mol
# GULP energy per Si atom -5577.768840 kJ/mol
# Density = 2.020635 g / cm^3
# Si number density = 20.252446 Si / 1000 Ang^3
#
#
#
# Elastic Constant Matrix: (Units=GPa)
#
#
# Indices 1 2 3 4 5 6 
#
# 1 74.8952 34.2608 11.6329 0.0000 0.0000 0.0000
# 2 34.2608 143.6237 33.0476 0.0000 0.0000 0.0000
# 3 11.6329 33.0476 52.3029 0.0000 0.0000 0.0000
# 4 0.0000 0.0000 0.0000 20.8558 0.0000 0.0000
# 5 0.0000 0.0000 0.0000 0.0000 151.8556 0.0000
# 6 0.0000 0.0000 0.0000 0.0000 0.0000 17.5261
#
#
#
# Elastic Compliance Matrix: (Units=1/GPa)
#
#
# Indices 1 2 3 4 5 6 
#
# 1 0.015058 -0.003301 -0.001263 0.000000 0.000000 0.000000
# 2 -0.003301 0.008871 -0.004871 0.000000 0.000000 0.000000
# 3 -0.001263 -0.004871 0.022478 0.000000 0.000000 0.000000
# 4 0.000000 0.000000 0.000000 0.047948 0.000000 0.000000
# 5 0.000000 0.000000 0.000000 0.000000 0.006585 0.000000
# 6 0.000000 0.000000 0.000000 0.000000 0.000000 0.057058
#
#
# Mechanical properties :
#
#
# Convention : Reuss Voigt Hill
#
# Bulk Modulus (GPa) = 36.31551 47.63382 41.97467
# Shear Modulus (GPa) = 26.87472 50.83953 38.85712
#
# Velocity S-wave (km/s) = 3.64673 5.01572 4.38498
# Velocity P-wave (km/s) = 5.97511 7.55740 6.81235
#
# Compressibility (1/GPa) = 0.02753644
#
# Stress axis : x y z
#
# Youngs Moduli (GPa) = 66.40796 112.72734 44.48801
#
# Poissons Ratio (x) = 0.37217 0.05620
# Poissons Ratio (y) = 0.21924 0.21669
# Poissons Ratio (z) = 0.08388 0.54908
#
# Static dielectric constant tensor:
#      x y z
#    x 1.764030 0.000000 0.000000 
#    y 0.000000 1.683240 0.000000 
#    z 0.000000 0.000000 1.753260 
# 
# From -- ./inp_files/13335.got.cif
#   From: 2010.05.17/outbox.cif.g08.bks.cpg/sg50_7_cif.got.tgz:13335.got - 2010.06.03 11:33:33.
