data_PCOD9396120
_publ_section_title
;
Structure prediction by ZEFSAII (Michael W. Deem and Ramdas Pophale) SiO2 
 PCOD9396120
Probable space group: P B A N
;
_chemical_formula_sum "Si O2"
_cell_formula_units_Z 24
_cell_length_a 8.814921
_cell_length_b 22.158584
_cell_length_c 5.335692
_cell_angle_alpha 90.000000
_cell_angle_beta 90.000000
_cell_angle_gamma 90.000000
_cell_volume 1042.200269
_symmetry_space_group_name_H-M "P B A N"
_symmetry_group_IT_number 50
_space_group.IT_coordinate_system_code '2'
_symmetry_cell_setting 'orthorhombic'
loop_
_space_group_symop_operation_xyz
x,y,z
1/2-x,1/2-y,z
x,1/2-y,-z
1/2-x,y,-z
-x,-y,-z
1/2+x,1/2+y,-z
-x,1/2+y,z
1/2+x,-y,z
loop_
_atom_site_type_symbol
_atom_site_label
_atom_site_fract_x
_atom_site_fract_y
_atom_site_fract_z
Si Si1 0.926383 0.775841 0.752593
Si Si2 0.920052 0.908428 0.593876
Si Si3 0.648351 0.463693 0.753907
O O1 0.750000 0.750000 0.752255
O O2 0.995329 0.750000 0.500000
O O3 0.945560 0.847452 0.744550
O O4 0.998910 0.750000 0.000000
O O5 0.750000 0.902143 0.500000
O O6 0.021568 0.917236 0.344257
O O7 0.926453 0.969263 0.761301
O O8 0.750000 0.466293 0.500000
O O9 0.750000 0.451775 0.000000
#
# Coordination Sequence:
#
# PCOD9396120 Si02
#       3
#     8   8   8
#     4  10  20  33  54  93 123 155 205 286 347 380
#     4  10  21  39  64  92 132 171 228 284 338 413
#     4  10  24  40  59  91 132 183 220 272 347 417
#
# _framework density 23.028202
#
# number of rings (size 3 to 8) (size 9 to 14) (size 15 to 20)
#    0.000    2.000    3.333    0.000    4.667   14.667 
#    0.000    0.000    0.000    1.000    0.000    7.000 
#    0.000    0.000    0.000    0.000    0.000    0.000 
#
# Total GULP energy -133955.826533 kJ/mol
# GULP energy per Si atom -5581.492772 kJ/mol
# Density = 2.297579 g / cm^3
# Si number density = 23.028202 Si / 1000 Ang^3
#
#
#
# Elastic Constant Matrix: (Units=GPa)
#
#
# Indices 1 2 3 4 5 6 
#
# 1 83.0583 41.0268 57.7393 0.0000 0.0000 0.0000
# 2 41.0268 156.1988 72.7096 0.0000 0.0000 0.0000
# 3 57.7393 72.7096 213.3693 0.0000 0.0000 0.0000
# 4 0.0000 0.0000 0.0000 44.6226 0.0000 0.0000
# 5 0.0000 0.0000 0.0000 0.0000 12.5943 0.0000
# 6 0.0000 0.0000 0.0000 0.0000 0.0000 -29.2448
#
#
#
# Elastic Compliance Matrix: (Units=1/GPa)
#
#
# Indices 1 2 3 4 5 6 
#
# 1 0.015634 -0.002540 -0.003365 0.000000 0.000000 0.000000
# 2 -0.002540 0.008022 -0.002046 0.000000 0.000000 0.000000
# 3 -0.003365 -0.002046 0.006295 0.000000 0.000000 0.000000
# 4 0.000000 0.000000 0.000000 0.022410 0.000000 0.000000
# 5 0.000000 0.000000 0.000000 0.000000 0.079401 0.000000
# 6 0.000000 0.000000 0.000000 0.000000 0.000000 -0.034194
#
#
# Mechanical properties :
#
#
# Convention : Reuss Voigt Hill
#
# Bulk Modulus (GPa) = 71.18661 88.39753 79.79207
# Shear Modulus (GPa) = 42.31848 24.33781 33.32815
#
# Velocity S-wave (km/s) = 4.29147 3.25448 3.80843
# Velocity P-wave (km/s) = 7.45222 7.25205 7.35281
#
# Compressibility (1/GPa) = 0.01404758
#
# Stress axis : x y z
#
# Youngs Moduli (GPa) = 63.96494 124.66140 158.86596
#
# Poissons Ratio (x) = 0.31662 0.53459
# Poissons Ratio (y) = 0.16246 0.32508
# Poissons Ratio (z) = 0.21525 0.25509
#
# Static dielectric constant tensor:
#      x y z
#    x 1.986880 0.000000 0.000000 
#    y 0.000000 1.930130 0.000000 
#    z 0.000000 0.000000 1.886640 
# 
# From -- ./inp_files/781.got.cif
#   From: 2010.05.17/outbox.cif.g08.bks.cpg/sg50_1_cif.got.tgz:781.got - 2010.06.03 11:33:33.
