data_PCOD9396302
_publ_section_title
;
Structure prediction by ZEFSAII (Michael W. Deem and Ramdas Pophale) SiO2 
 PCOD9396302
Probable space group: P B A N
;
_chemical_formula_sum "Si O2"
_cell_formula_units_Z 44
_cell_length_a 23.394706
_cell_length_b 9.694622
_cell_length_c 10.451686
_cell_angle_alpha 90.000000
_cell_angle_beta 90.000000
_cell_angle_gamma 90.000000
_cell_volume 2370.471978
_symmetry_space_group_name_H-M "P B A N"
_symmetry_group_IT_number 50
_space_group.IT_coordinate_system_code '2'
_symmetry_cell_setting 'orthorhombic'
loop_
_space_group_symop_operation_xyz
x,y,z
1/2-x,1/2-y,z
x,1/2-y,-z
1/2-x,y,-z
-x,-y,-z
1/2+x,1/2+y,-z
-x,1/2+y,z
1/2+x,-y,z
loop_
_atom_site_type_symbol
_atom_site_label
_atom_site_fract_x
_atom_site_fract_y
_atom_site_fract_z
Si Si1 0.717834 0.515746 0.874273
Si Si2 0.836888 0.250000 0.000000
Si Si3 0.885000 0.732774 0.146949
Si Si4 0.584477 0.402936 0.449508
Si Si5 0.957415 0.861734 0.615968
Si Si6 0.338580 0.967261 0.218073
O O1 0.665996 0.618479 0.842813
O O2 0.769857 0.483339 0.779205
O O3 0.750000 0.575365 0.000000
O O4 0.695252 0.365932 0.916964
O O5 0.859894 0.146588 0.112590
O O6 0.932978 0.694214 0.251183
O O7 0.860970 0.882496 0.180442
O O8 0.905012 0.750000 0.000000
O O9 0.590004 0.250000 0.500000
O O10 0.579596 0.509920 0.565687
O O11 0.523189 0.410319 0.376469
O O12 0.635102 0.433726 0.353921
O O13 0.954686 0.750000 0.500000
#
# Coordination Sequence:
#
# PCOD9396302 Si02
#       6
#     8   4   8   8   8   8
#     4  10  20  36  61  88 128 170 197 245 320 383
#     4  10  21  36  58  88 130 162 200 248 317 378
#     4  12  22  37  66  97 124 162 210 258 305 372
#     4  10  23  42  68  83 119 171 211 253 321 373
#     4  10  22  45  64  87 122 168 212 254 312 380
#     4  11  21  37  62  92 121 164 210 253 305 383
#
# _framework density 18.561703999999999
#
# number of rings (size 3 to 8) (size 9 to 14) (size 15 to 20)
#    0.000    1.455    5.455    3.000    2.545    0.000 
#    1.636    1.818    0.000    0.000    0.000    0.000 
#    0.000    0.000    0.000    0.000    0.000    0.000 
#
# Total GULP energy -245095.449201 kJ/mol
# GULP energy per Si atom -5570.351118 kJ/mol
# Density = 1.851946 g / cm^3
# Si number density = 18.561704 Si / 1000 Ang^3
#
#
#
# Elastic Constant Matrix: (Units=GPa)
#
#
# Indices 1 2 3 4 5 6 
#
# 1 54.9907 8.4353 52.8292 0.0000 0.0000 0.0000
# 2 8.4353 113.0921 31.0506 0.0000 0.0000 0.0000
# 3 52.8292 31.0506 101.3676 0.0000 0.0000 0.0000
# 4 0.0000 0.0000 0.0000 24.2712 0.0000 0.0000
# 5 0.0000 0.0000 0.0000 0.0000 21.1168 0.0000
# 6 0.0000 0.0000 0.0000 0.0000 0.0000 23.7879
#
#
#
# Elastic Compliance Matrix: (Units=1/GPa)
#
#
# Indices 1 2 3 4 5 6 
#
# 1 0.037204 0.002783 -0.020242 0.000000 0.000000 0.000000
# 2 0.002783 0.009862 -0.004471 0.000000 0.000000 0.000000
# 3 -0.020242 -0.004471 0.021784 0.000000 0.000000 0.000000
# 4 0.000000 0.000000 0.000000 0.041201 0.000000 0.000000
# 5 0.000000 0.000000 0.000000 0.000000 0.047356 0.000000
# 6 0.000000 0.000000 0.000000 0.000000 0.000000 0.042038
#
#
# Mechanical properties :
#
#
# Convention : Reuss Voigt Hill
#
# Bulk Modulus (GPa) = 40.01640 50.45339 45.23489
# Shear Modulus (GPa) = 19.86992 25.64420 22.75706
#
# Velocity S-wave (km/s) = 3.27537 3.72097 3.50526
# Velocity P-wave (km/s) = 5.99245 6.76027 6.38791
#
# Compressibility (1/GPa) = 0.02498976
#
# Stress axis : x y z
#
# Youngs Moduli (GPa) = 26.87859 101.39494 45.90513
#
# Poissons Ratio (x) = -0.28214 0.92921
# Poissons Ratio (y) = -0.07479 0.20525
# Poissons Ratio (z) = 0.54407 0.45336
#
# Static dielectric constant tensor:
#      x y z
#    x 1.670280 0.000000 0.000000 
#    y 0.000000 1.649000 0.000000 
#    z 0.000000 0.000000 1.646440 
# 
# From -- ./inp_files/16832.got.cif
#   From: 2010.05.17/outbox.cif.g08.bks.cpg/sg50_9_cif.got.tgz:16832.got - 2010.06.03 11:33:33.
