data_PCOD9396828
_publ_section_title
;
Structure prediction by ZEFSAII (Michael W. Deem and Ramdas Pophale) SiO2 
 PCOD9396828
Probable space group: P B A N
;
_chemical_formula_sum "Si O2"
_cell_formula_units_Z 64
_cell_length_a 12.144313
_cell_length_b 31.632279
_cell_length_c 8.222027
_cell_angle_alpha 90.000000
_cell_angle_beta 90.000000
_cell_angle_gamma 90.000000
_cell_volume 3158.510559
_symmetry_space_group_name_H-M "P B A N"
_symmetry_group_IT_number 50
_space_group.IT_coordinate_system_code '2'
_symmetry_cell_setting 'orthorhombic'
loop_
_space_group_symop_operation_xyz
x,y,z
1/2-x,1/2-y,z
x,1/2-y,-z
1/2-x,y,-z
-x,-y,-z
1/2+x,1/2+y,-z
-x,1/2+y,z
1/2+x,-y,z
loop_
_atom_site_type_symbol
_atom_site_label
_atom_site_fract_x
_atom_site_fract_y
_atom_site_fract_z
Si Si1 0.017841 0.702936 0.813714
Si Si2 0.977054 0.050496 0.316531
Si Si3 0.743551 0.409935 0.185939
Si Si4 0.957678 0.043877 0.701618
Si Si5 0.889940 0.880729 0.182382
Si Si6 0.246196 0.682006 0.313042
Si Si7 0.998132 0.205043 0.202461
Si Si8 0.133730 0.376379 0.789788
O O1 0.148075 0.700411 0.779346
O O2 0.974935 0.747299 0.742217
O O3 0.959350 0.659925 0.756876
O O4 0.996405 0.704434 0.006556
O O5 0.074029 0.084326 0.294437
O O6 0.872105 0.068010 0.220365
O O7 0.947069 0.046891 0.506548
O O8 0.011838 0.004159 0.256846
O O9 0.843360 0.441506 0.220069
O O10 0.754924 0.368654 0.296911
O O11 0.750000 0.394875 0.000000
O O12 0.050538 0.076864 0.758703
O O13 0.763953 0.877063 0.238148
O O14 0.887248 0.880600 0.984841
O O15 0.250000 0.694976 0.500000
O O16 0.128020 0.694968 0.244917
O O17 0.076546 0.167530 0.263374
#
# Coordination Sequence:
#
# PCOD9396828 Si02
#       8
#     8   8   8   8   8   8   8   8
#     4  10  21  38  61  89 123 164 207 253 306 365
#     4  11  25  43  64  92 126 164 203 249 308 368
#     4  12  24  41  67  94 124 161 205 257 308 361
#     4  11  25  43  64  92 126 164 203 249 308 368
#     4  10  22  40  62  90 123 163 209 254 302 362
#     4  12  23  37  60  91 126 162 202 253 313 369
#     4  10  21  38  61  89 123 164 207 253 306 365
#     4  10  22  40  62  90 123 163 209 254 302 362
#
# _framework density 20.262716000000001
#
# number of rings (size 3 to 8) (size 9 to 14) (size 15 to 20)
#    0.000    1.250    2.500    3.375    1.750    5.000 
#    0.000    2.500    0.000    0.000    0.000    3.500 
#    0.000    0.000    0.000    0.000    0.000    0.000 
#
# Total GULP energy -357864.767403 kJ/mol
# GULP energy per Si atom -5591.636991 kJ/mol
# Density = 2.021660 g / cm^3
# Si number density = 20.262716 Si / 1000 Ang^3
#
#
#
# Elastic Constant Matrix: (Units=GPa)
#
#
# Indices 1 2 3 4 5 6 
#
# 1 58.2970 -8.6103 -13.4772 0.0000 0.0000 0.0000
# 2 -8.6103 90.0170 -13.1410 0.0000 0.0000 0.0000
# 3 -13.4772 -13.1410 15.4774 0.0000 0.0000 0.0000
# 4 0.0000 0.0000 0.0000 103.7399 0.0000 0.0000
# 5 0.0000 0.0000 0.0000 0.0000 -4.7399 0.0000
# 6 0.0000 0.0000 0.0000 0.0000 0.0000 -28.6943
#
#
#
# Elastic Compliance Matrix: (Units=1/GPa)
#
#
# Indices 1 2 3 4 5 6 
#
# 1 0.024118 0.006133 0.026208 0.000000 0.000000 0.000000
# 2 0.006133 0.014240 0.017431 0.000000 0.000000 0.000000
# 3 0.026208 0.017431 0.102231 0.000000 0.000000 0.000000
# 4 0.000000 0.000000 0.000000 0.009639 0.000000 0.000000
# 5 0.000000 0.000000 0.000000 0.000000 -0.210976 0.000000
# 6 0.000000 0.000000 0.000000 0.000000 0.000000 -0.034850
#
#
# Mechanical properties :
#
#
# Convention : Reuss Voigt Hill
#
# Bulk Modulus (GPa) = 4.16433 10.37049 7.26741
# Shear Modulus (GPa) = -43.44167 27.32913 -8.05627
#
# Velocity S-wave (km/s) = -4.63527 3.67650 -1.99613
# Velocity P-wave (km/s) = 5.15636 4.81159 1.31085
#
# Compressibility (1/GPa) = 0.24013466
#
# Stress axis : x y z
#
# Youngs Moduli (GPa) = 41.46233 70.22338 9.78174
#
# Poissons Ratio (x) = -0.43068 -0.25636
# Poissons Ratio (y) = -0.25429 -0.17051
# Poissons Ratio (z) = -1.08667 -1.22406
#
# Static dielectric constant tensor:
#      x y z
#    x 1.672770 0.000000 0.000000 
#    y 0.000000 1.720260 0.000000 
#    z 0.000000 0.000000 1.703460 
# 
# From -- ./inp_files/11870.got.cif
#   From: 2010.05.17/outbox.cif.g08.bks.cpg/sg50_6_cif.got.tgz:11870.got - 2010.06.03 11:33:33.
