data_PCOD9396868
_publ_section_title
;
Structure prediction by ZEFSAII (Michael W. Deem and Ramdas Pophale) SiO2 
 PCOD9396868
Probable space group: P B A N
;
_chemical_formula_sum "Si O2"
_cell_formula_units_Z 64
_cell_length_a 15.032560
_cell_length_b 12.933743
_cell_length_c 17.450644
_cell_angle_alpha 90.000000
_cell_angle_beta 90.000000
_cell_angle_gamma 90.000000
_cell_volume 3392.881032
_symmetry_space_group_name_H-M "P B A N"
_symmetry_group_IT_number 50
_space_group.IT_coordinate_system_code '2'
_symmetry_cell_setting 'orthorhombic'
loop_
_space_group_symop_operation_xyz
x,y,z
1/2-x,1/2-y,z
x,1/2-y,-z
1/2-x,y,-z
-x,-y,-z
1/2+x,1/2+y,-z
-x,1/2+y,z
1/2+x,-y,z
loop_
_atom_site_type_symbol
_atom_site_label
_atom_site_fract_x
_atom_site_fract_y
_atom_site_fract_z
Si Si1 0.643083 0.751596 0.411981
Si Si2 0.856638 0.864789 0.000660
Si Si3 0.882815 0.986457 0.848272
Si Si4 0.744740 0.130495 0.656567
Si Si5 0.896411 0.964255 0.673896
Si Si6 0.777291 0.139343 0.160266
Si Si7 0.100212 0.037891 0.671359
Si Si8 0.914600 0.977773 0.154010
O O1 0.750000 0.750000 0.410677
O O2 0.612622 0.750000 0.500000
O O3 0.615192 0.858883 0.372747
O O4 0.611021 0.647565 0.369920
O O5 0.888516 0.914913 0.921960
O O6 0.892794 0.750000 0.000000
O O7 0.750000 0.863399 0.000000
O O8 0.882844 0.918284 0.079552
O O9 0.870293 0.940877 0.762804
O O10 0.799195 0.059836 0.864030
O O11 0.979901 0.037099 0.842030
O O12 0.750000 0.250000 0.625427
O O13 0.730559 0.144795 0.747703
O O14 0.833076 0.059507 0.646799
O O15 0.663566 0.052144 0.635605
O O16 0.998654 0.999486 0.669205
O O17 0.750000 0.250000 0.127823
O O18 0.874826 0.093893 0.142965
O O19 0.123108 0.053015 0.762127
#
# Coordination Sequence:
#
# PCOD9396868 Si02
#       8
#     8   8   8   8   8   8   8   8
#     4  11  24  42  66  94 130 166 203 254 308 371
#     4  11  23  36  54  81 120 162 198 250 306 358
#     4  10  21  39  58  85 119 154 202 253 300 359
#     4   9  18  35  58  89 123 154 199 253 298 357
#     4  10  22  39  65  93 120 163 207 254 308 369
#     4   9  18  35  57  80 112 153 196 246 299 351
#     4  10  22  39  65  93 120 163 207 254 308 369
#     4  10  21  39  58  85 119 154 202 253 300 359
#
# _framework density 18.863026000000001
#
# number of rings (size 3 to 8) (size 9 to 14) (size 15 to 20)
#    0.000    2.000    2.500    0.375    3.500    1.500 
#    4.500    1.250    0.000    0.750    0.000    0.000 
#    0.000    0.000    0.000    0.000    0.000    0.000 
#
# Total GULP energy -356437.806305 kJ/mol
# GULP energy per Si atom -5569.340724 kJ/mol
# Density = 1.882009 g / cm^3
# Si number density = 18.863026 Si / 1000 Ang^3
#
#
#
# Elastic Constant Matrix: (Units=GPa)
#
#
# Indices 1 2 3 4 5 6 
#
# 1 70.0263 16.6966 13.4901 0.0000 0.0000 0.0000
# 2 16.6966 132.0172 71.5456 0.0000 0.0000 0.0000
# 3 13.4901 71.5456 100.4279 0.0000 0.0000 0.0000
# 4 0.0000 0.0000 0.0000 20.7130 0.0000 0.0000
# 5 0.0000 0.0000 0.0000 0.0000 12.3725 0.0000
# 6 0.0000 0.0000 0.0000 0.0000 0.0000 18.0431
#
#
#
# Elastic Compliance Matrix: (Units=1/GPa)
#
#
# Indices 1 2 3 4 5 6 
#
# 1 0.014794 -0.001293 -0.001066 0.000000 0.000000 0.000000
# 2 -0.001293 0.012452 -0.008697 0.000000 0.000000 0.000000
# 3 -0.001066 -0.008697 0.016296 0.000000 0.000000 0.000000
# 4 0.000000 0.000000 0.000000 0.048279 0.000000 0.000000
# 5 0.000000 0.000000 0.000000 0.000000 0.080824 0.000000
# 6 0.000000 0.000000 0.000000 0.000000 0.000000 0.055423
#
#
# Mechanical properties :
#
#
# Convention : Reuss Voigt Hill
#
# Bulk Modulus (GPa) = 46.66410 56.21510 51.43960
# Shear Modulus (GPa) = 19.43083 23.60834 21.51959
#
# Velocity S-wave (km/s) = 3.21300 3.54159 3.38129
# Velocity P-wave (km/s) = 6.20940 6.82570 6.52483
#
# Compressibility (1/GPa) = 0.02142975
#
# Stress axis : x y z
#
# Youngs Moduli (GPa) = 67.59468 80.31146 61.36388
#
# Poissons Ratio (x) = 0.10388 0.06540
# Poissons Ratio (y) = 0.08743 0.53367
# Poissons Ratio (z) = 0.07204 0.69845
#
# Static dielectric constant tensor:
#      x y z
#    x 1.644800 0.000000 0.000000 
#    y 0.000000 1.701050 0.000000 
#    z 0.000000 0.000000 1.823500 
# 
# From -- ./inp_files/29536.got.cif
#   From: 2010.05.17/outbox.cif.g08.bks.cpg/sg50_15_cif.got.tgz:29536.got - 2010.06.03 11:33:33.
