data_PCOD9396730
_publ_section_title
;
Structure prediction by ZEFSAII (Michael W. Deem and Ramdas Pophale) SiO2 
 PCOD9396730
Probable space group: P B A N
;
_chemical_formula_sum "Si O2"
_cell_formula_units_Z 32
_cell_length_a 9.693125
_cell_length_b 16.859371
_cell_length_c 9.155182
_cell_angle_alpha 90.000000
_cell_angle_beta 90.000000
_cell_angle_gamma 90.000000
_cell_volume 1496.139756
_symmetry_space_group_name_H-M "P B A N"
_symmetry_group_IT_number 50
_space_group.IT_coordinate_system_code '2'
_symmetry_cell_setting 'orthorhombic'
loop_
_space_group_symop_operation_xyz
x,y,z
1/2-x,1/2-y,z
x,1/2-y,-z
1/2-x,y,-z
-x,-y,-z
1/2+x,1/2+y,-z
-x,1/2+y,z
1/2+x,-y,z
loop_
_atom_site_type_symbol
_atom_site_label
_atom_site_fract_x
_atom_site_fract_y
_atom_site_fract_z
Si Si1 0.503702 0.570130 0.296308
Si Si2 0.763161 0.843178 0.160423
Si Si3 0.697438 0.424648 0.335037
Si Si4 0.959725 0.833578 0.586778
O O1 0.583612 0.636360 0.207400
O O2 0.589044 0.489354 0.277927
O O3 0.343735 0.570228 0.254609
O O4 0.530406 0.598834 0.462866
O O5 0.750000 0.750000 0.144930
O O6 0.656131 0.858014 0.294547
O O7 0.750000 0.881258 0.000000
O O8 0.750000 0.442884 0.500000
O O9 0.611966 0.342000 0.340449
O O10 0.936200 0.750000 0.500000
#
# Coordination Sequence:
#
# PCOD9396730 Si02
#       4
#     8   8   8   8
#     4  11  21  39  62  92 124 163 201 252 304 361
#     4  11  23  40  61  89 122 162 207 254 306 367
#     4  10  21  36  62  94 128 157 202 253 306 359
#     4  11  21  38  62  92 122 158 205 252 303 361
#
# _framework density 21.388375
#
# number of rings (size 3 to 8) (size 9 to 14) (size 15 to 20)
#    0.000    1.250    2.500    6.750    0.000    4.500 
#    0.000    6.250    0.000    3.000    0.000    0.000 
#    0.000    0.000    0.000    0.000    0.000    0.000 
#
# Total GULP energy -178242.856027 kJ/mol
# GULP energy per Si atom -5570.089251 kJ/mol
# Density = 2.133969 g / cm^3
# Si number density = 21.388375 Si / 1000 Ang^3
#
#
#
# Elastic Constant Matrix: (Units=GPa)
#
#
# Indices 1 2 3 4 5 6 
#
# 1 187.2555 36.0641 37.4766 0.0000 0.0000 0.0000
# 2 36.0641 55.3702 3.4379 0.0000 0.0000 0.0000
# 3 37.4766 3.4379 58.2077 0.0000 0.0000 0.0000
# 4 0.0000 0.0000 0.0000 -24.2994 0.0000 0.0000
# 5 0.0000 0.0000 0.0000 0.0000 36.1865 0.0000
# 6 0.0000 0.0000 0.0000 0.0000 0.0000 17.9586
#
#
#
# Elastic Compliance Matrix: (Units=1/GPa)
#
#
# Indices 1 2 3 4 5 6 
#
# 1 0.007025 -0.004310 -0.004268 0.000000 0.000000 0.000000
# 2 -0.004310 0.020772 0.001548 0.000000 0.000000 0.000000
# 3 -0.004268 0.001548 0.019836 0.000000 0.000000 0.000000
# 4 0.000000 0.000000 0.000000 -0.041153 0.000000 0.000000
# 5 0.000000 0.000000 0.000000 0.000000 0.027635 0.000000
# 6 0.000000 0.000000 0.000000 0.000000 0.000000 0.055684
#
#
# Mechanical properties :
#
#
# Convention : Reuss Voigt Hill
#
# Bulk Modulus (GPa) = 29.78642 50.53225 40.15934
# Shear Modulus (GPa) = 43.45984 20.89279 32.17631
#
# Velocity S-wave (km/s) = 4.51259 3.12882 3.88285
# Velocity P-wave (km/s) = 6.41155 6.06053 6.23851
#
# Compressibility (1/GPa) = 0.03357235
#
# Stress axis : x y z
#
# Youngs Moduli (GPa) = 142.35573 48.14273 50.41224
#
# Poissons Ratio (x) = 0.20751 0.21517
# Poissons Ratio (y) = 0.61360 -0.07806
# Poissons Ratio (z) = 0.60760 -0.07454
#
# Static dielectric constant tensor:
#      x y z
#    x 1.847760 0.000000 0.000000 
#    y 0.000000 1.917080 0.000000 
#    z 0.000000 0.000000 1.858670 
# 
# From -- ./inp_files/9079.got.cif
#   From: 2010.05.17/outbox.cif.g08.bks.cpg/sg50_5_cif.got.tgz:9079.got - 2010.06.03 11:33:33.
