data_PCOD9396556
_publ_section_title
;
Structure prediction by ZEFSAII (Michael W. Deem and Ramdas Pophale) SiO2 
 PCOD9396556
Probable space group: P B A N
;
_chemical_formula_sum "Si O2"
_cell_formula_units_Z 32
_cell_length_a 15.446596
_cell_length_b 11.555085
_cell_length_c 7.991544
_cell_angle_alpha 90.000000
_cell_angle_beta 90.000000
_cell_angle_gamma 90.000000
_cell_volume 1426.384554
_symmetry_space_group_name_H-M "P B A N"
_symmetry_group_IT_number 50
_space_group.IT_coordinate_system_code '2'
_symmetry_cell_setting 'orthorhombic'
loop_
_space_group_symop_operation_xyz
x,y,z
1/2-x,1/2-y,z
x,1/2-y,-z
1/2-x,y,-z
-x,-y,-z
1/2+x,1/2+y,-z
-x,1/2+y,z
1/2+x,-y,z
loop_
_atom_site_type_symbol
_atom_site_label
_atom_site_fract_x
_atom_site_fract_y
_atom_site_fract_z
Si Si1 0.937864 0.250000 0.000000
Si Si2 0.078660 0.120525 0.552608
Si Si3 0.813591 0.409321 0.157749
Si Si4 0.013593 0.460129 0.782145
Si Si5 0.750000 0.470282 0.500000
O O1 0.872152 0.203127 0.861171
O O2 0.982154 0.363993 0.915811
O O3 0.103724 0.250000 0.500000
O O4 0.010919 0.095976 0.402388
O O5 0.164809 0.046480 0.528911
O O6 0.038662 0.079786 0.732634
O O7 0.887265 0.509382 0.171240
O O8 0.762791 0.402823 0.329243
O O9 0.750000 0.425046 0.000000
#
# Coordination Sequence:
#
# PCOD9396556 Si02
#       5
#     4   8   8   8   4
#     4  12  23  42  67  98 136 178 228 288 353 426
#     4  10  20  40  65  93 127 174 228 280 341 414
#     4  11  24  43  66  97 135 175 225 284 348 424
#     4  10  23  40  65  95 132 178 227 283 348 423
#     4  10  23  42  65  94 130 172 222 282 346 410
#
# _framework density 22.434342999999998
#
# number of rings (size 3 to 8) (size 9 to 14) (size 15 to 20)
#    0.000    1.500    0.000    4.500    0.000    2.000 
#    0.000   24.375    0.000    0.000    0.000    0.000 
#    0.000    0.000    0.000    0.000    0.000    0.000 
#
# Total GULP energy -178231.337711 kJ/mol
# GULP energy per Si atom -5569.729303 kJ/mol
# Density = 2.238328 g / cm^3
# Si number density = 22.434343 Si / 1000 Ang^3
#
#
#
# Elastic Constant Matrix: (Units=GPa)
#
#
# Indices 1 2 3 4 5 6 
#
# 1 109.8835 41.3414 69.4898 0.0000 0.0000 0.0000
# 2 41.3414 81.6747 53.1381 0.0000 0.0000 0.0000
# 3 69.4898 53.1381 185.7303 0.0000 0.0000 0.0000
# 4 0.0000 0.0000 0.0000 34.5289 0.0000 0.0000
# 5 0.0000 0.0000 0.0000 0.0000 42.6537 0.0000
# 6 0.0000 0.0000 0.0000 0.0000 0.0000 194.4627
#
#
#
# Elastic Compliance Matrix: (Units=1/GPa)
#
#
# Indices 1 2 3 4 5 6 
#
# 1 0.012994 -0.004195 -0.003662 0.000000 0.000000 0.000000
# 2 -0.004195 0.016398 -0.003122 0.000000 0.000000 0.000000
# 3 -0.003662 -0.003122 0.007647 0.000000 0.000000 0.000000
# 4 0.000000 0.000000 0.000000 0.028961 0.000000 0.000000
# 5 0.000000 0.000000 0.000000 0.000000 0.023445 0.000000
# 6 0.000000 0.000000 0.000000 0.000000 0.000000 0.005142
#
#
# Mechanical properties :
#
#
# Convention : Reuss Voigt Hill
#
# Bulk Modulus (GPa) = 66.30143 78.35857 72.33000
# Shear Modulus (GPa) = 41.12740 68.55033 54.83887
#
# Velocity S-wave (km/s) = 4.28627 5.53374 4.94947
# Velocity P-wave (km/s) = 7.35621 8.70824 8.06063
#
# Compressibility (1/GPa) = 0.01508263
#
# Stress axis : x y z
#
# Youngs Moduli (GPa) = 76.95609 60.98158 130.76500
#
# Poissons Ratio (x) = 0.25583 0.47880
# Poissons Ratio (y) = 0.32285 0.40825
# Poissons Ratio (z) = 0.28178 0.19039
#
# Static dielectric constant tensor:
#      x y z
#    x 1.878620 0.000000 0.000000 
#    y 0.000000 2.036920 0.000000 
#    z 0.000000 0.000000 1.937300 
# 
# From -- ./inp_files/12223.got.cif
#   From: 2010.05.17/outbox.cif.g08.bks.cpg/sg50_7_cif.got.tgz:12223.got - 2010.06.03 11:33:33.
