data_PCOD9396501
_publ_section_title
;
Structure prediction by ZEFSAII (Michael W. Deem and Ramdas Pophale) SiO2 
 PCOD9396501
Probable space group: P B A N
;
_chemical_formula_sum "Si O2"
_cell_formula_units_Z 32
_cell_length_a 15.489728
_cell_length_b 11.564846
_cell_length_c 8.399882
_cell_angle_alpha 90.000000
_cell_angle_beta 90.000000
_cell_angle_gamma 90.000000
_cell_volume 1504.723941
_symmetry_space_group_name_H-M "P B A N"
_symmetry_group_IT_number 50
_space_group.IT_coordinate_system_code '2'
_symmetry_cell_setting 'orthorhombic'
loop_
_space_group_symop_operation_xyz
x,y,z
1/2-x,1/2-y,z
x,1/2-y,-z
1/2-x,y,-z
-x,-y,-z
1/2+x,1/2+y,-z
-x,1/2+y,z
1/2+x,-y,z
loop_
_atom_site_type_symbol
_atom_site_label
_atom_site_fract_x
_atom_site_fract_y
_atom_site_fract_z
Si Si1 0.340568 0.212941 0.185412
Si Si2 0.155800 0.633173 0.614254
Si Si3 0.160321 0.955469 0.706367
Si Si4 0.473311 0.736786 0.811169
O O1 0.250000 0.250000 0.261167
O O2 0.428977 0.266900 0.251884
O O3 0.343491 0.075362 0.203333
O O4 0.338227 0.250000 0.000000
O O5 0.160267 0.750000 0.500000
O O6 0.243926 0.604060 0.709160
O O7 0.143767 0.533585 0.483475
O O8 0.077208 0.656198 0.730862
O O9 0.086498 0.872204 0.772815
O O10 0.476548 0.750000 0.000000
#
# Coordination Sequence:
#
# PCOD9396501 Si02
#       4
#     8   8   8   8
#     4  10  24  41  56  84 123 160 205 252 300 363
#     4   9  19  39  63  93 124 153 202 249 299 372
#     4  10  20  39  63  83 121 164 189 250 312 346
#     4  10  21  36  61  93 117 153 207 249 297 366
#
# _framework density 21.266359000000001
#
# number of rings (size 3 to 8) (size 9 to 14) (size 15 to 20)
#    0.000    2.250    0.000    5.250    0.000   13.000 
#    0.000   15.000    0.000    0.000    0.000    0.000 
#    0.000    0.000    0.000    0.000    0.000    0.000 
#
# Total GULP energy -178369.856317 kJ/mol
# GULP energy per Si atom -5574.058010 kJ/mol
# Density = 2.121796 g / cm^3
# Si number density = 21.266359 Si / 1000 Ang^3
#
#
#
# Elastic Constant Matrix: (Units=GPa)
#
#
# Indices 1 2 3 4 5 6 
#
# 1 210.3375 48.3024 48.4365 0.0000 0.0000 0.0000
# 2 48.3024 96.7297 29.5600 0.0000 0.0000 0.0000
# 3 48.4365 29.5600 55.6023 0.0000 0.0000 0.0000
# 4 0.0000 0.0000 0.0000 39.2002 0.0000 0.0000
# 5 0.0000 0.0000 0.0000 0.0000 125.6350 0.0000
# 6 0.0000 0.0000 0.0000 0.0000 0.0000 8.7086
#
#
#
# Elastic Compliance Matrix: (Units=1/GPa)
#
#
# Indices 1 2 3 4 5 6 
#
# 1 0.006178 -0.001720 -0.004467 0.000000 0.000000 0.000000
# 2 -0.001720 0.012822 -0.005319 0.000000 0.000000 0.000000
# 3 -0.004467 -0.005319 0.024704 0.000000 0.000000 0.000000
# 4 0.000000 0.000000 0.000000 0.025510 0.000000 0.000000
# 5 0.000000 0.000000 0.000000 0.000000 0.007960 0.000000
# 6 0.000000 0.000000 0.000000 0.000000 0.000000 0.114829
#
#
# Mechanical properties :
#
#
# Convention : Reuss Voigt Hill
#
# Bulk Modulus (GPa) = 48.32636 68.36301 58.34469
# Shear Modulus (GPa) = 22.53150 50.46682 36.49916
#
# Velocity S-wave (km/s) = 3.25851 4.87671 4.14730
# Velocity P-wave (km/s) = 6.07708 7.99535 7.10129
#
# Compressibility (1/GPa) = 0.02069264
#
# Stress axis : x y z
#
# Youngs Moduli (GPa) = 161.86559 77.98995 40.47910
#
# Poissons Ratio (x) = 0.13412 0.18084
# Poissons Ratio (y) = 0.27837 0.21529
# Poissons Ratio (z) = 0.72313 0.41479
#
# Static dielectric constant tensor:
#      x y z
#    x 1.828900 0.000000 0.000000 
#    y 0.000000 1.824980 0.000000 
#    z 0.000000 0.000000 1.787350 
# 
# From -- ./inp_files/10576.got.cif
#   From: 2010.05.17/outbox.cif.g08.bks.cpg/sg50_6_cif.got.tgz:10576.got - 2010.06.03 11:33:33.
