data_PCOD9396284
_publ_section_title
;
Structure prediction by ZEFSAII (Michael W. Deem and Ramdas Pophale) SiO2 
 PCOD9396284
Probable space group: P B A N
;
_chemical_formula_sum "Si O2"
_cell_formula_units_Z 34
_cell_length_a 5.267194
_cell_length_b 20.977009
_cell_length_c 14.069246
_cell_angle_alpha 90.000000
_cell_angle_beta 90.000000
_cell_angle_gamma 90.000000
_cell_volume 1554.510652
_symmetry_space_group_name_H-M "P B A N"
_symmetry_group_IT_number 50
_space_group.IT_coordinate_system_code '2'
_symmetry_cell_setting 'orthorhombic'
loop_
_space_group_symop_operation_xyz
x,y,z
1/2-x,1/2-y,z
x,1/2-y,-z
1/2-x,y,-z
-x,-y,-z
1/2+x,1/2+y,-z
-x,1/2+y,z
1/2+x,-y,z
loop_
_atom_site_type_symbol
_atom_site_label
_atom_site_fract_x
_atom_site_fract_y
_atom_site_fract_z
Si Si1 0.011956 0.287904 0.130955
Si Si2 0.419655 0.540413 0.284411
Si Si3 0.992664 0.426626 0.061013
Si Si4 0.250000 0.250000 0.500000
Si Si5 0.565323 0.186855 0.338517
O O1 0.250000 0.250000 0.095799
O O2 0.974219 0.351507 0.074607
O O3 0.750000 0.250000 0.130003
O O4 0.082364 0.306654 0.239414
O O5 0.187940 0.492932 0.310877
O O6 0.454981 0.547019 0.168748
O O7 0.359884 0.611296 0.329405
O O8 0.250000 0.434888 0.000000
O O9 0.750000 0.445474 0.000000
O O10 0.408183 0.202984 0.432132
O O11 0.750000 0.250000 0.336251
#
# Coordination Sequence:
#
# PCOD9396284 Si02
#       5
#     8   8   8   2   8
#     4  10  20  36  58  89 134 178 222 281 348 406
#     4  11  26  46  71 100 144 191 230 285 352 411
#     4  11  23  37  59  94 132 180 238 286 330 396
#     4  12  22  44  80 106 134 172 236 292 338 432
#     4  10  24  43  73 105 138 178 234 282 351 419
#
# _framework density 21.871834
#
# number of rings (size 3 to 8) (size 9 to 14) (size 15 to 20)
#    0.000    1.412    1.176    3.176    3.294    9.412 
#    0.000    1.176    0.000    0.000    0.000    0.000 
#    0.000    0.000    0.000    0.000    0.000    0.000 
#
# Total GULP energy -189421.772642 kJ/mol
# GULP energy per Si atom -5571.228607 kJ/mol
# Density = 2.182205 g / cm^3
# Si number density = 21.871834 Si / 1000 Ang^3
#
#
#
# Elastic Constant Matrix: (Units=GPa)
#
#
# Indices 1 2 3 4 5 6 
#
# 1 122.8770 44.9383 35.3877 0.0000 0.0000 0.0000
# 2 44.9383 173.6721 44.9295 0.0000 0.0000 0.0000
# 3 35.3877 44.9295 118.1710 0.0000 0.0000 0.0000
# 4 0.0000 0.0000 0.0000 29.4542 0.0000 0.0000
# 5 0.0000 0.0000 0.0000 0.0000 10.6224 0.0000
# 6 0.0000 0.0000 0.0000 0.0000 0.0000 46.4085
#
#
#
# Elastic Compliance Matrix: (Units=1/GPa)
#
#
# Indices 1 2 3 4 5 6 
#
# 1 0.009438 -0.001898 -0.002105 0.000000 0.000000 0.000000
# 2 -0.001898 0.006768 -0.002005 0.000000 0.000000 0.000000
# 3 -0.002105 -0.002005 0.009855 0.000000 0.000000 0.000000
# 4 0.000000 0.000000 0.000000 0.033951 0.000000 0.000000
# 5 0.000000 0.000000 0.000000 0.000000 0.094141 0.000000
# 6 0.000000 0.000000 0.000000 0.000000 0.000000 0.021548
#
#
# Mechanical properties :
#
#
# Convention : Reuss Voigt Hill
#
# Bulk Modulus (GPa) = 71.19406 73.91456 72.55431
# Shear Modulus (GPa) = 25.98782 36.59464 31.29123
#
# Velocity S-wave (km/s) = 3.45075 4.09484 3.78651
# Velocity P-wave (km/s) = 6.96406 7.49832 7.23612
#
# Compressibility (1/GPa) = 0.01404612
#
# Stress axis : x y z
#
# Youngs Moduli (GPa) = 105.94962 147.76139 101.47218
#
# Poissons Ratio (x) = 0.28040 0.21359
# Poissons Ratio (y) = 0.20106 0.20343
# Poissons Ratio (z) = 0.22302 0.29624
#
# Static dielectric constant tensor:
#      x y z
#    x 1.802550 0.000000 0.000000 
#    y 0.000000 1.874640 0.000000 
#    z 0.000000 0.000000 1.784280 
# 
# From -- ./inp_files/23837.got.cif
#   From: 2010.05.17/outbox.cif.g08.bks.cpg/sg50_12_cif.got.tgz:23837.got - 2010.06.03 11:33:33.
