data_PCOD9396720
_publ_section_title
;
Structure prediction by ZEFSAII (Michael W. Deem and Ramdas Pophale) SiO2 
 PCOD9396720
Probable space group: P B A N
;
_chemical_formula_sum "Si O2"
_cell_formula_units_Z 40
_cell_length_a 4.945971
_cell_length_b 32.720629
_cell_length_c 11.492879
_cell_angle_alpha 90.000000
_cell_angle_beta 90.000000
_cell_angle_gamma 90.000000
_cell_volume 1859.953316
_symmetry_space_group_name_H-M "P B A N"
_symmetry_group_IT_number 50
_space_group.IT_coordinate_system_code '2'
_symmetry_cell_setting 'orthorhombic'
loop_
_space_group_symop_operation_xyz
x,y,z
1/2-x,1/2-y,z
x,1/2-y,-z
1/2-x,y,-z
-x,-y,-z
1/2+x,1/2+y,-z
-x,1/2+y,z
1/2+x,-y,z
loop_
_atom_site_type_symbol
_atom_site_label
_atom_site_fract_x
_atom_site_fract_y
_atom_site_fract_z
Si Si1 0.010799 0.222013 0.676965
Si Si2 0.984075 0.181284 0.921825
Si Si3 0.173984 0.612457 0.228116
Si Si4 0.273942 0.524022 0.860279
Si Si5 0.350363 0.132558 0.375126
O O1 0.250000 0.250000 0.635277
O O2 0.025561 0.178284 0.614898
O O3 0.750000 0.250000 0.664183
O O4 0.052387 0.209816 0.812642
O O5 0.827624 0.142166 0.864092
O O6 0.750000 0.200784 0.000000
O O7 0.250000 0.172077 0.000000
O O8 0.120398 0.568417 0.174292
O O9 0.401136 0.606708 0.326683
O O10 0.902372 0.631666 0.284133
O O11 0.478090 0.488865 0.818958
O O12 0.250000 0.523709 0.000000
O O13 0.250000 0.118888 0.500000
#
# Coordination Sequence:
#
# PCOD9396720 Si02
#       5
#     8   8   8   8   8
#     4  11  23  39  57  84 116 148 194 248 302 361
#     4  11  22  36  57  84 117 159 198 236 293 364
#     4  11  22  40  64  89 123 159 205 257 299 367
#     4  10  21  36  60  95 130 163 195 237 301 366
#     4  11  24  43  65  87 114 159 212 262 317 362
#
# _framework density 21.505915000000002
#
# number of rings (size 3 to 8) (size 9 to 14) (size 15 to 20)
#    0.000    1.200    0.000    8.400    0.000    5.200 
#    0.000    3.000    0.000   12.000    0.000    0.000 
#    0.000    0.000    0.000    0.000    0.000    0.000 
#
# Total GULP energy -223484.585916 kJ/mol
# GULP energy per Si atom -5587.114648 kJ/mol
# Density = 2.145697 g / cm^3
# Si number density = 21.505915 Si / 1000 Ang^3
#
#
#
# Elastic Constant Matrix: (Units=GPa)
#
#
# Indices 1 2 3 4 5 6 
#
# 1 135.2963 28.9335 20.0011 0.0000 0.0000 0.0000
# 2 28.9335 86.2268 0.5754 0.0000 0.0000 0.0000
# 3 20.0011 0.5754 45.8153 0.0000 0.0000 0.0000
# 4 0.0000 0.0000 0.0000 11.0060 0.0000 0.0000
# 5 0.0000 0.0000 0.0000 0.0000 28.8316 0.0000
# 6 0.0000 0.0000 0.0000 0.0000 0.0000 30.6307
#
#
#
# Elastic Compliance Matrix: (Units=1/GPa)
#
#
# Indices 1 2 3 4 5 6 
#
# 1 0.008545 -0.002843 -0.003695 0.000000 0.000000 0.000000
# 2 -0.002843 0.012544 0.001083 0.000000 0.000000 0.000000
# 3 -0.003695 0.001083 0.023426 0.000000 0.000000 0.000000
# 4 0.000000 0.000000 0.000000 0.090859 0.000000 0.000000
# 5 0.000000 0.000000 0.000000 0.000000 0.034684 0.000000
# 6 0.000000 0.000000 0.000000 0.000000 0.000000 0.032647
#
#
# Mechanical properties :
#
#
# Convention : Reuss Voigt Hill
#
# Bulk Modulus (GPa) = 29.75542 40.70647 35.23094
# Shear Modulus (GPa) = 22.24034 28.61556 25.42795
#
# Velocity S-wave (km/s) = 3.21931 3.65168 3.44229
# Velocity P-wave (km/s) = 5.26161 6.06208 5.67598
#
# Compressibility (1/GPa) = 0.03360732
#
# Stress axis : x y z
#
# Youngs Moduli (GPa) = 117.02304 79.71951 42.68727
#
# Poissons Ratio (x) = 0.22662 0.15772
# Poissons Ratio (y) = 0.33267 -0.04625
# Poissons Ratio (z) = 0.43238 -0.08638
#
# Static dielectric constant tensor:
#      x y z
#    x 1.771520 0.000000 0.000000 
#    y 0.000000 1.714150 0.000000 
#    z 0.000000 0.000000 1.838520 
# 
# From -- ./inp_files/17994.got.cif
#   From: 2010.05.17/outbox.cif.g08.bks.cpg/sg50_9_cif.got.tgz:17994.got - 2010.06.03 11:33:33.
