data_PCOD9396460
_publ_section_title
;
Structure prediction by ZEFSAII (Michael W. Deem and Ramdas Pophale) SiO2 
 PCOD9396460
Probable space group: P B A N
;
_chemical_formula_sum "Si O2"
_cell_formula_units_Z 32
_cell_length_a 13.651458
_cell_length_b 8.919454
_cell_length_c 12.876119
_cell_angle_alpha 90.000000
_cell_angle_beta 90.000000
_cell_angle_gamma 90.000000
_cell_volume 1567.841981
_symmetry_space_group_name_H-M "P B A N"
_symmetry_group_IT_number 50
_space_group.IT_coordinate_system_code '2'
_symmetry_cell_setting 'orthorhombic'
loop_
_space_group_symop_operation_xyz
x,y,z
1/2-x,1/2-y,z
x,1/2-y,-z
1/2-x,y,-z
-x,-y,-z
1/2+x,1/2+y,-z
-x,1/2+y,z
1/2+x,-y,z
loop_
_atom_site_type_symbol
_atom_site_label
_atom_site_fract_x
_atom_site_fract_y
_atom_site_fract_z
Si Si1 0.958202 0.114901 0.579086
Si Si2 0.797487 0.414093 0.262355
Si Si3 0.951039 0.238424 0.878762
Si Si4 0.902853 0.940800 0.225855
O O1 0.935579 0.250000 0.500000
O O2 0.862067 0.055994 0.636867
O O3 0.039868 0.121040 0.671676
O O4 0.000000 0.000000 0.500000
O O5 0.750000 0.250000 0.279124
O O6 0.874183 0.382071 0.169426
O O7 0.712207 0.533340 0.242972
O O8 0.937743 0.393551 0.814541
O O9 0.059724 0.174610 0.860551
O O10 0.930098 0.250000 0.000000
#
# Coordination Sequence:
#
# PCOD9396460 Si02
#       4
#     8   8   8   8
#     4  11  22  38  59  82 113 156 199 248 305 358
#     4   9  20  37  59  85 115 153 202 242 288 367
#     4  10  20  38  63  90 123 162 201 247 305 369
#     4  10  21  38  59  89 121 155 204 258 302 363
#
# _framework density 20.410219000000001
#
# number of rings (size 3 to 8) (size 9 to 14) (size 15 to 20)
#    0.000    2.000    0.000    5.250    0.000    8.000 
#    0.000   12.500    0.000    6.000    0.000    0.000 
#    0.000    0.000    0.000    0.000    0.000    0.000 
#
# Total GULP energy -178226.408258 kJ/mol
# GULP energy per Si atom -5569.575258 kJ/mol
# Density = 2.036376 g / cm^3
# Si number density = 20.410219 Si / 1000 Ang^3
#
#
#
# Elastic Constant Matrix: (Units=GPa)
#
#
# Indices 1 2 3 4 5 6 
#
# 1 126.7007 33.1372 73.1395 0.0000 0.0000 0.0000
# 2 33.1372 33.9287 21.8981 0.0000 0.0000 0.0000
# 3 73.1395 21.8981 122.1091 0.0000 0.0000 0.0000
# 4 0.0000 0.0000 0.0000 25.6156 0.0000 0.0000
# 5 0.0000 0.0000 0.0000 0.0000 19.6328 0.0000
# 6 0.0000 0.0000 0.0000 0.0000 0.0000 40.0995
#
#
#
# Elastic Compliance Matrix: (Units=1/GPa)
#
#
# Indices 1 2 3 4 5 6 
#
# 1 0.014382 -0.009597 -0.006893 0.000000 0.000000 0.000000
# 2 -0.009597 0.039736 -0.001377 0.000000 0.000000 0.000000
# 3 -0.006893 -0.001377 0.012565 0.000000 0.000000 0.000000
# 4 0.000000 0.000000 0.000000 0.039039 0.000000 0.000000
# 5 0.000000 0.000000 0.000000 0.000000 0.050935 0.000000
# 6 0.000000 0.000000 0.000000 0.000000 0.000000 0.024938
#
#
# Mechanical properties :
#
#
# Convention : Reuss Voigt Hill
#
# Bulk Modulus (GPa) = 32.31308 59.89868 46.10588
# Shear Modulus (GPa) = 21.96383 27.37381 24.66882
#
# Velocity S-wave (km/s) = 3.28398 3.66619 3.48034
# Velocity P-wave (km/s) = 5.49960 6.87985 6.22808
#
# Compressibility (1/GPa) = 0.03094722
#
# Stress axis : x y z
#
# Youngs Moduli (GPa) = 69.53192 25.16597 79.58496
#
# Poissons Ratio (x) = 0.24153 0.54859
# Poissons Ratio (y) = 0.66733 0.10962
# Poissons Ratio (z) = 0.47929 0.03466
#
# Static dielectric constant tensor:
#      x y z
#    x 1.758460 0.000000 0.000000 
#    y 0.000000 1.638930 0.000000 
#    z 0.000000 0.000000 1.751440 
# 
# From -- ./inp_files/18351.got.cif
#   From: 2010.05.17/outbox.cif.g08.bks.cpg/sg50_10_cif.got.tgz:18351.got - 2010.06.03 11:33:33.
