data_PCOD9396253
_publ_section_title
;
Structure prediction by ZEFSAII (Michael W. Deem and Ramdas Pophale) SiO2 
 PCOD9396253
Probable space group: P B A N
;
_chemical_formula_sum "Si O2"
_cell_formula_units_Z 56
_cell_length_a 15.780292
_cell_length_b 20.732383
_cell_length_c 7.344887
_cell_angle_alpha 90.000000
_cell_angle_beta 90.000000
_cell_angle_gamma 90.000000
_cell_volume 2402.975689
_symmetry_space_group_name_H-M "P B A N"
_symmetry_group_IT_number 50
_space_group.IT_coordinate_system_code '2'
_symmetry_cell_setting 'orthorhombic'
loop_
_space_group_symop_operation_xyz
x,y,z
1/2-x,1/2-y,z
x,1/2-y,-z
1/2-x,y,-z
-x,-y,-z
1/2+x,1/2+y,-z
-x,1/2+y,z
1/2+x,-y,z
loop_
_atom_site_type_symbol
_atom_site_label
_atom_site_fract_x
_atom_site_fract_y
_atom_site_fract_z
Si Si1 0.031246 0.014804 0.207389
Si Si2 0.231265 0.039263 0.209569
Si Si3 0.575737 0.121201 0.266574
Si Si4 0.233848 0.597675 0.220504
Si Si5 0.786654 0.816377 0.294112
Si Si6 0.538887 0.769868 0.689715
Si Si7 0.557184 0.145534 0.829660
O O1 0.130920 0.029457 0.228470
O O2 0.983778 0.080700 0.253772
O O3 0.025467 0.945286 0.305114
O O4 0.000000 0.000000 0.000000
O O5 0.258062 0.111225 0.251893
O O6 0.280702 0.976424 0.287512
O O7 0.250000 0.033112 0.000000
O O8 0.675577 0.116572 0.302184
O O9 0.535637 0.181865 0.363969
O O10 0.563712 0.136221 0.049184
O O11 0.153598 0.644023 0.244243
O O12 0.250000 0.596995 0.000000
O O13 0.750000 0.750000 0.210392
O O14 0.750000 0.813728 0.500000
O O15 0.884833 0.811453 0.228683
O O16 0.581272 0.750000 0.500000
O O17 0.499537 0.708467 0.790595
#
# Coordination Sequence:
#
# PCOD9396253 Si02
#       7
#     8   8   8   8   8   8   8
#     4   9  18  33  61  93 126 146 193 252 307 353
#     4  10  20  35  64  96 118 152 194 250 306 361
#     4   9  20  38  62  92 121 154 200 250 301 366
#     4   8  17  37  63  94 125 152 186 243 317 364
#     4  11  24  44  56  75 121 169 202 242 301 367
#     4  12  25  41  59  82 119 165 208 251 300 348
#     4  10  20  37  64  90 121 159 199 247 304 366
#
# _framework density 23.304437
#
# number of rings (size 3 to 8) (size 9 to 14) (size 15 to 20)
#    0.000    2.143    1.429    3.857    6.000    0.857 
#    2.571    7.143    0.000    0.000    0.000    0.000 
#    0.000    0.000    0.000    0.000    0.000    0.000 
#
# Total GULP energy -312031.342441 kJ/mol
# GULP energy per Si atom -5571.988258 kJ/mol
# Density = 2.325140 g / cm^3
# Si number density = 23.304437 Si / 1000 Ang^3
#
#
#
# Elastic Constant Matrix: (Units=GPa)
#
#
# Indices 1 2 3 4 5 6 
#
# 1 110.4171 62.6392 -1.8704 0.0000 0.0000 0.0000
# 2 62.6392 144.7453 5.1643 0.0000 0.0000 0.0000
# 3 -1.8704 5.1643 36.8717 0.0000 0.0000 0.0000
# 4 0.0000 0.0000 0.0000 61.8159 0.0000 0.0000
# 5 0.0000 0.0000 0.0000 0.0000 9.9269 0.0000
# 6 0.0000 0.0000 0.0000 0.0000 0.0000 58.6766
#
#
#
# Elastic Compliance Matrix: (Units=1/GPa)
#
#
# Indices 1 2 3 4 5 6 
#
# 1 0.012070 -0.005272 0.001351 0.000000 0.000000 0.000000
# 2 -0.005272 0.009246 -0.001562 0.000000 0.000000 0.000000
# 3 0.001351 -0.001562 0.027408 0.000000 0.000000 0.000000
# 4 0.000000 0.000000 0.000000 0.016177 0.000000 0.000000
# 5 0.000000 0.000000 0.000000 0.000000 0.100736 0.000000
# 6 0.000000 0.000000 0.000000 0.000000 0.000000 0.017043
#
#
# Mechanical properties :
#
#
# Convention : Reuss Voigt Hill
#
# Bulk Modulus (GPa) = 26.48481 47.10005 36.79243
# Shear Modulus (GPa) = 24.24452 41.15729 32.70090
#
# Velocity S-wave (km/s) = 3.22893 4.20702 3.75000
# Velocity P-wave (km/s) = 5.02898 6.62219 5.87980
#
# Compressibility (1/GPa) = 0.03775749
#
# Stress axis : x y z
#
# Youngs Moduli (GPa) = 82.85032 108.15827 36.48517
#
# Poissons Ratio (x) = 0.57016 -0.04928
# Poissons Ratio (y) = 0.43675 0.05700
# Poissons Ratio (z) = -0.11190 0.16899
#
# Static dielectric constant tensor:
#      x y z
#    x 1.852630 0.000000 0.000000 
#    y 0.000000 1.636930 0.000000 
#    z 0.000000 0.000000 1.981780 
# 
# From -- ./inp_files/13275.got.cif
#   From: 2010.05.17/outbox.cif.g08.bks.cpg/sg50_7_cif.got.tgz:13275.got - 2010.06.03 11:33:33.
