data_PCOD9396178
_publ_section_title
;
Structure prediction by ZEFSAII (Michael W. Deem and Ramdas Pophale) SiO2 
 PCOD9396178
Probable space group: P B A N
;
_chemical_formula_sum "Si O2"
_cell_formula_units_Z 64
_cell_length_a 12.055591
_cell_length_b 23.824967
_cell_length_c 11.613318
_cell_angle_alpha 90.000000
_cell_angle_beta 90.000000
_cell_angle_gamma 90.000000
_cell_volume 3335.624320
_symmetry_space_group_name_H-M "P B A N"
_symmetry_group_IT_number 50
_space_group.IT_coordinate_system_code '2'
_symmetry_cell_setting 'orthorhombic'
loop_
_space_group_symop_operation_xyz
x,y,z
1/2-x,1/2-y,z
x,1/2-y,-z
1/2-x,y,-z
-x,-y,-z
1/2+x,1/2+y,-z
-x,1/2+y,z
1/2+x,-y,z
loop_
_atom_site_type_symbol
_atom_site_label
_atom_site_fract_x
_atom_site_fract_y
_atom_site_fract_z
Si Si1 0.874485 0.396396 0.248350
Si Si2 0.618528 0.664195 0.005296
Si Si3 0.938999 0.669977 0.258387
Si Si4 0.283237 0.370618 0.625329
Si Si5 0.549800 0.527686 0.384023
Si Si6 0.879808 0.082034 0.246431
Si Si7 0.034009 0.203149 0.754605
Si Si8 0.465617 0.935826 0.991173
O O1 0.746284 0.403976 0.275696
O O2 0.952901 0.434394 0.328710
O O3 0.920411 0.332538 0.254602
O O4 0.892939 0.419929 0.119159
O O5 0.569477 0.699942 0.110555
O O6 0.750000 0.670490 0.000000
O O7 0.570359 0.675627 0.879598
O O8 0.577600 0.600629 0.027160
O O9 0.828429 0.637516 0.300260
O O10 0.958749 0.734185 0.294887
O O11 0.040489 0.630774 0.293074
O O12 0.250000 0.348954 0.500000
O O13 0.342465 0.431245 0.606736
O O14 0.374267 0.332929 0.687798
O O15 0.500000 0.500000 0.500000
O O16 0.583428 0.477027 0.300068
O O17 0.903249 0.079825 0.109239
O O18 0.500000 0.000000 0.000000
#
# Coordination Sequence:
#
# PCOD9396178 Si02
#       8
#     8   8   8   8   8   8   8   8
#     4  10  23  42  61  89 124 167 207 245 318 368
#     4  10  20  34  59  91 126 165 202 247 313 369
#     4  11  23  38  62  97 124 162 212 253 306 368
#     4  11  24  40  64  92 121 159 207 260 320 364
#     4  11  25  43  64  88 123 162 202 263 313 380
#     4  11  24  38  64  91 123 165 207 250 308 378
#     4  10  22  41  61  90 130 164 206 258 304 368
#     4  10  20  37  56  91 126 162 203 255 307 368
#
# _framework density 19.186812
#
# number of rings (size 3 to 8) (size 9 to 14) (size 15 to 20)
#    0.000    1.500    2.500    1.875    3.500    3.000 
#    0.000    0.000    0.000    4.500    0.000    3.500 
#    0.000    0.000    0.000    0.000    0.000    0.000 
#
# Total GULP energy -357124.398770 kJ/mol
# GULP energy per Si atom -5580.068731 kJ/mol
# Density = 1.914314 g / cm^3
# Si number density = 19.186812 Si / 1000 Ang^3
#
#
#
# Elastic Constant Matrix: (Units=GPa)
#
#
# Indices 1 2 3 4 5 6 
#
# 1 132.4229 67.0740 10.4574 0.0000 0.0000 0.0000
# 2 67.0740 121.3897 11.2533 0.0000 0.0000 0.0000
# 3 10.4574 11.2533 76.8191 0.0000 0.0000 0.0000
# 4 0.0000 0.0000 0.0000 -4.8402 0.0000 0.0000
# 5 0.0000 0.0000 0.0000 0.0000 8.9730 0.0000
# 6 0.0000 0.0000 0.0000 0.0000 0.0000 4.0846
#
#
#
# Elastic Compliance Matrix: (Units=1/GPa)
#
#
# Indices 1 2 3 4 5 6 
#
# 1 0.010513 -0.005754 -0.000588 0.000000 0.000000 0.000000
# 2 -0.005754 0.011501 -0.000901 0.000000 0.000000 0.000000
# 3 -0.000588 -0.000901 0.013230 0.000000 0.000000 0.000000
# 4 0.000000 0.000000 0.000000 -0.206603 0.000000 0.000000
# 5 0.000000 0.000000 0.000000 0.000000 0.111446 0.000000
# 6 0.000000 0.000000 0.000000 0.000000 0.000000 0.244820
#
#
# Mechanical properties :
#
#
# Convention : Reuss Voigt Hill
#
# Bulk Modulus (GPa) = 48.17964 56.46678 52.32321
# Shear Modulus (GPa) = 24.23515 17.76660 21.00088
#
# Velocity S-wave (km/s) = 3.55789 3.04629 3.31198
# Velocity P-wave (km/s) = 6.48409 6.47048 6.47729
#
# Compressibility (1/GPa) = 0.02075566
#
# Stress axis : x y z
#
# Youngs Moduli (GPa) = 95.12384 86.94886 75.58739
#
# Poissons Ratio (x) = 0.50032 0.04446
# Poissons Ratio (y) = 0.54736 0.06814
# Poissons Ratio (z) = 0.05595 0.07838
#
# Static dielectric constant tensor:
#      x y z
#    x 1.604870 0.000000 0.000000 
#    y 0.000000 1.718160 0.000000 
#    z 0.000000 0.000000 1.690590 
# 
# From -- ./inp_files/20527.got.cif
#   From: 2010.05.17/outbox.cif.g08.bks.cpg/sg50_11_cif.got.tgz:20527.got - 2010.06.03 11:33:33.
