data_PCOD9396994
_publ_section_title
;
Structure prediction by ZEFSAII (Michael W. Deem and Ramdas Pophale) SiO2 
 PCOD9396994
Probable space group: P B A N
;
_chemical_formula_sum "Si O2"
_cell_formula_units_Z 20
_cell_length_a 4.788957
_cell_length_b 15.267967
_cell_length_c 11.692724
_cell_angle_alpha 90.000000
_cell_angle_beta 90.000000
_cell_angle_gamma 90.000000
_cell_volume 854.944354
_symmetry_space_group_name_H-M "P B A N"
_symmetry_group_IT_number 50
_space_group.IT_coordinate_system_code '2'
_symmetry_cell_setting 'orthorhombic'
loop_
_space_group_symop_operation_xyz
x,y,z
1/2-x,1/2-y,z
x,1/2-y,-z
1/2-x,y,-z
-x,-y,-z
1/2+x,1/2+y,-z
-x,1/2+y,z
1/2+x,-y,z
loop_
_atom_site_type_symbol
_atom_site_label
_atom_site_fract_x
_atom_site_fract_y
_atom_site_fract_z
Si Si1 0.250000 0.568883 0.500000
Si Si2 0.284393 0.058475 0.133423
Si Si3 0.497456 0.691623 0.695470
O O1 0.500000 0.500000 0.500000
O O2 0.332875 0.632740 0.603774
O O3 0.162067 0.132173 0.214088
O O4 0.600550 0.029354 0.154383
O O5 0.250000 0.081489 0.000000
O O6 0.250000 0.750000 0.749391
O O7 0.750000 0.750000 0.642916
#
# Coordination Sequence:
#
# PCOD9396994 Si02
#       3
#     4   8   8
#     4  12  25  44  69  94 132 184 234 276 335 418
#     4  10  21  41  67  95 131 177 227 272 326 404
#     4  12  25  42  66 101 140 174 223 287 348 401
#
# _framework density 23.393336999999999
#
# number of rings (size 3 to 8) (size 9 to 14) (size 15 to 20)
#    0.000    0.800    0.000    7.800    0.000    2.400 
#    0.000    2.000    0.000    0.000    0.000    0.000 
#    0.000    0.000    0.000    0.000    0.000    0.000 
#
# Total GULP energy -111919.453455 kJ/mol
# GULP energy per Si atom -5595.972673 kJ/mol
# Density = 2.334009 g / cm^3
# Si number density = 23.393337 Si / 1000 Ang^3
#
#
#
# Elastic Constant Matrix: (Units=GPa)
#
#
# Indices 1 2 3 4 5 6 
#
# 1 148.3148 34.2739 39.3148 0.0000 0.0000 0.0000
# 2 34.2739 100.4708 72.2417 0.0000 0.0000 0.0000
# 3 39.3148 72.2417 129.7878 0.0000 0.0000 0.0000
# 4 0.0000 0.0000 0.0000 408.7225 0.0000 0.0000
# 5 0.0000 0.0000 0.0000 0.0000 38.1384 0.0000
# 6 0.0000 0.0000 0.0000 0.0000 0.0000 25.1769
#
#
#
# Elastic Compliance Matrix: (Units=1/GPa)
#
#
# Indices 1 2 3 4 5 6 
#
# 1 0.007471 -0.001536 -0.001408 0.000000 0.000000 0.000000
# 2 -0.001536 0.016911 -0.008947 0.000000 0.000000 0.000000
# 3 -0.001408 -0.008947 0.013112 0.000000 0.000000 0.000000
# 4 0.000000 0.000000 0.000000 0.002447 0.000000 0.000000
# 5 0.000000 0.000000 0.000000 0.000000 0.026220 0.000000
# 6 0.000000 0.000000 0.000000 0.000000 0.000000 0.039719
#
#
# Mechanical properties :
#
#
# Convention : Reuss Voigt Hill
#
# Bulk Modulus (GPa) = 72.93963 74.47046 73.70504
# Shear Modulus (GPa) = 37.24909 109.92376 73.58642
#
# Velocity S-wave (km/s) = 3.99469 6.86231 5.61466
# Velocity P-wave (km/s) = 7.24735 9.73096 8.57950
#
# Compressibility (1/GPa) = 0.01370997
#
# Stress axis : x y z
#
# Youngs Moduli (GPa) = 133.85795 59.13451 76.26841
#
# Poissons Ratio (x) = 0.09084 0.10738
# Poissons Ratio (y) = 0.20562 0.68240
# Poissons Ratio (z) = 0.18846 0.52910
#
# Static dielectric constant tensor:
#      x y z
#    x 1.826640 0.000000 0.000000 
#    y 0.000000 1.840020 0.000000 
#    z 0.000000 0.000000 1.866360 
# 
# From -- ./inp_files/17250.got.cif
#   From: 2010.05.17/outbox.cif.g08.bks.cpg/sg50_9_cif.got.tgz:17250.got - 2010.06.03 11:33:33.
