data_PCOD9396426
_publ_section_title
;
Structure prediction by ZEFSAII (Michael W. Deem and Ramdas Pophale) SiO2 
 PCOD9396426
Probable space group: P B A N
;
_chemical_formula_sum "Si O2"
_cell_formula_units_Z 48
_cell_length_a 23.875082
_cell_length_b 18.420620
_cell_length_c 5.288459
_cell_angle_alpha 90.000000
_cell_angle_beta 90.000000
_cell_angle_gamma 90.000000
_cell_volume 2325.831548
_symmetry_space_group_name_H-M "P B A N"
_symmetry_group_IT_number 50
_space_group.IT_coordinate_system_code '2'
_symmetry_cell_setting 'orthorhombic'
loop_
_space_group_symop_operation_xyz
x,y,z
1/2-x,1/2-y,z
x,1/2-y,-z
1/2-x,y,-z
-x,-y,-z
1/2+x,1/2+y,-z
-x,1/2+y,z
1/2+x,-y,z
loop_
_atom_site_type_symbol
_atom_site_label
_atom_site_fract_x
_atom_site_fract_y
_atom_site_fract_z
Si Si1 0.053962 0.314615 0.838820
Si Si2 0.910906 0.034190 0.149591
Si Si3 0.439828 0.677332 0.601709
Si Si4 0.492147 0.074989 0.226355
Si Si5 0.842482 0.666798 0.466221
Si Si6 0.313540 0.425010 0.965412
O O1 0.090650 0.329188 0.590598
O O2 0.990408 0.293896 0.775869
O O3 0.081568 0.250000 0.000000
O O4 0.046623 0.383363 0.020106
O O5 0.903660 0.114920 0.262375
O O6 0.855823 0.992655 0.062459
O O7 0.955105 0.041512 0.922054
O O8 0.948760 0.983973 0.339275
O O9 0.410602 0.750000 0.500000
O O10 0.477181 0.632609 0.401979
O O11 0.823117 0.750000 0.500000
O O12 0.823891 0.621955 0.710955
O O13 0.823445 0.626265 0.209885
O O14 0.250000 0.450610 0.000000
#
# Coordination Sequence:
#
# PCOD9396426 Si02
#       6
#     8   8   8   8   8   8
#     4  11  20  34  58  94 137 179 215 265 327 407
#     4  10  23  37  60  91 129 173 217 272 332 396
#     4  11  21  34  60  93 135 175 215 269 334 414
#     4  10  20  38  58  90 133 172 219 260 324 410
#     4  12  26  43  67  97 132 178 228 279 324 388
#     4  12  27  47  68  92 128 176 235 284 338 396
#
# _framework density 20.637782000000001
#
# number of rings (size 3 to 8) (size 9 to 14) (size 15 to 20)
#    0.000    1.000    3.333    4.000    2.333    2.000 
#    0.000    0.000    0.000    0.000    0.000    3.500 
#    0.000    0.000    0.000    0.000    0.000    0.000 
#
# Total GULP energy -268002.546242 kJ/mol
# GULP energy per Si atom -5583.386380 kJ/mol
# Density = 2.059081 g / cm^3
# Si number density = 20.637782 Si / 1000 Ang^3
#
#
#
# Elastic Constant Matrix: (Units=GPa)
#
#
# Indices 1 2 3 4 5 6 
#
# 1 123.8262 67.9435 37.6399 0.0000 0.0000 0.0000
# 2 67.9435 162.4375 54.9406 0.0000 0.0000 0.0000
# 3 37.6399 54.9406 112.6010 0.0000 0.0000 0.0000
# 4 0.0000 0.0000 0.0000 40.1183 0.0000 0.0000
# 5 0.0000 0.0000 0.0000 0.0000 14.9867 0.0000
# 6 0.0000 0.0000 0.0000 0.0000 0.0000 13.2233
#
#
#
# Elastic Compliance Matrix: (Units=1/GPa)
#
#
# Indices 1 2 3 4 5 6 
#
# 1 0.010739 -0.003925 -0.001674 0.000000 0.000000 0.000000
# 2 -0.003925 0.008808 -0.002985 0.000000 0.000000 0.000000
# 3 -0.001674 -0.002985 0.010897 0.000000 0.000000 0.000000
# 4 0.000000 0.000000 0.000000 0.024926 0.000000 0.000000
# 5 0.000000 0.000000 0.000000 0.000000 0.066726 0.000000
# 6 0.000000 0.000000 0.000000 0.000000 0.000000 0.075624
#
#
# Mechanical properties :
#
#
# Convention : Reuss Voigt Hill
#
# Bulk Modulus (GPa) = 75.33846 79.99030 77.66438
# Shear Modulus (GPa) = 22.79828 29.55504 26.17666
#
# Velocity S-wave (km/s) = 3.32729 3.78839 3.56530
# Velocity P-wave (km/s) = 7.16558 7.61441 7.39340
#
# Compressibility (1/GPa) = 0.01327343
#
# Stress axis : x y z
#
# Youngs Moduli (GPa) = 93.12143 113.53536 91.76618
#
# Poissons Ratio (x) = 0.44567 0.15365
# Poissons Ratio (y) = 0.36554 0.27396
# Poissons Ratio (z) = 0.15592 0.33895
#
# Static dielectric constant tensor:
#      x y z
#    x 1.746850 0.000000 0.000000 
#    y 0.000000 1.872650 0.000000 
#    z 0.000000 0.000000 1.880930 
# 
# From -- ./inp_files/6001.got.cif
#   From: 2010.05.17/outbox.cif.g08.bks.cpg/sg50_4_cif.got.tgz:6001.got - 2010.06.03 11:33:33.
