data_PCOD9396913
_publ_section_title
;
Structure prediction by ZEFSAII (Michael W. Deem and Ramdas Pophale) SiO2 
 PCOD9396913
Probable space group: P B A N
;
_chemical_formula_sum "Si O2"
_cell_formula_units_Z 48
_cell_length_a 8.742113
_cell_length_b 25.950216
_cell_length_c 10.145027
_cell_angle_alpha 90.000000
_cell_angle_beta 90.000000
_cell_angle_gamma 90.000000
_cell_volume 2301.497991
_symmetry_space_group_name_H-M "P B A N"
_symmetry_group_IT_number 50
_space_group.IT_coordinate_system_code '2'
_symmetry_cell_setting 'orthorhombic'
loop_
_space_group_symop_operation_xyz
x,y,z
1/2-x,1/2-y,z
x,1/2-y,-z
1/2-x,y,-z
-x,-y,-z
1/2+x,1/2+y,-z
-x,1/2+y,z
1/2+x,-y,z
loop_
_atom_site_type_symbol
_atom_site_label
_atom_site_fract_x
_atom_site_fract_y
_atom_site_fract_z
Si Si1 0.018832 0.938643 0.263351
Si Si2 0.852613 0.644190 0.867326
Si Si3 0.852521 0.799895 0.667136
Si Si4 0.926755 0.365390 0.510589
Si Si5 0.329621 0.963555 0.355427
Si Si6 0.580650 0.239003 0.153461
O O1 0.028706 0.895194 0.377957
O O2 0.195585 0.954641 0.249380
O O3 0.927812 0.912104 0.144745
O O4 0.931196 0.988293 0.317813
O O5 0.743852 0.656621 0.742860
O O6 0.994254 0.684058 0.846558
O O7 0.750000 0.652101 0.000000
O O8 0.750000 0.750000 0.638619
O O9 0.949400 0.822995 0.547413
O O10 0.972389 0.778831 0.773512
O O11 0.750000 0.346458 0.500000
O O12 0.921076 0.410323 0.622061
O O13 0.250000 0.972493 0.500000
O O14 0.750000 0.250000 0.209229
O O15 0.588930 0.250000 0.000000
#
# Coordination Sequence:
#
# PCOD9396913 Si02
#       6
#     8   8   8   8   8   8
#     4  10  22  37  64  90 121 164 204 262 319 374
#     4  11  23  40  62  91 126 162 212 264 309 373
#     4  10  22  39  67  90 127 165 207 253 320 378
#     4   9  20  39  66  96 126 162 208 259 318 379
#     4   9  19  37  62  91 122 160 211 254 313 384
#     4  10  21  39  66  88 116 164 219 254 303 373
#
# _framework density 20.855982000000001
#
# number of rings (size 3 to 8) (size 9 to 14) (size 15 to 20)
#    0.000    2.500    1.667    2.000    9.333    0.000 
#    0.000    6.667    0.000    0.000    0.000    0.000 
#    0.000    0.000    0.000    0.000    0.000    0.000 
#
# Total GULP energy -267759.562432 kJ/mol
# GULP energy per Si atom -5578.324217 kJ/mol
# Density = 2.080851 g / cm^3
# Si number density = 20.855982 Si / 1000 Ang^3
#
#
#
# Elastic Constant Matrix: (Units=GPa)
#
#
# Indices 1 2 3 4 5 6 
#
# 1 131.6560 46.5930 25.9807 0.0000 0.0000 0.0000
# 2 46.5930 51.7272 1.4393 0.0000 0.0000 0.0000
# 3 25.9807 1.4393 31.1950 0.0000 0.0000 0.0000
# 4 0.0000 0.0000 0.0000 4.4004 0.0000 0.0000
# 5 0.0000 0.0000 0.0000 0.0000 25.1837 0.0000
# 6 0.0000 0.0000 0.0000 0.0000 0.0000 59.5307
#
#
#
# Elastic Compliance Matrix: (Units=1/GPa)
#
#
# Indices 1 2 3 4 5 6 
#
# 1 0.014259 -0.012530 -0.011298 0.000000 0.000000 0.000000
# 2 -0.012530 0.030367 0.009034 0.000000 0.000000 0.000000
# 3 -0.011298 0.009034 0.041049 0.000000 0.000000 0.000000
# 4 0.000000 0.000000 0.000000 0.227252 0.000000 0.000000
# 5 0.000000 0.000000 0.000000 0.000000 0.039708 0.000000
# 6 0.000000 0.000000 0.000000 0.000000 0.000000 0.016798
#
#
# Mechanical properties :
#
#
# Convention : Reuss Voigt Hill
#
# Bulk Modulus (GPa) = 17.82895 40.28936 29.05916
# Shear Modulus (GPa) = 11.96986 27.19398 19.58192
#
# Velocity S-wave (km/s) = 2.39828 3.61486 3.06749
# Velocity P-wave (km/s) = 4.02941 6.06488 5.14874
#
# Compressibility (1/GPa) = 0.05608855
#
# Stress axis : x y z
#
# Youngs Moduli (GPa) = 70.13013 32.93075 24.36126
#
# Poissons Ratio (x) = 0.41261 0.27522
# Poissons Ratio (y) = 0.87870 -0.22008
# Poissons Ratio (z) = 0.79231 -0.29750
#
# Static dielectric constant tensor:
#      x y z
#    x 1.807280 0.000000 0.000000 
#    y 0.000000 1.758000 0.000000 
#    z 0.000000 0.000000 1.743370 
# 
# From -- ./inp_files/19203.got.cif
#   From: 2010.05.17/outbox.cif.g08.bks.cpg/sg50_10_cif.got.tgz:19203.got - 2010.06.03 11:33:33.
