data_PCOD9396189
_publ_section_title
;
Structure prediction by ZEFSAII (Michael W. Deem and Ramdas Pophale) SiO2 
 PCOD9396189
Probable space group: P B A N
;
_chemical_formula_sum "Si O2"
_cell_formula_units_Z 38
_cell_length_a 27.639173
_cell_length_b 12.536540
_cell_length_c 4.853277
_cell_angle_alpha 90.000000
_cell_angle_beta 90.000000
_cell_angle_gamma 90.000000
_cell_volume 1681.658529
_symmetry_space_group_name_H-M "P B A N"
_symmetry_group_IT_number 50
_space_group.IT_coordinate_system_code '2'
_symmetry_cell_setting 'orthorhombic'
loop_
_space_group_symop_operation_xyz
x,y,z
1/2-x,1/2-y,z
x,1/2-y,-z
1/2-x,y,-z
-x,-y,-z
1/2+x,1/2+y,-z
-x,1/2+y,z
1/2+x,-y,z
loop_
_atom_site_type_symbol
_atom_site_label
_atom_site_fract_x
_atom_site_fract_y
_atom_site_fract_z
Si Si1 0.750000 0.103009 0.000000
Si Si2 0.518519 0.088263 0.778388
Si Si3 0.250000 0.750000 0.500000
Si Si4 0.599703 0.952115 0.703109
Si Si5 0.149206 0.950926 0.216070
Si Si6 0.400397 0.750000 0.000000
Si Si7 0.944587 0.750000 0.500000
O O1 0.771260 0.170164 0.264832
O O2 0.704218 0.042354 0.120250
O O3 0.562408 0.167212 0.865315
O O4 0.478883 0.172590 0.679429
O O5 0.550923 0.011316 0.585591
O O6 0.500000 0.000000 0.000000
O O7 0.588365 0.828450 0.677588
O O8 0.641388 0.999069 0.512580
O O9 0.614389 0.983363 0.010526
O O10 0.132556 0.826465 0.191747
#
# Coordination Sequence:
#
# PCOD9396189 Si02
#       7
#     4   8   2   8   8   4   4
#     4  11  22  40  66  93 134 170 212 273 334 417
#     4  11  22  38  62  96 130 177 224 267 332 398
#     4  10  20  34  62 102 120 164 212 242 330 414
#     4  11  25  41  62  93 127 167 219 271 324 385
#     4  11  24  41  62  93 127 168 214 263 334 396
#     4  10  20  35  58  88 132 162 202 265 310 384
#     4  12  22  40  65  87 128 173 220 276 321 388
#
# _framework density 22.596741999999999
#
# number of rings (size 3 to 8) (size 9 to 14) (size 15 to 20)
#    0.000    1.053    0.000    8.211    0.000    6.737 
#    0.000    0.000    0.000    3.789    0.000    0.000 
#    0.000    0.000    0.000    0.000    0.000    0.000 
#
# Total GULP energy -211921.996858 kJ/mol
# GULP energy per Si atom -5576.894654 kJ/mol
# Density = 2.254531 g / cm^3
# Si number density = 22.596742 Si / 1000 Ang^3
#
#
#
# Elastic Constant Matrix: (Units=GPa)
#
#
# Indices 1 2 3 4 5 6 
#
# 1 103.1325 35.0962 4.5550 0.0000 0.0000 0.0000
# 2 35.0962 142.6062 21.1176 0.0000 0.0000 0.0000
# 3 4.5550 21.1176 81.7974 0.0000 0.0000 0.0000
# 4 0.0000 0.0000 0.0000 31.2527 0.0000 0.0000
# 5 0.0000 0.0000 0.0000 0.0000 36.0388 0.0000
# 6 0.0000 0.0000 0.0000 0.0000 0.0000 92.6685
#
#
#
# Elastic Compliance Matrix: (Units=1/GPa)
#
#
# Indices 1 2 3 4 5 6 
#
# 1 0.010583 -0.002617 0.000086 0.000000 0.000000 0.000000
# 2 -0.002617 0.007938 -0.001904 0.000000 0.000000 0.000000
# 3 0.000086 -0.001904 0.012712 0.000000 0.000000 0.000000
# 4 0.000000 0.000000 0.000000 0.031997 0.000000 0.000000
# 5 0.000000 0.000000 0.000000 0.000000 0.027748 0.000000
# 6 0.000000 0.000000 0.000000 0.000000 0.000000 0.010791
#
#
# Mechanical properties :
#
#
# Convention : Reuss Voigt Hill
#
# Bulk Modulus (GPa) = 44.71438 49.89706 47.30572
# Shear Modulus (GPa) = 42.33922 49.77649 46.05785
#
# Velocity S-wave (km/s) = 4.33331 4.69851 4.51960
# Velocity P-wave (km/s) = 6.69833 7.18082 6.94377
#
# Compressibility (1/GPa) = 0.02236417
#
# Stress axis : x y z
#
# Youngs Moduli (GPa) = 94.48984 125.97040 78.66585
#
# Poissons Ratio (x) = 0.32971 -0.00680
# Poissons Ratio (y) = 0.24731 0.14976
# Poissons Ratio (z) = -0.00816 0.23981
#
# Static dielectric constant tensor:
#      x y z
#    x 1.960950 0.000000 0.000000 
#    y 0.000000 2.009300 0.000000 
#    z 0.000000 0.000000 2.001520 
# 
# From -- ./inp_files/6483.got.cif
#   From: 2010.05.17/outbox.cif.g08.bks.cpg/sg50_4_cif.got.tgz:6483.got - 2010.06.03 11:33:33.
