data_PCOD9396376
_publ_section_title
;
Structure prediction by ZEFSAII (Michael W. Deem and Ramdas Pophale) SiO2 
 PCOD9396376
Probable space group: P B A N
;
_chemical_formula_sum "Si O2"
_cell_formula_units_Z 40
_cell_length_a 25.053178
_cell_length_b 13.108439
_cell_length_c 5.386874
_cell_angle_alpha 90.000000
_cell_angle_beta 90.000000
_cell_angle_gamma 90.000000
_cell_volume 1769.092816
_symmetry_space_group_name_H-M "P B A N"
_symmetry_group_IT_number 50
_space_group.IT_coordinate_system_code '2'
_symmetry_cell_setting 'orthorhombic'
loop_
_space_group_symop_operation_xyz
x,y,z
1/2-x,1/2-y,z
x,1/2-y,-z
1/2-x,y,-z
-x,-y,-z
1/2+x,1/2+y,-z
-x,1/2+y,z
1/2+x,-y,z
loop_
_atom_site_type_symbol
_atom_site_label
_atom_site_fract_x
_atom_site_fract_y
_atom_site_fract_z
Si Si1 0.054122 0.864416 0.586488
Si Si2 0.664258 0.868985 0.499126
Si Si3 0.868518 0.478464 0.904767
Si Si4 0.945235 0.937919 0.746981
Si Si5 0.718803 0.456775 0.746410
O O1 0.056260 0.750000 0.500000
O O2 0.108613 0.892449 0.727531
O O3 0.000313 0.878495 0.747741
O O4 0.047022 0.950593 0.375035
O O5 0.675618 0.750000 0.500000
O O6 0.603237 0.883603 0.402020
O O7 0.666413 0.939972 0.747317
O O8 0.705541 0.925461 0.316479
O O9 0.920162 0.542921 0.985449
O O10 0.840751 0.429883 0.149130
O O11 0.750000 0.415710 0.500000
O O12 0.750000 0.436836 0.000000
#
# Coordination Sequence:
#
# PCOD9396376 Si02
#       5
#     8   8   8   8   8
#     4  10  20  37  61  95 133 173 225 272 323 396
#     4  10  21  38  59  92 132 172 219 267 324 393
#     4  10  21  39  60  89 131 175 222 272 334 399
#     4   9  20  36  59  91 135 177 214 262 326 395
#     4  11  22  41  61  91 127 174 216 275 339 399
#
# _framework density 22.610458000000001
#
# number of rings (size 3 to 8) (size 9 to 14) (size 15 to 20)
#    0.000    2.000    2.000    1.200    0.000    4.400 
#    3.600    2.000    0.000    0.000    0.000   40.600 
#    0.000    0.000    0.000    0.000    0.000    0.000 
#
# Total GULP energy -222859.812387 kJ/mol
# GULP energy per Si atom -5571.495310 kJ/mol
# Density = 2.255900 g / cm^3
# Si number density = 22.610458 Si / 1000 Ang^3
#
#
#
# Elastic Constant Matrix: (Units=GPa)
#
#
# Indices 1 2 3 4 5 6 
#
# 1 86.6750 22.0268 41.0534 0.0000 0.0000 0.0000
# 2 22.0268 82.2906 28.3352 0.0000 0.0000 0.0000
# 3 41.0534 28.3352 114.5895 0.0000 0.0000 0.0000
# 4 0.0000 0.0000 0.0000 8.7450 0.0000 0.0000
# 5 0.0000 0.0000 0.0000 0.0000 54.7701 0.0000
# 6 0.0000 0.0000 0.0000 0.0000 0.0000 3.7792
#
#
#
# Elastic Compliance Matrix: (Units=1/GPa)
#
#
# Indices 1 2 3 4 5 6 
#
# 1 0.014267 -0.002250 -0.004555 0.000000 0.000000 0.000000
# 2 -0.002250 0.013638 -0.002566 0.000000 0.000000 0.000000
# 3 -0.004555 -0.002566 0.010993 0.000000 0.000000 0.000000
# 4 0.000000 0.000000 0.000000 0.114352 0.000000 0.000000
# 5 0.000000 0.000000 0.000000 0.000000 0.018258 0.000000
# 6 0.000000 0.000000 0.000000 0.000000 0.000000 0.264607
#
#
# Mechanical properties :
#
#
# Convention : Reuss Voigt Hill
#
# Bulk Modulus (GPa) = 49.61492 51.82066 50.71779
# Shear Modulus (GPa) = 10.83246 26.26817 18.55032
#
# Velocity S-wave (km/s) = 2.19119 3.41217 2.86742
# Velocity P-wave (km/s) = 5.32848 6.20424 5.78296
#
# Compressibility (1/GPa) = 0.02015523
#
# Stress axis : x y z
#
# Youngs Moduli (GPa) = 70.09379 73.32447 90.96577
#
# Poissons Ratio (x) = 0.16501 0.41433
# Poissons Ratio (y) = 0.15774 0.23343
# Poissons Ratio (z) = 0.31926 0.18816
#
# Static dielectric constant tensor:
#      x y z
#    x 2.033930 0.000000 0.000000 
#    y 0.000000 1.754310 0.000000 
#    z 0.000000 0.000000 1.962290 
# 
# From -- ./inp_files/2384.got.cif
#   From: 2010.05.17/outbox.cif.g08.bks.cpg/sg50_2_cif.got.tgz:2384.got - 2010.06.03 11:33:33.
