data_PCOD9396676
_publ_section_title
;
Structure prediction by ZEFSAII (Michael W. Deem and Ramdas Pophale) SiO2 
 PCOD9396676
Probable space group: P B A N
;
_chemical_formula_sum "Si O2"
_cell_formula_units_Z 32
_cell_length_a 30.723390
_cell_length_b 5.183451
_cell_length_c 9.371725
_cell_angle_alpha 90.000000
_cell_angle_beta 90.000000
_cell_angle_gamma 90.000000
_cell_volume 1492.477070
_symmetry_space_group_name_H-M "P B A N"
_symmetry_group_IT_number 50
_space_group.IT_coordinate_system_code '2'
_symmetry_cell_setting 'orthorhombic'
loop_
_space_group_symop_operation_xyz
x,y,z
1/2-x,1/2-y,z
x,1/2-y,-z
1/2-x,y,-z
-x,-y,-z
1/2+x,1/2+y,-z
-x,1/2+y,z
1/2+x,-y,z
loop_
_atom_site_type_symbol
_atom_site_label
_atom_site_fract_x
_atom_site_fract_y
_atom_site_fract_z
Si Si1 0.383937 0.248109 0.831442
Si Si2 0.201604 0.508375 0.565883
Si Si3 0.170956 0.746411 0.832800
Si Si4 0.973006 0.745886 0.671216
O O1 0.346126 0.463224 0.802425
O O2 0.426679 0.304455 0.742435
O O3 0.368287 0.955462 0.806297
O O4 0.393198 0.250000 0.000000
O O5 0.176254 0.750000 0.500000
O O6 0.250000 0.502568 0.500000
O O7 0.205231 0.598298 0.730096
O O8 0.181266 0.250000 0.500000
O O9 0.183540 0.750000 0.000000
O O10 0.968088 0.750000 0.500000
O O11 0.006551 0.520466 0.712432
#
# Coordination Sequence:
#
# PCOD9396676 Si02
#       4
#     8   8   8   8
#     4  10  21  36  57  85 113 152 201 243 291 352
#     4  10  21  38  60  88 118 150 194 245 297 363
#     4  10  21  38  59  85 120 155 195 247 301 355
#     4  10  21  36  53  78 114 152 192 239 293 348
#
# _framework density 21.440866
#
# number of rings (size 3 to 8) (size 9 to 14) (size 15 to 20)
#    0.000    2.000    0.000    3.000    0.000    4.000 
#    0.000    2.500    0.000    6.000    0.000    0.000 
#    0.000    0.000    0.000    0.000    0.000    0.000 
#
# Total GULP energy -178170.432798 kJ/mol
# GULP energy per Si atom -5567.826025 kJ/mol
# Density = 2.139207 g / cm^3
# Si number density = 21.440866 Si / 1000 Ang^3
#
#
#
# Elastic Constant Matrix: (Units=GPa)
#
#
# Indices 1 2 3 4 5 6 
#
# 1 51.4173 1.5730 41.4097 0.0000 0.0000 0.0000
# 2 1.5730 160.1026 43.1562 0.0000 0.0000 0.0000
# 3 41.4097 43.1562 101.9776 0.0000 0.0000 0.0000
# 4 0.0000 0.0000 0.0000 46.1978 0.0000 0.0000
# 5 0.0000 0.0000 0.0000 0.0000 2.4580 0.0000
# 6 0.0000 0.0000 0.0000 0.0000 0.0000 11.2113
#
#
#
# Elastic Compliance Matrix: (Units=1/GPa)
#
#
# Indices 1 2 3 4 5 6 
#
# 1 0.030480 0.003428 -0.013828 0.000000 0.000000 0.000000
# 2 0.003428 0.007436 -0.004539 0.000000 0.000000 0.000000
# 3 -0.013828 -0.004539 0.017342 0.000000 0.000000 0.000000
# 4 0.000000 0.000000 0.000000 0.021646 0.000000 0.000000
# 5 0.000000 0.000000 0.000000 0.000000 0.406832 0.000000
# 6 0.000000 0.000000 0.000000 0.000000 0.000000 0.089196
#
#
# Mechanical properties :
#
#
# Convention : Reuss Voigt Hill
#
# Bulk Modulus (GPa) = 39.40005 53.97504 46.68755
# Shear Modulus (GPa) = 8.17971 27.13064 17.65517
#
# Velocity S-wave (km/s) = 1.95532 3.56106 2.87267
# Velocity P-wave (km/s) = 4.84910 6.49129 5.72933
#
# Compressibility (1/GPa) = 0.02538068
#
# Stress axis : x y z
#
# Youngs Moduli (GPa) = 32.80831 134.48582 57.66445
#
# Poissons Ratio (x) = -0.46099 0.79736
# Poissons Ratio (y) = -0.11246 0.26172
# Poissons Ratio (z) = 0.45366 0.61039
#
# Static dielectric constant tensor:
#      x y z
#    x 1.722630 0.000000 0.000000 
#    y 0.000000 1.877420 0.000000 
#    z 0.000000 0.000000 1.902420 
# 
# From -- ./inp_files/7888.got.cif
#   From: 2010.05.17/outbox.cif.g08.bks.cpg/sg50_4_cif.got.tgz:7888.got - 2010.06.03 11:33:33.
