data_PCOD9396428
_publ_section_title
;
Structure prediction by ZEFSAII (Michael W. Deem and Ramdas Pophale) SiO2 
 PCOD9396428
Probable space group: P B A N
;
_chemical_formula_sum "Si O2"
_cell_formula_units_Z 48
_cell_length_a 5.337880
_cell_length_b 28.189769
_cell_length_c 14.201834
_cell_angle_alpha 90.000000
_cell_angle_beta 90.000000
_cell_angle_gamma 90.000000
_cell_volume 2137.001148
_symmetry_space_group_name_H-M "P B A N"
_symmetry_group_IT_number 50
_space_group.IT_coordinate_system_code '2'
_symmetry_cell_setting 'orthorhombic'
loop_
_space_group_symop_operation_xyz
x,y,z
1/2-x,1/2-y,z
x,1/2-y,-z
1/2-x,y,-z
-x,-y,-z
1/2+x,1/2+y,-z
-x,1/2+y,z
1/2+x,-y,z
loop_
_atom_site_type_symbol
_atom_site_label
_atom_site_fract_x
_atom_site_fract_y
_atom_site_fract_z
Si Si1 0.996911 0.717777 0.289499
Si Si2 0.180358 0.019403 0.393555
Si Si3 0.501322 0.114574 0.201174
Si Si4 0.762560 0.194168 0.105772
Si Si5 0.996419 0.884950 0.677979
Si Si6 0.495868 0.520168 0.106783
O O1 0.750000 0.750000 0.299369
O O2 0.993878 0.670343 0.353895
O O3 0.250000 0.750000 0.301971
O O4 0.017147 0.694065 0.184179
O O5 0.250000 0.004755 0.500000
O O6 0.068563 0.072641 0.393288
O O7 0.458166 0.012605 0.349829
O O8 0.543732 0.167016 0.160190
O O9 0.235863 0.109424 0.250112
O O10 0.523818 0.076237 0.117743
O O11 0.735247 0.106927 0.272220
O O12 0.750000 0.250000 0.093430
O O13 0.750000 0.173840 0.000000
O O14 0.253303 0.496776 0.151497
O O15 0.500000 0.500000 0.000000
#
# Coordination Sequence:
#
# PCOD9396428 Si02
#       6
#     8   8   8   8   8   8
#     4  10  20  38  59  83 116 150 197 244 297 350
#     4  10  22  40  64  94 126 157 189 236 296 354
#     4  11  23  37  57  83 113 151 200 245 291 350
#     4   9  19  36  55  77 107 145 193 251 298 339
#     4  11  22  38  61  90 115 153 195 242 291 351
#     4  10  22  38  53  71 104 148 191 234 289 345
#
# _framework density 22.461380999999999
#
# number of rings (size 3 to 8) (size 9 to 14) (size 15 to 20)
#    0.000    1.833    0.000    5.000    2.333    4.000 
#    3.000   18.333    0.000    0.500    0.000    4.667 
#    0.000    0.000    0.000    0.000    0.000    0.000 
#
# Total GULP energy -267266.682388 kJ/mol
# GULP energy per Si atom -5568.055883 kJ/mol
# Density = 2.241026 g / cm^3
# Si number density = 22.461381 Si / 1000 Ang^3
#
#
#
# Elastic Constant Matrix: (Units=GPa)
#
#
# Indices 1 2 3 4 5 6 
#
# 1 172.5087 49.8990 17.3848 0.0000 0.0000 0.0000
# 2 49.8990 147.7789 10.7574 0.0000 0.0000 0.0000
# 3 17.3848 10.7574 27.9234 0.0000 0.0000 0.0000
# 4 0.0000 0.0000 0.0000 25.5528 0.0000 0.0000
# 5 0.0000 0.0000 0.0000 0.0000 36.0977 0.0000
# 6 0.0000 0.0000 0.0000 0.0000 0.0000 38.9067
#
#
#
# Elastic Compliance Matrix: (Units=1/GPa)
#
#
# Indices 1 2 3 4 5 6 
#
# 1 0.006725 -0.002023 -0.003408 0.000000 0.000000 0.000000
# 2 -0.002023 0.007571 -0.001657 0.000000 0.000000 0.000000
# 3 -0.003408 -0.001657 0.038572 0.000000 0.000000 0.000000
# 4 0.000000 0.000000 0.000000 0.039135 0.000000 0.000000
# 5 0.000000 0.000000 0.000000 0.000000 0.027703 0.000000
# 6 0.000000 0.000000 0.000000 0.000000 0.000000 0.025703
#
#
# Mechanical properties :
#
#
# Convention : Reuss Voigt Hill
#
# Bulk Modulus (GPa) = 25.84471 56.03262 40.93866
# Shear Modulus (GPa) = 28.98867 38.12275 33.55571
#
# Velocity S-wave (km/s) = 3.59639 4.12425 3.86933
# Velocity P-wave (km/s) = 5.36439 6.90504 6.18289
#
# Compressibility (1/GPa) = 0.03869264
#
# Stress axis : x y z
#
# Youngs Moduli (GPa) = 148.69119 132.09131 25.92529
#
# Poissons Ratio (x) = 0.26720 0.08835
# Poissons Ratio (y) = 0.30077 0.04296
# Poissons Ratio (z) = 0.50672 0.21889
#
# Static dielectric constant tensor:
#      x y z
#    x 1.858450 0.000000 0.000000 
#    y 0.000000 1.854860 0.000000 
#    z 0.000000 0.000000 1.874530 
# 
# From -- ./inp_files/24068.got.cif
#   From: 2010.05.17/outbox.cif.g08.bks.cpg/sg50_13_cif.got.tgz:24068.got - 2010.06.03 11:33:33.
