data_PCOD9396983
_publ_section_title
;
Structure prediction by ZEFSAII (Michael W. Deem and Ramdas Pophale) SiO2 
 PCOD9396983
Probable space group: P B A N
;
_chemical_formula_sum "Si O2"
_cell_formula_units_Z 34
_cell_length_a 13.734798
_cell_length_b 5.648265
_cell_length_c 17.946001
_cell_angle_alpha 90.000000
_cell_angle_beta 90.000000
_cell_angle_gamma 90.000000
_cell_volume 1392.210896
_symmetry_space_group_name_H-M "P B A N"
_symmetry_group_IT_number 50
_space_group.IT_coordinate_system_code '2'
_symmetry_cell_setting 'orthorhombic'
loop_
_space_group_symop_operation_xyz
x,y,z
1/2-x,1/2-y,z
x,1/2-y,-z
1/2-x,y,-z
-x,-y,-z
1/2+x,1/2+y,-z
-x,1/2+y,z
1/2+x,-y,z
loop_
_atom_site_type_symbol
_atom_site_label
_atom_site_fract_x
_atom_site_fract_y
_atom_site_fract_z
Si Si1 0.250000 0.250000 0.500000
Si Si2 0.357941 0.865468 0.576333
Si Si3 0.101644 0.882495 0.259647
Si Si4 0.118462 0.110194 0.796388
Si Si5 0.639982 0.504845 0.029987
O O1 0.175206 0.376553 0.554171
O O2 0.250000 0.750000 0.588778
O O3 0.399150 0.750000 0.500000
O O4 0.417297 0.878674 0.651713
O O5 0.151323 0.127372 0.231143
O O6 0.998357 0.875378 0.217177
O O7 0.151290 0.627638 0.246198
O O8 0.138906 0.043865 0.881679
O O9 0.595256 0.750000 0.000000
O O10 0.750000 0.505506 0.000000
O O11 0.603095 0.250000 0.000000
#
# Coordination Sequence:
#
# PCOD9396983 Si02
#       5
#     2   8   8   8   8
#     4   8  18  36  60  86 124 160 216 262 306 360
#     4   9  20  38  62  93 125 168 219 260 315 373
#     4  10  22  41  62  91 129 169 204 260 321 376
#     4  10  22  42  62  90 131 160 211 254 325 380
#     4  10  21  41  65  92 123 159 213 263 314 378
#
# _framework density 24.421588
#
# number of rings (size 3 to 8) (size 9 to 14) (size 15 to 20)
#    0.000    2.588    0.000    1.412    6.588    0.000 
#   12.706   18.824    0.000    0.000    0.000    0.000 
#    0.000    0.000    0.000    0.000    0.000    0.000 
#
# Total GULP energy -189535.777108 kJ/mol
# GULP energy per Si atom -5574.581680 kJ/mol
# Density = 2.436600 g / cm^3
# Si number density = 24.421588 Si / 1000 Ang^3
#
#
#
# Elastic Constant Matrix: (Units=GPa)
#
#
# Indices 1 2 3 4 5 6 
#
# 1 92.1920 16.5946 19.4565 0.0000 0.0000 0.0000
# 2 16.5946 243.4605 59.4998 0.0000 0.0000 0.0000
# 3 19.4565 59.4998 219.3111 0.0000 0.0000 0.0000
# 4 0.0000 0.0000 0.0000 81.1326 0.0000 0.0000
# 5 0.0000 0.0000 0.0000 0.0000 93.9828 0.0000
# 6 0.0000 0.0000 0.0000 0.0000 0.0000 -125.1923
#
#
#
# Elastic Compliance Matrix: (Units=1/GPa)
#
#
# Indices 1 2 3 4 5 6 
#
# 1 0.011123 -0.000554 -0.000837 0.000000 0.000000 0.000000
# 2 -0.000554 0.004427 -0.001152 0.000000 0.000000 0.000000
# 3 -0.000837 -0.001152 0.004946 0.000000 0.000000 0.000000
# 4 0.000000 0.000000 0.000000 0.012326 0.000000 0.000000
# 5 0.000000 0.000000 0.000000 0.000000 0.010640 0.000000
# 6 0.000000 0.000000 0.000000 0.000000 0.000000 -0.007988
#
#
# Mechanical properties :
#
#
# Convention : Reuss Voigt Hill
#
# Bulk Modulus (GPa) = 64.88451 82.89614 73.89033
# Shear Modulus (GPa) = 109.41885 40.61213 75.01549
#
# Velocity S-wave (km/s) = 6.70085 4.08236 5.54829
# Velocity P-wave (km/s) = 9.30025 7.49923 8.44787
#
# Compressibility (1/GPa) = 0.01541200
#
# Stress axis : x y z
#
# Youngs Moduli (GPa) = 89.90253 225.90253 202.16507
#
# Poissons Ratio (x) = 0.12509 0.16913
# Poissons Ratio (y) = 0.04978 0.23286
# Poissons Ratio (z) = 0.07521 0.26021
#
# Static dielectric constant tensor:
#      x y z
#    x 2.035110 0.000000 0.000000 
#    y 0.000000 2.048480 0.000000 
#    z 0.000000 0.000000 1.807810 
# 
# From -- ./inp_files/27092.got.cif
#   From: 2010.05.17/outbox.cif.g08.bks.cpg/sg50_14_cif.got.tgz:27092.got - 2010.06.03 11:33:33.
