data_PCOD9396016
_publ_section_title
;
Structure prediction by ZEFSAII (Michael W. Deem and Ramdas Pophale) SiO2 
 PCOD9396016
Probable space group: P B A N
;
_chemical_formula_sum "Si O2"
_cell_formula_units_Z 56
_cell_length_a 11.566647
_cell_length_b 17.989786
_cell_length_c 14.372099
_cell_angle_alpha 90.000000
_cell_angle_beta 90.000000
_cell_angle_gamma 90.000000
_cell_volume 2990.567979
_symmetry_space_group_name_H-M "P B A N"
_symmetry_group_IT_number 50
_space_group.IT_coordinate_system_code '2'
_symmetry_cell_setting 'orthorhombic'
loop_
_space_group_symop_operation_xyz
x,y,z
1/2-x,1/2-y,z
x,1/2-y,-z
1/2-x,y,-z
-x,-y,-z
1/2+x,1/2+y,-z
-x,1/2+y,z
1/2+x,-y,z
loop_
_atom_site_type_symbol
_atom_site_label
_atom_site_fract_x
_atom_site_fract_y
_atom_site_fract_z
Si Si1 0.502674 0.085083 0.466804
Si Si2 0.629139 0.717359 0.896032
Si Si3 0.135460 0.088647 0.234736
Si Si4 0.540958 0.281776 0.754273
Si Si5 0.336420 0.577336 0.284553
Si Si6 0.905565 0.362519 0.656650
Si Si7 0.183512 0.325955 0.367108
O O1 0.579606 0.081329 0.374117
O O2 0.562643 0.132398 0.548328
O O3 0.377882 0.122325 0.445122
O O4 0.500000 0.000000 0.500000
O O5 0.750000 0.750000 0.856066
O O6 0.636665 0.631004 0.864696
O O7 0.514912 0.746648 0.845538
O O8 0.625626 0.750000 0.000000
O O9 0.231326 0.125463 0.302764
O O10 0.014211 0.105297 0.285844
O O11 0.153428 0.000862 0.233091
O O12 0.618518 0.352971 0.774775
O O13 0.608839 0.221094 0.693630
O O14 0.427070 0.301153 0.693802
O O15 0.207443 0.590607 0.320254
O O16 0.250000 0.250000 0.395246
#
# Coordination Sequence:
#
# PCOD9396016 Si02
#       7
#     8   8   8   8   8   8   8
#     4  11  23  39  55  88 125 168 215 268 318 345
#     4  10  19  37  69  97 122 149 193 262 321 388
#     4  11  21  38  60  90 122 155 207 259 317 381
#     4  10  21  41  59  87 120 162 208 252 320 372
#     4  11  24  37  62  80 125 174 207 258 308 372
#     4  11  22  39  55  84 122 170 222 250 301 374
#     4  11  20  38  59  86 118 156 212 270 305 369
#
# _framework density 18.725539000000001
#
# number of rings (size 3 to 8) (size 9 to 14) (size 15 to 20)
#    0.000    1.286    5.714    1.714    2.000    2.857 
#    2.571    3.571    0.000    8.571    0.000    0.000 
#    0.000    0.000    0.000    0.000    0.000    0.000 
#
# Total GULP energy -312419.384083 kJ/mol
# GULP energy per Si atom -5578.917573 kJ/mol
# Density = 1.868292 g / cm^3
# Si number density = 18.725539 Si / 1000 Ang^3
#
#
#
# Elastic Constant Matrix: (Units=GPa)
#
#
# Indices 1 2 3 4 5 6 
#
# 1 79.3762 39.7068 19.8133 0.0000 0.0000 0.0000
# 2 39.7068 161.3979 51.9262 0.0000 0.0000 0.0000
# 3 19.8133 51.9262 77.6960 0.0000 0.0000 0.0000
# 4 0.0000 0.0000 0.0000 23.0296 0.0000 0.0000
# 5 0.0000 0.0000 0.0000 0.0000 18.6867 0.0000
# 6 0.0000 0.0000 0.0000 0.0000 0.0000 23.5728
#
#
#
# Elastic Compliance Matrix: (Units=1/GPa)
#
#
# Indices 1 2 3 4 5 6 
#
# 1 0.014536 -0.003036 -0.001678 0.000000 0.000000 0.000000
# 2 -0.003036 0.008527 -0.004925 0.000000 0.000000 0.000000
# 3 -0.001678 -0.004925 0.016590 0.000000 0.000000 0.000000
# 4 0.000000 0.000000 0.000000 0.043422 0.000000 0.000000
# 5 0.000000 0.000000 0.000000 0.000000 0.053514 0.000000
# 6 0.000000 0.000000 0.000000 0.000000 0.000000 0.042422
#
#
# Mechanical properties :
#
#
# Convention : Reuss Voigt Hill
#
# Bulk Modulus (GPa) = 49.07800 60.15144 54.61472
# Shear Modulus (GPa) = 24.38072 26.85941 25.62006
#
# Velocity S-wave (km/s) = 3.61224 3.79142 3.70292
# Velocity P-wave (km/s) = 6.60786 7.16651 6.89285
#
# Compressibility (1/GPa) = 0.02037573
#
# Stress axis : x y z
#
# Youngs Moduli (GPa) = 68.79533 117.27061 60.27818
#
# Poissons Ratio (x) = 0.35608 0.10112
# Poissons Ratio (y) = 0.20889 0.29685
# Poissons Ratio (z) = 0.11540 0.57752
#
# Static dielectric constant tensor:
#      x y z
#    x 1.645780 0.000000 0.000000 
#    y 0.000000 1.693580 0.000000 
#    z 0.000000 0.000000 1.677170 
# 
# From -- ./inp_files/25935.got.cif
#   From: 2010.05.17/outbox.cif.g08.bks.cpg/sg50_13_cif.got.tgz:25935.got - 2010.06.03 11:33:33.
