data_PCOD9396237
_publ_section_title
;
Structure prediction by ZEFSAII (Michael W. Deem and Ramdas Pophale) SiO2 
 PCOD9396237
Probable space group: P B A N
;
_chemical_formula_sum "Si O2"
_cell_formula_units_Z 54
_cell_length_a 30.632927
_cell_length_b 5.679504
_cell_length_c 16.183734
_cell_angle_alpha 90.000000
_cell_angle_beta 90.000000
_cell_angle_gamma 90.000000
_cell_volume 2815.643313
_symmetry_space_group_name_H-M "P B A N"
_symmetry_group_IT_number 50
_space_group.IT_coordinate_system_code '2'
_symmetry_cell_setting 'orthorhombic'
loop_
_space_group_symop_operation_xyz
x,y,z
1/2-x,1/2-y,z
x,1/2-y,-z
1/2-x,y,-z
-x,-y,-z
1/2+x,1/2+y,-z
-x,1/2+y,z
1/2+x,-y,z
loop_
_atom_site_type_symbol
_atom_site_label
_atom_site_fract_x
_atom_site_fract_y
_atom_site_fract_z
Si Si1 0.250000 0.750000 0.000000
Si Si2 0.818137 0.900309 0.080606
Si Si3 0.385565 0.707442 0.816419
Si Si4 0.707415 0.383924 0.612798
Si Si5 0.636196 0.992800 0.657511
Si Si6 0.344687 0.250000 0.500000
Si Si7 0.684921 0.895607 0.231813
Si Si8 0.522986 0.262976 0.900465
O O1 0.217970 0.588769 0.054134
O O2 0.799043 0.725257 0.149203
O O3 0.859288 0.027428 0.123937
O O4 0.830795 0.750000 0.000000
O O5 0.396391 0.596497 0.726046
O O6 0.429158 0.784936 0.861415
O O7 0.351244 0.915337 0.797123
O O8 0.750000 0.250000 0.584553
O O9 0.669031 0.199707 0.631385
O O10 0.687410 0.569755 0.548325
O O11 0.718385 0.492886 0.703198
O O12 0.625704 0.871305 0.570422
O O13 0.661827 0.799690 0.711258
O O14 0.497201 0.505005 0.877152
O O15 0.525883 0.250000 0.000000
#
# Coordination Sequence:
#
# PCOD9396237 Si02
#       8
#     2   8   8   8   8   4   8   8
#     4  12  26  44  48  90 108 156 236 276 324 362
#     4  11  24  41  58  81 115 165 217 275 318 375
#     4  10  22  41  64  88 128 161 210 256 331 382
#     4  10  21  38  55  84 117 157 205 258 324 373
#     4   9  20  37  55  87 113 159 200 251 307 377
#     4  10  20  35  60  82 122 152 210 254 314 380
#     4   9  21  40  56  81 112 161 205 260 315 377
#     4  10  24  41  66 103 134 169 213 268 325 400
#
# _framework density 19.178564000000001
#
# number of rings (size 3 to 8) (size 9 to 14) (size 15 to 20)
#    0.000    2.074    0.000    1.556    7.259    4.741 
#   32.000    0.000    1.630    0.000    0.000    1.037 
#    0.000    0.000    0.000    0.000    0.000    0.000 
#
# Total GULP energy -301245.442024 kJ/mol
# GULP energy per Si atom -5578.619297 kJ/mol
# Density = 1.913491 g / cm^3
# Si number density = 19.178564 Si / 1000 Ang^3
#
#
#
# Elastic Constant Matrix: (Units=GPa)
#
#
# Indices 1 2 3 4 5 6 
#
# 1 62.2204 27.6641 28.2497 0.0000 0.0000 0.0000
# 2 27.6641 107.9294 58.7029 0.0000 0.0000 0.0000
# 3 28.2497 58.7029 137.0998 0.0000 0.0000 0.0000
# 4 0.0000 0.0000 0.0000 28.9841 0.0000 0.0000
# 5 0.0000 0.0000 0.0000 0.0000 13.3392 0.0000
# 6 0.0000 0.0000 0.0000 0.0000 0.0000 11.6328
#
#
#
# Elastic Compliance Matrix: (Units=1/GPa)
#
#
# Indices 1 2 3 4 5 6 
#
# 1 0.018701 -0.003517 -0.002348 0.000000 0.000000 0.000000
# 2 -0.003517 0.012739 -0.004730 0.000000 0.000000 0.000000
# 3 -0.002348 -0.004730 0.009803 0.000000 0.000000 0.000000
# 4 0.000000 0.000000 0.000000 0.034502 0.000000 0.000000
# 5 0.000000 0.000000 0.000000 0.000000 0.074967 0.000000
# 6 0.000000 0.000000 0.000000 0.000000 0.000000 0.085964
#
#
# Mechanical properties :
#
#
# Convention : Reuss Voigt Hill
#
# Bulk Modulus (GPa) = 49.86292 59.60921 54.73607
# Shear Modulus (GPa) = 18.89999 23.63340 21.26670
#
# Velocity S-wave (km/s) = 3.14263 3.51420 3.33360
# Velocity P-wave (km/s) = 6.26290 6.90034 6.58933
#
# Compressibility (1/GPa) = 0.02005498
#
# Stress axis : x y z
#
# Youngs Moduli (GPa) = 53.47208 78.49677 102.00910
#
# Poissons Ratio (x) = 0.27603 0.23949
# Poissons Ratio (y) = 0.18804 0.48252
# Poissons Ratio (z) = 0.12554 0.37130
#
# Static dielectric constant tensor:
#      x y z
#    x 1.616230 0.000000 0.000000 
#    y 0.000000 1.764430 0.000000 
#    z 0.000000 0.000000 1.717460 
# 
# From -- ./inp_files/27783.got.cif
#   From: 2010.05.17/outbox.cif.g08.bks.cpg/sg50_14_cif.got.tgz:27783.got - 2010.06.03 11:33:33.
