data_PCOD9396003
_publ_section_title
;
Structure prediction by ZEFSAII (Michael W. Deem and Ramdas Pophale) SiO2 
 PCOD9396003
Probable space group: P B A N
;
_chemical_formula_sum "Si O2"
_cell_formula_units_Z 58
_cell_length_a 9.108587
_cell_length_b 29.411407
_cell_length_c 11.139309
_cell_angle_alpha 90.000000
_cell_angle_beta 90.000000
_cell_angle_gamma 90.000000
_cell_volume 2984.180328
_symmetry_space_group_name_H-M "P B A N"
_symmetry_group_IT_number 50
_space_group.IT_coordinate_system_code '2'
_symmetry_cell_setting 'orthorhombic'
loop_
_space_group_symop_operation_xyz
x,y,z
1/2-x,1/2-y,z
x,1/2-y,-z
1/2-x,y,-z
-x,-y,-z
1/2+x,1/2+y,-z
-x,1/2+y,z
1/2+x,-y,z
loop_
_atom_site_type_symbol
_atom_site_label
_atom_site_fract_x
_atom_site_fract_y
_atom_site_fract_z
Si Si1 0.750000 0.250000 0.000000
Si Si2 0.410698 0.700263 0.547211
Si Si3 0.573894 0.611203 0.497067
Si Si4 0.180851 0.423301 0.129150
Si Si5 0.399007 0.602170 0.248888
Si Si6 0.965926 0.906459 0.763190
Si Si7 0.839295 0.322483 0.807219
Si Si8 0.312999 0.531008 0.865834
O O1 0.830686 0.285894 0.912320
O O2 0.440007 0.750000 0.500000
O O3 0.250000 0.684261 0.500000
O O4 0.534710 0.664483 0.512006
O O5 0.391618 0.703040 0.688909
O O6 0.750000 0.602918 0.500000
O O7 0.484500 0.597784 0.376174
O O8 0.504731 0.590307 0.620407
O O9 0.293123 0.401683 0.222970
O O10 0.179030 0.477335 0.152335
O O11 0.022074 0.402690 0.147108
O O12 0.250000 0.415215 0.000000
O O13 0.309505 0.649040 0.226187
O O14 0.287707 0.560224 0.225257
O O15 0.045714 0.863423 0.822334
O O16 0.025220 0.949140 0.839355
O O17 0.250000 0.539327 0.000000
#
# Coordination Sequence:
#
# PCOD9396003 Si02
#       8
#     2   8   8   8   8   8   8   8
#     4  12  24  40  62  94 128 148 204 252 296 356
#     4  10  19  37  63  88 110 149 207 250 294 350
#     4  11  22  40  59  88 125 161 202 250 306 368
#     4  11  22  38  63  88 121 159 205 251 299 365
#     4  11  22  39  63  88 123 164 199 244 312 351
#     4  10  22  39  60  90 123 160 203 244 308 354
#     4  10  24  37  61  91 121 155 195 249 296 358
#     4  10  22  39  61  91 119 157 211 258 290 352
#
# _framework density 19.435821000000001
#
# number of rings (size 3 to 8) (size 9 to 14) (size 15 to 20)
#    0.000    1.517    2.759    2.483    5.793    2.483 
#    0.000    4.138    0.000    1.655    0.000    0.000 
#    0.000    0.000    0.000    0.000    0.000    0.000 
#
# Total GULP energy -323449.044697 kJ/mol
# GULP energy per Si atom -5576.707667 kJ/mol
# Density = 1.939158 g / cm^3
# Si number density = 19.435821 Si / 1000 Ang^3
#
#
#
# Elastic Constant Matrix: (Units=GPa)
#
#
# Indices 1 2 3 4 5 6 
#
# 1 68.6454 17.2016 4.2750 0.0000 0.0000 0.0000
# 2 17.2016 67.2539 45.3027 0.0000 0.0000 0.0000
# 3 4.2750 45.3027 82.0654 0.0000 0.0000 0.0000
# 4 0.0000 0.0000 0.0000 14.2808 0.0000 0.0000
# 5 0.0000 0.0000 0.0000 0.0000 14.5038 0.0000
# 6 0.0000 0.0000 0.0000 0.0000 0.0000 8.2518
#
#
#
# Elastic Compliance Matrix: (Units=1/GPa)
#
#
# Indices 1 2 3 4 5 6 
#
# 1 0.015821 -0.005558 0.002244 0.000000 0.000000 0.000000
# 2 -0.005558 0.025624 -0.013856 0.000000 0.000000 0.000000
# 3 0.002244 -0.013856 0.019717 0.000000 0.000000 0.000000
# 4 0.000000 0.000000 0.000000 0.070024 0.000000 0.000000
# 5 0.000000 0.000000 0.000000 0.000000 0.068947 0.000000
# 6 0.000000 0.000000 0.000000 0.000000 0.000000 0.121186
#
#
# Mechanical properties :
#
#
# Convention : Reuss Voigt Hill
#
# Bulk Modulus (GPa) = 37.28215 39.05815 38.17015
# Shear Modulus (GPa) = 13.71368 17.48631 15.60000
#
# Velocity S-wave (km/s) = 2.65917 3.00275 2.83617
# Velocity P-wave (km/s) = 5.35277 5.67112 5.51424
#
# Compressibility (1/GPa) = 0.02682248
#
# Stress axis : x y z
#
# Youngs Moduli (GPa) = 63.20854 39.02602 50.71689
#
# Poissons Ratio (x) = 0.21691 -0.11381
# Poissons Ratio (y) = 0.35132 0.70272
# Poissons Ratio (z) = -0.14185 0.54073
#
# Static dielectric constant tensor:
#      x y z
#    x 1.706680 0.000000 0.000000 
#    y 0.000000 1.685910 0.000000 
#    z 0.000000 0.000000 1.732510 
# 
# From -- ./inp_files/19496.got.cif
#   From: 2010.05.17/outbox.cif.g08.bks.cpg/sg50_10_cif.got.tgz:19496.got - 2010.06.03 11:33:33.
