data_PCOD9396051
_publ_section_title
;
Structure prediction by ZEFSAII (Michael W. Deem and Ramdas Pophale) SiO2 
 PCOD9396051
Probable space group: P B A N
;
_chemical_formula_sum "Si O2"
_cell_formula_units_Z 52
_cell_length_a 9.011274
_cell_length_b 17.604166
_cell_length_c 15.668323
_cell_angle_alpha 90.000000
_cell_angle_beta 90.000000
_cell_angle_gamma 90.000000
_cell_volume 2485.559513
_symmetry_space_group_name_H-M "P B A N"
_symmetry_group_IT_number 50
_space_group.IT_coordinate_system_code '2'
_symmetry_cell_setting 'orthorhombic'
loop_
_space_group_symop_operation_xyz
x,y,z
1/2-x,1/2-y,z
x,1/2-y,-z
1/2-x,y,-z
-x,-y,-z
1/2+x,1/2+y,-z
-x,1/2+y,z
1/2+x,-y,z
loop_
_atom_site_type_symbol
_atom_site_label
_atom_site_fract_x
_atom_site_fract_y
_atom_site_fract_z
Si Si1 0.233248 0.918784 0.399369
Si Si2 0.197784 0.050680 0.738200
Si Si3 0.250000 0.750000 0.000000
Si Si4 0.844592 0.388206 0.892685
Si Si5 0.566117 0.675947 0.357260
Si Si6 0.067498 0.508423 0.861591
Si Si7 0.750000 0.750000 0.500000
Si Si8 0.614129 0.307319 0.284225
O O1 0.250000 0.936150 0.500000
O O2 0.351031 0.855017 0.369478
O O3 0.074323 0.879746 0.376923
O O4 0.265834 0.989464 0.336157
O O5 0.188293 0.130960 0.694934
O O6 0.318868 0.044697 0.811121
O O7 0.043176 0.040065 0.789030
O O8 0.155681 0.809049 0.943166
O O9 0.678860 0.425983 0.896601
O O10 0.883555 0.365182 0.794995
O O11 0.962713 0.453475 0.918107
O O12 0.641384 0.699716 0.443940
O O13 0.517011 0.749741 0.304303
O O14 0.750000 0.250000 0.266628
#
# Coordination Sequence:
#
# PCOD9396051 Si02
#       8
#     8   8   2   8   8   8   2   8
#     4  11  22  37  64  92 127 182 239 288 335 399
#     4  11  21  39  64  98 125 178 235 278 334 395
#     4  12  28  44  80 114 138 178 216 274 344 440
#     4  11  23  44  75 105 138 174 229 271 343 420
#     4  11  25  39  56  89 132 179 232 287 351 392
#     4  10  21  42  72 100 133 177 223 276 338 414
#     4  12  28  40  50  88 144 178 230 310 356 368
#     4  10  19  40  65  88 128 179 225 273 337 412
#
# _framework density 20.920842
#
# number of rings (size 3 to 8) (size 9 to 14) (size 15 to 20)
#    0.000    1.231    5.385    1.846    3.231    4.615 
#    0.000    0.000    0.000    3.692    0.000    0.000 
#    0.000    0.000    0.000    0.000    0.000    0.000 
#
# Total GULP energy -290140.771688 kJ/mol
# GULP energy per Si atom -5579.630225 kJ/mol
# Density = 2.087323 g / cm^3
# Si number density = 20.920842 Si / 1000 Ang^3
#
#
#
# Elastic Constant Matrix: (Units=GPa)
#
#
# Indices 1 2 3 4 5 6 
#
# 1 90.3327 50.4976 27.5922 0.0000 0.0000 0.0000
# 2 50.4976 116.8585 40.5696 0.0000 0.0000 0.0000
# 3 27.5922 40.5696 73.4323 0.0000 0.0000 0.0000
# 4 0.0000 0.0000 0.0000 53.5637 0.0000 0.0000
# 5 0.0000 0.0000 0.0000 0.0000 10.6281 0.0000
# 6 0.0000 0.0000 0.0000 0.0000 0.0000 15.3963
#
#
#
# Elastic Compliance Matrix: (Units=1/GPa)
#
#
# Indices 1 2 3 4 5 6 
#
# 1 0.014969 -0.005587 -0.002538 0.000000 0.000000 0.000000
# 2 -0.005587 0.012674 -0.004903 0.000000 0.000000 0.000000
# 3 -0.002538 -0.004903 0.017280 0.000000 0.000000 0.000000
# 4 0.000000 0.000000 0.000000 0.018669 0.000000 0.000000
# 5 0.000000 0.000000 0.000000 0.000000 0.094091 0.000000
# 6 0.000000 0.000000 0.000000 0.000000 0.000000 0.064951
#
#
# Mechanical properties :
#
#
# Convention : Reuss Voigt Hill
#
# Bulk Modulus (GPa) = 53.00109 57.54913 55.27511
# Shear Modulus (GPa) = 19.60959 26.71523 23.16241
#
# Velocity S-wave (km/s) = 3.06489 3.57734 3.33099
# Velocity P-wave (km/s) = 6.15742 6.68064 6.42436
#
# Compressibility (1/GPa) = 0.01886754
#
# Stress axis : x y z
#
# Youngs Moduli (GPa) = 66.80579 78.90282 57.87031
#
# Poissons Ratio (x) = 0.44086 0.14685
# Poissons Ratio (y) = 0.37327 0.28371
# Poissons Ratio (z) = 0.16953 0.38682
#
# Static dielectric constant tensor:
#      x y z
#    x 1.799030 0.000000 0.000000 
#    y 0.000000 1.753250 0.000000 
#    z 0.000000 0.000000 1.793080 
# 
# From -- ./inp_files/28872.got.cif
#   From: 2010.05.17/outbox.cif.g08.bks.cpg/sg50_15_cif.got.tgz:28872.got - 2010.06.03 11:33:33.
