data_PCOD9396267
_publ_section_title
;
Structure prediction by ZEFSAII (Michael W. Deem and Ramdas Pophale) SiO2 
 PCOD9396267
Probable space group: P B A N
;
_chemical_formula_sum "Si O2"
_cell_formula_units_Z 64
_cell_length_a 8.703301
_cell_length_b 14.967280
_cell_length_c 26.633116
_cell_angle_alpha 90.000000
_cell_angle_beta 90.000000
_cell_angle_gamma 90.000000
_cell_volume 3469.356011
_symmetry_space_group_name_H-M "P B A N"
_symmetry_group_IT_number 50
_space_group.IT_coordinate_system_code '2'
_symmetry_cell_setting 'orthorhombic'
loop_
_space_group_symop_operation_xyz
x,y,z
1/2-x,1/2-y,z
x,1/2-y,-z
1/2-x,y,-z
-x,-y,-z
1/2+x,1/2+y,-z
-x,1/2+y,z
1/2+x,-y,z
loop_
_atom_site_type_symbol
_atom_site_label
_atom_site_fract_x
_atom_site_fract_y
_atom_site_fract_z
Si Si1 0.435664 0.765941 0.556587
Si Si2 0.935123 0.399843 0.998132
Si Si3 0.935132 0.093039 0.253880
Si Si4 0.888162 0.422815 0.376624
Si Si5 0.067417 0.246341 0.190470
Si Si6 0.935664 0.248427 0.920272
Si Si7 0.974517 0.114249 0.367222
Si Si8 0.931276 0.103401 0.736801
O O1 0.250000 0.750000 0.556956
O O2 0.489599 0.750000 0.500000
O O3 0.456293 0.865150 0.578052
O O4 0.506488 0.696426 0.596191
O O5 0.980379 0.336023 0.044875
O O6 0.750000 0.405607 0.000000
O O7 0.979138 0.340377 0.949271
O O8 0.000000 0.500000 0.000000
O O9 0.990775 0.131995 0.307826
O O10 0.751023 0.098011 0.253297
O O11 0.006745 0.151447 0.210119
O O12 0.989970 0.991151 0.251335
O O13 0.704848 0.410670 0.374932
O O14 0.949262 0.384559 0.323312
O O15 0.928569 0.526440 0.379558
O O16 0.250000 0.250000 0.191515
O O17 0.007073 0.260602 0.134320
O O18 0.000846 0.319587 0.229000
O O19 0.750000 0.250000 0.916640
#
# Coordination Sequence:
#
# PCOD9396267 Si02
#       8
#     8   8   8   8   8   8   8   8
#     4   9  17  30  49  73 101 134 170 207 255 318
#     4   9  19  37  62  84 106 141 183 223 265 312
#     4  10  20  36  56  78 106 141 181 224 269 321
#     4   9  18  33  53  75  99 132 173 214 260 313
#     4  12  24  36  54  83 115 147 181 221 270 321
#     4   9  20  39  57  79 112 148 181 217 266 318
#     4   9  18  33  53  75  99 132 173 214 260 313
#     4  10  20  36  56  78 106 141 181 224 269 321
#
# _framework density 18.447229
#
# number of rings (size 3 to 8) (size 9 to 14) (size 15 to 20)
#    0.000    2.375    0.000    3.375    0.000    5.500 
#    0.000    4.375    0.000    0.750    0.000    0.000 
#    0.000    0.000    0.000    0.000    0.000    0.000 
#
# Total GULP energy -357166.834361 kJ/mol
# GULP energy per Si atom -5580.731787 kJ/mol
# Density = 1.840524 g / cm^3
# Si number density = 18.447229 Si / 1000 Ang^3
#
#
#
# Elastic Constant Matrix: (Units=GPa)
#
#
# Indices 1 2 3 4 5 6 
#
# 1 33.1038 14.1726 14.9807 0.0000 0.0000 0.0000
# 2 14.1726 58.5614 6.5472 0.0000 0.0000 0.0000
# 3 14.9807 6.5472 38.3561 0.0000 0.0000 0.0000
# 4 0.0000 0.0000 0.0000 17.6663 0.0000 0.0000
# 5 0.0000 0.0000 0.0000 0.0000 17.0604 0.0000
# 6 0.0000 0.0000 0.0000 0.0000 0.0000 31.0266
#
#
#
# Elastic Compliance Matrix: (Units=1/GPa)
#
#
# Indices 1 2 3 4 5 6 
#
# 1 0.040154 -0.008119 -0.014297 0.000000 0.000000 0.000000
# 2 -0.008119 0.019050 -0.000081 0.000000 0.000000 0.000000
# 3 -0.014297 -0.000081 0.031669 0.000000 0.000000 0.000000
# 4 0.000000 0.000000 0.000000 0.056605 0.000000 0.000000
# 5 0.000000 0.000000 0.000000 0.000000 0.058615 0.000000
# 6 0.000000 0.000000 0.000000 0.000000 0.000000 0.032230
#
#
# Mechanical properties :
#
#
# Convention : Reuss Voigt Hill
#
# Bulk Modulus (GPa) = 21.79626 22.38026 22.08826
# Shear Modulus (GPa) = 16.74419 19.43873 18.09146
#
# Velocity S-wave (km/s) = 3.01604 3.24967 3.13503
# Velocity P-wave (km/s) = 4.89590 5.12239 5.01042
#
# Compressibility (1/GPa) = 0.04587943
#
# Stress axis : x y z
#
# Youngs Moduli (GPa) = 24.90405 52.49319 31.57641
#
# Poissons Ratio (x) = 0.42621 0.45145
# Poissons Ratio (y) = 0.20220 0.00254
# Poissons Ratio (z) = 0.35605 0.00423
#
# Static dielectric constant tensor:
#      x y z
#    x 1.623190 0.000000 0.000000 
#    y 0.000000 1.611960 0.000000 
#    z 0.000000 0.000000 1.631750 
# 
# From -- ./inp_files/31618.got.cif
#   From: 2010.05.17/outbox.cif.g08.bks.cpg/sg50_16_cif.got.tgz:31618.got - 2010.06.03 11:33:33.
