data_PCOD9396788
_publ_section_title
;
Structure prediction by ZEFSAII (Michael W. Deem and Ramdas Pophale) SiO2 
 PCOD9396788
Probable space group: P B A N
;
_chemical_formula_sum "Si O2"
_cell_formula_units_Z 56
_cell_length_a 21.994647
_cell_length_b 11.628455
_cell_length_c 11.294428
_cell_angle_alpha 90.000000
_cell_angle_beta 90.000000
_cell_angle_gamma 90.000000
_cell_volume 2888.705405
_symmetry_space_group_name_H-M "P B A N"
_symmetry_group_IT_number 50
_space_group.IT_coordinate_system_code '2'
_symmetry_cell_setting 'orthorhombic'
loop_
_space_group_symop_operation_xyz
x,y,z
1/2-x,1/2-y,z
x,1/2-y,-z
1/2-x,y,-z
-x,-y,-z
1/2+x,1/2+y,-z
-x,1/2+y,z
1/2+x,-y,z
loop_
_atom_site_type_symbol
_atom_site_label
_atom_site_fract_x
_atom_site_fract_y
_atom_site_fract_z
Si Si1 0.558228 0.636439 0.695629
Si Si2 0.933334 0.197446 0.377074
Si Si3 0.963109 0.813346 0.109994
Si Si4 0.178914 0.888161 0.992419
Si Si5 0.181727 0.227902 0.640583
Si Si6 0.082204 0.898529 0.185295
Si Si7 0.125106 0.009590 0.760201
O O1 0.505161 0.664952 0.602104
O O2 0.529139 0.705815 0.804054
O O3 0.625052 0.690488 0.678031
O O4 0.563595 0.505107 0.732477
O O5 0.910162 0.250000 0.500000
O O6 0.916255 0.291071 0.275351
O O7 0.903633 0.079837 0.331459
O O8 0.029206 0.868132 0.090061
O O9 0.924461 0.910046 0.174794
O O10 0.932735 0.750000 0.000000
O O11 0.155833 0.940207 0.868369
O O12 0.171465 0.750000 0.000000
O O13 0.250000 0.915570 0.000000
O O14 0.140746 0.929483 0.106881
O O15 0.250000 0.250000 0.687409
O O16 0.183965 0.250000 0.500000
O O17 0.165149 0.100120 0.685430
#
# Coordination Sequence:
#
# PCOD9396788 Si02
#       7
#     8   8   8   8   8   8   8
#     4  10  22  38  62  96 130 171 216 271 328 405
#     4  11  24  40  63 102 136 172 214 273 339 401
#     4  10  21  37  62  94 128 167 212 270 336 393
#     4  11  24  41  63  92 129 173 219 274 328 390
#     4  10  24  45  68  92 126 177 225 269 326 386
#     4  11  22  38  65  92 132 174 216 264 339 397
#     4  11  23  44  65  98 133 168 219 278 326 401
#
# _framework density 19.385847999999999
#
# number of rings (size 3 to 8) (size 9 to 14) (size 15 to 20)
#    0.000    1.429    2.857    1.714    6.000    1.714 
#    0.000    0.000    0.000    0.857    0.000    0.000 
#    0.000    0.000    0.000    0.000    0.000    0.000 
#
# Total GULP energy -311963.252219 kJ/mol
# GULP energy per Si atom -5570.772361 kJ/mol
# Density = 1.934172 g / cm^3
# Si number density = 19.385848 Si / 1000 Ang^3
#
#
#
# Elastic Constant Matrix: (Units=GPa)
#
#
# Indices 1 2 3 4 5 6 
#
# 1 100.5884 53.7315 38.0270 0.0000 0.0000 0.0000
# 2 53.7315 138.4797 45.7993 0.0000 0.0000 0.0000
# 3 38.0270 45.7993 93.7201 0.0000 0.0000 0.0000
# 4 0.0000 0.0000 0.0000 35.5786 0.0000 0.0000
# 5 0.0000 0.0000 0.0000 0.0000 29.4349 0.0000
# 6 0.0000 0.0000 0.0000 0.0000 0.0000 12.4201
#
#
#
# Elastic Compliance Matrix: (Units=1/GPa)
#
#
# Indices 1 2 3 4 5 6 
#
# 1 0.013420 -0.004063 -0.003460 0.000000 0.000000 0.000000
# 2 -0.004063 0.009843 -0.003162 0.000000 0.000000 0.000000
# 3 -0.003460 -0.003162 0.013619 0.000000 0.000000 0.000000
# 4 0.000000 0.000000 0.000000 0.028107 0.000000 0.000000
# 5 0.000000 0.000000 0.000000 0.000000 0.033973 0.000000
# 6 0.000000 0.000000 0.000000 0.000000 0.000000 0.080514
#
#
# Mechanical properties :
#
#
# Convention : Reuss Voigt Hill
#
# Bulk Modulus (GPa) = 64.45981 67.54487 66.00234
# Shear Modulus (GPa) = 24.26997 28.50208 26.38603
#
# Velocity S-wave (km/s) = 3.54212 3.83855 3.69331
# Velocity P-wave (km/s) = 7.07474 7.38674 7.23242
#
# Compressibility (1/GPa) = 0.01551354
#
# Stress axis : x y z
#
# Youngs Moduli (GPa) = 74.51789 101.59133 73.42719
#
# Poissons Ratio (x) = 0.41274 0.25403
# Poissons Ratio (y) = 0.30275 0.23216
# Poissons Ratio (z) = 0.25780 0.32121
#
# Static dielectric constant tensor:
#      x y z
#    x 1.750420 0.000000 0.000000 
#    y 0.000000 1.666100 0.000000 
#    z 0.000000 0.000000 1.711960 
# 
# From -- ./inp_files/22392.got.cif
#   From: 2010.05.17/outbox.cif.g08.bks.cpg/sg50_12_cif.got.tgz:22392.got - 2010.06.03 11:33:33.
