data_PCOD9396904
_publ_section_title
;
Structure prediction by ZEFSAII (Michael W. Deem and Ramdas Pophale) SiO2 
 PCOD9396904
Probable space group: P B A N
;
_chemical_formula_sum "Si O2"
_cell_formula_units_Z 48
_cell_length_a 14.588719
_cell_length_b 12.969002
_cell_length_c 9.435275
_cell_angle_alpha 90.000000
_cell_angle_beta 90.000000
_cell_angle_gamma 90.000000
_cell_volume 1785.164653
_symmetry_space_group_name_H-M "P B A N"
_symmetry_group_IT_number 50
_space_group.IT_coordinate_system_code '2'
_symmetry_cell_setting 'orthorhombic'
loop_
_space_group_symop_operation_xyz
x,y,z
1/2-x,1/2-y,z
x,1/2-y,-z
1/2-x,y,-z
-x,-y,-z
1/2+x,1/2+y,-z
-x,1/2+y,z
1/2+x,-y,z
loop_
_atom_site_type_symbol
_atom_site_label
_atom_site_fract_x
_atom_site_fract_y
_atom_site_fract_z
Si Si1 0.422825 0.573470 0.705797
Si Si2 0.547966 0.606083 0.952933
Si Si3 0.671426 0.874090 0.298093
Si Si4 0.651960 0.413404 0.569839
Si Si5 0.889377 0.844396 0.261278
Si Si6 0.264253 0.628862 0.158710
O O1 0.475057 0.635598 0.829003
O O2 0.421789 0.618141 0.547477
O O3 0.442137 0.450013 0.695623
O O4 0.318493 0.576679 0.758047
O O5 0.613998 0.729998 0.670798
O O6 0.500000 0.500000 0.000000
O O7 0.577765 0.664885 0.095867
O O8 0.779815 0.862295 0.280033
O O9 0.651436 0.962447 0.411929
O O10 0.637143 0.910388 0.143200
O O11 0.750000 0.380513 0.500000
O O12 0.649887 0.378404 0.733263
O O13 0.250000 0.750000 0.149320
O O14 0.250000 0.589010 0.000000
#
# Coordination Sequence:
#
# PCOD9396904 Si02
#       6
#     8   8   8   8   8   8
#     4  10  22  42  62  98 138 180 220 281 353 412
#     4  10  23  38  59  90 138 178 220 283 333 402
#     4  11  21  38  67  99 134 180 232 282 343 418
#     4  10  21  39  66  98 134 174 226 281 344 416
#     4  10  21  39  65 100 134 180 230 281 345 411
#     4  10  22  41  66 100 125 173 237 286 339 410
#
# _framework density 26.888276000000001
#
# number of rings (size 3 to 8) (size 9 to 14) (size 15 to 20)
#    0.000    1.833    3.333    1.000    4.667    5.667 
#    6.000    0.000    0.000    2.000    0.000    0.000 
#    0.000    0.000    0.000    0.000    0.000    0.000 
#
# Total GULP energy -267576.755683 kJ/mol
# GULP energy per Si atom -5574.515743 kJ/mol
# Density = 2.682708 g / cm^3
# Si number density = 26.888276 Si / 1000 Ang^3
#
#
#
# Elastic Constant Matrix: (Units=GPa)
#
#
# Indices 1 2 3 4 5 6 
#
# 1 60.4128 1.0659 23.0211 0.0000 0.0000 0.0000
# 2 1.0659 72.2621 11.3441 0.0000 0.0000 0.0000
# 3 23.0211 11.3441 202.2841 0.0000 0.0000 0.0000
# 4 0.0000 0.0000 0.0000 11.4728 0.0000 0.0000
# 5 0.0000 0.0000 0.0000 0.0000 44.8664 0.0000
# 6 0.0000 0.0000 0.0000 0.0000 0.0000 29.9083
#
#
#
# Elastic Compliance Matrix: (Units=1/GPa)
#
#
# Indices 1 2 3 4 5 6 
#
# 1 0.017303 0.000054 -0.001972 0.000000 0.000000 0.000000
# 2 0.000054 0.013962 -0.000789 0.000000 0.000000 0.000000
# 3 -0.001972 -0.000789 0.005212 0.000000 0.000000 0.000000
# 4 0.000000 0.000000 0.000000 0.087163 0.000000 0.000000
# 5 0.000000 0.000000 0.000000 0.000000 0.022288 0.000000
# 6 0.000000 0.000000 0.000000 0.000000 0.000000 0.033436
#
#
# Mechanical properties :
#
#
# Convention : Reuss Voigt Hill
#
# Bulk Modulus (GPa) = 32.19249 45.09125 38.64187
# Shear Modulus (GPa) = 25.62364 37.21803 31.42083
#
# Velocity S-wave (km/s) = 3.09037 3.72448 3.42214
# Velocity P-wave (km/s) = 4.97318 5.94155 5.47880
#
# Compressibility (1/GPa) = 0.03106314
#
# Stress axis : x y z
#
# Youngs Moduli (GPa) = 57.79217 71.62507 191.85552
#
# Poissons Ratio (x) = -0.00390 0.37839
# Poissons Ratio (y) = -0.00314 0.15140
# Poissons Ratio (z) = 0.11398 0.05652
#
# Static dielectric constant tensor:
#      x y z
#    x 2.843410 0.000000 0.000000 
#    y 0.000000 2.282240 0.000000 
#    z 0.000000 0.000000 2.140200 
# 
# From -- ./inp_files/15406.got.cif
#   From: 2010.05.17/outbox.cif.g08.bks.cpg/sg50_8_cif.got.tgz:15406.got - 2010.06.03 11:33:33.
