data_PCOD9396351
_publ_section_title
;
Structure prediction by ZEFSAII (Michael W. Deem and Ramdas Pophale) SiO2 
 PCOD9396351
Probable space group: P B A N
;
_chemical_formula_sum "Si O2"
_cell_formula_units_Z 64
_cell_length_a 28.540289
_cell_length_b 11.574598
_cell_length_c 9.387756
_cell_angle_alpha 90.000000
_cell_angle_beta 90.000000
_cell_angle_gamma 90.000000
_cell_volume 3101.173585
_symmetry_space_group_name_H-M "P B A N"
_symmetry_group_IT_number 50
_space_group.IT_coordinate_system_code '2'
_symmetry_cell_setting 'orthorhombic'
loop_
_space_group_symop_operation_xyz
x,y,z
1/2-x,1/2-y,z
x,1/2-y,-z
1/2-x,y,-z
-x,-y,-z
1/2+x,1/2+y,-z
-x,1/2+y,z
1/2+x,-y,z
loop_
_atom_site_type_symbol
_atom_site_label
_atom_site_fract_x
_atom_site_fract_y
_atom_site_fract_z
Si Si1 0.346483 0.629855 0.839723
Si Si2 0.478919 0.685565 0.358866
Si Si3 0.403268 0.495835 0.327104
Si Si4 0.582985 0.634281 0.417393
Si Si5 0.262293 0.887242 0.345556
Si Si6 0.023052 0.373170 0.837738
Si Si7 0.176868 0.901017 0.149230
Si Si8 0.565575 0.965494 0.870127
O O1 0.315376 0.592528 0.704452
O O2 0.343820 0.769772 0.830428
O O3 0.397023 0.572031 0.870972
O O4 0.318599 0.591038 0.980740
O O5 0.460241 0.750000 0.500000
O O6 0.437622 0.603822 0.310695
O O7 0.526013 0.627260 0.422849
O O8 0.496107 0.760547 0.222451
O O9 0.394835 0.470410 0.492699
O O10 0.435622 0.391258 0.274475
O O11 0.359935 0.515063 0.225087
O O12 0.598273 0.750000 0.500000
O O13 0.588874 0.617402 0.248643
O O14 0.250000 0.750000 0.352792
O O15 0.250000 0.936562 0.500000
O O16 0.225627 0.924194 0.225994
O O17 0.983304 0.472427 0.828232
O O18 0.049758 0.394451 0.988624
#
# Coordination Sequence:
#
# PCOD9396351 Si02
#       8
#     8   8   8   8   8   8   8   8
#     4  10  20  37  58  84 121 158 193 235 296 358
#     4  11  21  37  56  78 114 163 201 242 299 340
#     4  12  21  38  57  82 114 157 202 243 288 358
#     4  11  23  39  57  76 112 155 204 249 303 344
#     4   9  19  36  55  85 119 152 193 242 294 353
#     4  11  22  38  55  83 120 152 197 251 286 342
#     4  10  21  35  57  87 120 156 193 234 293 360
#     4  11  23  38  56  85 116 156 199 244 296 348
#
# _framework density 20.637347999999999
#
# number of rings (size 3 to 8) (size 9 to 14) (size 15 to 20)
#    0.000    1.375    5.000    2.250    1.750    2.000 
#    2.250    0.000    0.000    0.000    0.000    1.750 
#    0.000    2.000    0.000    0.000    0.000    0.000 
#
# Total GULP energy -356397.981436 kJ/mol
# GULP energy per Si atom -5568.718460 kJ/mol
# Density = 2.059038 g / cm^3
# Si number density = 20.637348 Si / 1000 Ang^3
#
#
#
# Elastic Constant Matrix: (Units=GPa)
#
#
# Indices 1 2 3 4 5 6 
#
# 1 66.9122 14.4021 29.5559 0.0000 0.0000 0.0000
# 2 14.4021 45.5371 28.4463 0.0000 0.0000 0.0000
# 3 29.5559 28.4463 127.1145 0.0000 0.0000 0.0000
# 4 0.0000 0.0000 0.0000 31.1440 0.0000 0.0000
# 5 0.0000 0.0000 0.0000 0.0000 17.9967 0.0000
# 6 0.0000 0.0000 0.0000 0.0000 0.0000 15.1402
#
#
#
# Elastic Compliance Matrix: (Units=1/GPa)
#
#
# Indices 1 2 3 4 5 6 
#
# 1 0.017096 -0.003399 -0.003214 0.000000 0.000000 0.000000
# 2 -0.003399 0.026205 -0.005074 0.000000 0.000000 0.000000
# 3 -0.003214 -0.005074 0.009750 0.000000 0.000000 0.000000
# 4 0.000000 0.000000 0.000000 0.032109 0.000000 0.000000
# 5 0.000000 0.000000 0.000000 0.000000 0.055566 0.000000
# 6 0.000000 0.000000 0.000000 0.000000 0.000000 0.066049
#
#
# Mechanical properties :
#
#
# Convention : Reuss Voigt Hill
#
# Bulk Modulus (GPa) = 33.69722 42.70804 38.20263
# Shear Modulus (GPa) = 20.82969 24.00014 22.41492
#
# Velocity S-wave (km/s) = 3.18043 3.41390 3.29923
# Velocity P-wave (km/s) = 5.46356 6.02321 5.75020
#
# Compressibility (1/GPa) = 0.02967604
#
# Stress axis : x y z
#
# Youngs Moduli (GPa) = 58.49162 38.16105 102.56625
#
# Poissons Ratio (x) = 0.12971 0.32970
# Poissons Ratio (y) = 0.19882 0.52041
# Poissons Ratio (z) = 0.18802 0.19362
#
# Static dielectric constant tensor:
#      x y z
#    x 1.708970 0.000000 0.000000 
#    y 0.000000 1.836820 0.000000 
#    z 0.000000 0.000000 1.813150 
# 
# From -- ./inp_files/17117.got.cif
#   From: 2010.05.17/outbox.cif.g08.bks.cpg/sg50_9_cif.got.tgz:17117.got - 2010.06.03 11:33:33.
