data_PCOD9396706
_publ_section_title
;
Structure prediction by ZEFSAII (Michael W. Deem and Ramdas Pophale) SiO2 
 PCOD9396706
Probable space group: P B A N
;
_chemical_formula_sum "Si O2"
_cell_formula_units_Z 46
_cell_length_a 22.423838
_cell_length_b 16.143027
_cell_length_c 6.773800
_cell_angle_alpha 90.000000
_cell_angle_beta 90.000000
_cell_angle_gamma 90.000000
_cell_volume 2452.038530
_symmetry_space_group_name_H-M "P B A N"
_symmetry_group_IT_number 50
_space_group.IT_coordinate_system_code '2'
_symmetry_cell_setting 'orthorhombic'
loop_
_space_group_symop_operation_xyz
x,y,z
1/2-x,1/2-y,z
x,1/2-y,-z
1/2-x,y,-z
-x,-y,-z
1/2+x,1/2+y,-z
-x,1/2+y,z
1/2+x,-y,z
loop_
_atom_site_type_symbol
_atom_site_label
_atom_site_fract_x
_atom_site_fract_y
_atom_site_fract_z
Si Si1 0.560416 0.955898 0.082484
Si Si2 0.070271 0.586007 0.575269
Si Si3 0.444857 0.153796 0.558085
Si Si4 0.323324 0.822455 0.656727
Si Si5 0.635355 0.961945 0.691472
Si Si6 0.250000 0.750000 0.000000
Si Si7 0.750000 0.024671 0.500000
O O1 0.552864 0.870809 0.209056
O O2 0.579214 0.019734 0.252582
O O3 0.609671 0.947129 0.910759
O O4 0.500000 0.000000 0.000000
O O5 0.106163 0.665901 0.646642
O O6 0.100704 0.545396 0.382347
O O7 0.002271 0.607006 0.533817
O O8 0.447518 0.250000 0.500000
O O9 0.388438 0.111457 0.450077
O O10 0.309877 0.750000 0.500000
O O11 0.293923 0.800559 0.861662
O O12 0.294677 0.911015 0.605073
O O13 0.705805 0.975324 0.647881
#
# Coordination Sequence:
#
# PCOD9396706 Si02
#       7
#     8   8   8   8   8   2   4
#     4  11  19  38  63  88 120 162 213 254 303 384
#     4  10  21  36  59  85 120 163 200 250 310 372
#     4  11  22  39  58  89 124 159 200 262 328 366
#     4  11  22  38  53  84 125 159 198 257 304 375
#     4  10  21  39  60  86 119 156 210 255 303 381
#     4  12  22  36  52  82 128 160 208 244 306 370
#     4  10  21  40  61  78 114 166 202 260 319 364
#
# _framework density 18.759899000000001
#
# number of rings (size 3 to 8) (size 9 to 14) (size 15 to 20)
#    0.000    1.391    5.217    1.565    2.435    0.696 
#    3.130    0.435    0.000    0.000    0.000    7.304 
#    0.000    0.000    0.000    0.000    0.000    0.000 
#
# Total GULP energy -256196.275986 kJ/mol
# GULP energy per Si atom -5569.484261 kJ/mol
# Density = 1.871720 g / cm^3
# Si number density = 18.759899 Si / 1000 Ang^3
#
#
#
# Elastic Constant Matrix: (Units=GPa)
#
#
# Indices 1 2 3 4 5 6 
#
# 1 90.0389 23.0009 32.1561 0.0000 0.0000 0.0000
# 2 23.0009 79.9045 33.8162 0.0000 0.0000 0.0000
# 3 32.1561 33.8162 120.0826 0.0000 0.0000 0.0000
# 4 0.0000 0.0000 0.0000 19.8771 0.0000 0.0000
# 5 0.0000 0.0000 0.0000 0.0000 28.3821 0.0000
# 6 0.0000 0.0000 0.0000 0.0000 0.0000 20.7228
#
#
#
# Elastic Compliance Matrix: (Units=1/GPa)
#
#
# Indices 1 2 3 4 5 6 
#
# 1 0.012712 -0.002519 -0.002695 0.000000 0.000000 0.000000
# 2 -0.002519 0.014707 -0.003467 0.000000 0.000000 0.000000
# 3 -0.002695 -0.003467 0.010026 0.000000 0.000000 0.000000
# 4 0.000000 0.000000 0.000000 0.050309 0.000000 0.000000
# 5 0.000000 0.000000 0.000000 0.000000 0.035233 0.000000
# 6 0.000000 0.000000 0.000000 0.000000 0.000000 0.048256
#
#
# Mechanical properties :
#
#
# Convention : Reuss Voigt Hill
#
# Bulk Modulus (GPa) = 49.79209 51.99693 50.89451
# Shear Modulus (GPa) = 25.60164 27.19990 26.40077
#
# Velocity S-wave (km/s) = 3.69819 3.81188 3.75547
# Velocity P-wave (km/s) = 6.69589 6.86667 6.78182
#
# Compressibility (1/GPa) = 0.02008351
#
# Stress axis : x y z
#
# Youngs Moduli (GPa) = 78.66486 67.99323 99.74448
#
# Poissons Ratio (x) = 0.17126 0.26879
# Poissons Ratio (y) = 0.19814 0.34584
# Poissons Ratio (z) = 0.21199 0.23575
#
# Static dielectric constant tensor:
#      x y z
#    x 1.696650 0.000000 0.000000 
#    y 0.000000 1.682490 0.000000 
#    z 0.000000 0.000000 1.679120 
# 
# From -- ./inp_files/6011.got.cif
#   From: 2010.05.17/outbox.cif.g08.bks.cpg/sg50_4_cif.got.tgz:6011.got - 2010.06.03 11:33:33.
