data_PCOD9396069
_publ_section_title
;
Structure prediction by ZEFSAII (Michael W. Deem and Ramdas Pophale) SiO2 
 PCOD9396069
Probable space group: P B A N
;
_chemical_formula_sum "Si O2"
_cell_formula_units_Z 38
_cell_length_a 18.816091
_cell_length_b 18.138734
_cell_length_c 5.822477
_cell_angle_alpha 90.000000
_cell_angle_beta 90.000000
_cell_angle_gamma 90.000000
_cell_volume 1987.211805
_symmetry_space_group_name_H-M "P B A N"
_symmetry_group_IT_number 50
_space_group.IT_coordinate_system_code '2'
_symmetry_cell_setting 'orthorhombic'
loop_
_space_group_symop_operation_xyz
x,y,z
1/2-x,1/2-y,z
x,1/2-y,-z
1/2-x,y,-z
-x,-y,-z
1/2+x,1/2+y,-z
-x,1/2+y,z
1/2+x,-y,z
loop_
_atom_site_type_symbol
_atom_site_label
_atom_site_fract_x
_atom_site_fract_y
_atom_site_fract_z
Si Si1 0.946929 0.852881 0.873282
Si Si2 0.464015 0.901867 0.730468
Si Si3 0.187236 0.125881 0.817123
Si Si4 0.750000 0.750000 0.500000
Si Si5 0.999930 0.250000 0.500000
Si Si6 0.400159 0.470131 0.505367
O O1 0.959048 0.780312 0.722812
O O2 0.917093 0.912130 0.694181
O O3 0.884028 0.849640 0.054561
O O4 0.018769 0.879381 0.005874
O O5 0.463126 0.824736 0.591741
O O6 0.532018 0.954938 0.672170
O O7 0.401135 0.951712 0.624725
O O8 0.206820 0.194819 0.659506
O O9 0.167046 0.056640 0.653946
O O10 0.250000 0.111538 0.000000
#
# Coordination Sequence:
#
# PCOD9396069 Si02
#       6
#     8   8   8   2   4   8
#     4  10  20  33  50  72 101 138 176 214 260 317
#     4   9  18  32  50  73 101 134 168 208 259 314
#     4  11  24  36  49  70 100 139 180 221 262 309
#     4  12  26  38  48  70 104 138 178 218 256 304
#     4  10  20  31  50  79 106 133 168 209 262 320
#     4   9  19  34  50  70  99 135 175 212 254 311
#
# _framework density 19.122267999999998
#
# number of rings (size 3 to 8) (size 9 to 14) (size 15 to 20)
#    0.000    2.105    0.000    2.842    0.000   21.895 
#    0.000    0.000    0.000    0.000    0.000    0.000 
#    0.000   12.632    0.000    0.000    0.000    0.000 
#
# Total GULP energy -211697.538573 kJ/mol
# GULP energy per Si atom -5570.987857 kJ/mol
# Density = 1.907875 g / cm^3
# Si number density = 19.122268 Si / 1000 Ang^3
#
#
#
# Elastic Constant Matrix: (Units=GPa)
#
#
# Indices 1 2 3 4 5 6 
#
# 1 48.4586 48.3589 44.8971 0.0000 0.0000 0.0000
# 2 48.3589 136.3517 52.4160 0.0000 0.0000 0.0000
# 3 44.8971 52.4160 122.3562 0.0000 0.0000 0.0000
# 4 0.0000 0.0000 0.0000 25.2942 0.0000 0.0000
# 5 0.0000 0.0000 0.0000 0.0000 8.9564 0.0000
# 6 0.0000 0.0000 0.0000 0.0000 0.0000 8.3746
#
#
#
# Elastic Compliance Matrix: (Units=1/GPa)
#
#
# Indices 1 2 3 4 5 6 
#
# 1 0.040756 -0.010422 -0.010490 0.000000 0.000000 0.000000
# 2 -0.010422 0.011445 -0.001079 0.000000 0.000000 0.000000
# 3 -0.010490 -0.001079 0.012484 0.000000 0.000000 0.000000
# 4 0.000000 0.000000 0.000000 0.039535 0.000000 0.000000
# 5 0.000000 0.000000 0.000000 0.000000 0.111653 0.000000
# 6 0.000000 0.000000 0.000000 0.000000 0.000000 0.119409
#
#
# Mechanical properties :
#
#
# Convention : Reuss Voigt Hill
#
# Bulk Modulus (GPa) = 48.30144 66.50118 57.40131
# Shear Modulus (GPa) = 12.94787 19.29134 16.11960
#
# Velocity S-wave (km/s) = 2.60496 3.17967 2.90655
# Velocity P-wave (km/s) = 5.86190 6.95218 6.43019
#
# Compressibility (1/GPa) = 0.02070332
#
# Stress axis : x y z
#
# Youngs Moduli (GPa) = 24.53631 87.37494 80.10133
#
# Poissons Ratio (x) = 0.91062 0.84028
# Poissons Ratio (y) = 0.25572 0.08640
# Poissons Ratio (z) = 0.25739 0.09425
#
# Static dielectric constant tensor:
#      x y z
#    x 1.733490 0.000000 0.000000 
#    y 0.000000 1.730950 0.000000 
#    z 0.000000 0.000000 1.784590 
# 
# From -- ./inp_files/5124.got.cif
#   From: 2010.05.17/outbox.cif.g08.bks.cpg/sg50_3_cif.got.tgz:5124.got - 2010.06.03 11:33:33.
