data_PCOD9396928
_publ_section_title
;
Structure prediction by ZEFSAII (Michael W. Deem and Ramdas Pophale) SiO2 
 PCOD9396928
Probable space group: P B A N
;
_chemical_formula_sum "Si O2"
_cell_formula_units_Z 40
_cell_length_a 11.678634
_cell_length_b 13.343805
_cell_length_c 12.381778
_cell_angle_alpha 90.000000
_cell_angle_beta 90.000000
_cell_angle_gamma 90.000000
_cell_volume 1929.544274
_symmetry_space_group_name_H-M "P B A N"
_symmetry_group_IT_number 50
_space_group.IT_coordinate_system_code '2'
_symmetry_cell_setting 'orthorhombic'
loop_
_space_group_symop_operation_xyz
x,y,z
1/2-x,1/2-y,z
x,1/2-y,-z
1/2-x,y,-z
-x,-y,-z
1/2+x,1/2+y,-z
-x,1/2+y,z
1/2+x,-y,z
loop_
_atom_site_type_symbol
_atom_site_label
_atom_site_fract_x
_atom_site_fract_y
_atom_site_fract_z
Si Si1 0.491013 0.311426 0.391126
Si Si2 0.294142 0.644959 0.754511
Si Si3 0.350151 0.030841 0.695511
Si Si4 0.657512 0.823130 0.772630
Si Si5 0.962405 0.497175 0.877072
O O1 0.499154 0.250000 0.500000
O O2 0.612025 0.332286 0.336536
O O3 0.423858 0.417856 0.398773
O O4 0.416570 0.244653 0.307551
O O5 0.250000 0.750000 0.799663
O O6 0.192719 0.582660 0.697085
O O7 0.357047 0.576444 0.844880
O O8 0.236010 0.097342 0.707990
O O9 0.432640 0.037057 0.800557
O O10 0.750000 0.750000 0.829170
O O11 0.576982 0.890803 0.845742
O O12 0.000000 0.500000 0.000000
#
# Coordination Sequence:
#
# PCOD9396928 Si02
#       5
#     8   8   8   8   8
#     4  10  21  40  64  90 119 157 204 251 301 360
#     4  10  21  40  60  88 128 161 199 251 302 361
#     4   9  20  39  60  86 122 156 195 249 298 355
#     4   9  19  37  58  85 119 154 198 248 297 354
#     4  10  21  40  62  87 121 160 204 251 300 358
#
# _framework density 20.730284000000001
#
# number of rings (size 3 to 8) (size 9 to 14) (size 15 to 20)
#    0.000    2.400    0.000    1.200    0.000    7.200 
#    0.000   46.000    0.000    0.000    0.000    0.000 
#    0.000    0.000    0.000    0.000    0.000    0.000 
#
# Total GULP energy -223182.755211 kJ/mol
# GULP energy per Si atom -5579.568880 kJ/mol
# Density = 2.068310 g / cm^3
# Si number density = 20.730284 Si / 1000 Ang^3
#
#
#
# Elastic Constant Matrix: (Units=GPa)
#
#
# Indices 1 2 3 4 5 6 
#
# 1 61.2521 26.0640 29.1568 0.0000 0.0000 0.0000
# 2 26.0640 121.6895 37.7891 0.0000 0.0000 0.0000
# 3 29.1568 37.7891 94.3438 0.0000 0.0000 0.0000
# 4 0.0000 0.0000 0.0000 23.5154 0.0000 0.0000
# 5 0.0000 0.0000 0.0000 0.0000 2.1231 0.0000
# 6 0.0000 0.0000 0.0000 0.0000 0.0000 61.3295
#
#
#
# Elastic Compliance Matrix: (Units=1/GPa)
#
#
# Indices 1 2 3 4 5 6 
#
# 1 0.019881 -0.002684 -0.005069 0.000000 0.000000 0.000000
# 2 -0.002684 0.009747 -0.003075 0.000000 0.000000 0.000000
# 3 -0.005069 -0.003075 0.013398 0.000000 0.000000 0.000000
# 4 0.000000 0.000000 0.000000 0.042525 0.000000 0.000000
# 5 0.000000 0.000000 0.000000 0.000000 0.470999 0.000000
# 6 0.000000 0.000000 0.000000 0.000000 0.000000 0.016305
#
#
# Mechanical properties :
#
#
# Convention : Reuss Voigt Hill
#
# Bulk Modulus (GPa) = 46.79404 51.47835 49.13619
# Shear Modulus (GPa) = 8.31069 29.67864 18.99466
#
# Velocity S-wave (km/s) = 2.00441 3.78783 3.03029
# Velocity P-wave (km/s) = 5.28949 6.63450 5.99980
#
# Compressibility (1/GPa) = 0.02137024
#
# Stress axis : x y z
#
# Youngs Moduli (GPa) = 50.29914 102.59206 74.63955
#
# Poissons Ratio (x) = 0.27536 0.37836
# Poissons Ratio (y) = 0.13501 0.22950
# Poissons Ratio (z) = 0.25497 0.31545
#
# Static dielectric constant tensor:
#      x y z
#    x 1.756400 0.000000 0.000000 
#    y 0.000000 1.809100 0.000000 
#    z 0.000000 0.000000 1.692730 
# 
# From -- ./inp_files/20008.got.cif
#   From: 2010.05.17/outbox.cif.g08.bks.cpg/sg50_11_cif.got.tgz:20008.got - 2010.06.03 11:33:33.
