data_PCOD9396791
_publ_section_title
;
Structure prediction by ZEFSAII (Michael W. Deem and Ramdas Pophale) SiO2 
 PCOD9396791
Probable space group: P B A N
;
_chemical_formula_sum "Si O2"
_cell_formula_units_Z 32
_cell_length_a 8.214924
_cell_length_b 19.483231
_cell_length_c 7.429145
_cell_angle_alpha 90.000000
_cell_angle_beta 90.000000
_cell_angle_gamma 90.000000
_cell_volume 1189.058891
_symmetry_space_group_name_H-M "P B A N"
_symmetry_group_IT_number 50
_space_group.IT_coordinate_system_code '2'
_symmetry_cell_setting 'orthorhombic'
loop_
_space_group_symop_operation_xyz
x,y,z
1/2-x,1/2-y,z
x,1/2-y,-z
1/2-x,y,-z
-x,-y,-z
1/2+x,1/2+y,-z
-x,1/2+y,z
1/2+x,-y,z
loop_
_atom_site_type_symbol
_atom_site_label
_atom_site_fract_x
_atom_site_fract_y
_atom_site_fract_z
Si Si1 0.478683 0.230535 0.298558
Si Si2 0.793543 0.351580 0.792735
Si Si3 0.525615 0.480684 0.293204
Si Si4 0.219631 0.105285 0.720626
O O1 0.433080 0.250000 0.500000
O O2 0.641299 0.183263 0.306754
O O3 0.550124 0.300282 0.214420
O O4 0.336863 0.181221 0.222802
O O5 0.828582 0.426220 0.716515
O O6 0.750000 0.356814 0.000000
O O7 0.500000 0.500000 0.500000
O O8 0.377512 0.436429 0.215603
O O9 0.575637 0.554021 0.216453
O O10 0.250000 0.108090 0.500000
#
# Coordination Sequence:
#
# PCOD9396791 Si02
#       4
#     8   8   8   8
#     4  11  22  39  67  98 131 182 237 291 349 420
#     4  11  24  43  67  98 139 184 229 289 360 427
#     4  10  21  39  65  96 133 178 229 289 348 418
#     4  10  21  37  64 100 134 168 225 295 344 405
#
# _framework density 26.912040999999999
#
# number of rings (size 3 to 8) (size 9 to 14) (size 15 to 20)
#    0.000    1.500    0.000    7.500    0.000    9.500 
#    0.000    6.250    0.000   12.000    0.000    0.000 
#    0.000    0.000    0.000    0.000    0.000    0.000 
#
# Total GULP energy -179121.056777 kJ/mol
# GULP energy per Si atom -5597.533024 kJ/mol
# Density = 2.685079 g / cm^3
# Si number density = 26.912041 Si / 1000 Ang^3
#
#
#
# Elastic Constant Matrix: (Units=GPa)
#
#
# Indices 1 2 3 4 5 6 
#
# 1 120.5393 58.7259 26.0746 0.0000 0.0000 0.0000
# 2 58.7259 247.5053 41.2461 0.0000 0.0000 0.0000
# 3 26.0746 41.2461 97.5049 0.0000 0.0000 0.0000
# 4 0.0000 0.0000 0.0000 -17.2916 0.0000 0.0000
# 5 0.0000 0.0000 0.0000 0.0000 -0.5270 0.0000
# 6 0.0000 0.0000 0.0000 0.0000 0.0000 -80.7718
#
#
#
# Elastic Compliance Matrix: (Units=1/GPa)
#
#
# Indices 1 2 3 4 5 6 
#
# 1 0.009645 -0.002000 -0.001733 0.000000 0.000000 0.000000
# 2 -0.002000 0.004761 -0.001479 0.000000 0.000000 0.000000
# 3 -0.001733 -0.001479 0.011345 0.000000 0.000000 0.000000
# 4 0.000000 0.000000 0.000000 -0.057831 0.000000 0.000000
# 5 0.000000 0.000000 0.000000 0.000000 -1.897559 0.000000
# 6 0.000000 0.000000 0.000000 0.000000 0.000000 -0.012381
#
#
# Mechanical properties :
#
#
# Convention : Reuss Voigt Hill
#
# Bulk Modulus (GPa) = 65.24485 79.73809 72.49147
# Shear Modulus (GPa) = -2.59540 2.91543 0.16002
#
# Velocity S-wave (km/s) = -0.98310 1.04196 0.24411
# Velocity P-wave (km/s) = 4.79664 5.58042 5.20330
#
# Compressibility (1/GPa) = 0.01532688
#
# Stress axis : x y z
#
# Youngs Moduli (GPa) = 103.67804 210.02610 88.14268
#
# Poissons Ratio (x) = 0.41998 0.15279
# Poissons Ratio (y) = 0.20732 0.13039
# Poissons Ratio (z) = 0.17972 0.31070
#
# Static dielectric constant tensor:
#      x y z
#    x 2.250470 0.000000 0.000000 
#    y 0.000000 2.039190 0.000000 
#    z 0.000000 0.000000 2.048160 
# 
# From -- ./inp_files/9097.got.cif
#   From: 2010.05.17/outbox.cif.g08.bks.cpg/sg50_5_cif.got.tgz:9097.got - 2010.06.03 11:33:33.
