data_PCOD9396814
_publ_section_title
;
Structure prediction by ZEFSAII (Michael W. Deem and Ramdas Pophale) SiO2 
 PCOD9396814
Probable space group: P B A N
;
_chemical_formula_sum "Si O2"
_cell_formula_units_Z 56
_cell_length_a 5.204730
_cell_length_b 24.380079
_cell_length_c 22.959656
_cell_angle_alpha 90.000000
_cell_angle_beta 90.000000
_cell_angle_gamma 90.000000
_cell_volume 2913.390437
_symmetry_space_group_name_H-M "P B A N"
_symmetry_group_IT_number 50
_space_group.IT_coordinate_system_code '2'
_symmetry_cell_setting 'orthorhombic'
loop_
_space_group_symop_operation_xyz
x,y,z
1/2-x,1/2-y,z
x,1/2-y,-z
1/2-x,y,-z
-x,-y,-z
1/2+x,1/2+y,-z
-x,1/2+y,z
1/2+x,-y,z
loop_
_atom_site_type_symbol
_atom_site_label
_atom_site_fract_x
_atom_site_fract_y
_atom_site_fract_z
Si Si1 0.557736 0.977895 0.564826
Si Si2 0.219272 0.121719 0.833467
Si Si3 0.288937 0.685112 0.793574
Si Si4 0.746684 0.185066 0.654659
Si Si5 0.188150 0.036719 0.269721
Si Si6 0.252354 0.464221 0.069569
Si Si7 0.743289 0.878831 0.376427
O O1 0.673116 0.917577 0.570000
O O2 0.500000 0.000000 0.500000
O O3 0.275192 0.982714 0.592656
O O4 0.450636 0.164175 0.823145
O O5 0.269523 0.072663 0.787843
O O6 0.224017 0.092350 0.895831
O O7 0.951734 0.151141 0.818357
O O8 0.250000 0.750000 0.802119
O O9 0.303981 0.675516 0.723657
O O10 0.750000 0.250000 0.644569
O O11 0.520676 0.154343 0.619808
O O12 0.022653 0.161098 0.638328
O O13 0.220241 0.078130 0.323474
O O14 0.409818 0.990979 0.270977
O O15 0.515776 0.495587 0.084805
O O16 0.250000 0.455446 0.000000
#
# Coordination Sequence:
#
# PCOD9396814 Si02
#       7
#     8   8   8   8   8   8   8
#     4  10  21  38  59  86 117 154 196 227 276 345
#     4  12  21  37  57  82 113 153 196 238 304 345
#     4  11  22  38  57  81 114 154 201 239 290 360
#     4  11  22  38  57  84 118 157 200 241 289 349
#     4  12  22  32  49  80 118 148 180 229 286 349
#     4  10  21  38  59  83 112 150 196 243 293 358
#     4  12  21  37  57  85 120 157 190 240 286 345
#
# _framework density 19.221589999999999
#
# number of rings (size 3 to 8) (size 9 to 14) (size 15 to 20)
#    0.000    0.857    2.857    6.000    0.000    2.286 
#    0.000    0.000    0.000    2.571    0.000   30.000 
#    0.000    0.000    0.000    0.000    0.000    0.000 
#
# Total GULP energy -313102.921694 kJ/mol
# GULP energy per Si atom -5591.123602 kJ/mol
# Density = 1.917784 g / cm^3
# Si number density = 19.221590 Si / 1000 Ang^3
#
#
#
# Elastic Constant Matrix: (Units=GPa)
#
#
# Indices 1 2 3 4 5 6 
#
# 1 92.7428 16.8992 7.1532 0.0000 0.0000 0.0000
# 2 16.8992 89.9394 30.7300 0.0000 0.0000 0.0000
# 3 7.1532 30.7300 49.5847 0.0000 0.0000 0.0000
# 4 0.0000 0.0000 0.0000 24.7203 0.0000 0.0000
# 5 0.0000 0.0000 0.0000 0.0000 11.2752 0.0000
# 6 0.0000 0.0000 0.0000 0.0000 0.0000 43.2103
#
#
#
# Elastic Compliance Matrix: (Units=1/GPa)
#
#
# Indices 1 2 3 4 5 6 
#
# 1 0.011171 -0.001964 -0.000394 0.000000 0.000000 0.000000
# 2 -0.001964 0.014451 -0.008673 0.000000 0.000000 0.000000
# 3 -0.000394 -0.008673 0.025599 0.000000 0.000000 0.000000
# 4 0.000000 0.000000 0.000000 0.040453 0.000000 0.000000
# 5 0.000000 0.000000 0.000000 0.000000 0.088690 0.000000
# 6 0.000000 0.000000 0.000000 0.000000 0.000000 0.023143
#
#
# Mechanical properties :
#
#
# Convention : Reuss Voigt Hill
#
# Bulk Modulus (GPa) = 34.29484 37.98131 36.13808
# Shear Modulus (GPa) = 21.25058 27.67345 24.46201
#
# Velocity S-wave (km/s) = 3.32860 3.79846 3.57127
# Velocity P-wave (km/s) = 5.71431 6.24823 5.98722
#
# Compressibility (1/GPa) = 0.02915890
#
# Stress axis : x y z
#
# Youngs Moduli (GPa) = 89.51882 69.20011 39.06382
#
# Poissons Ratio (x) = 0.13593 0.01540
# Poissons Ratio (y) = 0.17584 0.33878
# Poissons Ratio (z) = 0.03529 0.60014
#
# Static dielectric constant tensor:
#      x y z
#    x 1.715580 0.000000 0.000000 
#    y 0.000000 1.652120 0.000000 
#    z 0.000000 0.000000 1.728150 
# 
# From -- ./inp_files/31505.got.cif
#   From: 2010.05.17/outbox.cif.g08.bks.cpg/sg50_16_cif.got.tgz:31505.got - 2010.06.03 11:33:33.
