data_PCOD9396591
_publ_section_title
;
Structure prediction by ZEFSAII (Michael W. Deem and Ramdas Pophale) SiO2 
 PCOD9396591
Probable space group: P B A N
;
_chemical_formula_sum "Si O2"
_cell_formula_units_Z 48
_cell_length_a 8.659103
_cell_length_b 17.950930
_cell_length_c 14.555357
_cell_angle_alpha 90.000000
_cell_angle_beta 90.000000
_cell_angle_gamma 90.000000
_cell_volume 2262.469435
_symmetry_space_group_name_H-M "P B A N"
_symmetry_group_IT_number 50
_space_group.IT_coordinate_system_code '2'
_symmetry_cell_setting 'orthorhombic'
loop_
_space_group_symop_operation_xyz
x,y,z
1/2-x,1/2-y,z
x,1/2-y,-z
1/2-x,y,-z
-x,-y,-z
1/2+x,1/2+y,-z
-x,1/2+y,z
1/2+x,-y,z
loop_
_atom_site_type_symbol
_atom_site_label
_atom_site_fract_x
_atom_site_fract_y
_atom_site_fract_z
Si Si1 0.336291 0.943516 0.095762
Si Si2 0.192678 0.102030 0.096017
Si Si3 0.286450 0.831737 0.260773
Si Si4 0.626504 0.563174 0.571021
Si Si5 0.106527 0.898403 0.430792
Si Si6 0.153007 0.177633 0.284333
O O1 0.518334 0.928732 0.085635
O O2 0.280713 0.893150 0.180851
O O3 0.298996 0.029890 0.115265
O O4 0.250000 0.925191 0.000000
O O5 0.192490 0.159046 0.179385
O O6 0.250000 0.135008 0.000000
O O7 0.250000 0.750000 0.223363
O O8 0.165297 0.853364 0.341650
O O9 0.465690 0.824597 0.293910
O O10 0.750000 0.535042 0.500000
O O11 0.527730 0.617903 0.505241
O O12 0.558892 0.483135 0.602006
O O13 0.699723 0.607608 0.653720
O O14 0.250000 0.891589 0.500000
O O15 0.250000 0.250000 0.312759
#
# Coordination Sequence:
#
# PCOD9396591 Si02
#       6
#     8   8   8   8   8   8
#     4  10  21  40  65  95 124 157 210 259 311 376
#     4  10  21  40  66  94 123 161 206 259 315 371
#     4  11  25  41  60  89 126 171 206 253 317 378
#     4  10  22  40  65  93 118 158 208 264 313 367
#     4  10  20  42  66  88 120 157 211 258 311 373
#     4  11  25  42  58  90 130 163 210 255 315 383
#
# _framework density 21.215757
#
# number of rings (size 3 to 8) (size 9 to 14) (size 15 to 20)
#    0.000    1.667    1.667    3.000    2.333    4.000 
#    0.000    3.333    0.000    0.000    0.000    0.000 
#    0.000    0.000    0.000    0.000    0.000    0.000 
#
# Total GULP energy -267372.997784 kJ/mol
# GULP energy per Si atom -5570.270787 kJ/mol
# Density = 2.116747 g / cm^3
# Si number density = 21.215757 Si / 1000 Ang^3
#
#
#
# Elastic Constant Matrix: (Units=GPa)
#
#
# Indices 1 2 3 4 5 6 
#
# 1 26.0280 -7.3209 3.8321 0.0000 0.0000 0.0000
# 2 -7.3209 52.8632 25.4009 0.0000 0.0000 0.0000
# 3 3.8321 25.4009 78.5543 0.0000 0.0000 0.0000
# 4 0.0000 0.0000 0.0000 -15.7399 0.0000 0.0000
# 5 0.0000 0.0000 0.0000 0.0000 29.2249 0.0000
# 6 0.0000 0.0000 0.0000 0.0000 0.0000 18.5175
#
#
#
# Elastic Compliance Matrix: (Units=1/GPa)
#
#
# Indices 1 2 3 4 5 6 
#
# 1 0.041322 0.007922 -0.004577 0.000000 0.000000 0.000000
# 2 0.007922 0.023915 -0.008120 0.000000 0.000000 0.000000
# 3 -0.004577 -0.008120 0.015579 0.000000 0.000000 0.000000
# 4 0.000000 0.000000 0.000000 -0.063533 0.000000 0.000000
# 5 0.000000 0.000000 0.000000 0.000000 0.034217 0.000000
# 6 0.000000 0.000000 0.000000 0.000000 0.000000 0.054003
#
#
# Mechanical properties :
#
#
# Convention : Reuss Voigt Hill
#
# Bulk Modulus (GPa) = 14.03181 22.36331 18.19756
# Shear Modulus (GPa) = 36.02063 15.43608 25.72836
#
# Velocity S-wave (km/s) = 4.12494 2.70029 3.48616
# Velocity P-wave (km/s) = 5.41434 4.50398 4.98000
#
# Compressibility (1/GPa) = 0.07126665
#
# Stress axis : x y z
#
# Youngs Moduli (GPa) = 24.19995 41.81414 64.18953
#
# Poissons Ratio (x) = -0.33126 0.29383
# Poissons Ratio (y) = -0.19171 0.52119
# Poissons Ratio (z) = 0.11077 0.33951
#
# Static dielectric constant tensor:
#      x y z
#    x 2.283170 0.000000 0.000000 
#    y 0.000000 1.786270 0.000000 
#    z 0.000000 0.000000 1.761130 
# 
# From -- ./inp_files/25007.got.cif
#   From: 2010.05.17/outbox.cif.g08.bks.cpg/sg50_13_cif.got.tgz:25007.got - 2010.06.03 11:33:33.
