data_PCOD9396166
_publ_section_title
;
Structure prediction by ZEFSAII (Michael W. Deem and Ramdas Pophale) SiO2 
 PCOD9396166
Probable space group: P B A N
;
_chemical_formula_sum "Si O2"
_cell_formula_units_Z 32
_cell_length_a 32.840189
_cell_length_b 8.720403
_cell_length_c 5.279434
_cell_angle_alpha 90.000000
_cell_angle_beta 90.000000
_cell_angle_gamma 90.000000
_cell_volume 1511.922634
_symmetry_space_group_name_H-M "P B A N"
_symmetry_group_IT_number 50
_space_group.IT_coordinate_system_code '2'
_symmetry_cell_setting 'orthorhombic'
loop_
_space_group_symop_operation_xyz
x,y,z
1/2-x,1/2-y,z
x,1/2-y,-z
1/2-x,y,-z
-x,-y,-z
1/2+x,1/2+y,-z
-x,1/2+y,z
1/2+x,-y,z
loop_
_atom_site_type_symbol
_atom_site_label
_atom_site_fract_x
_atom_site_fract_y
_atom_site_fract_z
Si Si1 0.067609 0.572355 0.468549
Si Si2 0.297105 0.062531 0.997572
Si Si3 0.344570 0.434584 0.508429
Si Si4 0.014183 0.145778 0.244447
O O1 0.077980 0.750000 0.500000
O O2 0.109416 0.484023 0.434100
O O3 0.045819 0.491083 0.708006
O O4 0.031367 0.576018 0.260689
O O5 0.324058 0.013427 0.755669
O O6 0.297193 0.250000 0.000000
O O7 0.250000 0.014660 0.000000
O O8 0.317558 0.011105 0.257305
O O9 0.343969 0.250000 0.500000
O O10 0.017862 0.250000 0.500000
O O11 0.020665 0.250000 0.000000
#
# Coordination Sequence:
#
# PCOD9396166 Si02
#       4
#     8   8   8   8
#     4  10  23  39  60  88 120 155 197 246 298 352
#     4   9  18  34  57  84 111 144 190 240 288 342
#     4  10  20  34  57  85 114 148 188 239 293 349
#     4  10  23  42  62  83 115 160 205 246 290 346
#
# _framework density 21.165105000000001
#
# number of rings (size 3 to 8) (size 9 to 14) (size 15 to 20)
#    0.000    2.250    0.000    1.500    0.000   22.000 
#    0.000    0.000    0.000    4.500    0.000    0.000 
#    0.000    0.000    0.000    0.000    0.000    0.000 
#
# Total GULP energy -178657.703912 kJ/mol
# GULP energy per Si atom -5583.053247 kJ/mol
# Density = 2.111693 g / cm^3
# Si number density = 21.165105 Si / 1000 Ang^3
#
#
#
# Elastic Constant Matrix: (Units=GPa)
#
#
# Indices 1 2 3 4 5 6 
#
# 1 144.6252 16.3883 52.2599 0.0000 0.0000 0.0000
# 2 16.3883 49.8943 51.5140 0.0000 0.0000 0.0000
# 3 52.2599 51.5140 162.2942 0.0000 0.0000 0.0000
# 4 0.0000 0.0000 0.0000 25.9125 0.0000 0.0000
# 5 0.0000 0.0000 0.0000 0.0000 -3.9788 0.0000
# 6 0.0000 0.0000 0.0000 0.0000 0.0000 32.4720
#
#
#
# Elastic Compliance Matrix: (Units=1/GPa)
#
#
# Indices 1 2 3 4 5 6 
#
# 1 0.007825 0.000047 -0.002534 0.000000 0.000000 0.000000
# 2 0.000047 0.029813 -0.009478 0.000000 0.000000 0.000000
# 3 -0.002534 -0.009478 0.009986 0.000000 0.000000 0.000000
# 4 0.000000 0.000000 0.000000 0.038591 0.000000 0.000000
# 5 0.000000 0.000000 0.000000 0.000000 -0.251333 0.000000
# 6 0.000000 0.000000 0.000000 0.000000 0.000000 0.030796
#
#
# Mechanical properties :
#
#
# Convention : Reuss Voigt Hill
#
# Bulk Modulus (GPa) = 42.20801 66.34867 54.27834
# Shear Modulus (GPa) = -48.78359 26.65790 -11.06284
#
# Velocity S-wave (km/s) = -4.80615 3.55282 -2.28873
# Velocity P-wave (km/s) = 3.28835 6.94595 4.32626
#
# Compressibility (1/GPa) = 0.02369219
#
# Stress axis : x y z
#
# Youngs Moduli (GPa) = 127.79592 33.54289 100.13884
#
# Poissons Ratio (x) = -0.00156 0.25380
# Poissons Ratio (y) = -0.00595 0.94910
# Poissons Ratio (z) = 0.32390 0.31791
#
# Static dielectric constant tensor:
#      x y z
#    x 1.731380 0.000000 0.000000 
#    y 0.000000 1.803900 0.000000 
#    z 0.000000 0.000000 1.781380 
# 
# From -- ./inp_files/1222.got.cif
#   From: 2010.05.17/outbox.cif.g08.bks.cpg/sg50_1_cif.got.tgz:1222.got - 2010.06.03 11:33:33.
