data_PCOD9396698
_publ_section_title
;
Structure prediction by ZEFSAII (Michael W. Deem and Ramdas Pophale) SiO2 
 PCOD9396698
Probable space group: P B A N
;
_chemical_formula_sum "Si O2"
_cell_formula_units_Z 36
_cell_length_a 8.525375
_cell_length_b 22.878382
_cell_length_c 9.575312
_cell_angle_alpha 90.000000
_cell_angle_beta 90.000000
_cell_angle_gamma 90.000000
_cell_volume 1867.633830
_symmetry_space_group_name_H-M "P B A N"
_symmetry_group_IT_number 50
_space_group.IT_coordinate_system_code '2'
_symmetry_cell_setting 'orthorhombic'
loop_
_space_group_symop_operation_xyz
x,y,z
1/2-x,1/2-y,z
x,1/2-y,-z
1/2-x,y,-z
-x,-y,-z
1/2+x,1/2+y,-z
-x,1/2+y,z
1/2+x,-y,z
loop_
_atom_site_type_symbol
_atom_site_label
_atom_site_fract_x
_atom_site_fract_y
_atom_site_fract_z
Si Si1 0.545248 0.423342 0.859544
Si Si2 0.931411 0.937780 0.544113
Si Si3 0.750000 0.750000 0.500000
Si Si4 0.599116 0.046657 0.821332
Si Si5 0.502451 0.169467 0.356657
Si Si6 0.750000 0.250000 0.500000
O O1 0.717688 0.439573 0.797572
O O2 0.427465 0.476492 0.823500
O O3 0.498500 0.361156 0.794602
O O4 0.559880 0.426988 0.026813
O O5 0.750000 0.936585 0.500000
O O6 0.980581 0.929574 0.704795
O O7 0.010497 0.886146 0.458374
O O8 0.000000 0.000000 0.500000
O O9 0.646393 0.791900 0.598240
O O10 0.647061 0.210166 0.397230
#
# Coordination Sequence:
#
# PCOD9396698 Si02
#       6
#     8   8   2   8   8   2
#     4  10  21  37  61  89 132 168 199 251 332 390
#     4  12  23  35  61  96 133 160 203 266 330 389
#     4  10  24  42  62  84 128 166 234 260 296 354
#     4  10  21  36  57  98 132 161 195 253 331 411
#     4  11  22  41  62  90 119 171 212 270 309 370
#     4  10  24  38  66  88 120 170 236 266 304 362
#
# _framework density 19.275727
#
# number of rings (size 3 to 8) (size 9 to 14) (size 15 to 20)
#    0.000    1.333    3.333    2.667    1.556    0.000 
#    0.000    0.000    0.000   21.333    0.000    0.000 
#    0.000    0.000    0.000    0.000    0.000    0.000 
#
# Total GULP energy -201036.298769 kJ/mol
# GULP energy per Si atom -5584.341632 kJ/mol
# Density = 1.923185 g / cm^3
# Si number density = 19.275727 Si / 1000 Ang^3
#
#
#
# Elastic Constant Matrix: (Units=GPa)
#
#
# Indices 1 2 3 4 5 6 
#
# 1 107.2976 52.0749 52.5248 0.0000 0.0000 0.0000
# 2 52.0749 138.3632 49.3250 0.0000 0.0000 0.0000
# 3 52.5248 49.3250 109.6629 0.0000 0.0000 0.0000
# 4 0.0000 0.0000 0.0000 39.9508 0.0000 0.0000
# 5 0.0000 0.0000 0.0000 0.0000 25.3647 0.0000
# 6 0.0000 0.0000 0.0000 0.0000 0.0000 -141.6452
#
#
#
# Elastic Compliance Matrix: (Units=1/GPa)
#
#
# Indices 1 2 3 4 5 6 
#
# 1 0.013303 -0.003258 -0.004906 0.000000 0.000000 0.000000
# 2 -0.003258 0.009405 -0.002670 0.000000 0.000000 0.000000
# 3 -0.004906 -0.002670 0.012670 0.000000 0.000000 0.000000
# 4 0.000000 0.000000 0.000000 0.025031 0.000000 0.000000
# 5 0.000000 0.000000 0.000000 0.000000 0.039425 0.000000
# 6 0.000000 0.000000 0.000000 0.000000 0.000000 -0.007060
#
#
# Mechanical properties :
#
#
# Convention : Reuss Voigt Hill
#
# Bulk Modulus (GPa) = 72.94096 73.68593 73.31344
# Shear Modulus (GPa) = 42.01280 -1.83936 20.08672
#
# Velocity S-wave (km/s) = 4.67365 -0.97791 3.23162
# Velocity P-wave (km/s) = 8.18822 6.08566 7.21395
#
# Compressibility (1/GPa) = 0.01370972
#
# Stress axis : x y z
#
# Youngs Moduli (GPa) = 75.17311 106.32353 78.92803
#
# Poissons Ratio (x) = 0.34636 0.38724
# Poissons Ratio (y) = 0.24488 0.21075
# Poissons Ratio (z) = 0.36882 0.28389
#
# Static dielectric constant tensor:
#      x y z
#    x 3.167820 0.000000 0.000000 
#    y 0.000000 1.643340 0.000000 
#    z 0.000000 0.000000 1.735850 
# 
# From -- ./inp_files/9296.got.cif
#   From: 2010.05.17/outbox.cif.g08.bks.cpg/sg50_5_cif.got.tgz:9296.got - 2010.06.03 11:33:33.
