data_PCOD9396483
_publ_section_title
;
Structure prediction by ZEFSAII (Michael W. Deem and Ramdas Pophale) SiO2 
 PCOD9396483
Probable space group: P B A N
;
_chemical_formula_sum "Si O2"
_cell_formula_units_Z 40
_cell_length_a 8.513166
_cell_length_b 14.085060
_cell_length_c 15.300762
_cell_angle_alpha 90.000000
_cell_angle_beta 90.000000
_cell_angle_gamma 90.000000
_cell_volume 1834.690715
_symmetry_space_group_name_H-M "P B A N"
_symmetry_group_IT_number 50
_space_group.IT_coordinate_system_code '2'
_symmetry_cell_setting 'orthorhombic'
loop_
_space_group_symop_operation_xyz
x,y,z
1/2-x,1/2-y,z
x,1/2-y,-z
1/2-x,y,-z
-x,-y,-z
1/2+x,1/2+y,-z
-x,1/2+y,z
1/2+x,-y,z
loop_
_atom_site_type_symbol
_atom_site_label
_atom_site_fract_x
_atom_site_fract_y
_atom_site_fract_z
Si Si1 0.080152 0.865149 0.853551
Si Si2 0.913988 0.694250 0.781512
Si Si3 0.250000 0.549443 0.500000
Si Si4 0.257319 0.451603 0.895608
Si Si5 0.750000 0.250000 0.000000
Si Si6 0.456035 0.103148 0.397594
Si Si7 0.250000 0.250000 0.500000
O O1 0.140795 0.814718 0.940502
O O2 0.046114 0.775997 0.789845
O O3 0.912059 0.913982 0.867408
O O4 0.198984 0.952913 0.842425
O O5 0.750000 0.750000 0.763298
O O6 0.880259 0.631848 0.868641
O O7 0.952280 0.620099 0.705275
O O8 0.139585 0.487416 0.434791
O O9 0.370931 0.603274 0.438064
O O10 0.250000 0.468014 0.000000
O O11 0.359899 0.188523 0.439135
#
# Coordination Sequence:
#
# PCOD9396483 Si02
#       7
#     8   8   4   8   2   8   2
#     4  11  25  41  67  95 131 182 234 290 348 414
#     4  10  23  42  69 102 139 184 235 293 349 420
#     4   9  22  40  72 103 130 182 232 281 358 446
#     4  11  23  43  67  95 136 186 232 290 356 409
#     4  12  24  44  66  96 134 178 254 288 352 428
#     4  10  20  43  67 100 137 177 227 289 355 426
#     4  10  20  38  76  82 134 188 208 282 360 422
#
# _framework density 21.802039000000001
#
# number of rings (size 3 to 8) (size 9 to 14) (size 15 to 20)
#    0.000    1.600    2.000    1.800    2.800    6.400 
#    3.600    0.000    0.000    0.000    0.000    0.000 
#    0.000    0.000    0.000    0.000    0.000    0.000 
#
# Total GULP energy -223359.712781 kJ/mol
# GULP energy per Si atom -5583.992820 kJ/mol
# Density = 2.175242 g / cm^3
# Si number density = 21.802039 Si / 1000 Ang^3
#
#
#
# Elastic Constant Matrix: (Units=GPa)
#
#
# Indices 1 2 3 4 5 6 
#
# 1 108.8460 45.1641 31.6859 0.0000 0.0000 0.0000
# 2 45.1641 98.1043 32.1098 0.0000 0.0000 0.0000
# 3 31.6859 32.1098 93.6598 0.0000 0.0000 0.0000
# 4 0.0000 0.0000 0.0000 37.0097 0.0000 0.0000
# 5 0.0000 0.0000 0.0000 0.0000 17.2365 0.0000
# 6 0.0000 0.0000 0.0000 0.0000 0.0000 46.6781
#
#
#
# Elastic Compliance Matrix: (Units=1/GPa)
#
#
# Indices 1 2 3 4 5 6 
#
# 1 0.011818 -0.004654 -0.002402 0.000000 0.000000 0.000000
# 2 -0.004654 0.013315 -0.002990 0.000000 0.000000 0.000000
# 3 -0.002402 -0.002990 0.012515 0.000000 0.000000 0.000000
# 4 0.000000 0.000000 0.000000 0.027020 0.000000 0.000000
# 5 0.000000 0.000000 0.000000 0.000000 0.058017 0.000000
# 6 0.000000 0.000000 0.000000 0.000000 0.000000 0.021423
#
#
# Mechanical properties :
#
#
# Convention : Reuss Voigt Hill
#
# Bulk Modulus (GPa) = 56.96828 57.61444 57.29136
# Shear Modulus (GPa) = 29.40277 32.96153 31.18215
#
# Velocity S-wave (km/s) = 3.67635 3.89248 3.78595
# Velocity P-wave (km/s) = 6.64885 6.83267 6.74139
#
# Compressibility (1/GPa) = 0.01755363
#
# Stress axis : x y z
#
# Youngs Moduli (GPa) = 84.61757 75.10567 79.90522
#
# Poissons Ratio (x) = 0.34956 0.19197
# Poissons Ratio (y) = 0.39383 0.23893
# Poissons Ratio (z) = 0.20329 0.22458
#
# Static dielectric constant tensor:
#      x y z
#    x 1.805510 0.000000 0.000000 
#    y 0.000000 1.829710 0.000000 
#    z 0.000000 0.000000 1.796970 
# 
# From -- ./inp_files/24761.got.cif
#   From: 2010.05.17/outbox.cif.g08.bks.cpg/sg50_13_cif.got.tgz:24761.got - 2010.06.03 11:33:33.
