data_PCOD9396981
_publ_section_title
;
Structure prediction by ZEFSAII (Michael W. Deem and Ramdas Pophale) SiO2 
 PCOD9396981
Probable space group: P B A N
;
_chemical_formula_sum "Si O2"
_cell_formula_units_Z 64
_cell_length_a 9.478427
_cell_length_b 18.380212
_cell_length_c 18.956940
_cell_angle_alpha 90.000000
_cell_angle_beta 90.000000
_cell_angle_gamma 90.000000
_cell_volume 3302.592737
_symmetry_space_group_name_H-M "P B A N"
_symmetry_group_IT_number 50
_space_group.IT_coordinate_system_code '2'
_symmetry_cell_setting 'orthorhombic'
loop_
_space_group_symop_operation_xyz
x,y,z
1/2-x,1/2-y,z
x,1/2-y,-z
1/2-x,y,-z
-x,-y,-z
1/2+x,1/2+y,-z
-x,1/2+y,z
1/2+x,-y,z
loop_
_atom_site_type_symbol
_atom_site_label
_atom_site_fract_x
_atom_site_fract_y
_atom_site_fract_z
Si Si1 0.129008 0.438920 0.416453
Si Si2 0.987252 0.253078 0.076781
Si Si3 0.775423 0.430451 0.770542
Si Si4 0.045097 0.429514 0.264554
Si Si5 0.751964 0.371428 0.076666
Si Si6 0.881820 0.299354 0.671738
Si Si7 0.460797 0.089831 0.568277
Si Si8 0.899099 0.724372 0.775045
O O1 0.066312 0.407029 0.345395
O O2 0.066617 0.397910 0.484880
O O3 0.299940 0.434046 0.410193
O O4 0.069298 0.521757 0.423281
O O5 0.899338 0.328163 0.085326
O O6 0.868030 0.190679 0.073425
O O7 0.075894 0.242526 0.147361
O O8 0.059627 0.250000 0.000000
O O9 0.615883 0.445529 0.749970
O O10 0.868612 0.498165 0.748917
O O11 0.779184 0.417247 0.854169
O O12 0.823252 0.360072 0.726304
O O13 0.097149 0.362259 0.218550
O O14 0.750000 0.409038 0.000000
O O15 0.750000 0.250000 0.645436
O O16 0.972819 0.343333 0.612648
O O17 0.980597 0.249446 0.721020
O O18 0.750000 0.750000 0.746411
#
# Coordination Sequence:
#
# PCOD9396981 Si02
#       8
#     8   8   8   8   8   8   8   8
#     4  10  21  41  64  98 134 172 214 265 319 407
#     4   9  17  34  63  92 121 166 214 265 328 402
#     4  12  24  40  65  95 129 170 224 270 329 394
#     4  12  25  40  64  93 131 171 214 268 325 397
#     4   9  17  35  64  91 121 167 219 265 324 394
#     4  12  23  43  68  94 129 175 226 283 326 397
#     4  10  22  39  68  97 132 174 221 265 328 392
#     4  12  25  39  64  96 132 165 217 278 338 389
#
# _framework density 19.378713999999999
#
# number of rings (size 3 to 8) (size 9 to 14) (size 15 to 20)
#    0.000    1.250    5.000    2.250    1.750    0.250 
#    0.000    1.250    5.500    2.250    0.000    0.000 
#    0.000    0.000    0.000    0.000    0.000    0.000 
#
# Total GULP energy -357132.899645 kJ/mol
# GULP energy per Si atom -5580.201557 kJ/mol
# Density = 1.933461 g / cm^3
# Si number density = 19.378714 Si / 1000 Ang^3
#
#
#
# Elastic Constant Matrix: (Units=GPa)
#
#
# Indices 1 2 3 4 5 6 
#
# 1 108.0773 39.4013 29.2988 0.0000 0.0000 0.0000
# 2 39.4013 73.6056 23.8708 0.0000 0.0000 0.0000
# 3 29.2988 23.8708 131.4910 0.0000 0.0000 0.0000
# 4 0.0000 0.0000 0.0000 25.6894 0.0000 0.0000
# 5 0.0000 0.0000 0.0000 0.0000 25.0270 0.0000
# 6 0.0000 0.0000 0.0000 0.0000 0.0000 133.2485
#
#
#
# Elastic Compliance Matrix: (Units=1/GPa)
#
#
# Indices 1 2 3 4 5 6 
#
# 1 0.011795 -0.005803 -0.001575 0.000000 0.000000 0.000000
# 2 -0.005803 0.017291 -0.001846 0.000000 0.000000 0.000000
# 3 -0.001575 -0.001846 0.008291 0.000000 0.000000 0.000000
# 4 0.000000 0.000000 0.000000 0.038927 0.000000 0.000000
# 5 0.000000 0.000000 0.000000 0.000000 0.039957 0.000000
# 6 0.000000 0.000000 0.000000 0.000000 0.000000 0.007505
#
#
# Mechanical properties :
#
#
# Convention : Reuss Voigt Hill
#
# Bulk Modulus (GPa) = 52.82751 55.36840 54.09796
# Shear Modulus (GPa) = 33.66475 51.49983 42.58229
#
# Velocity S-wave (km/s) = 4.17250 5.16073 4.69270
# Velocity P-wave (km/s) = 7.10864 8.00904 7.57223
#
# Compressibility (1/GPa) = 0.01892953
#
# Stress axis : x y z
#
# Youngs Moduli (GPa) = 84.78020 57.83316 120.61184
#
# Poissons Ratio (x) = 0.33562 0.18992
# Poissons Ratio (y) = 0.49201 0.22264
# Poissons Ratio (z) = 0.13350 0.10676
#
# Static dielectric constant tensor:
#      x y z
#    x 1.671510 0.000000 0.000000 
#    y 0.000000 1.565230 0.000000 
#    z 0.000000 0.000000 1.731660 
# 
# From -- ./inp_files/28977.got.cif
#   From: 2010.05.17/outbox.cif.g08.bks.cpg/sg50_15_cif.got.tgz:28977.got - 2010.06.03 11:33:33.
