data_PCOD9396900
_publ_section_title
;
Structure prediction by ZEFSAII (Michael W. Deem and Ramdas Pophale) SiO2 
 PCOD9396900
Probable space group: P B A N
;
_chemical_formula_sum "Si O2"
_cell_formula_units_Z 48
_cell_length_a 27.852849
_cell_length_b 10.191245
_cell_length_c 7.647074
_cell_angle_alpha 90.000000
_cell_angle_beta 90.000000
_cell_angle_gamma 90.000000
_cell_volume 2170.661782
_symmetry_space_group_name_H-M "P B A N"
_symmetry_group_IT_number 50
_space_group.IT_coordinate_system_code '2'
_symmetry_cell_setting 'orthorhombic'
loop_
_space_group_symop_operation_xyz
x,y,z
1/2-x,1/2-y,z
x,1/2-y,-z
1/2-x,y,-z
-x,-y,-z
1/2+x,1/2+y,-z
-x,1/2+y,z
1/2+x,-y,z
loop_
_atom_site_type_symbol
_atom_site_label
_atom_site_fract_x
_atom_site_fract_y
_atom_site_fract_z
Si Si1 0.140665 0.515921 0.796291
Si Si2 0.995751 0.132724 0.383565
Si Si3 0.091123 0.728665 0.207618
Si Si4 0.652201 0.000954 0.788480
Si Si5 0.093324 0.254210 0.786493
Si Si6 0.246935 0.898058 0.292528
O O1 0.101386 0.622093 0.730096
O O2 0.128772 0.371056 0.735841
O O3 0.194120 0.553507 0.749235
O O4 0.140452 0.507711 0.006260
O O5 0.974461 0.250000 0.500000
O O6 0.955782 0.136478 0.232660
O O7 0.043945 0.197643 0.303529
O O8 0.000000 0.000000 0.500000
O O9 0.133321 0.638985 0.286381
O O10 0.095358 0.750000 0.000000
O O11 0.709554 0.007106 0.767602
O O12 0.619256 0.879779 0.725638
O O13 0.086516 0.250000 0.000000
O O14 0.250000 0.750000 0.217655
O O15 0.250000 0.890502 0.500000
#
# Coordination Sequence:
#
# PCOD9396900 Si02
#       6
#     8   8   8   8   8   8
#     4  10  21  39  64  90 117 159 210 258 305 366
#     4  12  25  40  61  92 127 166 205 259 321 381
#     4  10  21  39  64  89 116 162 214 260 305 366
#     4  10  21  39  65  89 119 158 210 260 304 364
#     4  10  23  43  63  89 124 165 209 260 315 373
#     4  11  23  38  59  92 126 160 197 251 318 382
#
# _framework density 22.113071999999999
#
# number of rings (size 3 to 8) (size 9 to 14) (size 15 to 20)
#    0.000    1.500    1.667    3.000    0.000    5.333 
#    0.000   10.000    0.000    0.000    0.000    0.000 
#    0.000    0.000    0.000    0.000    0.000    0.000 
#
# Total GULP energy -267463.121004 kJ/mol
# GULP energy per Si atom -5572.148354 kJ/mol
# Density = 2.206274 g / cm^3
# Si number density = 22.113072 Si / 1000 Ang^3
#
#
#
# Elastic Constant Matrix: (Units=GPa)
#
#
# Indices 1 2 3 4 5 6 
#
# 1 136.6529 54.4317 10.4731 0.0000 0.0000 0.0000
# 2 54.4317 152.2029 36.6788 0.0000 0.0000 0.0000
# 3 10.4731 36.6788 39.9669 0.0000 0.0000 0.0000
# 4 0.0000 0.0000 0.0000 32.7932 0.0000 0.0000
# 5 0.0000 0.0000 0.0000 0.0000 65.8840 0.0000
# 6 0.0000 0.0000 0.0000 0.0000 0.0000 31.4015
#
#
#
# Elastic Compliance Matrix: (Units=1/GPa)
#
#
# Indices 1 2 3 4 5 6 
#
# 1 0.008550 -0.003233 0.000726 0.000000 0.000000 0.000000
# 2 -0.003233 0.009658 -0.008016 0.000000 0.000000 0.000000
# 3 0.000726 -0.008016 0.032187 0.000000 0.000000 0.000000
# 4 0.000000 0.000000 0.000000 0.030494 0.000000 0.000000
# 5 0.000000 0.000000 0.000000 0.000000 0.015178 0.000000
# 6 0.000000 0.000000 0.000000 0.000000 0.000000 0.031846
#
#
# Mechanical properties :
#
#
# Convention : Reuss Voigt Hill
#
# Bulk Modulus (GPa) = 34.07202 59.10999 46.59100
# Shear Modulus (GPa) = 31.49764 41.16500 36.33132
#
# Velocity S-wave (km/s) = 3.77820 4.31927 4.05777
# Velocity P-wave (km/s) = 5.87151 7.18774 6.56271
#
# Compressibility (1/GPa) = 0.02934960
#
# Stress axis : x y z
#
# Youngs Moduli (GPa) = 116.96211 103.54002 31.06811
#
# Poissons Ratio (x) = 0.33471 -0.02256
# Poissons Ratio (y) = 0.37810 0.24906
# Poissons Ratio (z) = -0.08494 0.83002
#
# Static dielectric constant tensor:
#      x y z
#    x 1.868220 0.000000 0.000000 
#    y 0.000000 1.840240 0.000000 
#    z 0.000000 0.000000 1.886730 
# 
# From -- ./inp_files/16919.got.cif
#   From: 2010.05.17/outbox.cif.g08.bks.cpg/sg50_9_cif.got.tgz:16919.got - 2010.06.03 11:33:33.
