data_PCOD9396829
_publ_section_title
;
Structure prediction by ZEFSAII (Michael W. Deem and Ramdas Pophale) SiO2 
 PCOD9396829
Probable space group: P B A N
;
_chemical_formula_sum "Si O2"
_cell_formula_units_Z 56
_cell_length_a 5.158801
_cell_length_b 23.057977
_cell_length_c 22.430558
_cell_angle_alpha 90.000000
_cell_angle_beta 90.000000
_cell_angle_gamma 90.000000
_cell_volume 2668.148852
_symmetry_space_group_name_H-M "P B A N"
_symmetry_group_IT_number 50
_space_group.IT_coordinate_system_code '2'
_symmetry_cell_setting 'orthorhombic'
loop_
_space_group_symop_operation_xyz
x,y,z
1/2-x,1/2-y,z
x,1/2-y,-z
1/2-x,y,-z
-x,-y,-z
1/2+x,1/2+y,-z
-x,1/2+y,z
1/2+x,-y,z
loop_
_atom_site_type_symbol
_atom_site_label
_atom_site_fract_x
_atom_site_fract_y
_atom_site_fract_z
Si Si1 0.337000 0.888357 0.152851
Si Si2 0.854588 0.374008 0.637328
Si Si3 0.504691 0.434009 0.027439
Si Si4 0.037783 0.524787 0.433416
Si Si5 0.833072 0.035795 0.736662
Si Si6 0.128070 0.312348 0.323568
Si Si7 0.848441 0.684686 0.817852
O O1 0.441894 0.926508 0.096972
O O2 0.227362 0.932476 0.201464
O O3 0.592456 0.854692 0.175020
O O4 0.095528 0.842411 0.146420
O O5 0.746072 0.420274 0.684788
O O6 0.636641 0.324704 0.640987
O O7 0.876611 0.409458 0.575524
O O8 0.139031 0.354908 0.657715
O O9 0.750000 0.402853 0.000000
O O10 0.500000 0.500000 0.000000
O O11 0.250000 0.406499 0.000000
O O12 0.758501 0.515170 0.404832
O O13 0.000000 0.500000 0.500000
O O14 0.630981 0.982726 0.733686
O O15 0.250000 0.250000 0.335711
O O16 0.073737 0.315597 0.252426
O O17 0.750000 0.750000 0.833129
#
# Coordination Sequence:
#
# PCOD9396829 Si02
#       7
#     8   8   8   8   8   8   8
#     4  12  23  40  64  89 126 167 213 260 332 388
#     4  12  21  39  57  90 131 171 211 262 321 383
#     4  10  23  40  59  85 118 162 207 253 312 385
#     4  10  21  38  61  90 124 170 221 262 314 377
#     4  12  24  34  54  87 129 167 200 256 318 387
#     4  11  22  38  60  91 130 170 211 263 333 394
#     4  11  22  41  64  93 124 164 217 267 323 394
#
# _framework density 20.988333000000001
#
# number of rings (size 3 to 8) (size 9 to 14) (size 15 to 20)
#    0.000    0.857    2.857    5.143    4.000    2.286 
#    0.000    0.000    0.000    6.429    0.000   30.000 
#    0.000    0.000    0.000    0.000    0.000    0.000 
#
# Total GULP energy -312377.517071 kJ/mol
# GULP energy per Si atom -5578.169948 kJ/mol
# Density = 2.094056 g / cm^3
# Si number density = 20.988333 Si / 1000 Ang^3
#
#
#
# Elastic Constant Matrix: (Units=GPa)
#
#
# Indices 1 2 3 4 5 6 
#
# 1 141.9657 15.4966 12.0083 0.0000 0.0000 0.0000
# 2 15.4966 75.6172 36.9954 0.0000 0.0000 0.0000
# 3 12.0083 36.9954 89.7362 0.0000 0.0000 0.0000
# 4 0.0000 0.0000 0.0000 27.0890 0.0000 0.0000
# 5 0.0000 0.0000 0.0000 0.0000 4.1931 0.0000
# 6 0.0000 0.0000 0.0000 0.0000 0.0000 35.9697
#
#
#
# Elastic Compliance Matrix: (Units=1/GPa)
#
#
# Indices 1 2 3 4 5 6 
#
# 1 0.007219 -0.001261 -0.000446 0.000000 0.000000 0.000000
# 2 -0.001261 0.016786 -0.006752 0.000000 0.000000 0.000000
# 3 -0.000446 -0.006752 0.013987 0.000000 0.000000 0.000000
# 4 0.000000 0.000000 0.000000 0.036915 0.000000 0.000000
# 5 0.000000 0.000000 0.000000 0.000000 0.238486 0.000000
# 6 0.000000 0.000000 0.000000 0.000000 0.000000 0.027801
#
#
# Mechanical properties :
#
#
# Convention : Reuss Voigt Hill
#
# Bulk Modulus (GPa) = 47.45064 48.47996 47.96530
# Shear Modulus (GPa) = 13.69347 29.63828 21.66587
#
# Velocity S-wave (km/s) = 2.55705 3.76191 3.21640
# Velocity P-wave (km/s) = 5.60135 6.48213 6.05777
#
# Compressibility (1/GPa) = 0.02107453
#
# Stress axis : x y z
#
# Youngs Moduli (GPa) = 138.51641 59.57273 71.49512
#
# Poissons Ratio (x) = 0.07514 0.03189
# Poissons Ratio (y) = 0.17470 0.48271
# Poissons Ratio (z) = 0.06179 0.40221
#
# Static dielectric constant tensor:
#      x y z
#    x 1.926930 0.000000 0.000000 
#    y 0.000000 1.798440 0.000000 
#    z 0.000000 0.000000 1.604610 
# 
# From -- ./inp_files/31506.got.cif
#   From: 2010.05.17/outbox.cif.g08.bks.cpg/sg50_16_cif.got.tgz:31506.got - 2010.06.03 11:33:33.
