data_PCOD9396054
_publ_section_title
;
Structure prediction by ZEFSAII (Michael W. Deem and Ramdas Pophale) SiO2 
 PCOD9396054
Probable space group: P B A N
;
_chemical_formula_sum "Si O2"
_cell_formula_units_Z 64
_cell_length_a 17.824905
_cell_length_b 19.807128
_cell_length_c 8.231178
_cell_angle_alpha 90.000000
_cell_angle_beta 90.000000
_cell_angle_gamma 90.000000
_cell_volume 2906.101145
_symmetry_space_group_name_H-M "P B A N"
_symmetry_group_IT_number 50
_space_group.IT_coordinate_system_code '2'
_symmetry_cell_setting 'orthorhombic'
loop_
_space_group_symop_operation_xyz
x,y,z
1/2-x,1/2-y,z
x,1/2-y,-z
1/2-x,y,-z
-x,-y,-z
1/2+x,1/2+y,-z
-x,1/2+y,z
1/2+x,-y,z
loop_
_atom_site_type_symbol
_atom_site_label
_atom_site_fract_x
_atom_site_fract_y
_atom_site_fract_z
Si Si1 0.078868 0.049123 0.689404
Si Si2 0.961571 0.681224 0.300989
Si Si3 0.181339 0.876016 0.881477
Si Si4 0.020178 0.673444 0.671613
Si Si5 0.837675 0.252681 0.306397
Si Si6 0.730826 0.990532 0.814677
Si Si7 0.030344 0.561945 0.108648
Si Si8 0.325325 0.395435 0.402724
O O1 0.018962 0.106044 0.732834
O O2 0.115692 0.064872 0.516639
O O3 0.153152 0.050068 0.800716
O O4 0.045033 0.975659 0.717715
O O5 0.007211 0.671549 0.474037
O O6 0.977578 0.759489 0.265272
O O7 0.874185 0.666333 0.337537
O O8 0.983413 0.627668 0.160550
O O9 0.140517 0.814775 0.789333
O O10 0.215939 0.932186 0.757178
O O11 0.111039 0.914945 0.960642
O O12 0.250000 0.855647 0.000000
O O13 0.105717 0.686222 0.728732
O O14 0.750000 0.250000 0.266982
O O15 0.842446 0.250000 0.500000
O O16 0.794693 0.949331 0.725426
O O17 0.750000 0.999077 0.000000
O O18 0.000000 0.500000 0.000000
O O19 0.250000 0.374825 0.500000
#
# Coordination Sequence:
#
# PCOD9396054 Si02
#       8
#     8   8   8   8   8   8   8   8
#     4   9  21  38  60  94 125 164 221 270 324 394
#     4  10  20  37  67  88 127 170 212 265 335 389
#     4  10  22  41  62  91 127 174 218 266 334 403
#     4  10  19  41  62  91 128 165 216 275 324 396
#     4  11  22  41  62  90 123 169 222 273 328 390
#     4   9  19  38  64  92 134 165 208 271 329 400
#     4  11  23  39  63  94 128 168 224 273 335 401
#     4   9  19  37  59  94 125 160 207 262 323 388
#
# _framework density 22.022632999999999
#
# number of rings (size 3 to 8) (size 9 to 14) (size 15 to 20)
#    0.000    2.125    2.500    0.000    5.250    3.250 
#   13.500   11.250    0.000    0.750    0.000    0.000 
#    0.000    0.000    0.000    0.000    0.000    0.000 
#
# Total GULP energy -356578.072363 kJ/mol
# GULP energy per Si atom -5571.532381 kJ/mol
# Density = 2.197251 g / cm^3
# Si number density = 22.022633 Si / 1000 Ang^3
#
#
#
# Elastic Constant Matrix: (Units=GPa)
#
#
# Indices 1 2 3 4 5 6 
#
# 1 112.3966 36.5718 33.6448 0.0000 0.0000 0.0000
# 2 36.5718 79.7559 39.4682 0.0000 0.0000 0.0000
# 3 33.6448 39.4682 37.6186 0.0000 0.0000 0.0000
# 4 0.0000 0.0000 0.0000 35.8490 0.0000 0.0000
# 5 0.0000 0.0000 0.0000 0.0000 18.0833 0.0000
# 6 0.0000 0.0000 0.0000 0.0000 0.0000 38.9195
#
#
#
# Elastic Compliance Matrix: (Units=1/GPa)
#
#
# Indices 1 2 3 4 5 6 
#
# 1 0.012156 -0.000403 -0.010449 0.000000 0.000000 0.000000
# 2 -0.000403 0.026091 -0.027013 0.000000 0.000000 0.000000
# 3 -0.010449 -0.027013 0.064269 0.000000 0.000000 0.000000
# 4 0.000000 0.000000 0.000000 0.027895 0.000000 0.000000
# 5 0.000000 0.000000 0.000000 0.000000 0.055300 0.000000
# 6 0.000000 0.000000 0.000000 0.000000 0.000000 0.025694
#
#
# Mechanical properties :
#
#
# Convention : Reuss Voigt Hill
#
# Bulk Modulus (GPa) = 37.33360 49.90451 43.61905
# Shear Modulus (GPa) = 16.88833 26.57611 21.73222
#
# Velocity S-wave (km/s) = 2.77223 3.47762 3.14477
# Velocity P-wave (km/s) = 5.21883 6.23176 5.74765
#
# Compressibility (1/GPa) = 0.02678552
#
# Stress axis : x y z
#
# Youngs Moduli (GPa) = 82.26358 38.32749 15.55971
#
# Poissons Ratio (x) = 0.01546 0.16258
# Poissons Ratio (y) = 0.03319 0.42031
# Poissons Ratio (z) = 0.85954 1.03534
#
# Static dielectric constant tensor:
#      x y z
#    x 1.879390 0.000000 0.000000 
#    y 0.000000 1.881380 0.000000 
#    z 0.000000 0.000000 1.912610 
# 
# From -- ./inp_files/14629.got.cif
#   From: 2010.05.17/outbox.cif.g08.bks.cpg/sg50_8_cif.got.tgz:14629.got - 2010.06.03 11:33:33.
