data_PCOD9396965
_publ_section_title
;
Structure prediction by ZEFSAII (Michael W. Deem and Ramdas Pophale) SiO2 
 PCOD9396965
Probable space group: P B A N
;
_chemical_formula_sum "Si O2"
_cell_formula_units_Z 56
_cell_length_a 8.954429
_cell_length_b 13.490011
_cell_length_c 22.047904
_cell_angle_alpha 90.000000
_cell_angle_beta 90.000000
_cell_angle_gamma 90.000000
_cell_volume 2663.284186
_symmetry_space_group_name_H-M "P B A N"
_symmetry_group_IT_number 50
_space_group.IT_coordinate_system_code '2'
_symmetry_cell_setting 'orthorhombic'
loop_
_space_group_symop_operation_xyz
x,y,z
1/2-x,1/2-y,z
x,1/2-y,-z
1/2-x,y,-z
-x,-y,-z
1/2+x,1/2+y,-z
-x,1/2+y,z
1/2+x,-y,z
loop_
_atom_site_type_symbol
_atom_site_label
_atom_site_fract_x
_atom_site_fract_y
_atom_site_fract_z
Si Si1 0.000358 0.596501 0.221233
Si Si2 0.489537 0.117336 0.636159
Si Si3 0.683105 0.073315 0.155860
Si Si4 0.206197 0.104003 0.069697
Si Si5 0.770219 0.488335 0.430029
Si Si6 0.078347 0.712093 0.563671
Si Si7 0.953450 0.759556 0.132700
O O1 0.159789 0.591396 0.187982
O O2 0.012193 0.600747 0.293092
O O3 0.911428 0.498787 0.200276
O O4 0.926068 0.696859 0.194222
O O5 0.623657 0.062991 0.598690
O O6 0.499985 0.232752 0.618527
O O7 0.334227 0.073884 0.612095
O O8 0.600427 0.175604 0.141614
O O9 0.694052 0.006271 0.095345
O O10 0.059067 0.170811 0.082998
O O11 0.331656 0.160145 0.110179
O O12 0.250000 0.107701 0.000000
O O13 0.750000 0.518786 0.500000
O O14 0.900725 0.404334 0.432274
O O15 0.250000 0.750000 0.563590
O O16 0.012006 0.750000 0.500000
#
# Coordination Sequence:
#
# PCOD9396965 Si02
#       7
#     8   8   8   8   8   8   8
#     4  11  24  40  64  94 135 169 226 265 329 396
#     4  11  23  38  64  94 118 171 212 257 322 393
#     4  11  22  43  66  96 133 177 212 277 324 384
#     4  10  22  44  68  98 137 175 215 270 340 386
#     4  11  21  39  64  89 123 160 211 268 323 380
#     4   9  17  35  58  82 115 155 198 247 312 372
#     4  10  21  40  67  92 132 175 214 271 328 378
#
# _framework density 21.026671
#
# number of rings (size 3 to 8) (size 9 to 14) (size 15 to 20)
#    0.000    1.571    4.286    2.571    0.000    5.143 
#    2.571    0.714    0.000    0.000    0.000    0.000 
#    0.000    0.000    0.000    0.000    0.000    0.000 
#
# Total GULP energy -312580.150974 kJ/mol
# GULP energy per Si atom -5581.788410 kJ/mol
# Density = 2.097881 g / cm^3
# Si number density = 21.026671 Si / 1000 Ang^3
#
#
#
# Elastic Constant Matrix: (Units=GPa)
#
#
# Indices 1 2 3 4 5 6 
#
# 1 64.3754 25.3793 38.7538 0.0000 0.0000 0.0000
# 2 25.3793 84.7842 41.2565 0.0000 0.0000 0.0000
# 3 38.7538 41.2565 146.4096 0.0000 0.0000 0.0000
# 4 0.0000 0.0000 0.0000 0.4791 0.0000 0.0000
# 5 0.0000 0.0000 0.0000 0.0000 12.9664 0.0000
# 6 0.0000 0.0000 0.0000 0.0000 0.0000 29.2475
#
#
#
# Elastic Compliance Matrix: (Units=1/GPa)
#
#
# Indices 1 2 3 4 5 6 
#
# 1 0.019508 -0.003856 -0.004077 0.000000 0.000000 0.000000
# 2 -0.003856 0.014431 -0.003046 0.000000 0.000000 0.000000
# 3 -0.004077 -0.003046 0.008768 0.000000 0.000000 0.000000
# 4 0.000000 0.000000 0.000000 2.087125 0.000000 0.000000
# 5 0.000000 0.000000 0.000000 0.000000 0.077122 0.000000
# 6 0.000000 0.000000 0.000000 0.000000 0.000000 0.034191
#
#
# Mechanical properties :
#
#
# Convention : Reuss Voigt Hill
#
# Bulk Modulus (GPa) = 48.19412 56.26094 52.22753
# Shear Modulus (GPa) = 2.20262 21.21725 11.70994
#
# Velocity S-wave (km/s) = 1.02460 3.18002 2.36245
# Velocity P-wave (km/s) = 4.93660 6.34810 5.68632
#
# Compressibility (1/GPa) = 0.02074942
#
# Stress axis : x y z
#
# Youngs Moduli (GPa) = 51.25982 69.29549 114.05505
#
# Poissons Ratio (x) = 0.26718 0.46504
# Poissons Ratio (y) = 0.19764 0.34740
# Poissons Ratio (z) = 0.20900 0.21107
#
# Static dielectric constant tensor:
#      x y z
#    x 1.811180 0.000000 0.000000 
#    y 0.000000 1.845880 0.000000 
#    z 0.000000 0.000000 1.719090 
# 
# From -- ./inp_files/30630.got.cif
#   From: 2010.05.17/outbox.cif.g08.bks.cpg/sg50_16_cif.got.tgz:30630.got - 2010.06.03 11:33:33.
