data_PCOD9396877
_publ_section_title
;
Structure prediction by ZEFSAII (Michael W. Deem and Ramdas Pophale) SiO2 
 PCOD9396877
Probable space group: P B A N
;
_chemical_formula_sum "Si O2"
_cell_formula_units_Z 48
_cell_length_a 20.731497
_cell_length_b 18.135734
_cell_length_c 5.498290
_cell_angle_alpha 90.000000
_cell_angle_beta 90.000000
_cell_angle_gamma 90.000000
_cell_volume 2067.252105
_symmetry_space_group_name_H-M "P B A N"
_symmetry_group_IT_number 50
_space_group.IT_coordinate_system_code '2'
_symmetry_cell_setting 'orthorhombic'
loop_
_space_group_symop_operation_xyz
x,y,z
1/2-x,1/2-y,z
x,1/2-y,-z
1/2-x,y,-z
-x,-y,-z
1/2+x,1/2+y,-z
-x,1/2+y,z
1/2+x,-y,z
loop_
_atom_site_type_symbol
_atom_site_label
_atom_site_fract_x
_atom_site_fract_y
_atom_site_fract_z
Si Si1 0.220471 0.098411 0.245732
Si Si2 0.516604 0.176336 0.848495
Si Si3 0.716555 0.422615 0.746879
Si Si4 0.953741 0.569508 0.778879
Si Si5 0.415231 0.575441 0.530949
Si Si6 0.889936 0.675648 0.444101
O O1 0.250000 0.124992 0.500000
O O2 0.146318 0.120117 0.266835
O O3 0.228697 0.010625 0.244112
O O4 0.250000 0.129459 0.000000
O O5 0.577388 0.148289 0.694376
O O6 0.456441 0.198058 0.681908
O O7 0.531565 0.250000 0.000000
O O8 0.487943 0.102059 0.980894
O O9 0.750000 0.393084 0.500000
O O10 0.640538 0.418205 0.672420
O O11 0.750000 0.394569 0.000000
O O12 0.913492 0.494797 0.717470
O O13 0.905869 0.632926 0.689129
O O14 0.016141 0.568146 0.603245
O O15 0.852379 0.750000 0.500000
#
# Coordination Sequence:
#
# PCOD9396877 Si02
#       6
#     8   8   8   8   8   8
#     4  10  23  40  60  88 125 178 234 285 329 388
#     4  11  23  37  63  94 132 178 222 283 360 426
#     4  10  22  39  64  94 130 172 221 282 347 406
#     4  10  21  39  60  93 130 169 226 277 351 409
#     4  10  22  38  62  97 131 174 224 289 342 429
#     4  11  22  38  59  85 128 176 229 282 336 406
#
# _framework density 23.219231000000001
#
# number of rings (size 3 to 8) (size 9 to 14) (size 15 to 20)
#    0.000    1.667    3.333    0.500    4.667    1.667 
#    0.000    0.833    0.000    0.000    0.000    3.500 
#    0.000    0.000    0.000    0.000    0.000    0.000 
#
# Total GULP energy -267523.833173 kJ/mol
# GULP energy per Si atom -5573.413191 kJ/mol
# Density = 2.316638 g / cm^3
# Si number density = 23.219231 Si / 1000 Ang^3
#
#
#
# Elastic Constant Matrix: (Units=GPa)
#
#
# Indices 1 2 3 4 5 6 
#
# 1 68.2666 11.8998 45.9720 0.0000 0.0000 0.0000
# 2 11.8998 34.7113 33.8952 0.0000 0.0000 0.0000
# 3 45.9720 33.8952 146.9152 0.0000 0.0000 0.0000
# 4 0.0000 0.0000 0.0000 24.4864 0.0000 0.0000
# 5 0.0000 0.0000 0.0000 0.0000 36.8736 0.0000
# 6 0.0000 0.0000 0.0000 0.0000 0.0000 15.4127
#
#
#
# Elastic Compliance Matrix: (Units=1/GPa)
#
#
# Indices 1 2 3 4 5 6 
#
# 1 0.018581 -0.000894 -0.005608 0.000000 0.000000 0.000000
# 2 -0.000894 0.037230 -0.008310 0.000000 0.000000 0.000000
# 3 -0.005608 -0.008310 0.010479 0.000000 0.000000 0.000000
# 4 0.000000 0.000000 0.000000 0.040839 0.000000 0.000000
# 5 0.000000 0.000000 0.000000 0.000000 0.027120 0.000000
# 6 0.000000 0.000000 0.000000 0.000000 0.000000 0.064881
#
#
# Mechanical properties :
#
#
# Convention : Reuss Voigt Hill
#
# Bulk Modulus (GPa) = 27.27298 48.15855 37.71576
# Shear Modulus (GPa) = 20.74909 25.89629 23.32269
#
# Velocity S-wave (km/s) = 2.99259 3.34323 3.17275
# Velocity P-wave (km/s) = 4.86951 5.97400 5.44981
#
# Compressibility (1/GPa) = 0.03666632
#
# Stress axis : x y z
#
# Youngs Moduli (GPa) = 53.81911 26.86016 95.43222
#
# Poissons Ratio (x) = 0.02401 0.53518
# Poissons Ratio (y) = 0.04810 0.79302
# Poissons Ratio (z) = 0.30182 0.22320
#
# Static dielectric constant tensor:
#      x y z
#    x 1.941890 0.000000 0.000000 
#    y 0.000000 1.911700 0.000000 
#    z 0.000000 0.000000 1.976750 
# 
# From -- ./inp_files/5280.got.cif
#   From: 2010.05.17/outbox.cif.g08.bks.cpg/sg50_3_cif.got.tgz:5280.got - 2010.06.03 11:33:33.
