data_PCOD9396912
_publ_section_title
;
Structure prediction by ZEFSAII (Michael W. Deem and Ramdas Pophale) SiO2 
 PCOD9396912
Probable space group: P B A N
;
_chemical_formula_sum "Si O2"
_cell_formula_units_Z 44
_cell_length_a 14.934856
_cell_length_b 25.430436
_cell_length_c 5.389464
_cell_angle_alpha 90.000000
_cell_angle_beta 90.000000
_cell_angle_gamma 90.000000
_cell_volume 2046.917887
_symmetry_space_group_name_H-M "P B A N"
_symmetry_group_IT_number 50
_space_group.IT_coordinate_system_code '2'
_symmetry_cell_setting 'orthorhombic'
loop_
_space_group_symop_operation_xyz
x,y,z
1/2-x,1/2-y,z
x,1/2-y,-z
1/2-x,y,-z
-x,-y,-z
1/2+x,1/2+y,-z
-x,1/2+y,z
1/2+x,-y,z
loop_
_atom_site_type_symbol
_atom_site_label
_atom_site_fract_x
_atom_site_fract_y
_atom_site_fract_z
Si Si1 0.670257 0.155881 0.804060
Si Si2 0.391536 0.046703 0.635307
Si Si3 0.889161 0.250000 0.500000
Si Si4 0.520361 0.163992 0.171112
Si Si5 0.095271 0.930733 0.501449
Si Si6 0.340809 0.392784 0.872913
O O1 0.671322 0.206262 0.630392
O O2 0.665457 0.099201 0.675894
O O3 0.750000 0.158600 0.000000
O O4 0.570552 0.163435 0.912254
O O5 0.499266 0.054737 0.623586
O O6 0.366073 0.066140 0.908933
O O7 0.369960 0.985323 0.605679
O O8 0.347162 0.078244 0.398827
O O9 0.951334 0.283587 0.313836
O O10 0.566674 0.113992 0.306259
O O11 0.416389 0.151866 0.147174
O O12 0.250000 0.371059 0.000000
#
# Coordination Sequence:
#
# PCOD9396912 Si02
#       6
#     8   8   4   8   8   8
#     4  11  23  41  65  95 129 171 219 282 340 408
#     4  10  21  39  65  97 138 179 219 263 323 396
#     4  10  24  43  64  97 122 174 226 285 352 417
#     4  10  22  41  65  90 130 168 219 276 337 397
#     4   9  21  37  62  95 135 172 217 264 326 392
#     4  11  23  41  66 100 132 179 221 271 331 398
#
# _framework density 21.495733999999999
#
# number of rings (size 3 to 8) (size 9 to 14) (size 15 to 20)
#    0.000    1.818    1.818    1.091    2.545    8.000 
#    3.273    0.000    0.000    4.364    0.000    0.000 
#    0.000    0.000    0.000    0.000    0.000    0.000 
#
# Total GULP energy -245551.203041 kJ/mol
# GULP energy per Si atom -5580.709160 kJ/mol
# Density = 2.144681 g / cm^3
# Si number density = 21.495734 Si / 1000 Ang^3
#
#
#
# Elastic Constant Matrix: (Units=GPa)
#
#
# Indices 1 2 3 4 5 6 
#
# 1 100.7663 45.1149 23.7821 0.0000 0.0000 0.0000
# 2 45.1149 138.2062 39.4118 0.0000 0.0000 0.0000
# 3 23.7821 39.4118 67.5963 0.0000 0.0000 0.0000
# 4 0.0000 0.0000 0.0000 -8.1037 0.0000 0.0000
# 5 0.0000 0.0000 0.0000 0.0000 40.8078 0.0000
# 6 0.0000 0.0000 0.0000 0.0000 0.0000 14.5026
#
#
#
# Elastic Compliance Matrix: (Units=1/GPa)
#
#
# Indices 1 2 3 4 5 6 
#
# 1 0.011915 -0.003231 -0.002308 0.000000 0.000000 0.000000
# 2 -0.003231 0.009555 -0.004434 0.000000 0.000000 0.000000
# 3 -0.002308 -0.004434 0.018191 0.000000 0.000000 0.000000
# 4 0.000000 0.000000 0.000000 -0.123401 0.000000 0.000000
# 5 0.000000 0.000000 0.000000 0.000000 0.024505 0.000000
# 6 0.000000 0.000000 0.000000 0.000000 0.000000 0.068953
#
#
# Mechanical properties :
#
#
# Convention : Reuss Voigt Hill
#
# Bulk Modulus (GPa) = 50.72475 58.13181 54.42828
# Shear Modulus (GPa) = 137.97958 22.65868 80.31913
#
# Velocity S-wave (km/s) = 8.02051 3.25022 6.11934
# Velocity P-wave (km/s) = 10.46042 6.41774 8.67778
#
# Compressibility (1/GPa) = 0.01971424
#
# Stress axis : x y z
#
# Youngs Moduli (GPa) = 83.92473 104.65920 54.97224
#
# Poissons Ratio (x) = 0.33819 0.12688
# Poissons Ratio (y) = 0.27119 0.24375
# Poissons Ratio (z) = 0.19371 0.46406
#
# Static dielectric constant tensor:
#      x y z
#    x 1.872810 0.000000 0.000000 
#    y 0.000000 1.764410 0.000000 
#    z 0.000000 0.000000 1.871380 
# 
# From -- ./inp_files/3498.got.cif
#   From: 2010.05.17/outbox.cif.g08.bks.cpg/sg50_2_cif.got.tgz:3498.got - 2010.06.03 11:33:33.
