data_PCOD9396059
_publ_section_title
;
Structure prediction by ZEFSAII (Michael W. Deem and Ramdas Pophale) SiO2 
 PCOD9396059
Probable space group: P B A N
;
_chemical_formula_sum "Si O2"
_cell_formula_units_Z 56
_cell_length_a 10.479702
_cell_length_b 15.576818
_cell_length_c 14.624881
_cell_angle_alpha 90.000000
_cell_angle_beta 90.000000
_cell_angle_gamma 90.000000
_cell_volume 2387.371582
_symmetry_space_group_name_H-M "P B A N"
_symmetry_group_IT_number 50
_space_group.IT_coordinate_system_code '2'
_symmetry_cell_setting 'orthorhombic'
loop_
_space_group_symop_operation_xyz
x,y,z
1/2-x,1/2-y,z
x,1/2-y,-z
1/2-x,y,-z
-x,-y,-z
1/2+x,1/2+y,-z
-x,1/2+y,z
1/2+x,-y,z
loop_
_atom_site_type_symbol
_atom_site_label
_atom_site_fract_x
_atom_site_fract_y
_atom_site_fract_z
Si Si1 0.085031 0.305881 0.589211
Si Si2 0.261728 0.351175 0.243304
Si Si3 0.876043 0.198909 0.670648
Si Si4 0.464940 0.386800 0.099075
Si Si5 0.424446 0.069970 0.094399
Si Si6 0.896361 0.071870 0.514125
Si Si7 0.618200 0.210752 0.118389
O O1 0.122055 0.250000 0.500000
O O2 0.197915 0.352588 0.647355
O O3 0.012956 0.244589 0.660328
O O4 0.961222 0.358486 0.553132
O O5 0.250000 0.250000 0.222391
O O6 0.381487 0.391738 0.190696
O O7 0.145127 0.394850 0.186220
O O8 0.750000 0.250000 0.634349
O O9 0.892434 0.112717 0.614146
O O10 0.856087 0.189186 0.776349
O O11 0.561320 0.467632 0.102010
O O12 0.522127 0.290584 0.101430
O O13 0.380679 0.404235 0.008368
O O14 0.559691 0.121375 0.085335
O O15 0.750000 0.045790 0.500000
O O16 0.000000 0.000000 0.500000
O O17 0.750000 0.250000 0.086202
#
# Coordination Sequence:
#
# PCOD9396059 Si02
#       7
#     8   8   8   8   8   8   8
#     4  10  22  43  73 104 139 192 248 313 377 465
#     4  12  24  47  73 107 143 196 257 321 391 458
#     4  10  19  42  74  97 135 194 253 291 375 464
#     4  11  25  45  70 109 144 203 253 310 393 466
#     4  11  26  45  72 104 155 196 250 319 389 468
#     4  11  24  45  71 109 147 194 252 323 390 461
#     4  11  24  44  71 105 142 193 250 313 375 464
#
# _framework density 23.456758000000001
#
# number of rings (size 3 to 8) (size 9 to 14) (size 15 to 20)
#    0.000    1.143    4.286    0.857    2.000    3.143 
#   12.857    0.000    0.000    0.000    0.000    0.000 
#    0.000    0.000    0.000    0.000    0.000    0.000 
#
# Total GULP energy -311925.351438 kJ/mol
# GULP energy per Si atom -5570.095561 kJ/mol
# Density = 2.340337 g / cm^3
# Si number density = 23.456758 Si / 1000 Ang^3
#
#
#
# Elastic Constant Matrix: (Units=GPa)
#
#
# Indices 1 2 3 4 5 6 
#
# 1 120.4240 36.3235 40.9519 0.0000 0.0000 0.0000
# 2 36.3235 93.6193 37.5263 0.0000 0.0000 0.0000
# 3 40.9519 37.5263 164.7300 0.0000 0.0000 0.0000
# 4 0.0000 0.0000 0.0000 14.5736 0.0000 0.0000
# 5 0.0000 0.0000 0.0000 0.0000 83.5250 0.0000
# 6 0.0000 0.0000 0.0000 0.0000 0.0000 21.4799
#
#
#
# Elastic Compliance Matrix: (Units=1/GPa)
#
#
# Indices 1 2 3 4 5 6 
#
# 1 0.009835 -0.003121 -0.001734 0.000000 0.000000 0.000000
# 2 -0.003121 0.012745 -0.002128 0.000000 0.000000 0.000000
# 3 -0.001734 -0.002128 0.006986 0.000000 0.000000 0.000000
# 4 0.000000 0.000000 0.000000 0.068617 0.000000 0.000000
# 5 0.000000 0.000000 0.000000 0.000000 0.011972 0.000000
# 6 0.000000 0.000000 0.000000 0.000000 0.000000 0.046555
#
#
# Mechanical properties :
#
#
# Convention : Reuss Voigt Hill
#
# Bulk Modulus (GPa) = 64.09591 67.59743 65.84667
# Shear Modulus (GPa) = 28.42903 41.51382 34.97142
#
# Velocity S-wave (km/s) = 3.48512 4.21147 3.86539
# Velocity P-wave (km/s) = 6.60146 7.24769 6.93211
#
# Compressibility (1/GPa) = 0.01560162
#
# Stress axis : x y z
#
# Youngs Moduli (GPa) = 101.67752 78.46065 143.13733
#
# Poissons Ratio (x) = 0.24486 0.24821
# Poissons Ratio (y) = 0.31732 0.30454
# Poissons Ratio (z) = 0.17631 0.16693
#
# Static dielectric constant tensor:
#      x y z
#    x 1.699300 0.000000 0.000000 
#    y 0.000000 2.108370 0.000000 
#    z 0.000000 0.000000 1.917840 
# 
# From -- ./inp_files/25928.got.cif
#   From: 2010.05.17/outbox.cif.g08.bks.cpg/sg50_13_cif.got.tgz:25928.got - 2010.06.03 11:33:33.
