data_PCOD9396652
_publ_section_title
;
Structure prediction by ZEFSAII (Michael W. Deem and Ramdas Pophale) SiO2 
 PCOD9396652
Probable space group: P B A N
;
_chemical_formula_sum "Si O2"
_cell_formula_units_Z 56
_cell_length_a 20.799291
_cell_length_b 14.683512
_cell_length_c 8.956076
_cell_angle_alpha 90.000000
_cell_angle_beta 90.000000
_cell_angle_gamma 90.000000
_cell_volume 2735.245070
_symmetry_space_group_name_H-M "P B A N"
_symmetry_group_IT_number 50
_space_group.IT_coordinate_system_code '2'
_symmetry_cell_setting 'orthorhombic'
loop_
_space_group_symop_operation_xyz
x,y,z
1/2-x,1/2-y,z
x,1/2-y,-z
1/2-x,y,-z
-x,-y,-z
1/2+x,1/2+y,-z
-x,1/2+y,z
1/2+x,-y,z
loop_
_atom_site_type_symbol
_atom_site_label
_atom_site_fract_x
_atom_site_fract_y
_atom_site_fract_z
Si Si1 0.758919 0.482681 0.675358
Si Si2 0.570586 0.252606 0.829318
Si Si3 0.383496 0.250000 0.500000
Si Si4 0.104318 0.555620 0.185687
Si Si5 0.816076 0.131093 0.909184
Si Si6 0.200612 0.329728 0.767616
Si Si7 0.115506 0.250000 0.000000
Si Si8 0.544161 0.637628 0.257513
O O1 0.750000 0.477693 0.500000
O O2 0.831471 0.457520 0.717673
O O3 0.707996 0.422151 0.764819
O O4 0.742435 0.582581 0.735173
O O5 0.568035 0.149437 0.771376
O O6 0.644680 0.282520 0.847887
O O7 0.529752 0.329096 0.744860
O O8 0.546160 0.250000 0.000000
O O9 0.340211 0.197638 0.621624
O O10 0.424457 0.325895 0.589130
O O11 0.060411 0.466573 0.213650
O O12 0.134024 0.576050 0.018477
O O13 0.750000 0.147587 0.000000
O O14 0.250000 0.250000 0.796798
O O15 0.155962 0.327932 0.913365
O O16 0.077379 0.301095 0.129359
#
# Coordination Sequence:
#
# PCOD9396652 Si02
#       8
#     8   8   4   8   8   8   4   8
#     4  11  21  37  60  92 126 163 205 254 323 380
#     4  10  22  42  64  90 119 162 211 264 317 374
#     4  10  23  38  58  86 126 175 200 252 310 376
#     4  10  22  39  65  88 122 163 211 258 311 382
#     4   9  21  40  63  92 121 159 205 263 324 380
#     4  11  20  34  58  88 127 162 202 253 310 369
#     4  10  21  34  58  92 123 154 208 256 306 368
#     4  11  21  42  60  87 125 165 210 255 309 371
#
# _framework density 20.473485
#
# number of rings (size 3 to 8) (size 9 to 14) (size 15 to 20)
#    0.000    1.714    0.714    4.714    0.000   11.143 
#    7.714    1.429    0.000    0.000    0.000    0.000 
#    0.000    0.000    0.000    0.000    0.000    0.000 
#
# Total GULP energy -312511.882756 kJ/mol
# GULP energy per Si atom -5580.569335 kJ/mol
# Density = 2.042689 g / cm^3
# Si number density = 20.473485 Si / 1000 Ang^3
#
#
#
# Elastic Constant Matrix: (Units=GPa)
#
#
# Indices 1 2 3 4 5 6 
#
# 1 67.9320 33.7949 3.5334 0.0000 0.0000 0.0000
# 2 33.7949 138.5858 8.8905 0.0000 0.0000 0.0000
# 3 3.5334 8.8905 53.1353 0.0000 0.0000 0.0000
# 4 0.0000 0.0000 0.0000 20.7578 0.0000 0.0000
# 5 0.0000 0.0000 0.0000 0.0000 90.5237 0.0000
# 6 0.0000 0.0000 0.0000 0.0000 0.0000 24.0940
#
#
#
# Elastic Compliance Matrix: (Units=1/GPa)
#
#
# Indices 1 2 3 4 5 6 
#
# 1 0.016763 -0.004060 -0.000435 0.000000 0.000000 0.000000
# 2 -0.004060 0.008277 -0.001115 0.000000 0.000000 0.000000
# 3 -0.000435 -0.001115 0.019035 0.000000 0.000000 0.000000
# 4 0.000000 0.000000 0.000000 0.048175 0.000000 0.000000
# 5 0.000000 0.000000 0.000000 0.000000 0.011047 0.000000
# 6 0.000000 0.000000 0.000000 0.000000 0.000000 0.041504
#
#
# Mechanical properties :
#
#
# Convention : Reuss Voigt Hill
#
# Bulk Modulus (GPa) = 30.43659 39.12120 34.77889
# Shear Modulus (GPa) = 29.94489 41.30404 35.62446
#
# Velocity S-wave (km/s) = 3.82857 4.49647 4.17589
# Velocity P-wave (km/s) = 5.86878 6.79024 6.34625
#
# Compressibility (1/GPa) = 0.03285520
#
# Stress axis : x y z
#
# Youngs Moduli (GPa) = 59.65549 120.81267 52.53371
#
# Poissons Ratio (x) = 0.49047 0.02287
# Poissons Ratio (y) = 0.24219 0.05857
# Poissons Ratio (z) = 0.02598 0.13470
#
# Static dielectric constant tensor:
#      x y z
#    x 1.776980 0.000000 0.000000 
#    y 0.000000 1.668310 0.000000 
#    z 0.000000 0.000000 1.678590 
# 
# From -- ./inp_files/15393.got.cif
#   From: 2010.05.17/outbox.cif.g08.bks.cpg/sg50_8_cif.got.tgz:15393.got - 2010.06.03 11:33:33.
