data_PCOD9396141
_publ_section_title
;
Structure prediction by ZEFSAII (Michael W. Deem and Ramdas Pophale) SiO2 
 PCOD9396141
Probable space group: P B A N
;
_chemical_formula_sum "Si O2"
_cell_formula_units_Z 48
_cell_length_a 9.841777
_cell_length_b 20.877825
_cell_length_c 11.359748
_cell_angle_alpha 90.000000
_cell_angle_beta 90.000000
_cell_angle_gamma 90.000000
_cell_volume 2334.143060
_symmetry_space_group_name_H-M "P B A N"
_symmetry_group_IT_number 50
_space_group.IT_coordinate_system_code '2'
_symmetry_cell_setting 'orthorhombic'
loop_
_space_group_symop_operation_xyz
x,y,z
1/2-x,1/2-y,z
x,1/2-y,-z
1/2-x,y,-z
-x,-y,-z
1/2+x,1/2+y,-z
-x,1/2+y,z
1/2+x,-y,z
loop_
_atom_site_type_symbol
_atom_site_label
_atom_site_fract_x
_atom_site_fract_y
_atom_site_fract_z
Si Si1 0.271427 0.965232 0.141308
Si Si2 0.593881 0.265553 0.193002
Si Si3 0.248420 0.403512 0.730150
Si Si4 0.517137 0.376440 0.835127
Si Si5 0.522631 0.886601 0.091578
Si Si6 0.873299 0.709996 0.379408
O O1 0.426943 0.940860 0.149820
O O2 0.163883 0.909331 0.173137
O O3 0.240723 0.021879 0.233445
O O4 0.250000 0.979367 0.000000
O O5 0.750000 0.250000 0.213411
O O6 0.528725 0.199213 0.153708
O O7 0.568920 0.322800 0.101923
O O8 0.513255 0.286763 0.309415
O O9 0.408440 0.389510 0.733721
O O10 0.178379 0.363980 0.623607
O O11 0.161362 0.374575 0.839741
O O12 0.455048 0.403544 0.956455
O O13 0.750000 0.750000 0.317652
O O14 0.890079 0.750000 0.500000
#
# Coordination Sequence:
#
# PCOD9396141 Si02
#       6
#     8   8   8   8   8   8
#     4  10  20  34  53  83 127 173 197 219 273 347
#     4  11  21  36  57  86 114 155 197 242 292 342
#     4  11  21  35  56  84 112 152 199 241 286 349
#     4  11  20  33  53  85 124 165 195 225 279 334
#     4  10  21  32  52  84 126 163 196 231 268 342
#     4  10  22  42  63  84 102 135 197 255 317 349
#
# _framework density 20.564291999999998
#
# number of rings (size 3 to 8) (size 9 to 14) (size 15 to 20)
#    0.000    1.500    3.333    3.000    0.000    3.667 
#    0.000    1.667    0.000    1.000    4.333    0.000 
#    0.000    0.000    0.000    0.000    0.000    0.000 
#
# Total GULP energy -267412.510203 kJ/mol
# GULP energy per Si atom -5571.093963 kJ/mol
# Density = 2.051749 g / cm^3
# Si number density = 20.564292 Si / 1000 Ang^3
#
#
#
# Elastic Constant Matrix: (Units=GPa)
#
#
# Indices 1 2 3 4 5 6 
#
# 1 76.3419 -3.6027 5.9835 0.0000 0.0000 0.0000
# 2 -3.6027 113.8920 12.5670 0.0000 0.0000 0.0000
# 3 5.9835 12.5670 54.7275 0.0000 0.0000 0.0000
# 4 0.0000 0.0000 0.0000 26.4056 0.0000 0.0000
# 5 0.0000 0.0000 0.0000 0.0000 13.2909 0.0000
# 6 0.0000 0.0000 0.0000 0.0000 0.0000 28.2780
#
#
#
# Elastic Compliance Matrix: (Units=1/GPa)
#
#
# Indices 1 2 3 4 5 6 
#
# 1 0.013251 0.000594 -0.001585 0.000000 0.000000 0.000000
# 2 0.000594 0.009035 -0.002140 0.000000 0.000000 0.000000
# 3 -0.001585 -0.002140 0.018937 0.000000 0.000000 0.000000
# 4 0.000000 0.000000 0.000000 0.037871 0.000000 0.000000
# 5 0.000000 0.000000 0.000000 0.000000 0.075240 0.000000
# 6 0.000000 0.000000 0.000000 0.000000 0.000000 0.035363
#
#
# Mechanical properties :
#
#
# Convention : Reuss Voigt Hill
#
# Bulk Modulus (GPa) = 28.60269 30.53968 29.57119
# Shear Modulus (GPa) = 24.08334 28.92913 26.50623
#
# Velocity S-wave (km/s) = 3.42588 3.75476 3.59408
# Velocity P-wave (km/s) = 5.43948 5.80350 5.62444
#
# Compressibility (1/GPa) = 0.03496174
#
# Stress axis : x y z
#
# Youngs Moduli (GPa) = 75.46456 110.67900 52.80671
#
# Poissons Ratio (x) = -0.06575 0.08371
# Poissons Ratio (y) = -0.04483 0.11299
# Poissons Ratio (z) = 0.11963 0.23682
#
# Static dielectric constant tensor:
#      x y z
#    x 1.737840 0.000000 0.000000 
#    y 0.000000 1.800370 0.000000 
#    z 0.000000 0.000000 1.751490 
# 
# From -- ./inp_files/20173.got.cif
#   From: 2010.05.17/outbox.cif.g08.bks.cpg/sg50_11_cif.got.tgz:20173.got - 2010.06.03 11:33:33.
