data_PCOD9396023
_publ_section_title
;
Structure prediction by ZEFSAII (Michael W. Deem and Ramdas Pophale) SiO2 
 PCOD9396023
Probable space group: P B A N
;
_chemical_formula_sum "Si O2"
_cell_formula_units_Z 56
_cell_length_a 14.081237
_cell_length_b 20.278701
_cell_length_c 9.975238
_cell_angle_alpha 90.000000
_cell_angle_beta 90.000000
_cell_angle_gamma 90.000000
_cell_volume 2848.421179
_symmetry_space_group_name_H-M "P B A N"
_symmetry_group_IT_number 50
_space_group.IT_coordinate_system_code '2'
_symmetry_cell_setting 'orthorhombic'
loop_
_space_group_symop_operation_xyz
x,y,z
1/2-x,1/2-y,z
x,1/2-y,-z
1/2-x,y,-z
-x,-y,-z
1/2+x,1/2+y,-z
-x,1/2+y,z
1/2+x,-y,z
loop_
_atom_site_type_symbol
_atom_site_label
_atom_site_fract_x
_atom_site_fract_y
_atom_site_fract_z
Si Si1 0.058948 0.653621 0.725803
Si Si2 0.006450 0.892572 0.980329
Si Si3 0.973757 0.194343 0.267823
Si Si4 0.730611 0.360822 0.350704
Si Si5 0.364876 0.999083 0.362808
Si Si6 0.533251 0.589042 0.535749
Si Si7 0.647267 0.510069 0.062420
O O1 0.022586 0.728119 0.710145
O O2 0.173537 0.651748 0.729981
O O3 0.024551 0.611125 0.597969
O O4 0.021760 0.626902 0.866260
O O5 0.002173 0.830965 0.880887
O O6 0.093346 0.940046 0.938539
O O7 0.913887 0.938706 0.975615
O O8 0.864525 0.172434 0.295822
O O9 0.038852 0.152990 0.370928
O O10 0.750000 0.334903 0.500000
O O11 0.709280 0.438989 0.364030
O O12 0.466981 0.961670 0.380384
O O13 0.373063 0.052119 0.482323
O O14 0.352717 0.031555 0.217849
O O15 0.750000 0.503062 0.000000
#
# Coordination Sequence:
#
# PCOD9396023 Si02
#       7
#     8   8   8   8   8   8   8
#     4  12  22  37  62  84 126 171 202 252 315 387
#     4  11  24  40  60  93 124 163 211 261 320 372
#     4  11  23  39  56  90 127 164 214 249 311 392
#     4  11  21  36  55  91 125 163 203 251 316 379
#     4  10  19  38  57  86 120 155 214 255 305 371
#     4  10  20  36  59  83 120 161 209 254 301 369
#     4  11  22  41  64  88 128 160 212 268 321 379
#
# _framework density 19.660014
#
# number of rings (size 3 to 8) (size 9 to 14) (size 15 to 20)
#    0.000    1.143    7.143    2.143    0.000    0.571 
#    2.571    1.429    0.000    1.714    0.000    0.000 
#    0.000    0.000    0.000    0.000    0.000    0.000 
#
# Total GULP energy -312720.894546 kJ/mol
# GULP energy per Si atom -5584.301688 kJ/mol
# Density = 1.961527 g / cm^3
# Si number density = 19.660014 Si / 1000 Ang^3
#
#
#
# Elastic Constant Matrix: (Units=GPa)
#
#
# Indices 1 2 3 4 5 6 
#
# 1 47.0044 22.7485 17.6585 0.0000 0.0000 0.0000
# 2 22.7485 74.3928 3.8689 0.0000 0.0000 0.0000
# 3 17.6585 3.8689 88.4887 0.0000 0.0000 0.0000
# 4 0.0000 0.0000 0.0000 22.8124 0.0000 0.0000
# 5 0.0000 0.0000 0.0000 0.0000 14.2934 0.0000
# 6 0.0000 0.0000 0.0000 0.0000 0.0000 12.9950
#
#
#
# Elastic Compliance Matrix: (Units=1/GPa)
#
#
# Indices 1 2 3 4 5 6 
#
# 1 0.027046 -0.008008 -0.005047 0.000000 0.000000 0.000000
# 2 -0.008008 0.015844 0.000905 0.000000 0.000000 0.000000
# 3 -0.005047 0.000905 0.012268 0.000000 0.000000 0.000000
# 4 0.000000 0.000000 0.000000 0.043836 0.000000 0.000000
# 5 0.000000 0.000000 0.000000 0.000000 0.069963 0.000000
# 6 0.000000 0.000000 0.000000 0.000000 0.000000 0.076953
#
#
# Mechanical properties :
#
#
# Convention : Reuss Voigt Hill
#
# Bulk Modulus (GPa) = 32.40544 33.15975 32.78259
# Shear Modulus (GPa) = 17.82557 21.06082 19.44319
#
# Velocity S-wave (km/s) = 3.01440 3.27655 3.14820
# Velocity P-wave (km/s) = 5.35109 5.58727 5.47045
#
# Compressibility (1/GPa) = 0.03085902
#
# Stress axis : x y z
#
# Youngs Moduli (GPa) = 36.97362 63.11606 81.50971
#
# Poissons Ratio (x) = 0.50543 0.41139
# Poissons Ratio (y) = 0.29608 -0.07379
# Poissons Ratio (z) = 0.18661 -0.05714
#
# Static dielectric constant tensor:
#      x y z
#    x 1.676660 0.000000 0.000000 
#    y 0.000000 1.715500 0.000000 
#    z 0.000000 0.000000 1.711340 
# 
# From -- ./inp_files/13283.got.cif
#   From: 2010.05.17/outbox.cif.g08.bks.cpg/sg50_7_cif.got.tgz:13283.got - 2010.06.03 11:33:33.
