data_PCOD9396819
_publ_section_title
;
Structure prediction by ZEFSAII (Michael W. Deem and Ramdas Pophale) SiO2 
 PCOD9396819
Probable space group: P B A N
;
_chemical_formula_sum "Si O2"
_cell_formula_units_Z 40
_cell_length_a 10.825976
_cell_length_b 22.560275
_cell_length_c 8.601764
_cell_angle_alpha 90.000000
_cell_angle_beta 90.000000
_cell_angle_gamma 90.000000
_cell_volume 2100.868997
_symmetry_space_group_name_H-M "P B A N"
_symmetry_group_IT_number 50
_space_group.IT_coordinate_system_code '2'
_symmetry_cell_setting 'orthorhombic'
loop_
_space_group_symop_operation_xyz
x,y,z
1/2-x,1/2-y,z
x,1/2-y,-z
1/2-x,y,-z
-x,-y,-z
1/2+x,1/2+y,-z
-x,1/2+y,z
1/2+x,-y,z
loop_
_atom_site_type_symbol
_atom_site_label
_atom_site_fract_x
_atom_site_fract_y
_atom_site_fract_z
Si Si1 0.374735 0.993229 0.598536
Si Si2 0.735911 0.180928 0.314277
Si Si3 0.636512 0.418551 0.120833
Si Si4 0.213615 0.449248 0.178581
Si Si5 0.476284 0.891305 0.814539
O O1 0.250000 0.980002 0.500000
O O2 0.330552 0.047483 0.707030
O O3 0.500000 0.000000 0.500000
O O4 0.402169 0.942255 0.722132
O O5 0.750000 0.250000 0.276131
O O6 0.750000 0.174126 0.500000
O O7 0.834403 0.134500 0.239592
O O8 0.601667 0.164409 0.242475
O O9 0.641773 0.486010 0.184257
O O10 0.750000 0.416179 0.000000
O O11 0.527665 0.404251 0.999581
O O12 0.117727 0.399562 0.232243
O O13 0.250000 0.442101 0.000000
#
# Coordination Sequence:
#
# PCOD9396819 Si02
#       5
#     8   8   8   8   8
#     4  12  23  35  54  86 129 173 202 249 305 376
#     4  10  21  38  59  88 125 154 204 268 323 365
#     4   9  18  32  53  81 114 161 194 245 299 370
#     4  11  21  37  54  84 132 168 202 247 315 382
#     4  11  21  35  56  85 125 159 205 252 312 371
#
# _framework density 19.039739999999998
#
# number of rings (size 3 to 8) (size 9 to 14) (size 15 to 20)
#    0.000    1.400    8.000    1.200    0.000    3.600 
#    0.000    0.000    0.000    0.000    0.000    2.800 
#    0.000    0.000    0.000    0.000    0.000    0.000 
#
# Total GULP energy -222824.140208 kJ/mol
# GULP energy per Si atom -5570.603505 kJ/mol
# Density = 1.899640 g / cm^3
# Si number density = 19.039740 Si / 1000 Ang^3
#
#
#
# Elastic Constant Matrix: (Units=GPa)
#
#
# Indices 1 2 3 4 5 6 
#
# 1 117.3174 36.9693 52.7147 0.0000 0.0000 0.0000
# 2 36.9693 85.2601 33.8409 0.0000 0.0000 0.0000
# 3 52.7147 33.8409 105.7676 0.0000 0.0000 0.0000
# 4 0.0000 0.0000 0.0000 17.4721 0.0000 0.0000
# 5 0.0000 0.0000 0.0000 0.0000 35.4119 0.0000
# 6 0.0000 0.0000 0.0000 0.0000 0.0000 24.2100
#
#
#
# Elastic Compliance Matrix: (Units=1/GPa)
#
#
# Indices 1 2 3 4 5 6 
#
# 1 0.011680 -0.003155 -0.004812 0.000000 0.000000 0.000000
# 2 -0.003155 0.014287 -0.002999 0.000000 0.000000 0.000000
# 3 -0.004812 -0.002999 0.012813 0.000000 0.000000 0.000000
# 4 0.000000 0.000000 0.000000 0.057234 0.000000 0.000000
# 5 0.000000 0.000000 0.000000 0.000000 0.028239 0.000000
# 6 0.000000 0.000000 0.000000 0.000000 0.000000 0.041305
#
#
# Mechanical properties :
#
#
# Convention : Reuss Voigt Hill
#
# Bulk Modulus (GPa) = 59.35255 61.71056 60.53156
# Shear Modulus (GPa) = 25.89257 27.74014 26.81635
#
# Velocity S-wave (km/s) = 3.69171 3.82116 3.75699
# Velocity P-wave (km/s) = 7.02939 7.20764 7.11907
#
# Compressibility (1/GPa) = 0.01684847
#
# Stress axis : x y z
#
# Youngs Moduli (GPa) = 85.61481 69.99366 78.04833
#
# Poissons Ratio (x) = 0.22080 0.37558
# Poissons Ratio (y) = 0.27008 0.23406
# Poissons Ratio (z) = 0.41199 0.20991
#
# Static dielectric constant tensor:
#      x y z
#    x 1.790870 0.000000 0.000000 
#    y 0.000000 1.652120 0.000000 
#    z 0.000000 0.000000 1.755190 
# 
# From -- ./inp_files/11293.got.cif
#   From: 2010.05.17/outbox.cif.g08.bks.cpg/sg50_6_cif.got.tgz:11293.got - 2010.06.03 11:33:33.
