data_PCOD9396716
_publ_section_title
;
Structure prediction by ZEFSAII (Michael W. Deem and Ramdas Pophale) SiO2 
 PCOD9396716
Probable space group: P B A N
;
_chemical_formula_sum "Si O2"
_cell_formula_units_Z 36
_cell_length_a 12.795209
_cell_length_b 17.975090
_cell_length_c 7.338078
_cell_angle_alpha 90.000000
_cell_angle_beta 90.000000
_cell_angle_gamma 90.000000
_cell_volume 1687.721494
_symmetry_space_group_name_H-M "P B A N"
_symmetry_group_IT_number 50
_space_group.IT_coordinate_system_code '2'
_symmetry_cell_setting 'orthorhombic'
loop_
_space_group_symop_operation_xyz
x,y,z
1/2-x,1/2-y,z
x,1/2-y,-z
1/2-x,y,-z
-x,-y,-z
1/2+x,1/2+y,-z
-x,1/2+y,z
1/2+x,-y,z
loop_
_atom_site_type_symbol
_atom_site_label
_atom_site_fract_x
_atom_site_fract_y
_atom_site_fract_z
Si Si1 0.067719 0.250000 0.000000
Si Si2 0.119920 0.983276 0.452231
Si Si3 0.654517 0.485734 0.141334
Si Si4 0.473433 0.895184 0.868212
Si Si5 0.750000 0.879027 0.500000
Si Si6 0.250000 0.250000 0.752049
O O1 0.153143 0.215079 0.138104
O O2 0.999062 0.309374 0.106940
O O3 0.174839 0.963928 0.647064
O O4 0.103418 0.922339 0.294159
O O5 0.168816 0.064521 0.405039
O O6 0.000000 0.000000 0.500000
O O7 0.582372 0.559363 0.148030
O O8 0.750000 0.496235 0.000000
O O9 0.581542 0.423362 0.052240
O O10 0.796932 0.819229 0.360039
#
# Coordination Sequence:
#
# PCOD9396716 Si02
#       6
#     4   8   8   8   4   4
#     4  11  24  40  57  90 134 172 223 272 353 422
#     4  10  21  36  60  89 126 166 218 273 329 401
#     4  10  21  37  64  90 122 165 225 275 329 397
#     4  10  23  38  59  92 126 172 215 274 340 404
#     4  11  22  40  60  98 131 168 224 278 349 418
#     4  10  24  36  62  90 134 176 206 282 364 412
#
# _framework density 21.330535000000001
#
# number of rings (size 3 to 8) (size 9 to 14) (size 15 to 20)
#    0.000    1.778    0.000    4.000   15.556    0.000 
#    0.000    0.556    0.000    0.000    0.000    4.667 
#    0.000    0.000    0.000    0.000    0.000    0.000 
#
# Total GULP energy -200496.873107 kJ/mol
# GULP energy per Si atom -5569.357586 kJ/mol
# Density = 2.128199 g / cm^3
# Si number density = 21.330535 Si / 1000 Ang^3
#
#
#
# Elastic Constant Matrix: (Units=GPa)
#
#
# Indices 1 2 3 4 5 6 
#
# 1 78.2992 51.0798 26.3528 0.0000 0.0000 0.0000
# 2 51.0798 109.1746 55.0921 0.0000 0.0000 0.0000
# 3 26.3528 55.0921 143.8502 0.0000 0.0000 0.0000
# 4 0.0000 0.0000 0.0000 32.7903 0.0000 0.0000
# 5 0.0000 0.0000 0.0000 0.0000 41.4597 0.0000
# 6 0.0000 0.0000 0.0000 0.0000 0.0000 36.0994
#
#
#
# Elastic Compliance Matrix: (Units=1/GPa)
#
#
# Indices 1 2 3 4 5 6 
#
# 1 0.018383 -0.008555 -0.000091 0.000000 0.000000 0.000000
# 2 -0.008555 0.015335 -0.004306 0.000000 0.000000 0.000000
# 3 -0.000091 -0.004306 0.008617 0.000000 0.000000 0.000000
# 4 0.000000 0.000000 0.000000 0.030497 0.000000 0.000000
# 5 0.000000 0.000000 0.000000 0.000000 0.024120 0.000000
# 6 0.000000 0.000000 0.000000 0.000000 0.000000 0.027701
#
#
# Mechanical properties :
#
#
# Convention : Reuss Voigt Hill
#
# Bulk Modulus (GPa) = 60.85847 66.26368 63.56108
# Shear Modulus (GPa) = 32.04410 35.32317 33.68363
#
# Velocity S-wave (km/s) = 3.88011 4.07380 3.97813
# Velocity P-wave (km/s) = 6.97616 7.29797 7.13888
#
# Compressibility (1/GPa) = 0.01643157
#
# Stress axis : x y z
#
# Youngs Moduli (GPa) = 54.39758 65.21005 116.04332
#
# Poissons Ratio (x) = 0.55786 0.01060
# Poissons Ratio (y) = 0.46536 0.49966
# Poissons Ratio (z) = 0.00497 0.28078
#
# Static dielectric constant tensor:
#      x y z
#    x 1.886510 0.000000 0.000000 
#    y 0.000000 1.730500 0.000000 
#    z 0.000000 0.000000 1.943310 
# 
# From -- ./inp_files/12492.got.cif
#   From: 2010.05.17/outbox.cif.g08.bks.cpg/sg50_7_cif.got.tgz:12492.got - 2010.06.03 11:33:33.
