data_PCOD9396840
_publ_section_title
;
Structure prediction by ZEFSAII (Michael W. Deem and Ramdas Pophale) SiO2 
 PCOD9396840
Probable space group: P B A N
;
_chemical_formula_sum "Si O2"
_cell_formula_units_Z 34
_cell_length_a 19.694525
_cell_length_b 7.136752
_cell_length_c 10.351887
_cell_angle_alpha 90.000000
_cell_angle_beta 90.000000
_cell_angle_gamma 90.000000
_cell_volume 1455.008863
_symmetry_space_group_name_H-M "P B A N"
_symmetry_group_IT_number 50
_space_group.IT_coordinate_system_code '2'
_symmetry_cell_setting 'orthorhombic'
loop_
_space_group_symop_operation_xyz
x,y,z
1/2-x,1/2-y,z
x,1/2-y,-z
1/2-x,y,-z
-x,-y,-z
1/2+x,1/2+y,-z
-x,1/2+y,z
1/2+x,-y,z
loop_
_atom_site_type_symbol
_atom_site_label
_atom_site_fract_x
_atom_site_fract_y
_atom_site_fract_z
Si Si1 0.635151 0.524577 0.980214
Si Si2 0.412356 0.990734 0.263505
Si Si3 0.932169 0.930823 0.724718
Si Si4 0.750000 0.250000 0.000000
Si Si5 0.171324 0.021210 0.496528
O O1 0.579225 0.496471 0.869738
O O2 0.649407 0.750000 0.000000
O O3 0.610040 0.445647 0.117927
O O4 0.699684 0.401815 0.934055
O O5 0.412470 0.215032 0.267185
O O6 0.360241 0.936294 0.373788
O O7 0.488217 0.935131 0.303893
O O8 0.880514 0.020321 0.621722
O O9 0.171236 0.250000 0.500000
O O10 0.250000 0.966759 0.500000
#
# Coordination Sequence:
#
# PCOD9396840 Si02
#       5
#     8   8   8   2   8
#     4  10  24  42  65  96 127 168 210 257 317 376
#     4  10  21  38  63  90 124 165 212 260 313 377
#     4  10  21  38  63  90 124 165 212 260 313 377
#     4  12  26  40  68  96 136 160 204 266 316 378
#     4   9  19  36  59  87 122 167 209 258 321 376
#
# _framework density 23.367553999999998
#
# number of rings (size 3 to 8) (size 9 to 14) (size 15 to 20)
#    0.000    2.118    0.000    1.765    6.588    0.000 
#    0.000    0.000    0.000    2.824    0.000    0.000 
#    0.000    0.000    0.000    0.000    0.000    0.000 
#
# Total GULP energy -189705.508350 kJ/mol
# GULP energy per Si atom -5579.573775 kJ/mol
# Density = 2.331437 g / cm^3
# Si number density = 23.367554 Si / 1000 Ang^3
#
#
#
# Elastic Constant Matrix: (Units=GPa)
#
#
# Indices 1 2 3 4 5 6 
#
# 1 191.2759 5.7576 95.9855 0.0000 0.0000 0.0000
# 2 5.7576 100.2380 -6.1166 0.0000 0.0000 0.0000
# 3 95.9855 -6.1166 167.4199 0.0000 0.0000 0.0000
# 4 0.0000 0.0000 0.0000 -43.4014 0.0000 0.0000
# 5 0.0000 0.0000 0.0000 0.0000 -313.6436 0.0000
# 6 0.0000 0.0000 0.0000 0.0000 0.0000 36.6344
#
#
#
# Elastic Compliance Matrix: (Units=1/GPa)
#
#
# Indices 1 2 3 4 5 6 
#
# 1 0.007386 -0.000684 -0.004260 0.000000 0.000000 0.000000
# 2 -0.000684 0.010062 0.000760 0.000000 0.000000 0.000000
# 3 -0.004260 0.000760 0.008443 0.000000 0.000000 0.000000
# 4 0.000000 0.000000 0.000000 -0.023041 0.000000 0.000000
# 5 0.000000 0.000000 0.000000 0.000000 -0.003188 0.000000
# 6 0.000000 0.000000 0.000000 0.000000 0.000000 0.027297
#
#
# Mechanical properties :
#
#
# Convention : Reuss Voigt Hill
#
# Bulk Modulus (GPa) = 57.06761 72.24299 64.65530
# Shear Modulus (GPa) = 121.45420 -39.86164 40.79628
#
# Velocity S-wave (km/s) = 7.21723 -4.13468 4.18287
# Velocity P-wave (km/s) = 9.69154 2.86164 7.14545
#
# Compressibility (1/GPa) = 0.01752308
#
# Stress axis : x y z
#
# Youngs Moduli (GPa) = 135.38721 99.38456 118.44231
#
# Poissons Ratio (x) = 0.06800 0.50453
# Poissons Ratio (y) = 0.09263 -0.09000
# Poissons Ratio (z) = 0.57671 -0.07552
#
# Static dielectric constant tensor:
#      x y z
#    x 1.921600 0.000000 0.000000 
#    y 0.000000 1.933760 0.000000 
#    z 0.000000 0.000000 1.891740 
# 
# From -- ./inp_files/14934.got.cif
#   From: 2010.05.17/outbox.cif.g08.bks.cpg/sg50_8_cif.got.tgz:14934.got - 2010.06.03 11:33:33.
