data_PCOD9396618
_publ_section_title
;
Structure prediction by ZEFSAII (Michael W. Deem and Ramdas Pophale) SiO2 
 PCOD9396618
Probable space group: P B A N
;
_chemical_formula_sum "Si O2"
_cell_formula_units_Z 64
_cell_length_a 37.339904
_cell_length_b 8.237970
_cell_length_c 10.408644
_cell_angle_alpha 90.000000
_cell_angle_beta 90.000000
_cell_angle_gamma 90.000000
_cell_volume 3201.751031
_symmetry_space_group_name_H-M "P B A N"
_symmetry_group_IT_number 50
_space_group.IT_coordinate_system_code '2'
_symmetry_cell_setting 'orthorhombic'
loop_
_space_group_symop_operation_xyz
x,y,z
1/2-x,1/2-y,z
x,1/2-y,-z
1/2-x,y,-z
-x,-y,-z
1/2+x,1/2+y,-z
-x,1/2+y,z
1/2+x,-y,z
loop_
_atom_site_type_symbol
_atom_site_label
_atom_site_fract_x
_atom_site_fract_y
_atom_site_fract_z
Si Si1 0.736201 0.080606 0.149877
Si Si2 0.793170 0.850807 0.136445
Si Si3 0.584033 0.028347 0.274206
Si Si4 0.159493 0.434077 0.811267
Si Si5 0.459263 0.554798 0.519443
Si Si6 0.646697 0.427896 0.067363
Si Si7 0.040663 0.441815 0.980870
Si Si8 0.580250 0.088056 0.776393
O O1 0.750000 0.250000 0.205804
O O2 0.756487 0.917634 0.196662
O O3 0.693710 0.057119 0.174812
O O4 0.750000 0.080809 0.000000
O O5 0.820653 0.735526 0.211735
O O6 0.814166 0.020085 0.112081
O O7 0.788833 0.750000 0.000000
O O8 0.625753 0.976383 0.276159
O O9 0.559725 0.967920 0.155898
O O10 0.438843 0.957395 0.090639
O O11 0.582460 0.221784 0.253660
O O12 0.140611 0.444890 0.951635
O O13 0.458770 0.750000 0.500000
O O14 0.500000 0.500000 0.500000
O O15 0.435058 0.482554 0.406372
O O16 0.441638 0.513643 0.657348
O O17 0.642792 0.250000 0.000000
O O18 0.620855 0.455706 0.187231
O O19 0.041999 0.250000 0.000000
O O20 0.000000 0.500000 0.000000
#
# Coordination Sequence:
#
# PCOD9396618 Si02
#       8
#     8   8   8   8   8   8   8   8
#     4  11  20  30  48  77 120 169 205 237 305 367
#     4  10  21  30  48  78 126 163 206 241 309 360
#     4  11  23  41  62  91 124 160 205 257 322 363
#     4  11  21  32  54  83 127 160 196 261 307 360
#     4  10  24  45  67  88 117 164 207 257 308 380
#     4  11  18  31  53  81 119 157 193 247 303 359
#     4  12  25  39  61  89 121 156 201 252 314 377
#     4  11  22  39  63  87 122 157 203 253 309 370
#
# _framework density 19.989061
#
# number of rings (size 3 to 8) (size 9 to 14) (size 15 to 20)
#    0.000    1.125    5.000    3.000    1.750    3.000 
#    0.000    0.000    0.000    0.000    0.000    0.875 
#    0.000    6.500    0.000    0.000    0.000    0.000 
#
# Total GULP energy -356514.226767 kJ/mol
# GULP energy per Si atom -5570.534793 kJ/mol
# Density = 1.994356 g / cm^3
# Si number density = 19.989061 Si / 1000 Ang^3
#
#
#
# Elastic Constant Matrix: (Units=GPa)
#
#
# Indices 1 2 3 4 5 6 
#
# 1 169.4854 43.1428 44.1951 0.0000 0.0000 0.0000
# 2 43.1428 70.1066 11.7475 0.0000 0.0000 0.0000
# 3 44.1951 11.7475 65.4272 0.0000 0.0000 0.0000
# 4 0.0000 0.0000 0.0000 6.2525 0.0000 0.0000
# 5 0.0000 0.0000 0.0000 0.0000 11.0512 0.0000
# 6 0.0000 0.0000 0.0000 0.0000 0.0000 31.2509
#
#
#
# Elastic Compliance Matrix: (Units=1/GPa)
#
#
# Indices 1 2 3 4 5 6 
#
# 1 0.008237 -0.004265 -0.004798 0.000000 0.000000 0.000000
# 2 -0.004265 0.016915 -0.000156 0.000000 0.000000 0.000000
# 3 -0.004798 -0.000156 0.018553 0.000000 0.000000 0.000000
# 4 0.000000 0.000000 0.000000 0.159937 0.000000 0.000000
# 5 0.000000 0.000000 0.000000 0.000000 0.090488 0.000000
# 6 0.000000 0.000000 0.000000 0.000000 0.000000 0.031999
#
#
# Mechanical properties :
#
#
# Convention : Reuss Voigt Hill
#
# Bulk Modulus (GPa) = 39.57816 55.91002 47.74409
# Shear Modulus (GPa) = 14.16473 23.43984 18.80228
#
# Velocity S-wave (km/s) = 2.66489 3.42809 3.07029
# Velocity P-wave (km/s) = 5.41403 6.61060 6.04201
#
# Compressibility (1/GPa) = 0.02526646
#
# Stress axis : x y z
#
# Youngs Moduli (GPa) = 121.40256 59.11998 53.89867
#
# Poissons Ratio (x) = 0.25214 0.25862
# Poissons Ratio (y) = 0.51778 0.00842
# Poissons Ratio (z) = 0.58252 0.00923
#
# Static dielectric constant tensor:
#      x y z
#    x 1.873810 0.000000 0.000000 
#    y 0.000000 1.792970 0.000000 
#    z 0.000000 0.000000 1.772670 
# 
# From -- ./inp_files/27812.got.cif
#   From: 2010.05.17/outbox.cif.g08.bks.cpg/sg50_14_cif.got.tgz:27812.got - 2010.06.03 11:33:33.
