data_PCOD9396619
_publ_section_title
;
Structure prediction by ZEFSAII (Michael W. Deem and Ramdas Pophale) SiO2 
 PCOD9396619
Probable space group: P B A N
;
_chemical_formula_sum "Si O2"
_cell_formula_units_Z 46
_cell_length_a 21.333938
_cell_length_b 5.094038
_cell_length_c 22.058330
_cell_angle_alpha 90.000000
_cell_angle_beta 90.000000
_cell_angle_gamma 90.000000
_cell_volume 2397.208664
_symmetry_space_group_name_H-M "P B A N"
_symmetry_group_IT_number 50
_space_group.IT_coordinate_system_code '2'
_symmetry_cell_setting 'orthorhombic'
loop_
_space_group_symop_operation_xyz
x,y,z
1/2-x,1/2-y,z
x,1/2-y,-z
1/2-x,y,-z
-x,-y,-z
1/2+x,1/2+y,-z
-x,1/2+y,z
1/2+x,-y,z
loop_
_atom_site_type_symbol
_atom_site_label
_atom_site_fract_x
_atom_site_fract_y
_atom_site_fract_z
Si Si1 0.630717 0.036041 0.794577
Si Si2 0.250000 0.750000 0.000000
Si Si3 0.162371 0.944860 0.103629
Si Si4 0.545023 0.277522 0.696803
Si Si5 0.750000 0.750000 0.197000
Si Si6 0.956928 0.183305 0.563067
Si Si7 0.955208 0.729768 0.129583
O O1 0.640193 0.183121 0.859764
O O2 0.596609 0.227105 0.747907
O O3 0.697553 0.929479 0.771299
O O4 0.583295 0.794938 0.808635
O O5 0.203720 0.597057 0.955332
O O6 0.207910 0.073805 0.152953
O O7 0.102849 0.128524 0.089074
O O8 0.573485 0.271652 0.628644
O O9 0.495527 0.493630 0.876149
O O10 0.494565 0.042830 0.702061
O O11 0.922281 0.250000 0.500000
O O12 0.015333 0.389619 0.562040
#
# Coordination Sequence:
#
# PCOD9396619 Si02
#       7
#     8   2   8   8   4   8   8
#     4  11  21  37  59  86 118 152 189 245 291 353
#     4  12  24  50  64  88 110 148 212 246 290 360
#     4  11  24  42  66  88 113 150 192 247 295 348
#     4  10  21  31  52  87 116 157 192 226 287 352
#     4  10  22  39  58  88 114 147 198 246 306 338
#     4   8  14  27  44  69 112 156 188 225 265 322
#     4  11  22  39  63  89 118 149 181 226 299 356
#
# _framework density 19.188986
#
# number of rings (size 3 to 8) (size 9 to 14) (size 15 to 20)
#    0.000    1.739    3.478    1.043    4.870    0.348 
#    0.000    0.870    0.000    0.000    0.000    0.000 
#    0.000    4.174    0.348    0.000    0.000    0.000 
#
# Total GULP energy -256195.850424 kJ/mol
# GULP energy per Si atom -5569.475009 kJ/mol
# Density = 1.914531 g / cm^3
# Si number density = 19.188986 Si / 1000 Ang^3
#
#
#
# Elastic Constant Matrix: (Units=GPa)
#
#
# Indices 1 2 3 4 5 6 
#
# 1 93.3791 34.1390 33.5513 0.0000 0.0000 0.0000
# 2 34.1390 110.0820 18.7814 0.0000 0.0000 0.0000
# 3 33.5513 18.7814 92.4660 0.0000 0.0000 0.0000
# 4 0.0000 0.0000 0.0000 314.9405 0.0000 0.0000
# 5 0.0000 0.0000 0.0000 0.0000 10.9833 0.0000
# 6 0.0000 0.0000 0.0000 0.0000 0.0000 25.0129
#
#
#
# Elastic Compliance Matrix: (Units=1/GPa)
#
#
# Indices 1 2 3 4 5 6 
#
# 1 0.013481 -0.003466 -0.004187 0.000000 0.000000 0.000000
# 2 -0.003466 0.010302 -0.000835 0.000000 0.000000 0.000000
# 3 -0.004187 -0.000835 0.012504 0.000000 0.000000 0.000000
# 4 0.000000 0.000000 0.000000 0.003175 0.000000 0.000000
# 5 0.000000 0.000000 0.000000 0.000000 0.091047 0.000000
# 6 0.000000 0.000000 0.000000 0.000000 0.000000 0.039979
#
#
# Mechanical properties :
#
#
# Convention : Reuss Voigt Hill
#
# Bulk Modulus (GPa) = 51.78860 52.09672 51.94266
# Shear Modulus (GPa) = 25.78632 84.15103 54.96868
#
# Velocity S-wave (km/s) = 3.66978 6.62941 5.35800
# Velocity P-wave (km/s) = 6.70848 9.26320 8.08735
#
# Compressibility (1/GPa) = 0.01930927
#
# Stress axis : x y z
#
# Youngs Moduli (GPa) = 74.17925 97.07300 79.97602
#
# Poissons Ratio (x) = 0.33648 0.33490
# Poissons Ratio (y) = 0.25713 0.06675
# Poissons Ratio (z) = 0.31062 0.08102
#
# Static dielectric constant tensor:
#      x y z
#    x 1.706000 0.000000 0.000000 
#    y 0.000000 1.811720 0.000000 
#    z 0.000000 0.000000 1.739870 
# 
# From -- ./inp_files/29945.got.cif
#   From: 2010.05.17/outbox.cif.g08.bks.cpg/sg50_15_cif.got.tgz:29945.got - 2010.06.03 11:33:33.
