data_PCOD9396207
_publ_section_title
;
Structure prediction by ZEFSAII (Michael W. Deem and Ramdas Pophale) SiO2 
 PCOD9396207
Probable space group: P B A N
;
_chemical_formula_sum "Si O2"
_cell_formula_units_Z 58
_cell_length_a 29.530370
_cell_length_b 8.152672
_cell_length_c 11.743644
_cell_angle_alpha 90.000000
_cell_angle_beta 90.000000
_cell_angle_gamma 90.000000
_cell_volume 2827.298977
_symmetry_space_group_name_H-M "P B A N"
_symmetry_group_IT_number 50
_space_group.IT_coordinate_system_code '2'
_symmetry_cell_setting 'orthorhombic'
loop_
_space_group_symop_operation_xyz
x,y,z
1/2-x,1/2-y,z
x,1/2-y,-z
1/2-x,y,-z
-x,-y,-z
1/2+x,1/2+y,-z
-x,1/2+y,z
1/2+x,-y,z
loop_
_atom_site_type_symbol
_atom_site_label
_atom_site_fract_x
_atom_site_fract_y
_atom_site_fract_z
Si Si1 0.726092 0.411167 0.818785
Si Si2 0.152961 0.146498 0.116348
Si Si3 0.663102 0.249812 0.364685
Si Si4 0.305754 0.100082 0.293491
Si Si5 0.482924 0.469715 0.749806
Si Si6 0.439047 0.781109 0.633571
Si Si7 0.551026 0.665714 0.878387
Si Si8 0.250000 0.250000 0.500000
O O1 0.750000 0.250000 0.867031
O O2 0.687610 0.496429 0.892270
O O3 0.701100 0.351156 0.702777
O O4 0.764323 0.541796 0.786400
O O5 0.167924 0.258676 0.224533
O O6 0.101074 0.091942 0.130967
O O7 0.155455 0.250000 0.000000
O O8 0.671373 0.250000 0.500000
O O9 0.665273 0.436770 0.319022
O O10 0.613204 0.178280 0.341335
O O11 0.283085 0.154309 0.412806
O O12 0.453036 0.614669 0.698758
O O13 0.523732 0.415463 0.666855
O O14 0.510573 0.539966 0.857275
O O15 0.454995 0.309994 0.785057
O O16 0.441667 0.750000 0.500000
O O17 0.547316 0.750000 0.000000
#
# Coordination Sequence:
#
# PCOD9396207 Si02
#       8
#     8   8   8   8   8   8   8   2
#     4  10  21  39  59  84 116 154 197 244 294 350
#     4  11  23  41  61  86 121 157 200 248 292 352
#     4  10  21  36  57  85 120 154 197 246 300 351
#     4  11  22  37  59  85 116 155 197 241 297 351
#     4  10  20  36  58  83 115 149 192 242 290 352
#     4  10  20  35  55  81 116 155 192 236 290 355
#     4  10  21  37  61  86 114 151 192 243 294 343
#     4  12  20  36  60  84 116 148 198 242 292 344
#
# _framework density 20.514278999999998
#
# number of rings (size 3 to 8) (size 9 to 14) (size 15 to 20)
#    0.000    1.655    1.379    3.310    0.000    3.034 
#    0.000    4.828    3.034   11.586    0.000    0.000 
#    0.000    0.000    0.000    0.000    0.000    0.000 
#
# Total GULP energy -324030.730143 kJ/mol
# GULP energy per Si atom -5586.736727 kJ/mol
# Density = 2.046759 g / cm^3
# Si number density = 20.514279 Si / 1000 Ang^3
#
#
#
# Elastic Constant Matrix: (Units=GPa)
#
#
# Indices 1 2 3 4 5 6 
#
# 1 88.2443 5.3307 19.4021 0.0000 0.0000 0.0000
# 2 5.3307 37.2764 -3.1140 0.0000 0.0000 0.0000
# 3 19.4021 -3.1140 61.9791 0.0000 0.0000 0.0000
# 4 0.0000 0.0000 0.0000 19.3021 0.0000 0.0000
# 5 0.0000 0.0000 0.0000 0.0000 -63.5900 0.0000
# 6 0.0000 0.0000 0.0000 0.0000 0.0000 1.3714
#
#
#
# Elastic Compliance Matrix: (Units=1/GPa)
#
#
# Indices 1 2 3 4 5 6 
#
# 1 0.012331 -0.002095 -0.003965 0.000000 0.000000 0.000000
# 2 -0.002095 0.027296 0.002027 0.000000 0.000000 0.000000
# 3 -0.003965 0.002027 0.017478 0.000000 0.000000 0.000000
# 4 0.000000 0.000000 0.000000 0.051808 0.000000 0.000000
# 5 0.000000 0.000000 0.000000 0.000000 -0.015726 0.000000
# 6 0.000000 0.000000 0.000000 0.000000 0.000000 0.729176
#
#
# Mechanical properties :
#
#
# Convention : Reuss Voigt Hill
#
# Bulk Modulus (GPa) = 20.39222 25.63745 23.01484
# Shear Modulus (GPa) = 5.90477 2.47544 4.19010
#
# Velocity S-wave (km/s) = 1.69842 1.09969 1.43072
# Velocity P-wave (km/s) = 3.71594 3.75991 3.73799
#
# Compressibility (1/GPa) = 0.04903831
#
# Stress axis : x y z
#
# Youngs Moduli (GPa) = 81.09949 36.63606 57.21608
#
# Poissons Ratio (x) = 0.07674 0.22687
# Poissons Ratio (y) = 0.16987 -0.11598
# Poissons Ratio (z) = 0.32158 -0.07427
#
# Static dielectric constant tensor:
#      x y z
#    x 1.714070 0.000000 0.000000 
#    y 0.000000 1.738690 0.000000 
#    z 0.000000 0.000000 1.715240 
# 
# From -- ./inp_files/23372.got.cif
#   From: 2010.05.17/outbox.cif.g08.bks.cpg/sg50_12_cif.got.tgz:23372.got - 2010.06.03 11:33:33.
