data_PCOD9396597
_publ_section_title
;
Structure prediction by ZEFSAII (Michael W. Deem and Ramdas Pophale) SiO2 
 PCOD9396597
Probable space group: P B A N
;
_chemical_formula_sum "Si O2"
_cell_formula_units_Z 32
_cell_length_a 15.395408
_cell_length_b 16.449912
_cell_length_c 4.955789
_cell_angle_alpha 90.000000
_cell_angle_beta 90.000000
_cell_angle_gamma 90.000000
_cell_volume 1255.068961
_symmetry_space_group_name_H-M "P B A N"
_symmetry_group_IT_number 50
_space_group.IT_coordinate_system_code '2'
_symmetry_cell_setting 'orthorhombic'
loop_
_space_group_symop_operation_xyz
x,y,z
1/2-x,1/2-y,z
x,1/2-y,-z
1/2-x,y,-z
-x,-y,-z
1/2+x,1/2+y,-z
-x,1/2+y,z
1/2+x,-y,z
loop_
_atom_site_type_symbol
_atom_site_label
_atom_site_fract_x
_atom_site_fract_y
_atom_site_fract_z
Si Si1 0.339229 0.380160 0.121663
Si Si2 0.250000 0.750000 0.000000
Si Si3 0.954202 0.750000 0.000000
Si Si4 0.352604 0.959169 0.591735
Si Si5 0.397403 0.860560 0.123846
Si Si6 0.250000 0.250000 0.500000
O O1 0.396346 0.327999 0.911330
O O2 0.378419 0.454354 0.283337
O O3 0.308348 0.308824 0.319585
O O4 0.250000 0.414282 0.000000
O O5 0.312264 0.806471 0.177373
O O6 0.022152 0.800786 0.820323
O O7 0.250000 0.961014 0.500000
O O8 0.401072 0.936921 0.318158
O O9 0.380132 0.893111 0.819519
#
# Coordination Sequence:
#
# PCOD9396597 Si02
#       6
#     8   2   4   8   8   2
#     4  12  25  47  75 106 145 197 255 312 373 451
#     4  10  20  42  70 102 146 192 254 282 364 448
#     4  11  27  49  69 112 154 194 247 309 381 445
#     4  12  24  46  74 109 145 194 254 302 372 441
#     4  11  26  44  73 110 148 198 240 312 370 446
#     4  12  22  40  80 106 132 200 246 312 370 432
#
# _framework density 25.496606
#
# number of rings (size 3 to 8) (size 9 to 14) (size 15 to 20)
#    0.000    0.500    6.250    1.500    0.000    9.000 
#    0.000    0.000    0.000    0.000    0.000    0.000 
#    0.000    0.000    0.000    0.000    0.000    0.000 
#
# Total GULP energy -178734.606521 kJ/mol
# GULP energy per Si atom -5585.456454 kJ/mol
# Density = 2.543857 g / cm^3
# Si number density = 25.496606 Si / 1000 Ang^3
#
#
#
# Elastic Constant Matrix: (Units=GPa)
#
#
# Indices 1 2 3 4 5 6 
#
# 1 95.0928 32.4100 7.2308 0.0000 0.0000 0.0000
# 2 32.4100 133.7033 18.4306 0.0000 0.0000 0.0000
# 3 7.2308 18.4306 90.0774 0.0000 0.0000 0.0000
# 4 0.0000 0.0000 0.0000 45.9113 0.0000 0.0000
# 5 0.0000 0.0000 0.0000 0.0000 1.5052 0.0000
# 6 0.0000 0.0000 0.0000 0.0000 0.0000 28.1974
#
#
#
# Elastic Compliance Matrix: (Units=1/GPa)
#
#
# Indices 1 2 3 4 5 6 
#
# 1 0.011475 -0.002732 -0.000362 0.000000 0.000000 0.000000
# 2 -0.002732 0.008347 -0.001489 0.000000 0.000000 0.000000
# 3 -0.000362 -0.001489 0.011435 0.000000 0.000000 0.000000
# 4 0.000000 0.000000 0.000000 0.021781 0.000000 0.000000
# 5 0.000000 0.000000 0.000000 0.000000 0.664357 0.000000
# 6 0.000000 0.000000 0.000000 0.000000 0.000000 0.035464
#
#
# Mechanical properties :
#
#
# Convention : Reuss Voigt Hill
#
# Bulk Modulus (GPa) = 45.26559 48.33513 46.80036
# Shear Modulus (GPa) = 6.49868 32.50960 19.50414
#
# Velocity S-wave (km/s) = 1.59824 3.57467 2.76881
# Velocity P-wave (km/s) = 4.60412 6.00302 5.34950
#
# Compressibility (1/GPa) = 0.02209184
#
# Stress axis : x y z
#
# Youngs Moduli (GPa) = 87.14935 119.80979 87.44924
#
# Poissons Ratio (x) = 0.32726 0.03167
# Poissons Ratio (y) = 0.23805 0.13017
# Poissons Ratio (z) = 0.03157 0.17834
#
# Static dielectric constant tensor:
#      x y z
#    x 2.207620 0.000000 0.000000 
#    y 0.000000 1.985540 0.000000 
#    z 0.000000 0.000000 2.005650 
# 
# From -- ./inp_files/3082.got.cif
#   From: 2010.05.17/outbox.cif.g08.bks.cpg/sg50_2_cif.got.tgz:3082.got - 2010.06.03 11:33:33.
