data_PCOD9396975
_publ_section_title
;
Structure prediction by ZEFSAII (Michael W. Deem and Ramdas Pophale) SiO2 
 PCOD9396975
Probable space group: P B A N
;
_chemical_formula_sum "Si O2"
_cell_formula_units_Z 34
_cell_length_a 27.017684
_cell_length_b 9.381642
_cell_length_c 6.217394
_cell_angle_alpha 90.000000
_cell_angle_beta 90.000000
_cell_angle_gamma 90.000000
_cell_volume 1575.924343
_symmetry_space_group_name_H-M "P B A N"
_symmetry_group_IT_number 50
_space_group.IT_coordinate_system_code '2'
_symmetry_cell_setting 'orthorhombic'
loop_
_space_group_symop_operation_xyz
x,y,z
1/2-x,1/2-y,z
x,1/2-y,-z
1/2-x,y,-z
-x,-y,-z
1/2+x,1/2+y,-z
-x,1/2+y,z
1/2+x,-y,z
loop_
_atom_site_type_symbol
_atom_site_label
_atom_site_fract_x
_atom_site_fract_y
_atom_site_fract_z
Si Si1 0.384067 0.908555 0.015565
Si Si2 0.968626 0.130158 0.684974
Si Si3 0.924167 0.892800 0.386630
Si Si4 0.250000 0.250000 0.500000
Si Si5 0.799352 0.897701 0.878644
O O1 0.392329 0.999247 0.236988
O O2 0.360984 0.750000 0.000000
O O3 0.435919 0.880222 0.898014
O O4 0.346563 0.004578 0.881313
O O5 0.957065 0.250000 0.500000
O O6 0.026122 0.150615 0.744292
O O7 0.950969 0.984878 0.570860
O O8 0.902289 0.750000 0.500000
O O9 0.217005 0.148651 0.355103
O O10 0.811426 0.750000 0.000000
O O11 0.750000 0.956072 0.000000
#
# Coordination Sequence:
#
# PCOD9396975 Si02
#       5
#     8   8   8   2   8
#     4  12  24  40  65  97 133 169 216 272 334 393
#     4  10  21  41  60  90 134 178 216 263 324 380
#     4  10  23  40  62  91 131 176 224 265 310 389
#     4   8  18  48  72  92 124 160 208 272 320 390
#     4   9  22  43  67  95 123 160 210 264 325 393
#
# _framework density 21.574639000000001
#
# number of rings (size 3 to 8) (size 9 to 14) (size 15 to 20)
#    0.000    2.118    2.353    0.706    3.294    4.235 
#    2.118    0.000    0.000    0.000    0.000    0.000 
#    0.000    0.000    0.000    0.000    0.000    0.000 
#
# Total GULP energy -189356.024752 kJ/mol
# GULP energy per Si atom -5569.294846 kJ/mol
# Density = 2.152553 g / cm^3
# Si number density = 21.574639 Si / 1000 Ang^3
#
#
#
# Elastic Constant Matrix: (Units=GPa)
#
#
# Indices 1 2 3 4 5 6 
#
# 1 72.2978 34.7206 23.2433 0.0000 0.0000 0.0000
# 2 34.7206 132.8438 47.0196 0.0000 0.0000 0.0000
# 3 23.2433 47.0196 86.3743 0.0000 0.0000 0.0000
# 4 0.0000 0.0000 0.0000 19.6540 0.0000 0.0000
# 5 0.0000 0.0000 0.0000 0.0000 -580.0739 0.0000
# 6 0.0000 0.0000 0.0000 0.0000 0.0000 29.2569
#
#
#
# Elastic Compliance Matrix: (Units=1/GPa)
#
#
# Indices 1 2 3 4 5 6 
#
# 1 0.016260 -0.003346 -0.002554 0.000000 0.000000 0.000000
# 2 -0.003346 0.010013 -0.004550 0.000000 0.000000 0.000000
# 3 -0.002554 -0.004550 0.014742 0.000000 0.000000 0.000000
# 4 0.000000 0.000000 0.000000 0.050880 0.000000 0.000000
# 5 0.000000 0.000000 0.000000 0.000000 -0.001724 0.000000
# 6 0.000000 0.000000 0.000000 0.000000 0.000000 0.034180
#
#
# Mechanical properties :
#
#
# Convention : Reuss Voigt Hill
#
# Bulk Modulus (GPa) = 49.71687 55.72033 52.71860
# Shear Modulus (GPa) = 32.90446 -93.79711 -30.44632
#
# Velocity S-wave (km/s) = 3.90955 -6.60076 -3.76068
# Velocity P-wave (km/s) = 6.59345 5.67543 2.37309
#
# Compressibility (1/GPa) = 0.02011390
#
# Stress axis : x y z
#
# Youngs Moduli (GPa) = 61.50234 99.87397 67.83390
#
# Poissons Ratio (x) = 0.33414 0.17326
# Poissons Ratio (y) = 0.20576 0.30866
# Poissons Ratio (z) = 0.15709 0.45445
#
# Static dielectric constant tensor:
#      x y z
#    x 1.818430 0.000000 0.000000 
#    y 0.000000 1.880270 0.000000 
#    z 0.000000 0.000000 1.889260 
# 
# From -- ./inp_files/6995.got.cif
#   From: 2010.05.17/outbox.cif.g08.bks.cpg/sg50_4_cif.got.tgz:6995.got - 2010.06.03 11:33:33.
