data_PCOD9396249
_publ_section_title
;
Structure prediction by ZEFSAII (Michael W. Deem and Ramdas Pophale) SiO2 
 PCOD9396249
Probable space group: P B A N
;
_chemical_formula_sum "Si O2"
_cell_formula_units_Z 64
_cell_length_a 30.385298
_cell_length_b 9.052290
_cell_length_c 12.262030
_cell_angle_alpha 90.000000
_cell_angle_beta 90.000000
_cell_angle_gamma 90.000000
_cell_volume 3372.751413
_symmetry_space_group_name_H-M "P B A N"
_symmetry_group_IT_number 50
_space_group.IT_coordinate_system_code '2'
_symmetry_cell_setting 'orthorhombic'
loop_
_space_group_symop_operation_xyz
x,y,z
1/2-x,1/2-y,z
x,1/2-y,-z
1/2-x,y,-z
-x,-y,-z
1/2+x,1/2+y,-z
-x,1/2+y,z
1/2+x,-y,z
loop_
_atom_site_type_symbol
_atom_site_label
_atom_site_fract_x
_atom_site_fract_y
_atom_site_fract_z
Si Si1 0.246198 0.070627 0.373460
Si Si2 0.569427 0.908582 0.279729
Si Si3 0.954604 0.419788 0.474676
Si Si4 0.361817 0.926702 0.005020
Si Si5 0.456281 0.417961 0.040193
Si Si6 0.174163 0.080493 0.779657
Si Si7 0.329279 0.082116 0.793790
Si Si8 0.102860 0.349885 0.403262
O O1 0.250000 0.250000 0.378372
O O2 0.250000 0.019421 0.500000
O O3 0.285492 0.021552 0.292896
O O4 0.201941 0.033374 0.306161
O O5 0.542260 0.906115 0.170411
O O6 0.620752 0.915724 0.249294
O O7 0.566053 0.760461 0.352853
O O8 0.556618 0.048891 0.349800
O O9 0.956420 0.250000 0.500000
O O10 0.917906 0.506494 0.543604
O O11 0.000000 0.500000 0.500000
O O12 0.340986 0.982811 0.118644
O O13 0.364925 0.750000 0.000000
O O14 0.410910 0.997949 0.992636
O O15 0.332202 0.986363 0.903810
O O16 0.453511 0.250000 0.000000
O O17 0.500000 0.500000 0.000000
O O18 0.183929 0.248124 0.820842
O O19 0.135230 0.103661 0.692210
O O20 0.124541 0.250000 0.500000
#
# Coordination Sequence:
#
# PCOD9396249 Si02
#       8
#     8   8   8   8   8   8   8   8
#     4   9  19  32  61  97 121 148 196 252 307 364
#     4   9  20  37  58  82 115 156 187 238 293 344
#     4  11  23  37  55  80 111 150 194 236 286 347
#     4  11  23  40  60  84 118 164 210 245 296 356
#     4  11  23  40  63  91 120 153 197 248 302 354
#     4  10  20  35  62  91 117 155 195 249 302 357
#     4   9  19  38  61  85 122 152 195 250 302 358
#     4   9  19  34  57  83 115 151 190 234 295 354
#
# _framework density 18.975605999999999
#
# number of rings (size 3 to 8) (size 9 to 14) (size 15 to 20)
#    0.000    2.125    0.000    4.125    7.000    5.500 
#    0.000    3.125    0.000    0.750    0.000    0.000 
#    0.000    0.000    0.000    0.000    0.000    0.000 
#
# Total GULP energy -357016.879491 kJ/mol
# GULP energy per Si atom -5578.388742 kJ/mol
# Density = 1.893242 g / cm^3
# Si number density = 18.975606 Si / 1000 Ang^3
#
#
#
# Elastic Constant Matrix: (Units=GPa)
#
#
# Indices 1 2 3 4 5 6 
#
# 1 60.2872 32.2419 47.1350 0.0000 0.0000 0.0000
# 2 32.2419 131.7802 71.8602 0.0000 0.0000 0.0000
# 3 47.1350 71.8602 166.5083 0.0000 0.0000 0.0000
# 4 0.0000 0.0000 0.0000 22.2366 0.0000 0.0000
# 5 0.0000 0.0000 0.0000 0.0000 11.9241 0.0000
# 6 0.0000 0.0000 0.0000 0.0000 0.0000 16.0289
#
#
#
# Elastic Compliance Matrix: (Units=1/GPa)
#
#
# Indices 1 2 3 4 5 6 
#
# 1 0.021959 -0.002593 -0.005097 0.000000 0.000000 0.000000
# 2 -0.002593 0.010230 -0.003681 0.000000 0.000000 0.000000
# 3 -0.005097 -0.003681 0.009037 0.000000 0.000000 0.000000
# 4 0.000000 0.000000 0.000000 0.044971 0.000000 0.000000
# 5 0.000000 0.000000 0.000000 0.000000 0.083864 0.000000
# 6 0.000000 0.000000 0.000000 0.000000 0.000000 0.062387
#
#
# Mechanical properties :
#
#
# Convention : Reuss Voigt Hill
#
# Bulk Modulus (GPa) = 54.10054 73.44998 63.77526
# Shear Modulus (GPa) = 19.13130 23.86050 21.49590
#
# Velocity S-wave (km/s) = 3.17867 3.54987 3.36939
# Velocity P-wave (km/s) = 6.48416 7.45612 6.98706
#
# Compressibility (1/GPa) = 0.01848410
#
# Stress axis : x y z
#
# Youngs Moduli (GPa) = 45.53902 97.75100 110.65429
#
# Poissons Ratio (x) = 0.25349 0.56401
# Poissons Ratio (y) = 0.11809 0.40731
# Poissons Ratio (z) = 0.23211 0.35981
#
# Static dielectric constant tensor:
#      x y z
#    x 1.681720 0.000000 0.000000 
#    y 0.000000 1.638370 0.000000 
#    z 0.000000 0.000000 1.695040 
# 
# From -- ./inp_files/23408.got.cif
#   From: 2010.05.17/outbox.cif.g08.bks.cpg/sg50_12_cif.got.tgz:23408.got - 2010.06.03 11:33:33.
