data_PCOD9396472
_publ_section_title
;
Structure prediction by ZEFSAII (Michael W. Deem and Ramdas Pophale) SiO2 
 PCOD9396472
Probable space group: P B A N
;
_chemical_formula_sum "Si O2"
_cell_formula_units_Z 58
_cell_length_a 16.168979
_cell_length_b 8.298221
_cell_length_c 18.430478
_cell_angle_alpha 90.000000
_cell_angle_beta 90.000000
_cell_angle_gamma 90.000000
_cell_volume 2472.886552
_symmetry_space_group_name_H-M "P B A N"
_symmetry_group_IT_number 50
_space_group.IT_coordinate_system_code '2'
_symmetry_cell_setting 'orthorhombic'
loop_
_space_group_symop_operation_xyz
x,y,z
1/2-x,1/2-y,z
x,1/2-y,-z
1/2-x,y,-z
-x,-y,-z
1/2+x,1/2+y,-z
-x,1/2+y,z
1/2+x,-y,z
loop_
_atom_site_type_symbol
_atom_site_label
_atom_site_fract_x
_atom_site_fract_y
_atom_site_fract_z
Si Si1 0.575215 0.539634 0.759641
Si Si2 0.610659 0.998313 0.695533
Si Si3 0.250000 0.250000 0.500000
Si Si4 0.923804 0.134257 0.907524
Si Si5 0.104589 0.004045 0.950758
Si Si6 0.542146 0.370501 0.445388
Si Si7 0.832321 0.843137 0.181583
Si Si8 0.866730 0.665075 0.377385
O O1 0.482984 0.512894 0.728018
O O2 0.589626 0.416859 0.824841
O O3 0.593717 0.716271 0.796016
O O4 0.629810 0.532177 0.685904
O O5 0.661365 0.005451 0.769844
O O6 0.648945 0.831195 0.664435
O O7 0.602796 0.092937 0.620639
O O8 0.192184 0.352698 0.553923
O O9 0.905688 0.320923 0.921486
O O10 0.875169 0.020326 0.964780
O O11 0.017626 0.093854 0.933284
O O12 0.166117 0.103100 0.901150
O O13 0.584809 0.250000 0.500000
O O14 0.500000 0.500000 0.500000
O O15 0.459470 0.304045 0.406932
O O16 0.750000 0.750000 0.198315
#
# Coordination Sequence:
#
# PCOD9396472 Si02
#       8
#     8   8   2   8   8   8   8   8
#     4  10  22  38  64  98 137 183 236 300 350 433
#     4  10  21  37  62  93 132 173 235 287 350 426
#     4  12  20  40  64  96 142 174 226 288 382 468
#     4  10  20  38  66 102 142 184 248 295 351 415
#     4  10  21  37  66 103 140 192 237 301 354 427
#     4  11  19  36  57  92 125 158 223 279 335 420
#     4  11  24  42  66 104 143 187 244 299 373 439
#     4  10  22  35  61  95 126 178 220 283 355 435
#
# _framework density 23.454371999999999
#
# number of rings (size 3 to 8) (size 9 to 14) (size 15 to 20)
#    0.000    1.655    3.448    0.828    5.793    1.655 
#    0.000    2.069    0.000    1.655    0.000    7.724 
#    0.000    0.000    0.000    0.000    0.000    0.000 
#
# Total GULP energy -323112.441713 kJ/mol
# GULP energy per Si atom -5570.904167 kJ/mol
# Density = 2.340099 g / cm^3
# Si number density = 23.454372 Si / 1000 Ang^3
#
#
#
# Elastic Constant Matrix: (Units=GPa)
#
#
# Indices 1 2 3 4 5 6 
#
# 1 55.8168 18.9373 43.8397 0.0000 0.0000 0.0000
# 2 18.9373 50.6547 34.6367 0.0000 0.0000 0.0000
# 3 43.8397 34.6367 173.1090 0.0000 0.0000 0.0000
# 4 0.0000 0.0000 0.0000 46.5263 0.0000 0.0000
# 5 0.0000 0.0000 0.0000 0.0000 36.2872 0.0000
# 6 0.0000 0.0000 0.0000 0.0000 0.0000 19.7039
#
#
#
# Elastic Compliance Matrix: (Units=1/GPa)
#
#
# Indices 1 2 3 4 5 6 
#
# 1 0.023612 -0.005490 -0.004881 0.000000 0.000000 0.000000
# 2 -0.005490 0.024147 -0.003441 0.000000 0.000000 0.000000
# 3 -0.004881 -0.003441 0.007701 0.000000 0.000000 0.000000
# 4 0.000000 0.000000 0.000000 0.021493 0.000000 0.000000
# 5 0.000000 0.000000 0.000000 0.000000 0.027558 0.000000
# 6 0.000000 0.000000 0.000000 0.000000 0.000000 0.050751
#
#
# Mechanical properties :
#
#
# Convention : Reuss Voigt Hill
#
# Bulk Modulus (GPa) = 35.92462 52.71196 44.31829
# Shear Modulus (GPa) = 26.01916 32.64794 29.33355
#
# Velocity S-wave (km/s) = 3.33431 3.73497 3.54031
# Velocity P-wave (km/s) = 5.49304 6.41272 5.97062
#
# Compressibility (1/GPa) = 0.02783606
#
# Stress axis : x y z
#
# Youngs Moduli (GPa) = 42.35104 41.41332 129.84583
#
# Poissons Ratio (x) = 0.22734 0.63382
# Poissons Ratio (y) = 0.23249 0.44682
# Poissons Ratio (z) = 0.20673 0.14251
#
# Static dielectric constant tensor:
#      x y z
#    x 1.864090 0.000000 0.000000 
#    y 0.000000 2.014320 0.000000 
#    z 0.000000 0.000000 2.148490 
# 
# From -- ./inp_files/29719.got.cif
#   From: 2010.05.17/outbox.cif.g08.bks.cpg/sg50_15_cif.got.tgz:29719.got - 2010.06.03 11:33:33.
