data_PCOD9396777
_publ_section_title
;
Structure prediction by ZEFSAII (Michael W. Deem and Ramdas Pophale) SiO2 
 PCOD9396777
Probable space group: P B A N
;
_chemical_formula_sum "Si O2"
_cell_formula_units_Z 34
_cell_length_a 13.455692
_cell_length_b 9.221037
_cell_length_c 12.278207
_cell_angle_alpha 90.000000
_cell_angle_beta 90.000000
_cell_angle_gamma 90.000000
_cell_volume 1523.423860
_symmetry_space_group_name_H-M "P B A N"
_symmetry_group_IT_number 50
_space_group.IT_coordinate_system_code '2'
_symmetry_cell_setting 'orthorhombic'
loop_
_space_group_symop_operation_xyz
x,y,z
1/2-x,1/2-y,z
x,1/2-y,-z
1/2-x,y,-z
-x,-y,-z
1/2+x,1/2+y,-z
-x,1/2+y,z
1/2+x,-y,z
loop_
_atom_site_type_symbol
_atom_site_label
_atom_site_fract_x
_atom_site_fract_y
_atom_site_fract_z
Si Si1 0.382908 0.507588 0.034077
Si Si2 0.447805 0.828842 0.759653
Si Si3 0.631545 0.016999 0.791194
Si Si4 0.715347 0.081546 0.382168
Si Si5 0.750000 0.750000 0.000000
O O1 0.385370 0.615574 0.135135
O O2 0.500000 0.500000 0.000000
O O3 0.337190 0.546245 0.916098
O O4 0.328032 0.355987 0.061703
O O5 0.432658 0.657287 0.755019
O O6 0.399120 0.906646 0.654190
O O7 0.559161 0.880296 0.780244
O O8 0.723141 0.001389 0.710874
O O9 0.750000 0.250000 0.376593
O O10 0.750000 0.027676 0.500000
#
# Coordination Sequence:
#
# PCOD9396777 Si02
#       5
#     8   8   8   8   2
#     4  10  23  36  61  93 128 162 205 254 308 387
#     4  10  21  37  60  89 121 159 198 252 308 366
#     4  10  21  37  60  89 121 159 198 252 308 366
#     4   9  19  37  57  81 115 156 205 253 301 364
#     4  12  24  40  62  94 126 184 198 256 320 352
#
# _framework density 22.318148999999998
#
# number of rings (size 3 to 8) (size 9 to 14) (size 15 to 20)
#    0.000    2.118    0.000    2.118   13.176    0.941 
#    0.000    4.706    0.000    1.412    0.000    0.000 
#    0.000    0.000    0.000    0.000    0.000    0.000 
#
# Total GULP energy -189601.713978 kJ/mol
# GULP energy per Si atom -5576.520999 kJ/mol
# Density = 2.226735 g / cm^3
# Si number density = 22.318149 Si / 1000 Ang^3
#
#
#
# Elastic Constant Matrix: (Units=GPa)
#
#
# Indices 1 2 3 4 5 6 
#
# 1 58.9906 21.3774 4.1773 0.0000 0.0000 0.0000
# 2 21.3774 57.0401 -15.2965 0.0000 0.0000 0.0000
# 3 4.1773 -15.2965 114.3579 0.0000 0.0000 0.0000
# 4 0.0000 0.0000 0.0000 19.5245 0.0000 0.0000
# 5 0.0000 0.0000 0.0000 0.0000 25.5658 0.0000
# 6 0.0000 0.0000 0.0000 0.0000 0.0000 35.3927
#
#
#
# Elastic Compliance Matrix: (Units=1/GPa)
#
#
# Indices 1 2 3 4 5 6 
#
# 1 0.019965 -0.007964 -0.001795 0.000000 0.000000 0.000000
# 2 -0.007964 0.021360 0.003148 0.000000 0.000000 0.000000
# 3 -0.001795 0.003148 0.009231 0.000000 0.000000 0.000000
# 4 0.000000 0.000000 0.000000 0.051218 0.000000 0.000000
# 5 0.000000 0.000000 0.000000 0.000000 0.039115 0.000000
# 6 0.000000 0.000000 0.000000 0.000000 0.000000 0.028254
#
#
# Mechanical properties :
#
#
# Convention : Reuss Voigt Hill
#
# Bulk Modulus (GPa) = 26.78369 27.87833 27.33101
# Shear Modulus (GPa) = 25.66622 30.77197 28.21909
#
# Velocity S-wave (km/s) = 3.39487 3.71723 3.55970
# Velocity P-wave (km/s) = 5.23390 5.56257 5.40074
#
# Compressibility (1/GPa) = 0.03733616
#
# Stress axis : x y z
#
# Youngs Moduli (GPa) = 50.08800 46.81574 108.32926
#
# Poissons Ratio (x) = 0.37282 0.19440
# Poissons Ratio (y) = 0.39888 -0.34103
# Poissons Ratio (z) = 0.08988 -0.14738
#
# Static dielectric constant tensor:
#      x y z
#    x 1.892580 0.000000 0.000000 
#    y 0.000000 1.867490 0.000000 
#    z 0.000000 0.000000 1.867240 
# 
# From -- ./inp_files/18511.got.cif
#   From: 2010.05.17/outbox.cif.g08.bks.cpg/sg50_10_cif.got.tgz:18511.got - 2010.06.03 11:33:33.
