data_PCOD9396696
_publ_section_title
;
Structure prediction by ZEFSAII (Michael W. Deem and Ramdas Pophale) SiO2 
 PCOD9396696
Probable space group: P B A N
;
_chemical_formula_sum "Si O2"
_cell_formula_units_Z 46
_cell_length_a 5.045210
_cell_length_b 18.550729
_cell_length_c 21.352213
_cell_angle_alpha 90.000000
_cell_angle_beta 90.000000
_cell_angle_gamma 90.000000
_cell_volume 1998.403226
_symmetry_space_group_name_H-M "P B A N"
_symmetry_group_IT_number 50
_space_group.IT_coordinate_system_code '2'
_symmetry_cell_setting 'orthorhombic'
loop_
_space_group_symop_operation_xyz
x,y,z
1/2-x,1/2-y,z
x,1/2-y,-z
1/2-x,y,-z
-x,-y,-z
1/2+x,1/2+y,-z
-x,1/2+y,z
1/2+x,-y,z
loop_
_atom_site_type_symbol
_atom_site_label
_atom_site_fract_x
_atom_site_fract_y
_atom_site_fract_z
Si Si1 0.504725 0.698054 0.187569
Si Si2 0.250000 0.250000 0.585016
Si Si3 0.474010 0.450605 0.144513
Si Si4 0.389823 0.827854 0.677516
Si Si5 0.242790 0.837168 0.928746
Si Si6 0.483479 0.547141 0.706252
Si Si7 0.750000 0.250000 0.500000
O O1 0.750000 0.750000 0.181182
O O2 0.518242 0.658510 0.253969
O O3 0.459534 0.650659 0.126076
O O4 0.250000 0.750000 0.191333
O O5 0.381959 0.313881 0.626295
O O6 0.514271 0.220244 0.547166
O O7 0.217034 0.496530 0.130174
O O8 0.502221 0.378510 0.103970
O O9 0.508163 0.435230 0.219031
O O10 0.250000 0.750000 0.680294
O O11 0.159032 0.886755 0.671209
O O12 0.250000 0.750000 0.934028
O O13 0.250000 0.863891 0.000000
O O14 0.777460 0.518529 0.692507
#
# Coordination Sequence:
#
# PCOD9396696 Si02
#       7
#     8   4   8   8   8   8   2
#     4  10  21  36  57  90 124 155 202 280 329 378
#     4  11  22  40  66 104 138 183 216 266 333 392
#     4  10  22  41  60  84 118 165 213 265 335 402
#     4  11  22  38  68 103 132 173 235 273 327 401
#     4  10  22  42  62  87 119 166 219 275 339 399
#     4  10  23  38  58  92 140 175 210 279 351 394
#     4  10  24  42  60 102 160 170 206 274 330 382
#
# _framework density 23.018377000000001
#
# number of rings (size 3 to 8) (size 9 to 14) (size 15 to 20)
#    0.000    1.739    3.478    0.000    2.435    3.478 
#    0.000   12.174    0.000    0.000    0.000   12.174 
#    0.000    0.000    0.000    0.000    0.000    0.000 
#
# Total GULP energy -256371.025383 kJ/mol
# GULP energy per Si atom -5573.283161 kJ/mol
# Density = 2.296599 g / cm^3
# Si number density = 23.018377 Si / 1000 Ang^3
#
#
#
# Elastic Constant Matrix: (Units=GPa)
#
#
# Indices 1 2 3 4 5 6 
#
# 1 159.6387 37.4597 38.8339 0.0000 0.0000 0.0000
# 2 37.4597 107.6424 8.1609 0.0000 0.0000 0.0000
# 3 38.8339 8.1609 106.0883 0.0000 0.0000 0.0000
# 4 0.0000 0.0000 0.0000 13.1483 0.0000 0.0000
# 5 0.0000 0.0000 0.0000 0.0000 -39.6545 0.0000
# 6 0.0000 0.0000 0.0000 0.0000 0.0000 47.8925
#
#
#
# Elastic Compliance Matrix: (Units=1/GPa)
#
#
# Indices 1 2 3 4 5 6 
#
# 1 0.007445 -0.002398 -0.002541 0.000000 0.000000 0.000000
# 2 -0.002398 0.010117 0.000100 0.000000 0.000000 0.000000
# 3 -0.002541 0.000100 0.010348 0.000000 0.000000 0.000000
# 4 0.000000 0.000000 0.000000 0.076055 0.000000 0.000000
# 5 0.000000 0.000000 0.000000 0.000000 -0.025218 0.000000
# 6 0.000000 0.000000 0.000000 0.000000 0.000000 0.020880
#
#
# Mechanical properties :
#
#
# Convention : Reuss Voigt Hill
#
# Bulk Modulus (GPa) = 54.84930 60.25314 57.55122
# Shear Modulus (GPa) = 43.33350 23.53825 33.43588
#
# Velocity S-wave (km/s) = 4.34356 3.20126 3.81540
# Velocity P-wave (km/s) = 7.00254 6.31641 6.66830
#
# Compressibility (1/GPa) = 0.01823177
#
# Stress axis : x y z
#
# Youngs Moduli (GPa) = 134.31900 98.84300 96.63240
#
# Poissons Ratio (x) = 0.23705 0.24552
# Poissons Ratio (y) = 0.32213 -0.00963
# Poissons Ratio (z) = 0.34127 -0.00985
#
# Static dielectric constant tensor:
#      x y z
#    x 1.918270 0.000000 0.000000 
#    y 0.000000 1.903570 0.000000 
#    z 0.000000 0.000000 1.967130 
# 
# From -- ./inp_files/31477.got.cif
#   From: 2010.05.17/outbox.cif.g08.bks.cpg/sg50_16_cif.got.tgz:31477.got - 2010.06.03 11:33:33.
