data_PCOD9396633
_publ_section_title
;
Structure prediction by ZEFSAII (Michael W. Deem and Ramdas Pophale) SiO2 
 PCOD9396633
Probable space group: P B A N
;
_chemical_formula_sum "Si O2"
_cell_formula_units_Z 64
_cell_length_a 11.889755
_cell_length_b 28.278913
_cell_length_c 11.068583
_cell_angle_alpha 90.000000
_cell_angle_beta 90.000000
_cell_angle_gamma 90.000000
_cell_volume 3721.582437
_symmetry_space_group_name_H-M "P B A N"
_symmetry_group_IT_number 50
_space_group.IT_coordinate_system_code '2'
_symmetry_cell_setting 'orthorhombic'
loop_
_space_group_symop_operation_xyz
x,y,z
1/2-x,1/2-y,z
x,1/2-y,-z
1/2-x,y,-z
-x,-y,-z
1/2+x,1/2+y,-z
-x,1/2+y,z
1/2+x,-y,z
loop_
_atom_site_type_symbol
_atom_site_label
_atom_site_fract_x
_atom_site_fract_y
_atom_site_fract_z
Si Si1 0.254791 0.304331 0.799070
Si Si2 0.990898 0.443292 0.197992
Si Si3 0.396893 0.060466 0.574545
Si Si4 0.382334 0.611015 0.978767
Si Si5 0.814351 0.604556 0.673129
Si Si6 0.411128 0.544935 0.750443
Si Si7 0.311323 0.541938 0.389766
Si Si8 0.059835 0.304873 0.988901
O O1 0.250000 0.250000 0.758924
O O2 0.284463 0.341092 0.694679
O O3 0.352935 0.310083 0.899614
O O4 0.137336 0.313098 0.869870
O O5 0.908380 0.434193 0.311966
O O6 0.104669 0.414427 0.222334
O O7 0.023192 0.498696 0.200537
O O8 0.928360 0.425462 0.079641
O O9 0.373556 0.089924 0.453258
O O10 0.304580 0.077983 0.670391
O O11 0.517241 0.063280 0.636002
O O12 0.366051 0.005525 0.553515
O O13 0.399425 0.585134 0.850697
O O14 0.250000 0.620104 0.000000
O O15 0.458465 0.657999 0.989871
O O16 0.288102 0.529935 0.704257
O O17 0.250000 0.568285 0.500000
O O18 0.022234 0.250000 0.000000
#
# Coordination Sequence:
#
# PCOD9396633 Si02
#       8
#     8   8   8   8   8   8   8   8
#     4   9  18  34  60  86 112 142 176 229 286 345
#     4  11  22  35  54  78 112 153 183 230 284 329
#     4  10  21  33  53  81 106 148 192 226 263 323
#     4  12  23  38  54  81 114 144 185 238 286 340
#     4  11  18  35  55  81 111 141 188 226 274 331
#     4  11  22  37  52  77 116 151 190 231 276 329
#     4  11  19  35  53  74 107 150 198 231 260 318
#     4   9  19  37  59  84 110 142 183 225 287 346
#
# _framework density 17.196985000000002
#
# number of rings (size 3 to 8) (size 9 to 14) (size 15 to 20)
#    0.000    1.500    5.000    2.625    0.000    2.250 
#    0.000    1.250    0.000    0.000    0.000    0.000 
#    0.000    1.000    0.000    0.000    0.000    0.000 
#
# Total GULP energy -356935.944632 kJ/mol
# GULP energy per Si atom -5577.124135 kJ/mol
# Density = 1.715784 g / cm^3
# Si number density = 17.196985 Si / 1000 Ang^3
#
#
#
# Elastic Constant Matrix: (Units=GPa)
#
#
# Indices 1 2 3 4 5 6 
#
# 1 109.2996 40.5716 21.8150 0.0000 0.0000 0.0000
# 2 40.5716 88.6649 34.8726 0.0000 0.0000 0.0000
# 3 21.8150 34.8726 54.9081 0.0000 0.0000 0.0000
# 4 0.0000 0.0000 0.0000 22.3435 0.0000 0.0000
# 5 0.0000 0.0000 0.0000 0.0000 24.7005 0.0000
# 6 0.0000 0.0000 0.0000 0.0000 0.0000 22.3303
#
#
#
# Elastic Compliance Matrix: (Units=1/GPa)
#
#
# Indices 1 2 3 4 5 6 
#
# 1 0.011123 -0.004468 -0.001582 0.000000 0.000000 0.000000
# 2 -0.004468 0.016828 -0.008913 0.000000 0.000000 0.000000
# 3 -0.001582 -0.008913 0.024501 0.000000 0.000000 0.000000
# 4 0.000000 0.000000 0.000000 0.044756 0.000000 0.000000
# 5 0.000000 0.000000 0.000000 0.000000 0.040485 0.000000
# 6 0.000000 0.000000 0.000000 0.000000 0.000000 0.044782
#
#
# Mechanical properties :
#
#
# Convention : Reuss Voigt Hill
#
# Bulk Modulus (GPa) = 44.38866 49.71011 47.04938
# Shear Modulus (GPa) = 22.73663 24.24909 23.49286
#
# Velocity S-wave (km/s) = 3.64005 3.75917 3.70009
# Velocity P-wave (km/s) = 6.59807 6.91454 6.75816
#
# Compressibility (1/GPa) = 0.02252828
#
# Stress axis : x y z
#
# Youngs Moduli (GPa) = 89.90171 59.42415 40.81433
#
# Poissons Ratio (x) = 0.26549 0.06456
# Poissons Ratio (y) = 0.40165 0.36377
# Poissons Ratio (z) = 0.14221 0.52963
#
# Static dielectric constant tensor:
#      x y z
#    x 1.595490 0.000000 0.000000 
#    y 0.000000 1.576220 0.000000 
#    z 0.000000 0.000000 1.609800 
# 
# From -- ./inp_files/20538.got.cif
#   From: 2010.05.17/outbox.cif.g08.bks.cpg/sg50_11_cif.got.tgz:20538.got - 2010.06.03 11:33:33.
