data_PCOD9396234
_publ_section_title
;
Structure prediction by ZEFSAII (Michael W. Deem and Ramdas Pophale) SiO2 
 PCOD9396234
Probable space group: P B A N
;
_chemical_formula_sum "Si O2"
_cell_formula_units_Z 32
_cell_length_a 12.066164
_cell_length_b 8.019143
_cell_length_c 15.084115
_cell_angle_alpha 90.000000
_cell_angle_beta 90.000000
_cell_angle_gamma 90.000000
_cell_volume 1459.543411
_symmetry_space_group_name_H-M "P B A N"
_symmetry_group_IT_number 50
_space_group.IT_coordinate_system_code '2'
_symmetry_cell_setting 'orthorhombic'
loop_
_space_group_symop_operation_xyz
x,y,z
1/2-x,1/2-y,z
x,1/2-y,-z
1/2-x,y,-z
-x,-y,-z
1/2+x,1/2+y,-z
-x,1/2+y,z
1/2+x,-y,z
loop_
_atom_site_type_symbol
_atom_site_label
_atom_site_fract_x
_atom_site_fract_y
_atom_site_fract_z
Si Si1 0.127517 0.329887 0.321615
Si Si2 0.951633 0.694189 0.876738
Si Si3 0.941388 0.375186 0.568005
Si Si4 0.629390 0.028898 0.036200
O O1 0.250000 0.250000 0.320355
O O2 0.076949 0.345972 0.223339
O O3 0.131093 0.511488 0.367244
O O4 0.038526 0.218007 0.376449
O O5 0.885511 0.862145 0.902086
O O6 0.080969 0.683865 0.906212
O O7 0.921389 0.546156 0.944583
O O8 0.882200 0.250000 0.500000
O O9 0.000000 0.500000 0.500000
O O10 0.750000 0.062423 0.000000
#
# Coordination Sequence:
#
# PCOD9396234 Si02
#       4
#     8   8   8   8
#     4  11  21  38  66  94 127 167 209 268 327 376
#     4  10  20  35  59  91 121 162 216 256 303 380
#     4   9  21  40  60  90 127 164 213 264 315 392
#     4  10  20  37  58  84 129 169 198 254 315 365
#
# _framework density 21.924665000000001
#
# number of rings (size 3 to 8) (size 9 to 14) (size 15 to 20)
#    0.000    2.000    0.000    4.500    0.000    4.500 
#    0.000   20.000    0.000   15.000    0.000    0.000 
#    0.000    0.000    0.000    0.000    0.000    0.000 
#
# Total GULP energy -178193.645495 kJ/mol
# GULP energy per Si atom -5568.551422 kJ/mol
# Density = 2.187476 g / cm^3
# Si number density = 21.924665 Si / 1000 Ang^3
#
#
#
# Elastic Constant Matrix: (Units=GPa)
#
#
# Indices 1 2 3 4 5 6 
#
# 1 93.8965 31.3534 46.8286 0.0000 0.0000 0.0000
# 2 31.3534 128.0852 61.2458 0.0000 0.0000 0.0000
# 3 46.8286 61.2458 196.7254 0.0000 0.0000 0.0000
# 4 0.0000 0.0000 0.0000 16.0791 0.0000 0.0000
# 5 0.0000 0.0000 0.0000 0.0000 12.4415 0.0000
# 6 0.0000 0.0000 0.0000 0.0000 0.0000 49.7882
#
#
#
# Elastic Compliance Matrix: (Units=1/GPa)
#
#
# Indices 1 2 3 4 5 6 
#
# 1 0.012474 -0.001919 -0.002372 0.000000 0.000000 0.000000
# 2 -0.001919 0.009468 -0.002491 0.000000 0.000000 0.000000
# 3 -0.002372 -0.002491 0.006423 0.000000 0.000000 0.000000
# 4 0.000000 0.000000 0.000000 0.062193 0.000000 0.000000
# 5 0.000000 0.000000 0.000000 0.000000 0.080376 0.000000
# 6 0.000000 0.000000 0.000000 0.000000 0.000000 0.020085
#
#
# Mechanical properties :
#
#
# Convention : Reuss Voigt Hill
#
# Bulk Modulus (GPa) = 67.56099 77.50697 72.53398
# Shear Modulus (GPa) = 23.86450 34.28038 29.07244
#
# Velocity S-wave (km/s) = 3.30279 3.95847 3.64540
# Velocity P-wave (km/s) = 6.73992 7.50472 7.13258
#
# Compressibility (1/GPa) = 0.01480144
#
# Stress axis : x y z
#
# Youngs Moduli (GPa) = 80.16833 105.61733 155.68451
#
# Poissons Ratio (x) = 0.20271 0.36924
# Poissons Ratio (y) = 0.15387 0.38778
# Poissons Ratio (z) = 0.19014 0.26307
#
# Static dielectric constant tensor:
#      x y z
#    x 3.061170 0.000000 0.000000 
#    y 0.000000 1.884450 0.000000 
#    z 0.000000 0.000000 1.767630 
# 
# From -- ./inp_files/25593.got.cif
#   From: 2010.05.17/outbox.cif.g08.bks.cpg/sg50_13_cif.got.tgz:25593.got - 2010.06.03 11:33:33.
