data_PCOD9396000
_publ_section_title
;
Structure prediction by ZEFSAII (Michael W. Deem and Ramdas Pophale) SiO2 
 PCOD9396000
Probable space group: P B A N
;
_chemical_formula_sum "Si O2"
_cell_formula_units_Z 48
_cell_length_a 12.309890
_cell_length_b 15.933975
_cell_length_c 9.746037
_cell_angle_alpha 90.000000
_cell_angle_beta 90.000000
_cell_angle_gamma 90.000000
_cell_volume 1911.641101
_symmetry_space_group_name_H-M "P B A N"
_symmetry_group_IT_number 50
_space_group.IT_coordinate_system_code '2'
_symmetry_cell_setting 'orthorhombic'
loop_
_space_group_symop_operation_xyz
x,y,z
1/2-x,1/2-y,z
x,1/2-y,-z
1/2-x,y,-z
-x,-y,-z
1/2+x,1/2+y,-z
-x,1/2+y,z
1/2+x,-y,z
loop_
_atom_site_type_symbol
_atom_site_label
_atom_site_fract_x
_atom_site_fract_y
_atom_site_fract_z
Si Si1 0.583896 0.208349 0.130480
Si Si2 0.157475 0.085321 0.317810
Si Si3 0.560485 0.348739 0.364872
Si Si4 0.383866 0.464037 0.733463
Si Si5 0.384350 0.601163 0.354848
Si Si6 0.126542 0.385407 0.997705
O O1 0.567684 0.277777 0.249754
O O2 0.655664 0.140439 0.212533
O O3 0.470704 0.170251 0.064252
O O4 0.636361 0.250000 0.000000
O O5 0.285437 0.097628 0.311454
O O6 0.068869 0.140550 0.393707
O O7 0.157488 0.991753 0.378579
O O8 0.112481 0.088045 0.160250
O O9 0.604602 0.439864 0.313960
O O10 0.620191 0.341985 0.511177
O O11 0.490577 0.417880 0.681071
O O12 0.373558 0.463983 0.898710
O O13 0.250000 0.348535 0.000000
#
# Coordination Sequence:
#
# PCOD9396000 Si02
#       6
#     8   8   8   8   8   8
#     4  11  22  38  58  81 117 161 190 237 295 351
#     4  10  19  37  62  87 116 151 195 250 294 345
#     4  11  22  37  58  88 119 153 196 241 296 355
#     4   9  20  36  61  88 115 149 199 246 293 346
#     4  10  23  37  58  87 119 153 196 242 295 356
#     4   9  19  36  58  90 117 148 196 247 295 354
#
# _framework density 25.109316
#
# number of rings (size 3 to 8) (size 9 to 14) (size 15 to 20)
#    0.000    2.000    1.667    2.500    2.333    5.000 
#    3.000    0.833    0.000    5.000    0.000    0.000 
#    0.000    0.000    0.000    0.000    0.000    0.000 
#
# Total GULP energy -267704.107284 kJ/mol
# GULP energy per Si atom -5577.168902 kJ/mol
# Density = 2.505217 g / cm^3
# Si number density = 25.109316 Si / 1000 Ang^3
#
#
#
# Elastic Constant Matrix: (Units=GPa)
#
#
# Indices 1 2 3 4 5 6 
#
# 1 104.6949 -8.6599 8.1832 0.0000 0.0000 0.0000
# 2 -8.6599 61.5759 29.3133 0.0000 0.0000 0.0000
# 3 8.1832 29.3133 152.4491 0.0000 0.0000 0.0000
# 4 0.0000 0.0000 0.0000 40.8344 0.0000 0.0000
# 5 0.0000 0.0000 0.0000 0.0000 14.8741 0.0000
# 6 0.0000 0.0000 0.0000 0.0000 0.0000 -9.9321
#
#
#
# Elastic Compliance Matrix: (Units=1/GPa)
#
#
# Indices 1 2 3 4 5 6 
#
# 1 0.009767 0.001787 -0.000868 0.000000 0.000000 0.000000
# 2 0.001787 0.018203 -0.003596 0.000000 0.000000 0.000000
# 3 -0.000868 -0.003596 0.007298 0.000000 0.000000 0.000000
# 4 0.000000 0.000000 0.000000 0.024489 0.000000 0.000000
# 5 0.000000 0.000000 0.000000 0.000000 0.067231 0.000000
# 6 0.000000 0.000000 0.000000 0.000000 0.000000 -0.100684
#
#
# Mechanical properties :
#
#
# Convention : Reuss Voigt Hill
#
# Bulk Modulus (GPa) = 33.42936 41.82144 37.62540
# Shear Modulus (GPa) = 120.10650 28.48085 74.29368
#
# Velocity S-wave (km/s) = 6.92368 3.37155 5.44539
# Velocity P-wave (km/s) = 8.78970 5.64344 7.38604
#
# Compressibility (1/GPa) = 0.02991382
#
# Stress axis : x y z
#
# Youngs Moduli (GPa) = 102.38355 54.93498 137.03102
#
# Poissons Ratio (x) = -0.09816 0.11892
# Poissons Ratio (y) = -0.18294 0.49278
# Poissons Ratio (z) = 0.08885 0.19755
#
# Static dielectric constant tensor:
#      x y z
#    x 2.043990 0.000000 0.000000 
#    y 0.000000 2.038470 0.000000 
#    z 0.000000 0.000000 2.035780 
# 
# From -- ./inp_files/12959.got.cif
#   From: 2010.05.17/outbox.cif.g08.bks.cpg/sg50_7_cif.got.tgz:12959.got - 2010.06.03 11:33:33.
