data_PCOD9396765
_publ_section_title
;
Structure prediction by ZEFSAII (Michael W. Deem and Ramdas Pophale) SiO2 
 PCOD9396765
Probable space group: P B A N
;
_chemical_formula_sum "Si O2"
_cell_formula_units_Z 38
_cell_length_a 5.002023
_cell_length_b 12.203919
_cell_length_c 28.172709
_cell_angle_alpha 90.000000
_cell_angle_beta 90.000000
_cell_angle_gamma 90.000000
_cell_volume 1719.782836
_symmetry_space_group_name_H-M "P B A N"
_symmetry_group_IT_number 50
_space_group.IT_coordinate_system_code '2'
_symmetry_cell_setting 'orthorhombic'
loop_
_space_group_symop_operation_xyz
x,y,z
1/2-x,1/2-y,z
x,1/2-y,-z
1/2-x,y,-z
-x,-y,-z
1/2+x,1/2+y,-z
-x,1/2+y,z
1/2+x,-y,z
loop_
_atom_site_type_symbol
_atom_site_label
_atom_site_fract_x
_atom_site_fract_y
_atom_site_fract_z
Si Si1 0.750000 0.250000 0.649718
Si Si2 0.750000 0.250000 0.000000
Si Si3 0.040284 0.925505 0.275693
Si Si4 0.636141 0.426370 0.827635
Si Si5 0.001910 0.578793 0.929686
Si Si6 0.250000 0.077510 0.500000
Si Si7 0.250000 0.250000 0.416874
O O1 0.864680 0.155145 0.683531
O O2 0.502496 0.221579 0.615819
O O3 0.930352 0.170624 0.967704
O O4 0.078432 0.873543 0.223213
O O5 0.238499 0.030603 0.278659
O O6 0.442436 0.534183 0.828149
O O7 0.553575 0.371591 0.876976
O O8 0.213959 0.478019 0.934166
O O9 0.285602 0.150243 0.453102
O O10 0.500000 0.000000 0.500000
#
# Coordination Sequence:
#
# PCOD9396765 Si02
#       7
#     4   2   8   8   8   4   4
#     4  12  24  38  60  90 128 156 184 242 294 338
#     4  12  24  36  60  84 108 148 188 230 300 362
#     4  10  21  37  58  85 117 156 196 231 280 345
#     4   8  16  34  56  77 108 148 189 233 277 331
#     4  10  22  39  57  81 113 145 186 241 288 338
#     4  11  24  45  70  88 116 161 202 245 288 332
#     4  11  26  42  60  96 124 150 202 241 284 348
#
# _framework density 22.095813
#
# number of rings (size 3 to 8) (size 9 to 14) (size 15 to 20)
#    0.000    1.895    0.000    3.158    0.000    9.263 
#    0.000    0.000    0.000   15.158    0.000    0.000 
#    0.000    0.000    0.000    0.000    0.000    0.000 
#
# Total GULP energy -212439.540035 kJ/mol
# GULP energy per Si atom -5590.514211 kJ/mol
# Density = 2.204552 g / cm^3
# Si number density = 22.095813 Si / 1000 Ang^3
#
#
#
# Elastic Constant Matrix: (Units=GPa)
#
#
# Indices 1 2 3 4 5 6 
#
# 1 91.1318 1.2661 6.4955 0.0000 0.0000 0.0000
# 2 1.2661 52.7638 42.8519 0.0000 0.0000 0.0000
# 3 6.4955 42.8519 166.8871 0.0000 0.0000 0.0000
# 4 0.0000 0.0000 0.0000 9.1015 0.0000 0.0000
# 5 0.0000 0.0000 0.0000 0.0000 23.5547 0.0000
# 6 0.0000 0.0000 0.0000 0.0000 0.0000 12.9871
#
#
#
# Elastic Compliance Matrix: (Units=1/GPa)
#
#
# Indices 1 2 3 4 5 6 
#
# 1 0.011004 0.000106 -0.000455 0.000000 0.000000 0.000000
# 2 0.000106 0.023947 -0.006153 0.000000 0.000000 0.000000
# 3 -0.000455 -0.006153 0.007590 0.000000 0.000000 0.000000
# 4 0.000000 0.000000 0.000000 0.109872 0.000000 0.000000
# 5 0.000000 0.000000 0.000000 0.000000 0.042454 0.000000
# 6 0.000000 0.000000 0.000000 0.000000 0.000000 0.077000
#
#
# Mechanical properties :
#
#
# Convention : Reuss Voigt Hill
#
# Bulk Modulus (GPa) = 33.85752 45.77886 39.81819
# Shear Modulus (GPa) = 16.96540 26.47328 21.71934
#
# Velocity S-wave (km/s) = 2.77395 3.46513 3.13862
# Velocity P-wave (km/s) = 5.06123 6.06406 5.58520
#
# Compressibility (1/GPa) = 0.02953554
#
# Stress axis : x y z
#
# Youngs Moduli (GPa) = 90.87516 41.75886 131.75703
#
# Poissons Ratio (x) = -0.00442 0.06001
# Poissons Ratio (y) = -0.00962 0.81071
# Poissons Ratio (z) = 0.04139 0.25694
#
# Static dielectric constant tensor:
#      x y z
#    x 1.764760 0.000000 0.000000 
#    y 0.000000 1.712660 0.000000 
#    z 0.000000 0.000000 1.844170 
# 
# From -- ./inp_files/31966.got.cif
#   From: 2010.05.17/outbox.cif.g08.bks.cpg/sg50_16_cif.got.tgz:31966.got - 2010.06.03 11:33:33.
