data_PCOD9396410
_publ_section_title
;
Structure prediction by ZEFSAII (Michael W. Deem and Ramdas Pophale) SiO2 
 PCOD9396410
Probable space group: P B A N
;
_chemical_formula_sum "Si O2"
_cell_formula_units_Z 48
_cell_length_a 8.807961
_cell_length_b 14.240709
_cell_length_c 17.628039
_cell_angle_alpha 90.000000
_cell_angle_beta 90.000000
_cell_angle_gamma 90.000000
_cell_volume 2211.113304
_symmetry_space_group_name_H-M "P B A N"
_symmetry_group_IT_number 50
_space_group.IT_coordinate_system_code '2'
_symmetry_cell_setting 'orthorhombic'
loop_
_space_group_symop_operation_xyz
x,y,z
1/2-x,1/2-y,z
x,1/2-y,-z
1/2-x,y,-z
-x,-y,-z
1/2+x,1/2+y,-z
-x,1/2+y,z
1/2+x,-y,z
loop_
_atom_site_type_symbol
_atom_site_label
_atom_site_fract_x
_atom_site_fract_y
_atom_site_fract_z
Si Si1 0.569113 0.762580 0.409894
Si Si2 0.839505 0.020438 0.223790
Si Si3 0.580418 0.401656 0.681960
Si Si4 0.929787 0.361528 0.015812
Si Si5 0.882152 0.956310 0.556646
Si Si6 0.587909 0.968890 0.115875
O O1 0.750000 0.750000 0.398332
O O2 0.533406 0.750000 0.500000
O O3 0.475051 0.694144 0.356384
O O4 0.545121 0.872193 0.396102
O O5 0.714644 0.091442 0.257205
O O6 0.970980 0.070836 0.177630
O O7 0.930440 0.953845 0.283319
O O8 0.747253 0.963673 0.158789
O O9 0.655875 0.462881 0.614715
O O10 0.944649 0.421086 0.094190
O O11 0.949176 0.250000 0.000000
O O12 0.750000 0.380614 0.000000
O O13 0.050310 0.411742 0.959792
O O14 0.750000 0.921952 0.500000
O O15 0.000000 0.000000 0.500000
#
# Coordination Sequence:
#
# PCOD9396410 Si02
#       6
#     8   8   8   8   8   8
#     4  11  20  39  63  89 119 159 206 271 338 388
#     4  10  22  41  64  91 137 179 216 255 343 402
#     4  11  23  42  63  92 125 169 219 271 325 415
#     4  10  20  37  68 103 135 172 234 274 323 373
#     4  12  22  39  65  89 116 153 207 272 335 390
#     4  10  20  41  65  96 136 184 211 277 321 391
#
# _framework density 21.70852
#
# number of rings (size 3 to 8) (size 9 to 14) (size 15 to 20)
#    0.000    1.333    5.000    2.000    0.000    0.000 
#    0.000   19.167    0.000    0.000    0.000    0.000 
#    0.000    0.000    0.000    0.000    0.000    0.000 
#
# Total GULP energy -267390.790493 kJ/mol
# GULP energy per Si atom -5570.641469 kJ/mol
# Density = 2.165911 g / cm^3
# Si number density = 21.708520 Si / 1000 Ang^3
#
#
#
# Elastic Constant Matrix: (Units=GPa)
#
#
# Indices 1 2 3 4 5 6 
#
# 1 92.1412 26.9048 26.4164 0.0000 0.0000 0.0000
# 2 26.9048 105.8342 23.1828 0.0000 0.0000 0.0000
# 3 26.4164 23.1828 74.0310 0.0000 0.0000 0.0000
# 4 0.0000 0.0000 0.0000 18.4463 0.0000 0.0000
# 5 0.0000 0.0000 0.0000 0.0000 42.7259 0.0000
# 6 0.0000 0.0000 0.0000 0.0000 0.0000 15.9040
#
#
#
# Elastic Compliance Matrix: (Units=1/GPa)
#
#
# Indices 1 2 3 4 5 6 
#
# 1 0.012627 -0.002387 -0.003758 0.000000 0.000000 0.000000
# 2 -0.002387 0.010596 -0.002466 0.000000 0.000000 0.000000
# 3 -0.003758 -0.002466 0.015621 0.000000 0.000000 0.000000
# 4 0.000000 0.000000 0.000000 0.054211 0.000000 0.000000
# 5 0.000000 0.000000 0.000000 0.000000 0.023405 0.000000
# 6 0.000000 0.000000 0.000000 0.000000 0.000000 0.062877
#
#
# Mechanical properties :
#
#
# Convention : Reuss Voigt Hill
#
# Bulk Modulus (GPa) = 46.25074 47.22383 46.73729
# Shear Modulus (GPa) = 24.53768 28.44873 26.49320
#
# Velocity S-wave (km/s) = 3.36568 3.62399 3.49722
# Velocity P-wave (km/s) = 6.03782 6.26992 6.15497
#
# Compressibility (1/GPa) = 0.02162128
#
# Stress axis : x y z
#
# Youngs Moduli (GPa) = 79.19315 94.37728 64.01514
#
# Poissons Ratio (x) = 0.22526 0.24059
# Poissons Ratio (y) = 0.18902 0.15789
# Poissons Ratio (z) = 0.29764 0.23277
#
# Static dielectric constant tensor:
#      x y z
#    x 1.805930 0.000000 0.000000 
#    y 0.000000 1.829750 0.000000 
#    z 0.000000 0.000000 1.830550 
# 
# From -- ./inp_files/28748.got.cif
#   From: 2010.05.17/outbox.cif.g08.bks.cpg/sg50_15_cif.got.tgz:28748.got - 2010.06.03 11:33:33.
