data_PCOD9396126
_publ_section_title
;
Structure prediction by ZEFSAII (Michael W. Deem and Ramdas Pophale) SiO2 
 PCOD9396126
Probable space group: P B A N
;
_chemical_formula_sum "Si O2"
_cell_formula_units_Z 40
_cell_length_a 23.165788
_cell_length_b 8.957089
_cell_length_c 10.433706
_cell_angle_alpha 90.000000
_cell_angle_beta 90.000000
_cell_angle_gamma 90.000000
_cell_volume 2164.973387
_symmetry_space_group_name_H-M "P B A N"
_symmetry_group_IT_number 50
_space_group.IT_coordinate_system_code '2'
_symmetry_cell_setting 'orthorhombic'
loop_
_space_group_symop_operation_xyz
x,y,z
1/2-x,1/2-y,z
x,1/2-y,-z
1/2-x,y,-z
-x,-y,-z
1/2+x,1/2+y,-z
-x,1/2+y,z
1/2+x,-y,z
loop_
_atom_site_type_symbol
_atom_site_label
_atom_site_fract_x
_atom_site_fract_y
_atom_site_fract_z
Si Si1 0.911184 0.767104 0.860004
Si Si2 0.571080 0.233809 0.348886
Si Si3 0.313106 0.183088 0.641523
Si Si4 0.503978 0.000215 0.782029
Si Si5 0.694754 0.326419 0.640934
O O1 0.863836 0.783364 0.745551
O O2 0.952955 0.623169 0.840483
O O3 0.955349 0.908938 0.861607
O O4 0.883064 0.750000 0.000000
O O5 0.574217 0.250000 0.500000
O O6 0.541969 0.374762 0.284835
O O7 0.634824 0.213483 0.293061
O O8 0.533198 0.089928 0.320733
O O9 0.250000 0.250000 0.677168
O O10 0.328081 0.250000 0.500000
O O11 0.303798 0.004711 0.628913
O O12 0.750000 0.250000 0.705131
O O13 0.692584 0.250000 0.500000
#
# Coordination Sequence:
#
# PCOD9396126 Si02
#       5
#     8   8   8   8   8
#     4  11  24  42  64  89 124 165 207 252 305 367
#     4  10  20  33  57  89 122 154 196 249 307 361
#     4  11  24  40  65  95 123 159 205 254 309 362
#     4  10  22  38  58  86 121 163 202 246 304 367
#     4  10  20  35  58  85 123 154 197 241 308 360
#
# _framework density 18.475978000000001
#
# number of rings (size 3 to 8) (size 9 to 14) (size 15 to 20)
#    0.000    1.600    2.000    3.600    8.400    3.600 
#    0.000    0.000    0.000    0.000    0.000    0.000 
#    0.000    0.000    0.000    0.000    0.000    0.000 
#
# Total GULP energy -222863.732464 kJ/mol
# GULP energy per Si atom -5571.593312 kJ/mol
# Density = 1.843393 g / cm^3
# Si number density = 18.475978 Si / 1000 Ang^3
#
#
#
# Elastic Constant Matrix: (Units=GPa)
#
#
# Indices 1 2 3 4 5 6 
#
# 1 147.3980 65.8638 49.8345 0.0000 0.0000 0.0000
# 2 65.8638 146.5064 36.4305 0.0000 0.0000 0.0000
# 3 49.8345 36.4305 85.7894 0.0000 0.0000 0.0000
# 4 0.0000 0.0000 0.0000 -3.7719 0.0000 0.0000
# 5 0.0000 0.0000 0.0000 0.0000 13.9054 0.0000
# 6 0.0000 0.0000 0.0000 0.0000 0.0000 44.8663
#
#
#
# Elastic Compliance Matrix: (Units=1/GPa)
#
#
# Indices 1 2 3 4 5 6 
#
# 1 0.009690 -0.003306 -0.004225 0.000000 0.000000 0.000000
# 2 -0.003306 0.008759 -0.001799 0.000000 0.000000 0.000000
# 3 -0.004225 -0.001799 0.014875 0.000000 0.000000 0.000000
# 4 0.000000 0.000000 0.000000 -0.265120 0.000000 0.000000
# 5 0.000000 0.000000 0.000000 0.000000 0.071915 0.000000
# 6 0.000000 0.000000 0.000000 0.000000 0.000000 0.022288
#
#
# Mechanical properties :
#
#
# Convention : Reuss Voigt Hill
#
# Bulk Modulus (GPa) = 68.19505 75.99461 72.09483
# Shear Modulus (GPa) = -43.84236 26.17096 -8.83570
#
# Velocity S-wave (km/s) = -4.87657 3.76771 -2.18921
# Velocity P-wave (km/s) = 2.29834 7.75554 5.71973
#
# Compressibility (1/GPa) = 0.01466382
#
# Stress axis : x y z
#
# Youngs Moduli (GPa) = 103.20004 114.16623 67.22747
#
# Poissons Ratio (x) = 0.37739 0.28404
# Poissons Ratio (y) = 0.34114 0.12097
# Poissons Ratio (z) = 0.43603 0.20543
#
# Static dielectric constant tensor:
#      x y z
#    x 1.680790 0.000000 0.000000 
#    y 0.000000 1.640870 0.000000 
#    z 0.000000 0.000000 1.706810 
# 
# From -- ./inp_files/15779.got.cif
#   From: 2010.05.17/outbox.cif.g08.bks.cpg/sg50_8_cif.got.tgz:15779.got - 2010.06.03 11:33:33.
