data_PCOD9396165
_publ_section_title
;
Structure prediction by ZEFSAII (Michael W. Deem and Ramdas Pophale) SiO2 
 PCOD9396165
Probable space group: P B A N
;
_chemical_formula_sum "Si O2"
_cell_formula_units_Z 58
_cell_length_a 12.273253
_cell_length_b 8.803011
_cell_length_c 29.281723
_cell_angle_alpha 90.000000
_cell_angle_beta 90.000000
_cell_angle_gamma 90.000000
_cell_volume 3163.643652
_symmetry_space_group_name_H-M "P B A N"
_symmetry_group_IT_number 50
_space_group.IT_coordinate_system_code '2'
_symmetry_cell_setting 'orthorhombic'
loop_
_space_group_symop_operation_xyz
x,y,z
1/2-x,1/2-y,z
x,1/2-y,-z
1/2-x,y,-z
-x,-y,-z
1/2+x,1/2+y,-z
-x,1/2+y,z
1/2+x,-y,z
loop_
_atom_site_type_symbol
_atom_site_label
_atom_site_fract_x
_atom_site_fract_y
_atom_site_fract_z
Si Si1 0.867515 0.325389 0.580037
Si Si2 0.250000 0.750000 0.000000
Si Si3 0.877735 0.727072 0.904725
Si Si4 0.057999 0.377770 0.467367
Si Si5 0.994548 0.472188 0.258292
Si Si6 0.374957 0.775493 0.312139
Si Si7 0.555495 0.068565 0.954554
Si Si8 0.124151 0.279129 0.797465
O O1 0.750000 0.250000 0.567951
O O2 0.874568 0.503172 0.564210
O O3 0.881891 0.315382 0.634531
O O4 0.964335 0.220689 0.558621
O O5 0.333363 0.652169 0.969455
O O6 0.750000 0.750000 0.916749
O O7 0.911130 0.556301 0.917311
O O8 0.892052 0.770683 0.851799
O O9 0.962036 0.825797 0.933811
O O10 0.114206 0.250000 0.500000
O O11 0.000000 0.500000 0.500000
O O12 0.937067 0.378185 0.298542
O O13 0.912427 0.565068 0.226145
O O14 0.074925 0.591591 0.281670
O O15 0.056449 0.353107 0.226678
O O16 0.250000 0.750000 0.300326
O O17 0.500000 0.000000 0.000000
O O18 0.250000 0.250000 0.788329
#
# Coordination Sequence:
#
# PCOD9396165 Si02
#       8
#     8   2   8   8   8   8   8   8
#     4  10  20  36  56  81 113 147 189 238 288 339
#     4  12  24  40  64  88 116 152 194 242 292 356
#     4  11  24  40  62  86 117 153 192 240 288 346
#     4   9  19  35  54  78 109 146 189 233 282 341
#     4  10  20  36  58  82 115 147 184 229 281 335
#     4  10  20  34  57  84 111 147 186 230 283 336
#     4  12  23  42  62  87 117 151 195 237 295 348
#     4  10  21  38  58  83 114 148 187 229 277 338
#
# _framework density 18.333290999999999
#
# number of rings (size 3 to 8) (size 9 to 14) (size 15 to 20)
#    0.000    1.655    1.379    3.310    0.000    3.034 
#    0.000    4.828    3.034   11.586    0.000    0.000 
#    0.000    0.000    0.000    0.000    0.000    0.000 
#
# Total GULP energy -323504.255737 kJ/mol
# GULP energy per Si atom -5577.659582 kJ/mol
# Density = 1.829156 g / cm^3
# Si number density = 18.333291 Si / 1000 Ang^3
#
#
#
# Elastic Constant Matrix: (Units=GPa)
#
#
# Indices 1 2 3 4 5 6 
#
# 1 122.7602 58.3901 57.0254 0.0000 0.0000 0.0000
# 2 58.3901 128.7780 47.8261 0.0000 0.0000 0.0000
# 3 57.0254 47.8261 71.8512 0.0000 0.0000 0.0000
# 4 0.0000 0.0000 0.0000 48.7455 0.0000 0.0000
# 5 0.0000 0.0000 0.0000 0.0000 2.3364 0.0000
# 6 0.0000 0.0000 0.0000 0.0000 0.0000 25.5110
#
#
#
# Elastic Compliance Matrix: (Units=1/GPa)
#
#
# Indices 1 2 3 4 5 6 
#
# 1 0.013662 -0.002880 -0.008926 0.000000 0.000000 0.000000
# 2 -0.002880 0.010922 -0.004985 0.000000 0.000000 0.000000
# 3 -0.008926 -0.004985 0.024320 0.000000 0.000000 0.000000
# 4 0.000000 0.000000 0.000000 0.020515 0.000000 0.000000
# 5 0.000000 0.000000 0.000000 0.000000 0.428011 0.000000
# 6 0.000000 0.000000 0.000000 0.000000 0.000000 0.039199
#
#
# Mechanical properties :
#
#
# Convention : Reuss Voigt Hill
#
# Bulk Modulus (GPa) = 65.26074 72.20808 68.73441
# Shear Modulus (GPa) = 8.69085 25.99509 17.34297
#
# Velocity S-wave (km/s) = 2.17963 3.76961 3.07902
# Velocity P-wave (km/s) = 6.48140 7.64319 7.08615
#
# Compressibility (1/GPa) = 0.01532315
#
# Stress axis : x y z
#
# Youngs Moduli (GPa) = 73.19497 91.55684 41.11814
#
# Poissons Ratio (x) = 0.26364 0.36704
# Poissons Ratio (y) = 0.21077 0.20496
# Poissons Ratio (z) = 0.65337 0.45639
#
# Static dielectric constant tensor:
#      x y z
#    x 1.607670 0.000000 0.000000 
#    y 0.000000 1.714180 0.000000 
#    z 0.000000 0.000000 1.629010 
# 
# From -- ./inp_files/32140.got.cif
#   From: 2010.05.17/outbox.cif.g08.bks.cpg/sg50_17_cif.got.tgz:32140.got - 2010.06.03 11:33:33.
