data_PCOD9396962
_publ_section_title
;
Structure prediction by ZEFSAII (Michael W. Deem and Ramdas Pophale) SiO2 
 PCOD9396962
Probable space group: P B A N
;
_chemical_formula_sum "Si O2"
_cell_formula_units_Z 48
_cell_length_a 8.929633
_cell_length_b 33.134749
_cell_length_c 7.889029
_cell_angle_alpha 90.000000
_cell_angle_beta 90.000000
_cell_angle_gamma 90.000000
_cell_volume 2334.214958
_symmetry_space_group_name_H-M "P B A N"
_symmetry_group_IT_number 50
_space_group.IT_coordinate_system_code '2'
_symmetry_cell_setting 'orthorhombic'
loop_
_space_group_symop_operation_xyz
x,y,z
1/2-x,1/2-y,z
x,1/2-y,-z
1/2-x,y,-z
-x,-y,-z
1/2+x,1/2+y,-z
-x,1/2+y,z
1/2+x,-y,z
loop_
_atom_site_type_symbol
_atom_site_label
_atom_site_fract_x
_atom_site_fract_y
_atom_site_fract_z
Si Si1 0.542484 0.880541 0.650526
Si Si2 0.153155 0.674149 0.827399
Si Si3 0.155108 0.100452 0.171760
Si Si4 0.577180 0.747682 0.203034
Si Si5 0.424127 0.041920 0.547812
Si Si6 0.038815 0.832917 0.678811
O O1 0.447375 0.866046 0.811483
O O2 0.714422 0.883814 0.702755
O O3 0.501955 0.923555 0.570033
O O4 0.518022 0.848678 0.500769
O O5 0.283581 0.666470 0.692803
O O6 0.038209 0.710176 0.779314
O O7 0.250000 0.681666 0.000000
O O8 0.080409 0.061186 0.261751
O O9 0.035625 0.136878 0.181797
O O10 0.250000 0.092912 0.000000
O O11 0.750000 0.750000 0.265580
O O12 0.506092 0.787512 0.280978
O O13 0.587589 0.750000 0.000000
O O14 0.250000 0.037965 0.500000
O O15 0.500000 0.000000 0.500000
#
# Coordination Sequence:
#
# PCOD9396962 Si02
#       6
#     8   8   8   8   8   8
#     4  10  23  42  61  92 126 169 219 263 334 398
#     4  12  23  39  61  89 127 164 221 279 324 387
#     4  10  21  40  66  95 126 171 222 266 324 400
#     4  11  24  39  60  87 122 171 215 266 333 386
#     4   9  20  40  65  92 131 170 208 266 327 396
#     4  11  22  37  62  87 124 169 213 274 323 378
#
# _framework density 20.563661
#
# number of rings (size 3 to 8) (size 9 to 14) (size 15 to 20)
#    0.000    1.500    1.667    4.500    2.333    3.333 
#    0.000    6.667    0.000    0.000    0.000    0.000 
#    0.000    0.000    0.000    0.000    0.000    0.000 
#
# Total GULP energy -267541.349606 kJ/mol
# GULP energy per Si atom -5573.778117 kJ/mol
# Density = 2.051686 g / cm^3
# Si number density = 20.563661 Si / 1000 Ang^3
#
#
#
# Elastic Constant Matrix: (Units=GPa)
#
#
# Indices 1 2 3 4 5 6 
#
# 1 110.2743 58.8412 34.5502 0.0000 0.0000 0.0000
# 2 58.8412 153.7887 55.9810 0.0000 0.0000 0.0000
# 3 34.5502 55.9810 112.3280 0.0000 0.0000 0.0000
# 4 0.0000 0.0000 0.0000 12.8671 0.0000 0.0000
# 5 0.0000 0.0000 0.0000 0.0000 12.5853 0.0000
# 6 0.0000 0.0000 0.0000 0.0000 0.0000 146.6646
#
#
#
# Elastic Compliance Matrix: (Units=1/GPa)
#
#
# Indices 1 2 3 4 5 6 
#
# 1 0.011643 -0.003850 -0.001663 0.000000 0.000000 0.000000
# 2 -0.003850 0.009216 -0.003409 0.000000 0.000000 0.000000
# 3 -0.001663 -0.003409 0.011113 0.000000 0.000000 0.000000
# 4 0.000000 0.000000 0.000000 0.077718 0.000000 0.000000
# 5 0.000000 0.000000 0.000000 0.000000 0.079458 0.000000
# 6 0.000000 0.000000 0.000000 0.000000 0.000000 0.006818
#
#
# Mechanical properties :
#
#
# Convention : Reuss Voigt Hill
#
# Bulk Modulus (GPa) = 70.77296 75.01511 72.89403
# Shear Modulus (GPa) = 22.88129 49.55797 36.21963
#
# Velocity S-wave (km/s) = 3.33934 4.91448 4.20139
# Velocity P-wave (km/s) = 7.02563 8.29225 7.68508
#
# Compressibility (1/GPa) = 0.01412969
#
# Stress axis : x y z
#
# Youngs Moduli (GPa) = 85.88581 108.50392 89.98547
#
# Poissons Ratio (x) = 0.41770 0.14963
# Poissons Ratio (y) = 0.33063 0.30676
# Poissons Ratio (z) = 0.14281 0.36989
#
# Static dielectric constant tensor:
#      x y z
#    x 1.965080 0.000000 0.000000 
#    y 0.000000 1.738010 0.000000 
#    z 0.000000 0.000000 1.946460 
# 
# From -- ./inp_files/10084.got.cif
#   From: 2010.05.17/outbox.cif.g08.bks.cpg/sg50_6_cif.got.tgz:10084.got - 2010.06.03 11:33:33.
