data_PCOD9396416
_publ_section_title
;
Structure prediction by ZEFSAII (Michael W. Deem and Ramdas Pophale) SiO2 
 PCOD9396416
Probable space group: P B A N
;
_chemical_formula_sum "Si O2"
_cell_formula_units_Z 36
_cell_length_a 13.435344
_cell_length_b 26.696803
_cell_length_c 5.319807
_cell_angle_alpha 90.000000
_cell_angle_beta 90.000000
_cell_angle_gamma 90.000000
_cell_volume 1908.112269
_symmetry_space_group_name_H-M "P B A N"
_symmetry_group_IT_number 50
_space_group.IT_coordinate_system_code '2'
_symmetry_cell_setting 'orthorhombic'
loop_
_space_group_symop_operation_xyz
x,y,z
1/2-x,1/2-y,z
x,1/2-y,-z
1/2-x,y,-z
-x,-y,-z
1/2+x,1/2+y,-z
-x,1/2+y,z
1/2+x,-y,z
loop_
_atom_site_type_symbol
_atom_site_label
_atom_site_fract_x
_atom_site_fract_y
_atom_site_fract_z
Si Si1 0.647089 0.114458 0.141939
Si Si2 0.850934 0.557077 0.606183
Si Si3 0.750000 0.460646 0.500000
Si Si4 0.364996 0.771757 0.747074
Si Si5 0.471858 0.443477 0.086932
O O1 0.626370 0.168661 0.256567
O O2 0.672557 0.072991 0.350026
O O3 0.750000 0.122164 0.000000
O O4 0.565962 0.092751 0.951454
O O5 0.750000 0.582320 0.500000
O O6 0.812767 0.500135 0.664713
O O7 0.926421 0.555997 0.368111
O O8 0.896128 0.575287 0.867251
O O9 0.250000 0.750000 0.747205
O O10 0.413478 0.750000 0.500000
O O11 0.410234 0.750000 0.000000
O O12 0.500000 0.500000 0.000000
#
# Coordination Sequence:
#
# PCOD9396416 Si02
#       5
#     8   8   4   8   8
#     4  12  24  34  59  84 117 162 200 231 298 361
#     4  10  23  39  55  74 115 156 194 250 290 322
#     4  10  22  34  57  74 114 162 197 230 298 336
#     4  10  20  38  53  74 112 154 183 239 280 335
#     4  12  22  37  55  83 115 151 203 248 277 350
#
# _framework density 18.866814999999999
#
# number of rings (size 3 to 8) (size 9 to 14) (size 15 to 20)
#    0.667    0.444    4.444    4.000    3.111    0.000 
#    0.000    0.000    0.000    0.000    0.000    0.000 
#    0.000   13.333    0.000    0.000    0.000    0.000 
#
# Total GULP energy -200721.874883 kJ/mol
# GULP energy per Si atom -5575.607636 kJ/mol
# Density = 1.882387 g / cm^3
# Si number density = 18.866815 Si / 1000 Ang^3
#
#
#
# Elastic Constant Matrix: (Units=GPa)
#
#
# Indices 1 2 3 4 5 6 
#
# 1 61.8557 26.4099 19.5671 0.0000 0.0000 0.0000
# 2 26.4099 83.0809 14.2542 0.0000 0.0000 0.0000
# 3 19.5671 14.2542 87.9091 0.0000 0.0000 0.0000
# 4 0.0000 0.0000 0.0000 44.8254 0.0000 0.0000
# 5 0.0000 0.0000 0.0000 0.0000 -40.7702 0.0000
# 6 0.0000 0.0000 0.0000 0.0000 0.0000 6.0200
#
#
#
# Elastic Compliance Matrix: (Units=1/GPa)
#
#
# Indices 1 2 3 4 5 6 
#
# 1 0.019679 -0.005662 -0.003462 0.000000 0.000000 0.000000
# 2 -0.005662 0.014010 -0.001011 0.000000 0.000000 0.000000
# 3 -0.003462 -0.001011 0.012310 0.000000 0.000000 0.000000
# 4 0.000000 0.000000 0.000000 0.022309 0.000000 0.000000
# 5 0.000000 0.000000 0.000000 0.000000 -0.024528 0.000000
# 6 0.000000 0.000000 0.000000 0.000000 0.000000 0.166112
#
#
# Mechanical properties :
#
#
# Convention : Reuss Voigt Hill
#
# Bulk Modulus (GPa) = 38.86774 39.25646 39.06210
# Shear Modulus (GPa) = 20.94340 13.52270 17.23305
#
# Velocity S-wave (km/s) = 3.33538 2.68011 3.02554
# Velocity P-wave (km/s) = 5.95641 5.51631 5.74058
#
# Compressibility (1/GPa) = 0.02572828
#
# Stress axis : x y z
#
# Youngs Moduli (GPa) = 50.81516 71.37904 81.23455
#
# Poissons Ratio (x) = 0.40412 0.28125
# Poissons Ratio (y) = 0.28770 0.08217
# Poissons Ratio (z) = 0.17593 0.07220
#
# Static dielectric constant tensor:
#      x y z
#    x 1.713540 0.000000 0.000000 
#    y 0.000000 1.698170 0.000000 
#    z 0.000000 0.000000 1.717150 
# 
# From -- ./inp_files/3235.got.cif
#   From: 2010.05.17/outbox.cif.g08.bks.cpg/sg50_2_cif.got.tgz:3235.got - 2010.06.03 11:33:33.
