data_PCOD9396723
_publ_section_title
;
Structure prediction by ZEFSAII (Michael W. Deem and Ramdas Pophale) SiO2 
 PCOD9396723
Probable space group: P B A N
;
_chemical_formula_sum "Si O2"
_cell_formula_units_Z 58
_cell_length_a 17.558536
_cell_length_b 33.492851
_cell_length_c 4.954155
_cell_angle_alpha 90.000000
_cell_angle_beta 90.000000
_cell_angle_gamma 90.000000
_cell_volume 2913.466374
_symmetry_space_group_name_H-M "P B A N"
_symmetry_group_IT_number 50
_space_group.IT_coordinate_system_code '2'
_symmetry_cell_setting 'orthorhombic'
loop_
_space_group_symop_operation_xyz
x,y,z
1/2-x,1/2-y,z
x,1/2-y,-z
1/2-x,y,-z
-x,-y,-z
1/2+x,1/2+y,-z
-x,1/2+y,z
1/2+x,-y,z
loop_
_atom_site_type_symbol
_atom_site_label
_atom_site_fract_x
_atom_site_fract_y
_atom_site_fract_z
Si Si1 0.339488 0.859343 0.525233
Si Si2 0.379928 0.689993 0.957530
Si Si3 0.160865 0.100134 0.013221
Si Si4 0.750000 0.250000 0.000000
Si Si5 0.903062 0.644670 0.511676
Si Si6 0.019684 0.045279 0.935126
Si Si7 0.960464 0.412737 0.554226
Si Si8 0.960013 0.723722 0.240774
O O1 0.250000 0.861058 0.500000
O O2 0.371401 0.847553 0.233956
O O3 0.378424 0.901944 0.565579
O O4 0.363762 0.825548 0.741404
O O5 0.311972 0.720260 0.865391
O O6 0.463531 0.707153 0.904548
O O7 0.133107 0.134973 0.802984
O O8 0.250000 0.091527 0.000000
O O9 0.143641 0.117247 0.307347
O O10 0.105931 0.061997 0.967244
O O11 0.910736 0.688400 0.378904
O O12 0.988115 0.626394 0.510079
O O13 0.971446 0.073819 0.138588
O O14 0.997132 0.053202 0.628067
O O15 0.000000 0.000000 0.000000
O O16 0.983456 0.750000 0.500000
O O17 0.922133 0.750000 0.000000
#
# Coordination Sequence:
#
# PCOD9396723 Si02
#       8
#     8   8   8   2   8   8   8   8
#     4  12  23  39  54  80 114 163 207 259 294 349
#     4  12  25  35  55  75 117 157 209 263 309 364
#     4  10  21  39  65  96 120 157 199 249 294 361
#     4  12  24  38  48  82 112 170 206 258 348 334
#     4  10  21  37  62  86 121 156 202 252 305 363
#     4  10  21  39  63  95 126 157 189 241 300 365
#     4  10  21  36  62  83 118 161 205 241 296 361
#     4  12  24  37  58  87 119 157 208 267 320 368
#
# _framework density 19.907557000000001
#
# number of rings (size 3 to 8) (size 9 to 14) (size 15 to 20)
#    0.000    1.103    3.448    3.310    3.862    0.552 
#    0.000    1.379    0.000    6.207    0.000    0.000 
#    0.000    0.000    0.000    0.000    0.000    0.000 
#
# Total GULP energy -323431.782006 kJ/mol
# GULP energy per Si atom -5576.410035 kJ/mol
# Density = 1.986225 g / cm^3
# Si number density = 19.907557 Si / 1000 Ang^3
#
#
#
# Elastic Constant Matrix: (Units=GPa)
#
#
# Indices 1 2 3 4 5 6 
#
# 1 88.1014 40.0140 8.0348 0.0000 0.0000 0.0000
# 2 40.0140 70.3646 1.1506 0.0000 0.0000 0.0000
# 3 8.0348 1.1506 74.2311 0.0000 0.0000 0.0000
# 4 0.0000 0.0000 0.0000 21.3872 0.0000 0.0000
# 5 0.0000 0.0000 0.0000 0.0000 13.9214 0.0000
# 6 0.0000 0.0000 0.0000 0.0000 0.0000 11.6137
#
#
#
# Elastic Compliance Matrix: (Units=1/GPa)
#
#
# Indices 1 2 3 4 5 6 
#
# 1 0.015477 -0.008776 -0.001539 0.000000 0.000000 0.000000
# 2 -0.008776 0.019192 0.000652 0.000000 0.000000 0.000000
# 3 -0.001539 0.000652 0.013628 0.000000 0.000000 0.000000
# 4 0.000000 0.000000 0.000000 0.046757 0.000000 0.000000
# 5 0.000000 0.000000 0.000000 0.000000 0.071832 0.000000
# 6 0.000000 0.000000 0.000000 0.000000 0.000000 0.086105
#
#
# Mechanical properties :
#
#
# Convention : Reuss Voigt Hill
#
# Bulk Modulus (GPa) = 34.51735 36.78842 35.65288
# Shear Modulus (GPa) = 17.73223 21.61765 19.67494
#
# Velocity S-wave (km/s) = 2.98775 3.29888 3.14716
# Velocity P-wave (km/s) = 5.41097 5.74716 5.58160
#
# Compressibility (1/GPa) = 0.02897094
#
# Stress axis : x y z
#
# Youngs Moduli (GPa) = 64.61287 52.10610 73.37872
#
# Poissons Ratio (x) = 0.45728 0.11294
# Poissons Ratio (y) = 0.56704 -0.04788
# Poissons Ratio (z) = 0.09945 -0.03400
#
# Static dielectric constant tensor:
#      x y z
#    x 1.739940 0.000000 0.000000 
#    y 0.000000 1.764160 0.000000 
#    z 0.000000 0.000000 1.739630 
# 
# From -- ./inp_files/4705.got.cif
#   From: 2010.05.17/outbox.cif.g08.bks.cpg/sg50_3_cif.got.tgz:4705.got - 2010.06.03 11:33:33.
