data_PCOD9396345
_publ_section_title
;
Structure prediction by ZEFSAII (Michael W. Deem and Ramdas Pophale) SiO2 
 PCOD9396345
Probable space group: P B A N
;
_chemical_formula_sum "Si O2"
_cell_formula_units_Z 52
_cell_length_a 19.066969
_cell_length_b 9.504038
_cell_length_c 15.437302
_cell_angle_alpha 90.000000
_cell_angle_beta 90.000000
_cell_angle_gamma 90.000000
_cell_volume 2797.442863
_symmetry_space_group_name_H-M "P B A N"
_symmetry_group_IT_number 50
_space_group.IT_coordinate_system_code '2'
_symmetry_cell_setting 'orthorhombic'
loop_
_space_group_symop_operation_xyz
x,y,z
1/2-x,1/2-y,z
x,1/2-y,-z
1/2-x,y,-z
-x,-y,-z
1/2+x,1/2+y,-z
-x,1/2+y,z
1/2+x,-y,z
loop_
_atom_site_type_symbol
_atom_site_label
_atom_site_fract_x
_atom_site_fract_y
_atom_site_fract_z
Si Si1 0.597957 0.427206 0.254401
Si Si2 0.503304 0.750000 0.500000
Si Si3 0.250000 0.032847 0.000000
Si Si4 0.480900 0.066701 0.093089
Si Si5 0.242313 0.916466 0.815723
Si Si6 0.873116 0.750000 0.000000
Si Si7 0.103605 0.598383 0.779089
Si Si8 0.023293 0.494358 0.620819
O O1 0.556832 0.471076 0.166218
O O2 0.678309 0.475877 0.240618
O O3 0.602619 0.258129 0.256631
O O4 0.555762 0.482271 0.338551
O O5 0.466309 0.867289 0.561286
O O6 0.540950 0.644510 0.566294
O O7 0.227866 0.944991 0.916489
O O8 0.181920 0.127033 0.023755
O O9 0.425939 0.192609 0.073570
O O10 0.554808 0.106330 0.136271
O O11 0.500000 0.000000 0.000000
O O12 0.250000 0.750000 0.802521
O O13 0.320394 0.965444 0.795877
O O14 0.068631 0.504274 0.706201
#
# Coordination Sequence:
#
# PCOD9396345 Si02
#       8
#     8   4   4   8   8   4   8   8
#     4  10  20  37  56  85 116 154 200 249 291 358
#     4  10  20  38  68  94 118 152 180 254 298 398
#     4  11  21  38  50  80 111 169 216 240 300 345
#     4  11  21  35  53  80 117 155 205 255 295 340
#     4  10  21  37  58  77 118 163 206 249 284 347
#     4  11  22  34  52  74 115 152 210 256 297 338
#     4  10  21  35  58  87 118 155 203 247 301 352
#     4  10  20  38  65  94 123 146 197 236 319 364
#
# _framework density 18.588405000000002
#
# number of rings (size 3 to 8) (size 9 to 14) (size 15 to 20)
#    0.000    1.692    3.077    2.077    0.000    1.231 
#    0.000    0.000    0.000    5.538    0.000    0.000 
#    0.000    0.000    0.000    0.000    0.000    0.000 
#
# Total GULP energy -289512.421261 kJ/mol
# GULP energy per Si atom -5567.546563 kJ/mol
# Density = 1.854610 g / cm^3
# Si number density = 18.588405 Si / 1000 Ang^3
#
#
#
# Elastic Constant Matrix: (Units=GPa)
#
#
# Indices 1 2 3 4 5 6 
#
# 1 127.0697 16.3109 36.4630 0.0000 0.0000 0.0000
# 2 16.3109 48.4370 25.3265 0.0000 0.0000 0.0000
# 3 36.4630 25.3265 90.3249 0.0000 0.0000 0.0000
# 4 0.0000 0.0000 0.0000 33.2502 0.0000 0.0000
# 5 0.0000 0.0000 0.0000 0.0000 7.6478 0.0000
# 6 0.0000 0.0000 0.0000 0.0000 0.0000 16.9328
#
#
#
# Elastic Compliance Matrix: (Units=1/GPa)
#
#
# Indices 1 2 3 4 5 6 
#
# 1 0.008972 -0.001321 -0.003252 0.000000 0.000000 0.000000
# 2 -0.001321 0.024387 -0.006305 0.000000 0.000000 0.000000
# 3 -0.003252 -0.006305 0.014152 0.000000 0.000000 0.000000
# 4 0.000000 0.000000 0.000000 0.030075 0.000000 0.000000
# 5 0.000000 0.000000 0.000000 0.000000 0.130757 0.000000
# 6 0.000000 0.000000 0.000000 0.000000 0.000000 0.059057
#
#
# Mechanical properties :
#
#
# Convention : Reuss Voigt Hill
#
# Bulk Modulus (GPa) = 38.82593 46.89251 42.85922
# Shear Modulus (GPa) = 16.79321 24.08158 20.43739
#
# Velocity S-wave (km/s) = 3.00896 3.60323 3.31942
# Velocity P-wave (km/s) = 5.74494 6.52630 6.14804
#
# Compressibility (1/GPa) = 0.02575598
#
# Stress axis : x y z
#
# Youngs Moduli (GPa) = 111.45373 41.00584 70.66384
#
# Poissons Ratio (x) = 0.05418 0.22977
# Poissons Ratio (y) = 0.14726 0.44550
# Poissons Ratio (z) = 0.36240 0.25852
#
# Static dielectric constant tensor:
#      x y z
#    x 1.699030 0.000000 0.000000 
#    y 0.000000 1.682220 0.000000 
#    z 0.000000 0.000000 1.625770 
# 
# From -- ./inp_files/29689.got.cif
#   From: 2010.05.17/outbox.cif.g08.bks.cpg/sg50_15_cif.got.tgz:29689.got - 2010.06.03 11:33:33.
