data_PCOD9396835
_publ_section_title
;
Structure prediction by ZEFSAII (Michael W. Deem and Ramdas Pophale) SiO2 
 PCOD9396835
Probable space group: P B A N
;
_chemical_formula_sum "Si O2"
_cell_formula_units_Z 56
_cell_length_a 21.182157
_cell_length_b 9.741341
_cell_length_c 14.505707
_cell_angle_alpha 90.000000
_cell_angle_beta 90.000000
_cell_angle_gamma 90.000000
_cell_volume 2993.145507
_symmetry_space_group_name_H-M "P B A N"
_symmetry_group_IT_number 50
_space_group.IT_coordinate_system_code '2'
_symmetry_cell_setting 'orthorhombic'
loop_
_space_group_symop_operation_xyz
x,y,z
1/2-x,1/2-y,z
x,1/2-y,-z
1/2-x,y,-z
-x,-y,-z
1/2+x,1/2+y,-z
-x,1/2+y,z
1/2+x,-y,z
loop_
_atom_site_type_symbol
_atom_site_label
_atom_site_fract_x
_atom_site_fract_y
_atom_site_fract_z
Si Si1 0.052574 0.784943 0.253946
Si Si2 0.802768 0.364092 0.266045
Si Si3 0.810588 0.098175 0.953329
Si Si4 0.529782 0.500624 0.345162
Si Si5 0.050494 0.601301 0.954389
Si Si6 0.282774 0.105190 0.594079
Si Si7 0.077807 0.396547 0.521884
O O1 0.124172 0.821755 0.287746
O O2 0.045002 0.621400 0.273275
O O3 0.048630 0.854836 0.152965
O O4 0.991891 0.856584 0.300872
O O5 0.750000 0.250000 0.287522
O O6 0.800627 0.388214 0.155810
O O7 0.783477 0.497878 0.323362
O O8 0.879742 0.038164 0.970984
O O9 0.814137 0.250000 0.000000
O O10 0.750000 0.028686 0.000000
O O11 0.467662 0.465664 0.404875
O O12 0.581853 0.521843 0.425125
O O13 0.044475 0.750000 0.000000
O O14 0.000000 0.500000 0.000000
O O15 0.250000 0.250000 0.616860
O O16 0.250000 0.051896 0.500000
O O17 0.355055 0.129313 0.566589
O O18 0.047247 0.250000 0.500000
#
# Coordination Sequence:
#
# PCOD9396835 Si02
#       7
#     8   8   8   8   8   8   8
#     4  11  23  39  62  91 125 155 207 257 311 369
#     4  11  23  39  62  97 120 155 215 262 297 365
#     4   9  17  38  67  86 117 164 201 245 305 381
#     4  11  23  39  61  86 120 163 202 256 303 363
#     4  10  21  38  62  91 123 155 195 254 317 370
#     4  11  24  41  60  84 126 170 199 249 319 369
#     4  11  21  40  60  81 118 164 208 241 300 376
#
# _framework density 18.709415
#
# number of rings (size 3 to 8) (size 9 to 14) (size 15 to 20)
#    0.000    1.429    5.714    0.857    2.000    0.286 
#    0.000    0.000    0.000    0.000    0.000    0.000 
#    0.000    0.000    0.000    0.000    0.000    0.000 
#
# Total GULP energy -311818.018042 kJ/mol
# GULP energy per Si atom -5568.178894 kJ/mol
# Density = 1.866683 g / cm^3
# Si number density = 18.709415 Si / 1000 Ang^3
#
#
#
# Elastic Constant Matrix: (Units=GPa)
#
#
# Indices 1 2 3 4 5 6 
#
# 1 113.6713 42.0518 35.2494 0.0000 0.0000 0.0000
# 2 42.0518 81.9777 38.9729 0.0000 0.0000 0.0000
# 3 35.2494 38.9729 80.7991 0.0000 0.0000 0.0000
# 4 0.0000 0.0000 0.0000 21.1899 0.0000 0.0000
# 5 0.0000 0.0000 0.0000 0.0000 12.3300 0.0000
# 6 0.0000 0.0000 0.0000 0.0000 0.0000 24.7873
#
#
#
# Elastic Compliance Matrix: (Units=1/GPa)
#
#
# Indices 1 2 3 4 5 6 
#
# 1 0.011317 -0.004487 -0.002773 0.000000 0.000000 0.000000
# 2 -0.004487 0.017607 -0.006535 0.000000 0.000000 0.000000
# 3 -0.002773 -0.006535 0.016738 0.000000 0.000000 0.000000
# 4 0.000000 0.000000 0.000000 0.047192 0.000000 0.000000
# 5 0.000000 0.000000 0.000000 0.000000 0.081103 0.000000
# 6 0.000000 0.000000 0.000000 0.000000 0.000000 0.040343
#
#
# Mechanical properties :
#
#
# Convention : Reuss Voigt Hill
#
# Bulk Modulus (GPa) = 55.33345 56.55516 55.94430
# Shear Modulus (GPa) = 20.16820 22.33971 21.25395
#
# Velocity S-wave (km/s) = 3.28681 3.45923 3.37412
# Velocity P-wave (km/s) = 6.63653 6.80065 6.71909
#
# Compressibility (1/GPa) = 0.01807225
#
# Stress axis : x y z
#
# Youngs Moduli (GPa) = 88.36169 56.79564 59.74341
#
# Poissons Ratio (x) = 0.25484 0.16566
# Poissons Ratio (y) = 0.39648 0.39043
# Poissons Ratio (z) = 0.24502 0.37117
#
# Static dielectric constant tensor:
#      x y z
#    x 1.687960 0.000000 0.000000 
#    y 0.000000 1.673520 0.000000 
#    z 0.000000 0.000000 1.692580 
# 
# From -- ./inp_files/27255.got.cif
#   From: 2010.05.17/outbox.cif.g08.bks.cpg/sg50_14_cif.got.tgz:27255.got - 2010.06.03 11:33:33.
