data_PCOD9396321
_publ_section_title
;
Structure prediction by ZEFSAII (Michael W. Deem and Ramdas Pophale) SiO2 
 PCOD9396321
Probable space group: P B A N
;
_chemical_formula_sum "Si O2"
_cell_formula_units_Z 64
_cell_length_a 9.194793
_cell_length_b 20.003061
_cell_length_c 15.848824
_cell_angle_alpha 90.000000
_cell_angle_beta 90.000000
_cell_angle_gamma 90.000000
_cell_volume 2914.979189
_symmetry_space_group_name_H-M "P B A N"
_symmetry_group_IT_number 50
_space_group.IT_coordinate_system_code '2'
_symmetry_cell_setting 'orthorhombic'
loop_
_space_group_symop_operation_xyz
x,y,z
1/2-x,1/2-y,z
x,1/2-y,-z
1/2-x,y,-z
-x,-y,-z
1/2+x,1/2+y,-z
-x,1/2+y,z
1/2+x,-y,z
loop_
_atom_site_type_symbol
_atom_site_label
_atom_site_fract_x
_atom_site_fract_y
_atom_site_fract_z
Si Si1 0.854623 0.688377 0.119520
Si Si2 0.812845 0.176094 0.085467
Si Si3 0.402711 0.714047 0.421184
Si Si4 0.859314 0.073381 0.815248
Si Si5 0.277420 0.431257 0.363581
Si Si6 0.561993 0.066050 0.383975
Si Si7 0.196575 0.440521 0.162722
Si Si8 0.388772 0.292422 0.319964
O O1 0.750000 0.750000 0.094751
O O2 0.771188 0.618677 0.111431
O O3 0.883369 0.696317 0.220008
O O4 0.013777 0.682314 0.080230
O O5 0.750000 0.250000 0.090593
O O6 0.740567 0.136262 0.162182
O O7 0.750000 0.144066 0.000000
O O8 0.250000 0.750000 0.417352
O O9 0.482472 0.750000 0.500000
O O10 0.387078 0.634735 0.427427
O O11 0.483481 0.740893 0.339185
O O12 0.889830 0.072834 0.714657
O O13 0.024085 0.067382 0.849162
O O14 0.765439 0.012485 0.853517
O O15 0.366022 0.493911 0.401758
O O16 0.240956 0.434313 0.262553
O O17 0.373615 0.363500 0.367795
O O18 0.112413 0.432208 0.398058
O O19 0.250000 0.250000 0.346091
#
# Coordination Sequence:
#
# PCOD9396321 Si02
#       8
#     8   8   8   8   8   8   8   8
#     4  10  21  37  65  93 122 159 214 262 310 365
#     4  11  25  41  57  88 126 160 205 258 316 381
#     4  11  26  42  59  89 131 162 208 257 315 377
#     4  10  20  36  63  88 125 161 208 252 313 375
#     4   9  19  35  58  96 126 150 209 262 309 365
#     4  10  21  37  64  92 120 166 206 256 315 373
#     4   9  18  35  57  94 123 153 202 266 303 358
#     4  10  20  38  65  93 123 160 213 262 307 377
#
# _framework density 21.955559999999998
#
# number of rings (size 3 to 8) (size 9 to 14) (size 15 to 20)
#    0.000    2.000    1.250    1.500    7.000    2.250 
#    0.000    7.500    0.000    0.000    0.000    0.000 
#    0.000    0.000    0.000    0.000    0.000    0.000 
#
# Total GULP energy -356883.119013 kJ/mol
# GULP energy per Si atom -5576.298735 kJ/mol
# Density = 2.190559 g / cm^3
# Si number density = 21.955560 Si / 1000 Ang^3
#
#
#
# Elastic Constant Matrix: (Units=GPa)
#
#
# Indices 1 2 3 4 5 6 
#
# 1 99.1266 16.4115 14.1840 0.0000 0.0000 0.0000
# 2 16.4115 117.4495 23.2108 0.0000 0.0000 0.0000
# 3 14.1840 23.2108 29.2720 0.0000 0.0000 0.0000
# 4 0.0000 0.0000 0.0000 -20.1202 0.0000 0.0000
# 5 0.0000 0.0000 0.0000 0.0000 55.2129 0.0000
# 6 0.0000 0.0000 0.0000 0.0000 0.0000 28.8308
#
#
#
# Elastic Compliance Matrix: (Units=1/GPa)
#
#
# Indices 1 2 3 4 5 6 
#
# 1 0.010871 -0.000567 -0.004818 0.000000 0.000000 0.000000
# 2 -0.000567 0.010126 -0.007755 0.000000 0.000000 0.000000
# 3 -0.004818 -0.007755 0.042646 0.000000 0.000000 0.000000
# 4 0.000000 0.000000 0.000000 -0.049701 0.000000 0.000000
# 5 0.000000 0.000000 0.000000 0.000000 0.018112 0.000000
# 6 0.000000 0.000000 0.000000 0.000000 0.000000 0.034685
#
#
# Mechanical properties :
#
#
# Convention : Reuss Voigt Hill
#
# Bulk Modulus (GPa) = 26.76385 39.27340 33.01863
# Shear Modulus (GPa) = 47.40541 25.58747 36.49644
#
# Velocity S-wave (km/s) = 4.65171 3.41753 4.08154
# Velocity P-wave (km/s) = 6.40841 5.78785 6.10602
#
# Compressibility (1/GPa) = 0.03736383
#
# Stress axis : x y z
#
# Youngs Moduli (GPa) = 91.98433 98.75570 23.44886
#
# Poissons Ratio (x) = 0.05598 0.11298
# Poissons Ratio (y) = 0.05214 0.18184
# Poissons Ratio (z) = 0.44321 0.76581
#
# Static dielectric constant tensor:
#      x y z
#    x 1.725210 0.000000 0.000000 
#    y 0.000000 2.047770 0.000000 
#    z 0.000000 0.000000 1.974410 
# 
# From -- ./inp_files/28966.got.cif
#   From: 2010.05.17/outbox.cif.g08.bks.cpg/sg50_15_cif.got.tgz:28966.got - 2010.06.03 11:33:33.
