data_PCOD9396463
_publ_section_title
;
Structure prediction by ZEFSAII (Michael W. Deem and Ramdas Pophale) SiO2 
 PCOD9396463
Probable space group: P B A N
;
_chemical_formula_sum "Si O2"
_cell_formula_units_Z 64
_cell_length_a 13.320699
_cell_length_b 23.208056
_cell_length_c 9.330514
_cell_angle_alpha 90.000000
_cell_angle_beta 90.000000
_cell_angle_gamma 90.000000
_cell_volume 2884.505341
_symmetry_space_group_name_H-M "P B A N"
_symmetry_group_IT_number 50
_space_group.IT_coordinate_system_code '2'
_symmetry_cell_setting 'orthorhombic'
loop_
_space_group_symop_operation_xyz
x,y,z
1/2-x,1/2-y,z
x,1/2-y,-z
1/2-x,y,-z
-x,-y,-z
1/2+x,1/2+y,-z
-x,1/2+y,z
1/2+x,-y,z
loop_
_atom_site_type_symbol
_atom_site_label
_atom_site_fract_x
_atom_site_fract_y
_atom_site_fract_z
Si Si1 0.085498 0.582124 0.417262
Si Si2 0.434775 0.364100 0.056530
Si Si3 0.383927 0.009873 0.971012
Si Si4 0.336376 0.200909 0.185119
Si Si5 0.660755 0.397621 0.106171
Si Si6 0.115836 0.011408 0.356934
Si Si7 0.174713 0.135555 0.341093
Si Si8 0.467212 0.190267 0.449927
O O1 0.148451 0.606343 0.280426
O O2 0.135668 0.540438 0.535112
O O3 0.998596 0.537459 0.360542
O O4 0.033421 0.634700 0.506756
O O5 0.554104 0.373839 0.042991
O O6 0.413399 0.356555 0.223735
O O7 0.374076 0.421946 0.013006
O O8 0.382306 0.313874 0.968247
O O9 0.334889 0.966558 0.081223
O O10 0.364614 0.993698 0.806297
O O11 0.500000 0.000000 0.000000
O O12 0.250000 0.250000 0.189529
O O13 0.274370 0.148339 0.254165
O O14 0.432795 0.203588 0.288543
O O15 0.750000 0.374847 0.000000
O O16 0.175038 0.069854 0.389689
O O17 0.138434 0.177944 0.466051
O O18 0.515186 0.250000 0.500000
#
# Coordination Sequence:
#
# PCOD9396463 Si02
#       8
#     8   8   8   8   8   8   8   8
#     4  10  20  38  63  95 130 184 225 291 351 415
#     4  10  22  41  60  94 139 184 233 288 354 412
#     4   9  17  34  58  86 134 178 226 278 347 411
#     4  12  25  38  64  98 139 184 232 278 354 446
#     4  11  22  40  66  96 135 183 236 293 346 421
#     4   9  18  35  62  90 135 175 231 283 348 416
#     4  10  20  40  60  93 139 178 225 282 345 424
#     4  11  22  40  62  92 141 179 218 274 356 430
#
# _framework density 22.187514
#
# number of rings (size 3 to 8) (size 9 to 14) (size 15 to 20)
#    0.000    1.750    6.250    0.750    3.500    4.000 
#    0.000    4.375    0.000    0.000    0.000    7.875 
#    0.000    0.000    0.000    0.000    0.000    0.000 
#
# Total GULP energy -356641.666046 kJ/mol
# GULP energy per Si atom -5572.526032 kJ/mol
# Density = 2.213701 g / cm^3
# Si number density = 22.187514 Si / 1000 Ang^3
#
#
#
# Elastic Constant Matrix: (Units=GPa)
#
#
# Indices 1 2 3 4 5 6 
#
# 1 101.1227 23.4622 47.8014 0.0000 0.0000 0.0000
# 2 23.4622 109.5369 53.6103 0.0000 0.0000 0.0000
# 3 47.8014 53.6103 122.1429 0.0000 0.0000 0.0000
# 4 0.0000 0.0000 0.0000 24.9503 0.0000 0.0000
# 5 0.0000 0.0000 0.0000 0.0000 31.6829 0.0000
# 6 0.0000 0.0000 0.0000 0.0000 0.0000 3.8053
#
#
#
# Elastic Compliance Matrix: (Units=1/GPa)
#
#
# Indices 1 2 3 4 5 6 
#
# 1 0.012144 -0.000350 -0.004599 0.000000 0.000000 0.000000
# 2 -0.000350 0.011637 -0.004971 0.000000 0.000000 0.000000
# 3 -0.004599 -0.004971 0.012169 0.000000 0.000000 0.000000
# 4 0.000000 0.000000 0.000000 0.040080 0.000000 0.000000
# 5 0.000000 0.000000 0.000000 0.000000 0.031563 0.000000
# 6 0.000000 0.000000 0.000000 0.000000 0.000000 0.262794
#
#
# Mechanical properties :
#
#
# Convention : Reuss Voigt Hill
#
# Bulk Modulus (GPa) = 62.07255 64.72778 63.40017
# Shear Modulus (GPa) = 12.63916 25.94961 19.29438
#
# Velocity S-wave (km/s) = 2.38933 3.42359 2.95211
# Velocity P-wave (km/s) = 5.97067 6.69809 6.34481
#
# Compressibility (1/GPa) = 0.01611018
#
# Stress axis : x y z
#
# Youngs Moduli (GPa) = 82.34373 85.93187 82.17868
#
# Poissons Ratio (x) = 0.03011 0.37793
# Poissons Ratio (y) = 0.02885 0.40848
# Poissons Ratio (z) = 0.37869 0.42713
#
# Static dielectric constant tensor:
#      x y z
#    x 2.127660 0.000000 0.000000 
#    y 0.000000 1.832030 0.000000 
#    z 0.000000 0.000000 1.891220 
# 
# From -- ./inp_files/13485.got.cif
#   From: 2010.05.17/outbox.cif.g08.bks.cpg/sg50_7_cif.got.tgz:13485.got - 2010.06.03 11:33:33.
