data_PCOD9396435
_publ_section_title
;
Structure prediction by ZEFSAII (Michael W. Deem and Ramdas Pophale) SiO2 
 PCOD9396435
Probable space group: P B A N
;
_chemical_formula_sum "Si O2"
_cell_formula_units_Z 34
_cell_length_a 5.433886
_cell_length_b 15.207709
_cell_length_c 19.884159
_cell_angle_alpha 90.000000
_cell_angle_beta 90.000000
_cell_angle_gamma 90.000000
_cell_volume 1643.166393
_symmetry_space_group_name_H-M "P B A N"
_symmetry_group_IT_number 50
_space_group.IT_coordinate_system_code '2'
_symmetry_cell_setting 'orthorhombic'
loop_
_space_group_symop_operation_xyz
x,y,z
1/2-x,1/2-y,z
x,1/2-y,-z
1/2-x,y,-z
-x,-y,-z
1/2+x,1/2+y,-z
-x,1/2+y,z
1/2+x,-y,z
loop_
_atom_site_type_symbol
_atom_site_label
_atom_site_fract_x
_atom_site_fract_y
_atom_site_fract_z
Si Si1 0.246503 0.644344 0.651445
Si Si2 0.753235 0.445870 0.793280
Si Si3 0.357213 0.651422 0.068797
Si Si4 0.750000 0.750000 0.000000
Si Si5 0.251933 0.142333 0.577776
O O1 0.250000 0.750000 0.647032
O O2 0.232041 0.616700 0.728787
O O3 0.499752 0.613586 0.616091
O O4 0.999034 0.613112 0.613974
O O5 0.526687 0.514128 0.789519
O O6 0.708404 0.398844 0.864486
O O7 0.250000 0.750000 0.073036
O O8 0.250000 0.609907 0.000000
O O9 0.633445 0.678791 0.051661
O O10 0.250000 0.250000 0.578595
O O11 0.250000 0.114991 0.500000
#
# Coordination Sequence:
#
# PCOD9396435 Si02
#       5
#     8   8   8   2   8
#     4  10  20  38  60  87 118 159 201 244 300 362
#     4  12  27  41  59  88 128 166 200 249 299 354
#     4   9  21  41  66  92 117 156 205 251 302 363
#     4   8  18  40  68  90 116 148 206 264 294 364
#     4   9  17  32  60  93 117 143 195 260 306 346
#
# _framework density 20.691756000000002
#
# number of rings (size 3 to 8) (size 9 to 14) (size 15 to 20)
#    0.000    2.353    0.000    2.824    6.588    3.765 
#    6.353    0.000    0.000   14.118    0.000    0.000 
#    0.000    0.000    0.000    0.000    0.000    0.000 
#
# Total GULP energy -189529.312773 kJ/mol
# GULP energy per Si atom -5574.391552 kJ/mol
# Density = 2.064466 g / cm^3
# Si number density = 20.691756 Si / 1000 Ang^3
#
#
#
# Elastic Constant Matrix: (Units=GPa)
#
#
# Indices 1 2 3 4 5 6 
#
# 1 73.3721 2.1070 71.0873 0.0000 0.0000 0.0000
# 2 2.1070 20.2851 20.8539 0.0000 0.0000 0.0000
# 3 71.0873 20.8539 187.0306 0.0000 0.0000 0.0000
# 4 0.0000 0.0000 0.0000 -55.4453 0.0000 0.0000
# 5 0.0000 0.0000 0.0000 0.0000 52.5655 0.0000
# 6 0.0000 0.0000 0.0000 0.0000 0.0000 37.9276
#
#
#
# Elastic Compliance Matrix: (Units=1/GPa)
#
#
# Indices 1 2 3 4 5 6 
#
# 1 0.022488 0.007287 -0.009360 0.000000 0.000000 0.000000
# 2 0.007287 0.058041 -0.009241 0.000000 0.000000 0.000000
# 3 -0.009360 -0.009241 0.009935 0.000000 0.000000 0.000000
# 4 0.000000 0.000000 0.000000 -0.018036 0.000000 0.000000
# 5 0.000000 0.000000 0.000000 0.000000 0.019024 0.000000
# 6 0.000000 0.000000 0.000000 0.000000 0.000000 0.026366
#
#
# Mechanical properties :
#
#
# Convention : Reuss Voigt Hill
#
# Bulk Modulus (GPa) = 14.74169 52.08713 33.41441
# Shear Modulus (GPa) = 30.66392 19.45219 25.05806
#
# Velocity S-wave (km/s) = 3.85377 3.06942 3.48374
# Velocity P-wave (km/s) = 5.19057 6.14730 5.68908
#
# Compressibility (1/GPa) = 0.06783483
#
# Stress axis : x y z
#
# Youngs Moduli (GPa) = 44.46746 17.22932 100.65784
#
# Poissons Ratio (x) = -0.12554 0.94215
# Poissons Ratio (y) = -0.32402 0.93018
# Poissons Ratio (z) = 0.41621 0.15922
#
# Static dielectric constant tensor:
#      x y z
#    x 1.487960 0.000000 0.000000 
#    y 0.000000 1.712770 0.000000 
#    z 0.000000 0.000000 1.675170 
# 
# From -- ./inp_files/30215.got.cif
#   From: 2010.05.17/outbox.cif.g08.bks.cpg/sg50_16_cif.got.tgz:30215.got - 2010.06.03 11:33:33.
