data_PCOD9396350
_publ_section_title
;
Structure prediction by ZEFSAII (Michael W. Deem and Ramdas Pophale) SiO2 
 PCOD9396350
Probable space group: P B A N
;
_chemical_formula_sum "Si O2"
_cell_formula_units_Z 56
_cell_length_a 13.791435
_cell_length_b 21.401343
_cell_length_c 9.057678
_cell_angle_alpha 90.000000
_cell_angle_beta 90.000000
_cell_angle_gamma 90.000000
_cell_volume 2673.421041
_symmetry_space_group_name_H-M "P B A N"
_symmetry_group_IT_number 50
_space_group.IT_coordinate_system_code '2'
_symmetry_cell_setting 'orthorhombic'
loop_
_space_group_symop_operation_xyz
x,y,z
1/2-x,1/2-y,z
x,1/2-y,-z
1/2-x,y,-z
-x,-y,-z
1/2+x,1/2+y,-z
-x,1/2+y,z
1/2+x,-y,z
loop_
_atom_site_type_symbol
_atom_site_label
_atom_site_fract_x
_atom_site_fract_y
_atom_site_fract_z
Si Si1 0.210258 0.005305 0.663911
Si Si2 0.469379 0.476152 0.810402
Si Si3 0.934520 0.814296 0.922181
Si Si4 0.783770 0.357861 0.672116
Si Si5 0.371594 0.053801 0.889613
Si Si6 0.910334 0.148890 0.852073
Si Si7 0.032991 0.767042 0.666441
O O1 0.250000 0.014970 0.500000
O O2 0.106037 0.036933 0.682241
O O3 0.283223 0.029901 0.791248
O O4 0.191799 0.931182 0.685193
O O5 0.531970 0.538712 0.794189
O O6 0.545898 0.419632 0.822130
O O7 0.402063 0.481140 0.957894
O O8 0.867509 0.874505 0.939171
O O9 0.947933 0.802734 0.749733
O O10 0.903103 0.750000 0.000000
O O11 0.041602 0.832014 0.990670
O O12 0.750000 0.349601 0.500000
O O13 0.701476 0.348575 0.799477
O O14 0.870199 0.308503 0.685510
O O15 0.956313 0.201374 0.748694
O O16 0.015446 0.750000 0.500000
#
# Coordination Sequence:
#
# PCOD9396350 Si02
#       7
#     8   8   8   8   8   8   8
#     4  11  24  38  59  92 128 162 211 259 315 382
#     4  10  21  39  61  88 120 165 207 255 313 369
#     4   9  21  38  58  90 116 154 208 255 315 373
#     4  11  21  36  52  87 125 163 207 249 307 380
#     4  10  20  40  64  88 122 160 206 260 312 371
#     4  10  20  37  58  80 122 159 205 253 302 369
#     4  11  21  34  58  84 121 164 201 253 313 374
#
# _framework density 20.946943999999998
#
# number of rings (size 3 to 8) (size 9 to 14) (size 15 to 20)
#    0.000    1.714    2.857    1.714    0.000    2.286 
#    2.571    2.143    0.000   14.571    0.000   10.000 
#    0.000    0.000    0.000    0.000    0.000    0.000 
#
# Total GULP energy -312097.855071 kJ/mol
# GULP energy per Si atom -5573.175983 kJ/mol
# Density = 2.089927 g / cm^3
# Si number density = 20.946944 Si / 1000 Ang^3
#
#
#
# Elastic Constant Matrix: (Units=GPa)
#
#
# Indices 1 2 3 4 5 6 
#
# 1 55.9752 11.2419 30.2676 0.0000 0.0000 0.0000
# 2 11.2419 102.4602 25.2070 0.0000 0.0000 0.0000
# 3 30.2676 25.2070 79.3426 0.0000 0.0000 0.0000
# 4 0.0000 0.0000 0.0000 18.2320 0.0000 0.0000
# 5 0.0000 0.0000 0.0000 0.0000 20.8367 0.0000
# 6 0.0000 0.0000 0.0000 0.0000 0.0000 15.6172
#
#
#
# Elastic Compliance Matrix: (Units=1/GPa)
#
#
# Indices 1 2 3 4 5 6 
#
# 1 0.022522 -0.000388 -0.008469 0.000000 0.000000 0.000000
# 2 -0.000388 0.010594 -0.003218 0.000000 0.000000 0.000000
# 3 -0.008469 -0.003218 0.016856 0.000000 0.000000 0.000000
# 4 0.000000 0.000000 0.000000 0.054848 0.000000 0.000000
# 5 0.000000 0.000000 0.000000 0.000000 0.047992 0.000000
# 6 0.000000 0.000000 0.000000 0.000000 0.000000 0.064032
#
#
# Mechanical properties :
#
#
# Convention : Reuss Voigt Hill
#
# Bulk Modulus (GPa) = 38.72297 41.24568 39.98432
# Shear Modulus (GPa) = 20.03193 22.34130 21.18661
#
# Velocity S-wave (km/s) = 3.09579 3.26938 3.18377
# Velocity P-wave (km/s) = 5.59508 5.82967 5.71358
#
# Compressibility (1/GPa) = 0.02582447
#
# Stress axis : x y z
#
# Youngs Moduli (GPa) = 44.40075 94.39246 59.32443
#
# Poissons Ratio (x) = 0.03660 0.50239
# Poissons Ratio (y) = 0.01721 0.19090
# Poissons Ratio (z) = 0.37601 0.30374
#
# Static dielectric constant tensor:
#      x y z
#    x 1.793920 0.000000 0.000000 
#    y 0.000000 1.769800 0.000000 
#    z 0.000000 0.000000 1.953900 
# 
# From -- ./inp_files/13306.got.cif
#   From: 2010.05.17/outbox.cif.g08.bks.cpg/sg50_7_cif.got.tgz:13306.got - 2010.06.03 11:33:33.
