data_PCOD9396123
_publ_section_title
;
Structure prediction by ZEFSAII (Michael W. Deem and Ramdas Pophale) SiO2 
 PCOD9396123
Probable space group: P B A N
;
_chemical_formula_sum "Si O2"
_cell_formula_units_Z 48
_cell_length_a 18.993675
_cell_length_b 13.010379
_cell_length_c 9.710726
_cell_angle_alpha 90.000000
_cell_angle_beta 90.000000
_cell_angle_gamma 90.000000
_cell_volume 2399.665185
_symmetry_space_group_name_H-M "P B A N"
_symmetry_group_IT_number 50
_space_group.IT_coordinate_system_code '2'
_symmetry_cell_setting 'orthorhombic'
loop_
_space_group_symop_operation_xyz
x,y,z
1/2-x,1/2-y,z
x,1/2-y,-z
1/2-x,y,-z
-x,-y,-z
1/2+x,1/2+y,-z
-x,1/2+y,z
1/2+x,-y,z
loop_
_atom_site_type_symbol
_atom_site_label
_atom_site_fract_x
_atom_site_fract_y
_atom_site_fract_z
Si Si1 0.527779 0.130439 0.012944
Si Si2 0.150096 0.839114 0.806412
Si Si3 0.446276 0.368784 0.477980
Si Si4 0.075504 0.032429 0.182484
Si Si5 0.810309 0.390466 0.233960
Si Si6 0.606274 0.084704 0.513683
O O1 0.595562 0.110523 0.913196
O O2 0.456478 0.087073 0.948419
O O3 0.520587 0.250000 0.000000
O O4 0.538225 0.079521 0.161912
O O5 0.160062 0.716494 0.830179
O O6 0.228145 0.886118 0.798987
O O7 0.121561 0.855290 0.652731
O O8 0.425351 0.250000 0.500000
O O9 0.443638 0.402631 0.316545
O O10 0.526806 0.383280 0.527671
O O11 0.399034 0.461309 0.541210
O O12 0.155630 0.996239 0.181005
O O13 0.836756 0.391373 0.394216
#
# Coordination Sequence:
#
# PCOD9396123 Si02
#       6
#     8   8   8   8   8   8
#     4  11  22  38  61  86 121 162 205 251 299 366
#     4  11  20  36  58  90 122 159 187 243 312 368
#     4  10  20  35  59  84 116 153 198 256 303 358
#     4  10  22  39  55  88 119 156 205 252 299 356
#     4  10  21  35  59  89 126 150 192 243 310 373
#     4  10  20  33  56  89 120 149 194 245 308 362
#
# _framework density 20.002790999999998
#
# number of rings (size 3 to 8) (size 9 to 14) (size 15 to 20)
#    0.000    1.667    3.333    2.000    0.000    3.333 
#    0.000    0.000    0.000    8.000    4.333    0.000 
#    0.000    0.000    0.000    0.000    0.000    0.000 
#
# Total GULP energy -267405.838158 kJ/mol
# GULP energy per Si atom -5570.954962 kJ/mol
# Density = 1.995726 g / cm^3
# Si number density = 20.002791 Si / 1000 Ang^3
#
#
#
# Elastic Constant Matrix: (Units=GPa)
#
#
# Indices 1 2 3 4 5 6 
#
# 1 94.1129 39.3880 35.4721 0.0000 0.0000 0.0000
# 2 39.3880 114.4620 20.6790 0.0000 0.0000 0.0000
# 3 35.4721 20.6790 70.5265 0.0000 0.0000 0.0000
# 4 0.0000 0.0000 0.0000 29.9115 0.0000 0.0000
# 5 0.0000 0.0000 0.0000 0.0000 3.4423 0.0000
# 6 0.0000 0.0000 0.0000 0.0000 0.0000 24.7087
#
#
#
# Elastic Compliance Matrix: (Units=1/GPa)
#
#
# Indices 1 2 3 4 5 6 
#
# 1 0.014594 -0.003903 -0.006196 0.000000 0.000000 0.000000
# 2 -0.003903 0.010269 -0.001048 0.000000 0.000000 0.000000
# 3 -0.006196 -0.001048 0.017603 0.000000 0.000000 0.000000
# 4 0.000000 0.000000 0.000000 0.033432 0.000000 0.000000
# 5 0.000000 0.000000 0.000000 0.000000 0.290501 0.000000
# 6 0.000000 0.000000 0.000000 0.000000 0.000000 0.040472
#
#
# Mechanical properties :
#
#
# Convention : Reuss Voigt Hill
#
# Bulk Modulus (GPa) = 49.57292 52.24220 50.90756
# Shear Modulus (GPa) = 11.47083 23.85000 17.66042
#
# Velocity S-wave (km/s) = 2.39730 3.45676 2.97458
# Velocity P-wave (km/s) = 5.70084 6.48895 6.10762
#
# Compressibility (1/GPa) = 0.02017230
#
# Stress axis : x y z
#
# Youngs Moduli (GPa) = 68.52021 97.38209 56.80945
#
# Poissons Ratio (x) = 0.38005 0.35199
# Poissons Ratio (y) = 0.26741 0.05954
# Poissons Ratio (z) = 0.42455 0.10206
#
# Static dielectric constant tensor:
#      x y z
#    x 1.730120 0.000000 0.000000 
#    y 0.000000 1.782230 0.000000 
#    z 0.000000 0.000000 1.775790 
# 
# From -- ./inp_files/21793.got.cif
#   From: 2010.05.17/outbox.cif.g08.bks.cpg/sg50_11_cif.got.tgz:21793.got - 2010.06.03 11:33:33.
