data_PCOD9396881
_publ_section_title
;
Structure prediction by ZEFSAII (Michael W. Deem and Ramdas Pophale) SiO2 
 PCOD9396881
Probable space group: P B A N
;
_chemical_formula_sum "Si O2"
_cell_formula_units_Z 32
_cell_length_a 10.976427
_cell_length_b 8.478020
_cell_length_c 16.687039
_cell_angle_alpha 90.000000
_cell_angle_beta 90.000000
_cell_angle_gamma 90.000000
_cell_volume 1552.868610
_symmetry_space_group_name_H-M "P B A N"
_symmetry_group_IT_number 50
_space_group.IT_coordinate_system_code '2'
_symmetry_cell_setting 'orthorhombic'
loop_
_space_group_symop_operation_xyz
x,y,z
1/2-x,1/2-y,z
x,1/2-y,-z
1/2-x,y,-z
-x,-y,-z
1/2+x,1/2+y,-z
-x,1/2+y,z
1/2+x,-y,z
loop_
_atom_site_type_symbol
_atom_site_label
_atom_site_fract_x
_atom_site_fract_y
_atom_site_fract_z
Si Si1 0.879581 0.661637 0.346652
Si Si2 0.625287 0.843440 0.159818
Si Si3 0.435932 0.874338 0.940071
Si Si4 0.123354 0.817659 0.410019
O O1 0.750000 0.750000 0.353887
O O2 0.900751 0.623822 0.252888
O O3 0.872748 0.505419 0.400776
O O4 0.997073 0.762020 0.371405
O O5 0.750000 0.750000 0.154437
O O6 0.526423 0.730539 0.115741
O O7 0.640026 0.011130 0.116244
O O8 0.376941 0.750000 0.000000
O O9 0.500000 0.000000 0.000000
O O10 0.250000 0.750000 0.373151
O O11 0.120647 0.750000 0.500000
#
# Coordination Sequence:
#
# PCOD9396881 Si02
#       4
#     8   8   8   8
#     4  11  23  41  67  95 128 169 211 262 320 381
#     4  10  21  39  61  88 123 160 203 256 312 371
#     4   9  19  36  58  86 119 156 201 249 301 366
#     4  11  24  42  64  95 129 166 211 262 320 383
#
# _framework density 20.607023999999999
#
# number of rings (size 3 to 8) (size 9 to 14) (size 15 to 20)
#    0.000    1.750    0.000    3.750    0.000    9.000 
#    0.000    8.750    0.000    0.000    0.000    0.000 
#    0.000    0.000    0.000    0.000    0.000    0.000 
#
# Total GULP energy -178555.153077 kJ/mol
# GULP energy per Si atom -5579.848534 kJ/mol
# Density = 2.056012 g / cm^3
# Si number density = 20.607024 Si / 1000 Ang^3
#
#
#
# Elastic Constant Matrix: (Units=GPa)
#
#
# Indices 1 2 3 4 5 6 
#
# 1 93.8476 16.5934 35.1657 0.0000 0.0000 0.0000
# 2 16.5934 131.8348 57.7301 0.0000 0.0000 0.0000
# 3 35.1657 57.7301 126.0798 0.0000 0.0000 0.0000
# 4 0.0000 0.0000 0.0000 47.2327 0.0000 0.0000
# 5 0.0000 0.0000 0.0000 0.0000 26.4007 0.0000
# 6 0.0000 0.0000 0.0000 0.0000 0.0000 26.4519
#
#
#
# Elastic Compliance Matrix: (Units=1/GPa)
#
#
# Indices 1 2 3 4 5 6 
#
# 1 0.011900 -0.000055 -0.003294 0.000000 0.000000 0.000000
# 2 -0.000055 0.009488 -0.004329 0.000000 0.000000 0.000000
# 3 -0.003294 -0.004329 0.010832 0.000000 0.000000 0.000000
# 4 0.000000 0.000000 0.000000 0.021172 0.000000 0.000000
# 5 0.000000 0.000000 0.000000 0.000000 0.037878 0.000000
# 6 0.000000 0.000000 0.000000 0.000000 0.000000 0.037805
#
#
# Mechanical properties :
#
#
# Convention : Reuss Voigt Hill
#
# Bulk Modulus (GPa) = 59.29876 63.41562 61.35719
# Shear Modulus (GPa) = 33.32207 36.16858 34.74532
#
# Velocity S-wave (km/s) = 4.02559 4.19401 4.11066
# Velocity P-wave (km/s) = 7.10251 7.36841 7.23668
#
# Compressibility (1/GPa) = 0.01686376
#
# Stress axis : x y z
#
# Youngs Moduli (GPa) = 84.03703 105.39810 92.31700
#
# Poissons Ratio (x) = 0.00585 0.30405
# Poissons Ratio (y) = 0.00466 0.39963
# Poissons Ratio (z) = 0.27678 0.45625
#
# Static dielectric constant tensor:
#      x y z
#    x 1.740980 0.000000 0.000000 
#    y 0.000000 1.683060 0.000000 
#    z 0.000000 0.000000 1.782570 
# 
# From -- ./inp_files/24320.got.cif
#   From: 2010.05.17/outbox.cif.g08.bks.cpg/sg50_13_cif.got.tgz:24320.got - 2010.06.03 11:33:33.
