data_PCOD9396671
_publ_section_title
;
Structure prediction by ZEFSAII (Michael W. Deem and Ramdas Pophale) SiO2 
 PCOD9396671
Probable space group: P B A N
;
_chemical_formula_sum "Si O2"
_cell_formula_units_Z 50
_cell_length_a 29.896176
_cell_length_b 10.376594
_cell_length_c 8.118048
_cell_angle_alpha 90.000000
_cell_angle_beta 90.000000
_cell_angle_gamma 90.000000
_cell_volume 2518.384751
_symmetry_space_group_name_H-M "P B A N"
_symmetry_group_IT_number 50
_space_group.IT_coordinate_system_code '2'
_symmetry_cell_setting 'orthorhombic'
loop_
_space_group_symop_operation_xyz
x,y,z
1/2-x,1/2-y,z
x,1/2-y,-z
1/2-x,y,-z
-x,-y,-z
1/2+x,1/2+y,-z
-x,1/2+y,z
1/2+x,-y,z
loop_
_atom_site_type_symbol
_atom_site_label
_atom_site_fract_x
_atom_site_fract_y
_atom_site_fract_z
Si Si1 0.141206 0.529896 0.805078
Si Si2 0.041077 0.128925 0.624372
Si Si3 0.057963 0.881177 0.395270
Si Si4 0.260433 0.901249 0.681825
Si Si5 0.250000 0.250000 0.000000
Si Si6 0.188539 0.454929 0.097115
Si Si7 0.870264 0.736318 0.697797
O O1 0.099114 0.604187 0.729309
O O2 0.187648 0.574270 0.721023
O O3 0.131572 0.379759 0.767553
O O4 0.152161 0.537909 0.999415
O O5 0.037003 0.250000 0.500000
O O6 0.081961 0.170703 0.738738
O O7 0.990942 0.112660 0.691305
O O8 0.055921 0.002374 0.522148
O O9 0.062433 0.750000 0.500000
O O10 0.250000 0.750000 0.681549
O O11 0.250000 0.954879 0.500000
O O12 0.225928 0.962229 0.811522
O O13 0.212591 0.139394 0.036779
O O14 0.166825 0.358521 0.228960
O O15 0.865692 0.750000 0.500000
#
# Coordination Sequence:
#
# PCOD9396671 Si02
#       7
#     8   8   8   8   2   8   8
#     4  12  22  39  61  94 128 170 211 263 324 391
#     4   9  18  37  61  93 123 163 220 275 320 372
#     4  10  21  35  62  93 129 165 216 275 323 382
#     4  11  26  43  64  91 127 167 216 265 314 389
#     4  12  20  40  56  88 120 160 210 250 320 372
#     4  12  23  40  64  93 130 167 207 270 331 387
#     4  11  20  37  67  92 120 162 223 268 314 379
#
# _framework density 19.853995999999999
#
# number of rings (size 3 to 8) (size 9 to 14) (size 15 to 20)
#    0.000    1.120    6.400    0.960    2.240    1.280 
#    0.000    2.400    0.000    0.000    0.000    0.000 
#    0.000    0.000    0.000    0.000    0.000    0.000 
#
# Total GULP energy -278348.476232 kJ/mol
# GULP energy per Si atom -5566.969525 kJ/mol
# Density = 1.980881 g / cm^3
# Si number density = 19.853996 Si / 1000 Ang^3
#
#
#
# Elastic Constant Matrix: (Units=GPa)
#
#
# Indices 1 2 3 4 5 6 
#
# 1 148.3610 49.0210 37.5388 0.0000 0.0000 0.0000
# 2 49.0210 98.0176 19.1629 0.0000 0.0000 0.0000
# 3 37.5388 19.1629 67.4760 0.0000 0.0000 0.0000
# 4 0.0000 0.0000 0.0000 17.8451 0.0000 0.0000
# 5 0.0000 0.0000 0.0000 0.0000 25.4913 0.0000
# 6 0.0000 0.0000 0.0000 0.0000 0.0000 38.3967
#
#
#
# Elastic Compliance Matrix: (Units=1/GPa)
#
#
# Indices 1 2 3 4 5 6 
#
# 1 0.008962 -0.003714 -0.003931 0.000000 0.000000 0.000000
# 2 -0.003714 0.012341 -0.001439 0.000000 0.000000 0.000000
# 3 -0.003931 -0.001439 0.017416 0.000000 0.000000 0.000000
# 4 0.000000 0.000000 0.000000 0.056038 0.000000 0.000000
# 5 0.000000 0.000000 0.000000 0.000000 0.039229 0.000000
# 6 0.000000 0.000000 0.000000 0.000000 0.000000 0.026044
#
#
# Mechanical properties :
#
#
# Convention : Reuss Voigt Hill
#
# Bulk Modulus (GPa) = 48.65830 58.36667 53.51248
# Shear Modulus (GPa) = 27.02020 30.22210 28.62115
#
# Velocity S-wave (km/s) = 3.69310 3.90579 3.80094
# Velocity P-wave (km/s) = 6.53809 7.05706 6.80252
#
# Compressibility (1/GPa) = 0.02055148
#
# Stress axis : x y z
#
# Youngs Moduli (GPa) = 111.58198 81.03219 57.41933
#
# Poissons Ratio (x) = 0.30092 0.22573
# Poissons Ratio (y) = 0.41437 0.08261
# Poissons Ratio (z) = 0.43865 0.11659
#
# Static dielectric constant tensor:
#      x y z
#    x 1.749180 0.000000 0.000000 
#    y 0.000000 1.705370 0.000000 
#    z 0.000000 0.000000 1.725830 
# 
# From -- ./inp_files/16994.got.cif
#   From: 2010.05.17/outbox.cif.g08.bks.cpg/sg50_9_cif.got.tgz:16994.got - 2010.06.03 11:33:33.
