data_PCOD9396459
_publ_section_title
;
Structure prediction by ZEFSAII (Michael W. Deem and Ramdas Pophale) SiO2 
 PCOD9396459
Probable space group: P B A N
;
_chemical_formula_sum "Si O2"
_cell_formula_units_Z 48
_cell_length_a 14.117201
_cell_length_b 9.907432
_cell_length_c 15.114240
_cell_angle_alpha 90.000000
_cell_angle_beta 90.000000
_cell_angle_gamma 90.000000
_cell_volume 2113.956336
_symmetry_space_group_name_H-M "P B A N"
_symmetry_group_IT_number 50
_space_group.IT_coordinate_system_code '2'
_symmetry_cell_setting 'orthorhombic'
loop_
_space_group_symop_operation_xyz
x,y,z
1/2-x,1/2-y,z
x,1/2-y,-z
1/2-x,y,-z
-x,-y,-z
1/2+x,1/2+y,-z
-x,1/2+y,z
1/2+x,-y,z
loop_
_atom_site_type_symbol
_atom_site_label
_atom_site_fract_x
_atom_site_fract_y
_atom_site_fract_z
Si Si1 0.353748 0.498652 0.178707
Si Si2 0.364858 0.253776 0.301789
Si Si3 0.872079 0.502159 0.804633
Si Si4 0.866085 0.405962 0.995752
Si Si5 0.993130 0.366277 0.438335
Si Si6 0.141129 0.762577 0.294969
O O1 0.390873 0.394434 0.252991
O O2 0.240964 0.478484 0.185147
O O3 0.362565 0.655421 0.204065
O O4 0.389251 0.495799 0.078354
O O5 0.250000 0.250000 0.312075
O O6 0.412695 0.200857 0.393079
O O7 0.404664 0.143961 0.232457
O O8 0.901349 0.462630 0.902339
O O9 0.891303 0.388117 0.729966
O O10 0.897526 0.250000 0.000000
O O11 0.750000 0.402110 0.000000
O O12 0.953495 0.250000 0.500000
O O13 0.000000 0.500000 0.500000
O O14 0.917163 0.358608 0.359925
O O15 0.250000 0.750000 0.324859
#
# Coordination Sequence:
#
# PCOD9396459 Si02
#       6
#     8   8   8   8   8   8
#     4   9  17  31  56  87 122 162 202 249 304 360
#     4  10  22  40  59  86 123 165 205 249 317 385
#     4   9  17  31  56  87 122 162 204 248 299 362
#     4   9  14  25  51  90 124 157 207 252 287 351
#     4  12  26  44  66  91 120 159 210 267 330 387
#     4  10  20  38  63  90 119 155 203 257 313 374
#
# _framework density 22.706242
#
# number of rings (size 3 to 8) (size 9 to 14) (size 15 to 20)
#    0.000    2.167    1.667    2.000    0.000    1.333 
#    0.000    5.000    0.000    6.000    0.000    0.000 
#    0.000    0.000    0.000    0.000    0.000    0.000 
#
# Total GULP energy -267293.576869 kJ/mol
# GULP energy per Si atom -5568.616185 kJ/mol
# Density = 2.265456 g / cm^3
# Si number density = 22.706242 Si / 1000 Ang^3
#
#
#
# Elastic Constant Matrix: (Units=GPa)
#
#
# Indices 1 2 3 4 5 6 
#
# 1 107.1231 14.9955 20.1949 0.0000 0.0000 0.0000
# 2 14.9955 130.0594 40.2814 0.0000 0.0000 0.0000
# 3 20.1949 40.2814 113.1757 0.0000 0.0000 0.0000
# 4 0.0000 0.0000 0.0000 10.5970 0.0000 0.0000
# 5 0.0000 0.0000 0.0000 0.0000 17.9370 0.0000
# 6 0.0000 0.0000 0.0000 0.0000 0.0000 -2.7257
#
#
#
# Elastic Compliance Matrix: (Units=1/GPa)
#
#
# Indices 1 2 3 4 5 6 
#
# 1 0.009709 -0.000655 -0.001499 0.000000 0.000000 0.000000
# 2 -0.000655 0.008686 -0.002974 0.000000 0.000000 0.000000
# 3 -0.001499 -0.002974 0.010162 0.000000 0.000000 0.000000
# 4 0.000000 0.000000 0.000000 0.094367 0.000000 0.000000
# 5 0.000000 0.000000 0.000000 0.000000 0.055751 0.000000
# 6 0.000000 0.000000 0.000000 0.000000 0.000000 -0.366876
#
#
# Mechanical properties :
#
#
# Convention : Reuss Voigt Hill
#
# Bulk Modulus (GPa) = 54.64734 55.70021 55.17378
# Shear Modulus (GPa) = -29.09608 23.48741 -2.80434
#
# Velocity S-wave (km/s) = -3.58357 3.21970 -1.11253
# Velocity P-wave (km/s) = 2.64514 6.19726 4.76460
#
# Compressibility (1/GPa) = 0.01829915
#
# Stress axis : x y z
#
# Youngs Moduli (GPa) = 102.99274 115.13364 98.40550
#
# Poissons Ratio (x) = 0.07542 0.14755
# Poissons Ratio (y) = 0.06747 0.29270
# Poissons Ratio (z) = 0.15442 0.34246
#
# Static dielectric constant tensor:
#      x y z
#    x 1.955510 0.000000 0.000000 
#    y 0.000000 1.791720 0.000000 
#    z 0.000000 0.000000 1.678490 
# 
# From -- ./inp_files/21780.got.cif
#   From: 2010.05.17/outbox.cif.g08.bks.cpg/sg50_11_cif.got.tgz:21780.got - 2010.06.03 11:33:33.
