data_PCOD9396907
_publ_section_title
;
Structure prediction by ZEFSAII (Michael W. Deem and Ramdas Pophale) SiO2 
 PCOD9396907
Probable space group: P B A N
;
_chemical_formula_sum "Si O2"
_cell_formula_units_Z 48
_cell_length_a 18.142407
_cell_length_b 11.692096
_cell_length_c 11.211420
_cell_angle_alpha 90.000000
_cell_angle_beta 90.000000
_cell_angle_gamma 90.000000
_cell_volume 2378.197402
_symmetry_space_group_name_H-M "P B A N"
_symmetry_group_IT_number 50
_space_group.IT_coordinate_system_code '2'
_symmetry_cell_setting 'orthorhombic'
loop_
_space_group_symop_operation_xyz
x,y,z
1/2-x,1/2-y,z
x,1/2-y,-z
1/2-x,y,-z
-x,-y,-z
1/2+x,1/2+y,-z
-x,1/2+y,z
1/2+x,-y,z
loop_
_atom_site_type_symbol
_atom_site_label
_atom_site_fract_x
_atom_site_fract_y
_atom_site_fract_z
Si Si1 0.618653 0.416978 0.207155
Si Si2 0.728299 0.986772 0.137866
Si Si3 0.907553 0.149667 0.812253
Si Si4 0.888525 0.818516 0.804400
Si Si5 0.439964 0.109377 0.066571
Si Si6 0.516385 0.976321 0.362410
O O1 0.701880 0.461255 0.205649
O O2 0.613902 0.280872 0.204080
O O3 0.580021 0.479828 0.095445
O O4 0.565365 0.460659 0.310517
O O5 0.663365 0.080795 0.142871
O O6 0.692117 0.874655 0.197408
O O7 0.750000 0.963413 0.000000
O O8 0.977907 0.142921 0.898283
O O9 0.939358 0.083229 0.695712
O O10 0.891403 0.685219 0.838997
O O11 0.937038 0.867202 0.693731
O O12 0.922611 0.866360 0.929481
O O13 0.500000 0.000000 0.500000
#
# Coordination Sequence:
#
# PCOD9396907 Si02
#       6
#     8   8   8   8   8   8
#     4  11  22  40  59  97 130 169 206 266 340 386
#     4  11  23  37  60  96 140 168 202 261 341 411
#     4  10  23  39  63  95 127 166 217 271 325 395
#     4  10  21  41  60  93 127 169 220 264 322 390
#     4  10  21  39  65  91 128 172 212 278 320 392
#     4  10  23  43  66  89 122 172 229 271 309 383
#
# _framework density 20.183353
#
# number of rings (size 3 to 8) (size 9 to 14) (size 15 to 20)
#    0.000    1.667    3.333    0.500    2.333    4.667 
#    0.000    3.333    0.000    4.000    0.000    4.667 
#    0.000    0.000    0.000    0.000    0.000    0.000 
#
# Total GULP energy -267842.586224 kJ/mol
# GULP energy per Si atom -5580.053880 kJ/mol
# Density = 2.013741 g / cm^3
# Si number density = 20.183353 Si / 1000 Ang^3
#
#
#
# Elastic Constant Matrix: (Units=GPa)
#
#
# Indices 1 2 3 4 5 6 
#
# 1 152.4038 36.4530 21.9288 0.0000 0.0000 0.0000
# 2 36.4530 119.0386 24.9381 0.0000 0.0000 0.0000
# 3 21.9288 24.9381 100.8215 0.0000 0.0000 0.0000
# 4 0.0000 0.0000 0.0000 13.0729 0.0000 0.0000
# 5 0.0000 0.0000 0.0000 0.0000 15.0981 0.0000
# 6 0.0000 0.0000 0.0000 0.0000 0.0000 36.3168
#
#
#
# Elastic Compliance Matrix: (Units=1/GPa)
#
#
# Indices 1 2 3 4 5 6 
#
# 1 0.007189 -0.001976 -0.001075 0.000000 0.000000 0.000000
# 2 -0.001976 0.009403 -0.001896 0.000000 0.000000 0.000000
# 3 -0.001075 -0.001896 0.010621 0.000000 0.000000 0.000000
# 4 0.000000 0.000000 0.000000 0.076494 0.000000 0.000000
# 5 0.000000 0.000000 0.000000 0.000000 0.066234 0.000000
# 6 0.000000 0.000000 0.000000 0.000000 0.000000 0.027535
#
#
# Mechanical properties :
#
#
# Convention : Reuss Voigt Hill
#
# Bulk Modulus (GPa) = 57.73971 59.87819 58.80895
# Shear Modulus (GPa) = 23.45839 32.16049 27.80944
#
# Velocity S-wave (km/s) = 3.41290 3.99609 3.71595
# Velocity P-wave (km/s) = 6.64832 7.14305 6.90012
#
# Compressibility (1/GPa) = 0.01731910
#
# Stress axis : x y z
#
# Youngs Moduli (GPa) = 139.10413 106.34875 94.15090
#
# Poissons Ratio (x) = 0.21017 0.10119
# Poissons Ratio (y) = 0.27491 0.17851
# Poissons Ratio (z) = 0.14950 0.20164
#
# Static dielectric constant tensor:
#      x y z
#    x 1.758500 0.000000 0.000000 
#    y 0.000000 1.818730 0.000000 
#    z 0.000000 0.000000 1.725240 
# 
# From -- ./inp_files/21788.got.cif
#   From: 2010.05.17/outbox.cif.g08.bks.cpg/sg50_11_cif.got.tgz:21788.got - 2010.06.03 11:33:33.
