data_PCOD9396853
_publ_section_title
;
Structure prediction by ZEFSAII (Michael W. Deem and Ramdas Pophale) SiO2 
 PCOD9396853
Probable space group: P B A N
;
_chemical_formula_sum "Si O2"
_cell_formula_units_Z 36
_cell_length_a 9.638472
_cell_length_b 21.912229
_cell_length_c 8.727650
_cell_angle_alpha 90.000000
_cell_angle_beta 90.000000
_cell_angle_gamma 90.000000
_cell_volume 1843.283221
_symmetry_space_group_name_H-M "P B A N"
_symmetry_group_IT_number 50
_space_group.IT_coordinate_system_code '2'
_symmetry_cell_setting 'orthorhombic'
loop_
_space_group_symop_operation_xyz
x,y,z
1/2-x,1/2-y,z
x,1/2-y,-z
1/2-x,y,-z
-x,-y,-z
1/2+x,1/2+y,-z
-x,1/2+y,z
1/2+x,-y,z
loop_
_atom_site_type_symbol
_atom_site_label
_atom_site_fract_x
_atom_site_fract_y
_atom_site_fract_z
Si Si1 0.126228 0.945890 0.382001
Si Si2 0.266356 0.178245 0.182793
Si Si3 0.750000 0.250000 0.500000
Si Si4 0.250000 0.750000 0.000000
Si Si5 0.590868 0.328410 0.753971
Si Si6 0.382626 0.081968 0.609755
O O1 0.250000 0.952900 0.500000
O O2 0.153931 0.896250 0.253416
O O3 0.008882 0.915335 0.490246
O O4 0.095910 0.013798 0.320620
O O5 0.250000 0.250000 0.218462
O O6 0.424991 0.164910 0.231976
O O7 0.153806 0.135557 0.270583
O O8 0.250000 0.169773 0.000000
O O9 0.651101 0.291624 0.607005
O O10 0.349150 0.791281 0.896249
O O11 0.250000 0.081544 0.500000
#
# Coordination Sequence:
#
# PCOD9396853 Si02
#       6
#     8   8   2   2   8   8
#     4  10  21  38  65  92 123 160 216 272 315 367
#     4  11  25  41  62  92 133 171 210 260 325 391
#     4  10  24  38  66  98 120 162 232 258 324 370
#     4  10  24  38  62  90 140 162 206 256 332 386
#     4  11  22  42  62  93 126 170 208 268 316 388
#     4  10  21  40  64  91 124 164 215 267 316 374
#
# _framework density 19.530369
#
# number of rings (size 3 to 8) (size 9 to 14) (size 15 to 20)
#    0.000    1.556    3.333    1.333    3.111    2.222 
#    2.000    1.111    0.000    0.000    0.000    0.000 
#    0.000    0.000    0.000    0.000    0.000    0.000 
#
# Total GULP energy -200608.433265 kJ/mol
# GULP energy per Si atom -5572.456480 kJ/mol
# Density = 1.948592 g / cm^3
# Si number density = 19.530369 Si / 1000 Ang^3
#
#
#
# Elastic Constant Matrix: (Units=GPa)
#
#
# Indices 1 2 3 4 5 6 
#
# 1 75.8558 8.3484 21.2955 0.0000 0.0000 0.0000
# 2 8.3484 163.9968 70.9279 0.0000 0.0000 0.0000
# 3 21.2955 70.9279 84.7726 0.0000 0.0000 0.0000
# 4 0.0000 0.0000 0.0000 30.7116 0.0000 0.0000
# 5 0.0000 0.0000 0.0000 0.0000 19.1707 0.0000
# 6 0.0000 0.0000 0.0000 0.0000 0.0000 27.9729
#
#
#
# Elastic Compliance Matrix: (Units=1/GPa)
#
#
# Indices 1 2 3 4 5 6 
#
# 1 0.014358 0.001299 -0.004694 0.000000 0.000000 0.000000
# 2 0.001299 0.009673 -0.008420 0.000000 0.000000 0.000000
# 3 -0.004694 -0.008420 0.020020 0.000000 0.000000 0.000000
# 4 0.000000 0.000000 0.000000 0.032561 0.000000 0.000000
# 5 0.000000 0.000000 0.000000 0.000000 0.052163 0.000000
# 6 0.000000 0.000000 0.000000 0.000000 0.000000 0.035749
#
#
# Mechanical properties :
#
#
# Convention : Reuss Voigt Hill
#
# Bulk Modulus (GPa) = 48.96637 58.41875 53.69256
# Shear Modulus (GPa) = 25.64643 30.50794 28.07718
#
# Velocity S-wave (km/s) = 3.62768 3.95660 3.79570
# Velocity P-wave (km/s) = 6.53247 7.13089 6.83823
#
# Compressibility (1/GPa) = 0.02042218
#
# Stress axis : x y z
#
# Youngs Moduli (GPa) = 69.64943 103.38086 49.95036
#
# Poissons Ratio (x) = -0.13430 0.23445
# Poissons Ratio (y) = -0.09048 0.42056
# Poissons Ratio (z) = 0.32691 0.87042
#
# Static dielectric constant tensor:
#      x y z
#    x 1.752040 0.000000 0.000000 
#    y 0.000000 1.764660 0.000000 
#    z 0.000000 0.000000 1.685100 
# 
# From -- ./inp_files/9282.got.cif
#   From: 2010.05.17/outbox.cif.g08.bks.cpg/sg50_5_cif.got.tgz:9282.got - 2010.06.03 11:33:33.
