data_PCOD9396823
_publ_section_title
;
Structure prediction by ZEFSAII (Michael W. Deem and Ramdas Pophale) SiO2 
 PCOD9396823
Probable space group: P B A N
;
_chemical_formula_sum "Si O2"
_cell_formula_units_Z 56
_cell_length_a 14.163515
_cell_length_b 14.276702
_cell_length_c 14.236614
_cell_angle_alpha 90.000000
_cell_angle_beta 90.000000
_cell_angle_gamma 90.000000
_cell_volume 2878.761272
_symmetry_space_group_name_H-M "P B A N"
_symmetry_group_IT_number 50
_space_group.IT_coordinate_system_code '2'
_symmetry_cell_setting 'orthorhombic'
loop_
_space_group_symop_operation_xyz
x,y,z
1/2-x,1/2-y,z
x,1/2-y,-z
1/2-x,y,-z
-x,-y,-z
1/2+x,1/2+y,-z
-x,1/2+y,z
1/2+x,-y,z
loop_
_atom_site_type_symbol
_atom_site_label
_atom_site_fract_x
_atom_site_fract_y
_atom_site_fract_z
Si Si1 0.484640 0.888743 0.600705
Si Si2 0.488149 0.648685 0.049430
Si Si3 0.379408 0.680733 0.232453
Si Si4 0.352336 0.002241 0.046517
Si Si5 0.143334 0.242527 0.613674
Si Si6 0.173479 0.609751 0.230097
Si Si7 0.009188 0.898079 0.620207
O O1 0.418803 0.822109 0.662179
O O2 0.590530 0.856112 0.627750
O O3 0.470568 0.877381 0.489531
O O4 0.468406 0.996707 0.625047
O O5 0.459028 0.650094 0.158990
O O6 0.587359 0.596434 0.036236
O O7 0.487458 0.750000 0.000000
O O8 0.409278 0.581863 0.003364
O O9 0.286480 0.616438 0.238101
O O10 0.352449 0.784471 0.198020
O O11 0.347922 0.969436 0.154337
O O12 0.250000 0.009930 0.000000
O O13 0.250000 0.250000 0.650282
O O14 0.148245 0.250000 0.500000
O O15 0.072164 0.323930 0.649377
O O16 0.105441 0.600044 0.320071
#
# Coordination Sequence:
#
# PCOD9396823 Si02
#       7
#     8   8   8   8   8   8   8
#     4  10  21  38  60  86 125 168 212 262 315 371
#     4  11  23  41  68  94 126 163 207 265 321 385
#     4  11  22  37  62  92 123 166 207 258 321 385
#     4  11  23  42  68  95 123 164 209 259 323 385
#     4   9  18  35  58  82 114 162 214 256 307 372
#     4  11  22  37  63  93 124 161 210 258 317 389
#     4  10  21  38  60  88 125 167 211 265 313 369
#
# _framework density 19.452812000000002
#
# number of rings (size 3 to 8) (size 9 to 14) (size 15 to 20)
#    0.000    1.571    4.286    0.857    0.000    2.286 
#    0.000    4.286    6.286    0.000    0.000    0.000 
#    0.000    0.000    0.000    0.000    0.000    0.000 
#
# Total GULP energy -312173.613932 kJ/mol
# GULP energy per Si atom -5574.528820 kJ/mol
# Density = 1.940854 g / cm^3
# Si number density = 19.452812 Si / 1000 Ang^3
#
#
#
# Elastic Constant Matrix: (Units=GPa)
#
#
# Indices 1 2 3 4 5 6 
#
# 1 130.1328 55.0806 48.5432 0.0000 0.0000 0.0000
# 2 55.0806 87.9351 25.1459 0.0000 0.0000 0.0000
# 3 48.5432 25.1459 68.1642 0.0000 0.0000 0.0000
# 4 0.0000 0.0000 0.0000 20.5116 0.0000 0.0000
# 5 0.0000 0.0000 0.0000 0.0000 29.1330 0.0000
# 6 0.0000 0.0000 0.0000 0.0000 0.0000 10.2846
#
#
#
# Elastic Compliance Matrix: (Units=1/GPa)
#
#
# Indices 1 2 3 4 5 6 
#
# 1 0.012821 -0.006059 -0.006895 0.000000 0.000000 0.000000
# 2 -0.006059 0.015577 -0.001431 0.000000 0.000000 0.000000
# 3 -0.006895 -0.001431 0.020109 0.000000 0.000000 0.000000
# 4 0.000000 0.000000 0.000000 0.048753 0.000000 0.000000
# 5 0.000000 0.000000 0.000000 0.000000 0.034325 0.000000
# 6 0.000000 0.000000 0.000000 0.000000 0.000000 0.097233
#
#
# Mechanical properties :
#
#
# Convention : Reuss Voigt Hill
#
# Bulk Modulus (GPa) = 50.67066 60.41905 55.54485
# Shear Modulus (GPa) = 18.92735 22.48334 20.70535
#
# Velocity S-wave (km/s) = 3.12266 3.40338 3.26604
# Velocity P-wave (km/s) = 6.25347 6.82427 6.54510
#
# Compressibility (1/GPa) = 0.01973529
#
# Stress axis : x y z
#
# Youngs Moduli (GPa) = 77.99547 64.19887 49.72895
#
# Poissons Ratio (x) = 0.38899 0.34290
# Poissons Ratio (y) = 0.47258 0.07117
# Poissons Ratio (z) = 0.53781 0.09188
#
# Static dielectric constant tensor:
#      x y z
#    x 1.682140 0.000000 0.000000 
#    y 0.000000 1.707780 0.000000 
#    z 0.000000 0.000000 1.701160 
# 
# From -- ./inp_files/25934.got.cif
#   From: 2010.05.17/outbox.cif.g08.bks.cpg/sg50_13_cif.got.tgz:25934.got - 2010.06.03 11:33:33.
