data_PCOD9396692
_publ_section_title
;
Structure prediction by ZEFSAII (Michael W. Deem and Ramdas Pophale) SiO2 
 PCOD9396692
Probable space group: P B A N
;
_chemical_formula_sum "Si O2"
_cell_formula_units_Z 36
_cell_length_a 21.206765
_cell_length_b 14.654341
_cell_length_c 6.189009
_cell_angle_alpha 90.000000
_cell_angle_beta 90.000000
_cell_angle_gamma 90.000000
_cell_volume 1923.365542
_symmetry_space_group_name_H-M "P B A N"
_symmetry_group_IT_number 50
_space_group.IT_coordinate_system_code '2'
_symmetry_cell_setting 'orthorhombic'
loop_
_space_group_symop_operation_xyz
x,y,z
1/2-x,1/2-y,z
x,1/2-y,-z
1/2-x,y,-z
-x,-y,-z
1/2+x,1/2+y,-z
-x,1/2+y,z
1/2+x,-y,z
loop_
_atom_site_type_symbol
_atom_site_label
_atom_site_fract_x
_atom_site_fract_y
_atom_site_fract_z
Si Si1 0.049932 0.509880 0.697264
Si Si2 0.750000 0.894664 0.000000
Si Si3 0.310682 0.994684 0.616757
Si Si4 0.967730 0.854812 0.032993
Si Si5 0.653620 0.832326 0.668769
O O1 0.119420 0.547014 0.635639
O O2 0.000000 0.500000 0.500000
O O3 0.021282 0.582026 0.865032
O O4 0.054825 0.410999 0.819374
O O5 0.789786 0.962236 0.844980
O O6 0.705509 0.832118 0.854910
O O7 0.250000 0.947571 0.500000
O O8 0.326095 0.079915 0.464528
O O9 0.911665 0.847296 0.207621
O O10 0.987643 0.750000 0.000000
O O11 0.652583 0.750000 0.500000
#
# Coordination Sequence:
#
# PCOD9396692 Si02
#       5
#     8   4   8   8   8
#     4  11  22  41  63  86 121 159 206 254 310 367
#     4  10  22  37  50  80 125 160 198 234 291 366
#     4  10  21  36  57  83 113 157 201 243 300 362
#     4  11  24  38  59  88 123 159 201 255 308 363
#     4  11  22  35  53  82 124 164 198 234 292 368
#
# _framework density 18.717189000000001
#
# number of rings (size 3 to 8) (size 9 to 14) (size 15 to 20)
#    0.000    1.333    4.444    1.333    0.000    4.889 
#    0.000    0.000    0.000    0.000    0.000   11.667 
#    0.000    0.000    0.000    0.000    0.000    0.000 
#
# Total GULP energy -200756.856901 kJ/mol
# GULP energy per Si atom -5576.579358 kJ/mol
# Density = 1.867459 g / cm^3
# Si number density = 18.717189 Si / 1000 Ang^3
#
#
#
# Elastic Constant Matrix: (Units=GPa)
#
#
# Indices 1 2 3 4 5 6 
#
# 1 141.4025 14.8990 41.8068 0.0000 0.0000 0.0000
# 2 14.8990 55.4613 13.5809 0.0000 0.0000 0.0000
# 3 41.8068 13.5809 97.2097 0.0000 0.0000 0.0000
# 4 0.0000 0.0000 0.0000 49.5279 0.0000 0.0000
# 5 0.0000 0.0000 0.0000 0.0000 45.1762 0.0000
# 6 0.0000 0.0000 0.0000 0.0000 0.0000 18.6516
#
#
#
# Elastic Compliance Matrix: (Units=1/GPa)
#
#
# Indices 1 2 3 4 5 6 
#
# 1 0.008204 -0.001387 -0.003334 0.000000 0.000000 0.000000
# 2 -0.001387 0.018904 -0.002044 0.000000 0.000000 0.000000
# 3 -0.003334 -0.002044 0.012007 0.000000 0.000000 0.000000
# 4 0.000000 0.000000 0.000000 0.020191 0.000000 0.000000
# 5 0.000000 0.000000 0.000000 0.000000 0.022136 0.000000
# 6 0.000000 0.000000 0.000000 0.000000 0.000000 0.053615
#
#
# Mechanical properties :
#
#
# Convention : Reuss Voigt Hill
#
# Bulk Modulus (GPa) = 39.08965 48.29412 43.69188
# Shear Modulus (GPa) = 31.82375 37.59026 34.70701
#
# Velocity S-wave (km/s) = 4.12787 4.48630 4.31081
# Velocity P-wave (km/s) = 6.60672 7.25905 6.94056
#
# Compressibility (1/GPa) = 0.02558222
#
# Stress axis : x y z
#
# Youngs Moduli (GPa) = 121.89084 52.89916 83.28682
#
# Poissons Ratio (x) = 0.07339 0.27772
# Poissons Ratio (y) = 0.16911 0.17027
# Poissons Ratio (z) = 0.40644 0.10814
#
# Static dielectric constant tensor:
#      x y z
#    x 1.620910 0.000000 0.000000 
#    y 0.000000 1.626210 0.000000 
#    z 0.000000 0.000000 1.726710 
# 
# From -- ./inp_files/5015.got.cif
#   From: 2010.05.17/outbox.cif.g08.bks.cpg/sg50_3_cif.got.tgz:5015.got - 2010.06.03 11:33:33.
