data_PCOD9396148
_publ_section_title
;
Structure prediction by ZEFSAII (Michael W. Deem and Ramdas Pophale) SiO2 
 PCOD9396148
Probable space group: P B A N
;
_chemical_formula_sum "Si O2"
_cell_formula_units_Z 64
_cell_length_a 27.998270
_cell_length_b 9.051719
_cell_length_c 15.001521
_cell_angle_alpha 90.000000
_cell_angle_beta 90.000000
_cell_angle_gamma 90.000000
_cell_volume 3801.872559
_symmetry_space_group_name_H-M "P B A N"
_symmetry_group_IT_number 50
_space_group.IT_coordinate_system_code '2'
_symmetry_cell_setting 'orthorhombic'
loop_
_space_group_symop_operation_xyz
x,y,z
1/2-x,1/2-y,z
x,1/2-y,-z
1/2-x,y,-z
-x,-y,-z
1/2+x,1/2+y,-z
-x,1/2+y,z
1/2+x,-y,z
loop_
_atom_site_type_symbol
_atom_site_label
_atom_site_fract_x
_atom_site_fract_y
_atom_site_fract_z
Si Si1 0.457355 0.164579 0.413451
Si Si2 0.404083 0.120984 0.933753
Si Si3 0.440475 0.818560 0.415132
Si Si4 0.028512 0.837620 0.092580
Si Si5 0.302531 0.503353 0.003680
Si Si6 0.800863 0.234133 0.148723
Si Si7 0.569416 0.836792 0.791482
Si Si8 0.601160 0.334800 0.220505
O O1 0.436311 0.250000 0.500000
O O2 0.511596 0.221559 0.407440
O O3 0.437488 0.192139 0.313846
O O4 0.453767 0.989763 0.430050
O O5 0.404295 0.199503 0.837731
O O6 0.442438 0.988095 0.930725
O O7 0.351390 0.076542 0.968476
O O8 0.419988 0.250000 0.000000
O O9 0.413626 0.750000 0.500000
O O10 0.414488 0.811590 0.321538
O O11 0.064513 0.742376 0.153127
O O12 0.980996 0.857935 0.153928
O O13 0.021093 0.750000 0.000000
O O14 0.299217 0.634702 0.076391
O O15 0.250000 0.427654 0.000000
O O16 0.306954 0.584505 0.908757
O O17 0.750000 0.250000 0.196485
O O18 0.847552 0.238075 0.207282
O O19 0.597942 0.990297 0.799772
#
# Coordination Sequence:
#
# PCOD9396148 Si02
#       8
#     8   8   8   8   8   8   8   8
#     4  10  20  35  54  76 108 144 181 222 266 314
#     4  12  24  35  51  75 110 143 188 225 265 316
#     4  10  20  34  55  78 108 140 181 225 270 320
#     4  12  23  36  53  71 111 152 191 216 261 315
#     4   9  18  34  55  76 102 140 180 228 274 312
#     4   9  17  33  56  78 100 138 185 226 270 314
#     4  11  24  36  51  80 112 151 179 221 263 322
#     4  11  21  36  55  78 106 144 187 221 269 325
#
# _framework density 16.833811000000001
#
# number of rings (size 3 to 8) (size 9 to 14) (size 15 to 20)
#    0.000    1.500    2.500    5.625    1.750    2.750 
#    0.000    0.000    0.000    0.375    0.000    0.000 
#    0.000    0.000    0.000    0.000    0.000    0.000 
#
# Total GULP energy -356790.080147 kJ/mol
# GULP energy per Si atom -5574.845002 kJ/mol
# Density = 1.679550 g / cm^3
# Si number density = 16.833811 Si / 1000 Ang^3
#
#
#
# Elastic Constant Matrix: (Units=GPa)
#
#
# Indices 1 2 3 4 5 6 
#
# 1 109.3876 39.1460 44.8148 0.0000 0.0000 0.0000
# 2 39.1460 74.4129 51.8841 0.0000 0.0000 0.0000
# 3 44.8148 51.8841 112.5504 0.0000 0.0000 0.0000
# 4 0.0000 0.0000 0.0000 27.1064 0.0000 0.0000
# 5 0.0000 0.0000 0.0000 0.0000 15.9176 0.0000
# 6 0.0000 0.0000 0.0000 0.0000 0.0000 6.9956
#
#
#
# Elastic Compliance Matrix: (Units=1/GPa)
#
#
# Indices 1 2 3 4 5 6 
#
# 1 0.011796 -0.004319 -0.002706 0.000000 0.000000 0.000000
# 2 -0.004319 0.021385 -0.008139 0.000000 0.000000 0.000000
# 3 -0.002706 -0.008139 0.013714 0.000000 0.000000 0.000000
# 4 0.000000 0.000000 0.000000 0.036892 0.000000 0.000000
# 5 0.000000 0.000000 0.000000 0.000000 0.062824 0.000000
# 6 0.000000 0.000000 0.000000 0.000000 0.000000 0.142948
#
#
# Mechanical properties :
#
#
# Convention : Reuss Voigt Hill
#
# Bulk Modulus (GPa) = 60.35526 63.11563 61.73545
# Shear Modulus (GPa) = 15.36534 20.70430 18.03482
#
# Velocity S-wave (km/s) = 3.02448 3.51083 3.27669
# Velocity P-wave (km/s) = 6.93744 7.34910 7.14624
#
# Compressibility (1/GPa) = 0.01656856
#
# Stress axis : x y z
#
# Youngs Moduli (GPa) = 84.77506 46.76160 72.91740
#
# Poissons Ratio (x) = 0.20195 0.19731
# Poissons Ratio (y) = 0.36612 0.59345
# Poissons Ratio (z) = 0.22940 0.38057
#
# Static dielectric constant tensor:
#      x y z
#    x 1.607770 0.000000 0.000000 
#    y 0.000000 1.595630 0.000000 
#    z 0.000000 0.000000 1.606210 
# 
# From -- ./inp_files/27795.got.cif
#   From: 2010.05.17/outbox.cif.g08.bks.cpg/sg50_14_cif.got.tgz:27795.got - 2010.06.03 11:33:33.
