data_PCOD9396879
_publ_section_title
;
Structure prediction by ZEFSAII (Michael W. Deem and Ramdas Pophale) SiO2 
 PCOD9396879
Probable space group: P B A N
;
_chemical_formula_sum "Si O2"
_cell_formula_units_Z 36
_cell_length_a 30.495249
_cell_length_b 5.556226
_cell_length_c 11.162247
_cell_angle_alpha 90.000000
_cell_angle_beta 90.000000
_cell_angle_gamma 90.000000
_cell_volume 1891.314337
_symmetry_space_group_name_H-M "P B A N"
_symmetry_group_IT_number 50
_space_group.IT_coordinate_system_code '2'
_symmetry_cell_setting 'orthorhombic'
loop_
_space_group_symop_operation_xyz
x,y,z
1/2-x,1/2-y,z
x,1/2-y,-z
1/2-x,y,-z
-x,-y,-z
1/2+x,1/2+y,-z
-x,1/2+y,z
1/2+x,-y,z
loop_
_atom_site_type_symbol
_atom_site_label
_atom_site_fract_x
_atom_site_fract_y
_atom_site_fract_z
Si Si1 0.295021 0.894533 0.317272
Si Si2 0.022652 0.759937 0.353672
Si Si3 0.380473 0.874570 0.631435
Si Si4 0.700153 0.506071 0.048006
Si Si5 0.835472 0.750000 0.500000
O O1 0.250000 0.750000 0.330940
O O2 0.337371 0.723605 0.305383
O O3 0.294906 0.028145 0.190770
O O4 0.304873 0.059382 0.432380
O O5 0.021893 0.750000 0.500000
O O6 0.072572 0.815921 0.314842
O O7 0.005734 0.494947 0.316712
O O8 0.381111 0.750000 0.500000
O O9 0.368451 0.148041 0.600732
O O10 0.681314 0.250000 0.000000
O O11 0.750000 0.503364 0.000000
O O12 0.678108 0.750000 0.000000
#
# Coordination Sequence:
#
# PCOD9396879 Si02
#       5
#     8   8   8   8   4
#     4  11  23  39  57  82 117 164 199 240 292 351
#     4   9  18  30  53  76 105 148 195 238 288 336
#     4   9  21  34  50  80 114 155 198 236 283 356
#     4  10  21  39  61  82 104 144 199 257 295 326
#     4  10  24  37  54  76 124 160 202 228 291 356
#
# _framework density 19.034383999999999
#
# number of rings (size 3 to 8) (size 9 to 14) (size 15 to 20)
#    0.000    2.222    2.222    0.000   14.000    5.778 
#    0.000    0.000    0.000    0.000    0.000    0.000 
#    0.000    5.333    0.000    0.000    0.000    0.000 
#
# Total GULP energy -200521.409599 kJ/mol
# GULP energy per Si atom -5570.039156 kJ/mol
# Density = 1.899106 g / cm^3
# Si number density = 19.034384 Si / 1000 Ang^3
#
#
#
# Elastic Constant Matrix: (Units=GPa)
#
#
# Indices 1 2 3 4 5 6 
#
# 1 140.8327 55.1380 20.0386 0.0000 0.0000 0.0000
# 2 55.1380 129.6714 16.4493 0.0000 0.0000 0.0000
# 3 20.0386 16.4493 40.7501 0.0000 0.0000 0.0000
# 4 0.0000 0.0000 0.0000 30.4740 0.0000 0.0000
# 5 0.0000 0.0000 0.0000 0.0000 -5.3980 0.0000
# 6 0.0000 0.0000 0.0000 0.0000 0.0000 8.2304
#
#
#
# Elastic Compliance Matrix: (Units=1/GPa)
#
#
# Indices 1 2 3 4 5 6 
#
# 1 0.008851 -0.003385 -0.002986 0.000000 0.000000 0.000000
# 2 -0.003385 0.009422 -0.002139 0.000000 0.000000 0.000000
# 3 -0.002986 -0.002139 0.026872 0.000000 0.000000 0.000000
# 4 0.000000 0.000000 0.000000 0.032815 0.000000 0.000000
# 5 0.000000 0.000000 0.000000 0.000000 -0.185253 0.000000
# 6 0.000000 0.000000 0.000000 0.000000 0.000000 0.121501
#
#
# Mechanical properties :
#
#
# Convention : Reuss Voigt Hill
#
# Bulk Modulus (GPa) = 35.55532 54.94512 45.25022
# Shear Modulus (GPa) = 123.14580 21.30315 72.22447
#
# Velocity S-wave (km/s) = 8.05214 3.34906 6.16657
# Velocity P-wave (km/s) = 10.25521 6.62449 8.63288
#
# Compressibility (1/GPa) = 0.02812518
#
# Stress axis : x y z
#
# Youngs Moduli (GPa) = 112.98649 106.13082 37.21400
#
# Poissons Ratio (x) = 0.35921 0.11112
# Poissons Ratio (y) = 0.38242 0.07960
# Poissons Ratio (z) = 0.33738 0.22702
#
# Static dielectric constant tensor:
#      x y z
#    x 1.664730 0.000000 0.000000 
#    y 0.000000 1.766360 0.000000 
#    z 0.000000 0.000000 1.716550 
# 
# From -- ./inp_files/23281.got.cif
#   From: 2010.05.17/outbox.cif.g08.bks.cpg/sg50_12_cif.got.tgz:23281.got - 2010.06.03 11:33:33.
