data_PCOD9396667
_publ_section_title
;
Structure prediction by ZEFSAII (Michael W. Deem and Ramdas Pophale) SiO2 
 PCOD9396667
Probable space group: P B A N
;
_chemical_formula_sum "Si O2"
_cell_formula_units_Z 64
_cell_length_a 15.471844
_cell_length_b 26.038963
_cell_length_c 7.957092
_cell_angle_alpha 90.000000
_cell_angle_beta 90.000000
_cell_angle_gamma 90.000000
_cell_volume 3205.679809
_symmetry_space_group_name_H-M "P B A N"
_symmetry_group_IT_number 50
_space_group.IT_coordinate_system_code '2'
_symmetry_cell_setting 'orthorhombic'
loop_
_space_group_symop_operation_xyz
x,y,z
1/2-x,1/2-y,z
x,1/2-y,-z
1/2-x,y,-z
-x,-y,-z
1/2+x,1/2+y,-z
-x,1/2+y,z
1/2+x,-y,z
loop_
_atom_site_type_symbol
_atom_site_label
_atom_site_fract_x
_atom_site_fract_y
_atom_site_fract_z
Si Si1 0.751804 0.643202 0.799565
Si Si2 0.942810 0.106576 0.694967
Si Si3 0.068825 0.890607 0.701893
Si Si4 0.477156 0.494113 0.197151
Si Si5 0.778007 0.970779 0.696513
Si Si6 0.249323 0.916319 0.293527
Si Si7 0.573195 0.809123 0.198669
Si Si8 0.073422 0.306034 0.203232
O O1 0.755159 0.582365 0.770891
O O2 0.662245 0.666650 0.732321
O O3 0.836144 0.671369 0.729266
O O4 0.750000 0.651183 0.000000
O O5 0.934114 0.114680 0.497512
O O6 0.844724 0.102461 0.763592
O O7 0.998363 0.153324 0.762903
O O8 0.987404 0.051302 0.727735
O O9 0.167320 0.884946 0.762433
O O10 0.037795 0.948447 0.739291
O O11 0.003538 0.849002 0.773244
O O12 0.380080 0.476580 0.255676
O O13 0.500000 0.500000 0.000000
O O14 0.750000 0.968877 0.500000
O O15 0.739522 0.024464 0.761751
O O16 0.250000 0.916752 0.500000
O O17 0.557377 0.751744 0.265980
O O18 0.582672 0.803969 0.998121
#
# Coordination Sequence:
#
# PCOD9396667 Si02
#       8
#     8   8   8   8   8   8   8   8
#     4  10  21  35  58  86 119 160 202 248 306 372
#     4  10  22  38  60  90 116 154 206 254 310 369
#     4  11  21  38  64  84 120 159 201 257 310 365
#     4  11  23  38  60  90 127 161 205 252 311 387
#     4  10  21  37  57  87 127 158 200 254 311 378
#     4   8  19  38  56  82 117 154 193 244 307 364
#     4  10  21  41  57  87 119 159 208 249 311 372
#     4  10  22  38  62  82 121 162 201 258 306 372
#
# _framework density 19.964562999999998
#
# number of rings (size 3 to 8) (size 9 to 14) (size 15 to 20)
#    0.000    2.000    1.250    2.250    5.250    2.000 
#    0.000    5.625    0.000    6.000    0.000    0.000 
#    0.000    0.000    0.000    0.000    0.000    0.000 
#
# Total GULP energy -357070.169019 kJ/mol
# GULP energy per Si atom -5579.221391 kJ/mol
# Density = 1.991912 g / cm^3
# Si number density = 19.964563 Si / 1000 Ang^3
#
#
#
# Elastic Constant Matrix: (Units=GPa)
#
#
# Indices 1 2 3 4 5 6 
#
# 1 142.4890 95.8574 11.4716 0.0000 0.0000 0.0000
# 2 95.8574 137.8990 5.4048 0.0000 0.0000 0.0000
# 3 11.4716 5.4048 35.2107 0.0000 0.0000 0.0000
# 4 0.0000 0.0000 0.0000 43.3258 0.0000 0.0000
# 5 0.0000 0.0000 0.0000 0.0000 19.1794 0.0000
# 6 0.0000 0.0000 0.0000 0.0000 0.0000 10.9505
#
#
#
# Elastic Compliance Matrix: (Units=1/GPa)
#
#
# Indices 1 2 3 4 5 6 
#
# 1 0.013485 -0.009257 -0.002972 0.000000 0.000000 0.000000
# 2 -0.009257 0.013651 0.000921 0.000000 0.000000 0.000000
# 3 -0.002972 0.000921 0.029228 0.000000 0.000000 0.000000
# 4 0.000000 0.000000 0.000000 0.023081 0.000000 0.000000
# 5 0.000000 0.000000 0.000000 0.000000 0.052139 0.000000
# 6 0.000000 0.000000 0.000000 0.000000 0.000000 0.091320
#
#
# Mechanical properties :
#
#
# Convention : Reuss Voigt Hill
#
# Bulk Modulus (GPa) = 29.63399 60.11846 44.87623
# Shear Modulus (GPa) = 19.47267 28.21546 23.84406
#
# Velocity S-wave (km/s) = 3.12647 3.76344 3.45964
# Velocity P-wave (km/s) = 5.28286 7.00447 6.20367
#
# Compressibility (1/GPa) = 0.03374503
#
# Stress axis : x y z
#
# Youngs Moduli (GPa) = 74.15538 73.25632 34.21434
#
# Poissons Ratio (x) = 0.67817 0.10170
# Poissons Ratio (y) = 0.68649 -0.03150
# Poissons Ratio (z) = 0.22042 -0.06745
#
# Static dielectric constant tensor:
#      x y z
#    x 1.775370 0.000000 0.000000 
#    y 0.000000 1.684470 0.000000 
#    z 0.000000 0.000000 1.741510 
# 
# From -- ./inp_files/13487.got.cif
#   From: 2010.05.17/outbox.cif.g08.bks.cpg/sg50_7_cif.got.tgz:13487.got - 2010.06.03 11:33:33.
