data_PCOD9396830
_publ_section_title
;
Structure prediction by ZEFSAII (Michael W. Deem and Ramdas Pophale) SiO2 
 PCOD9396830
Probable space group: P B A N
;
_chemical_formula_sum "Si O2"
_cell_formula_units_Z 30
_cell_length_a 12.075970
_cell_length_b 4.950767
_cell_length_c 22.234482
_cell_angle_alpha 90.000000
_cell_angle_beta 90.000000
_cell_angle_gamma 90.000000
_cell_volume 1329.295483
_symmetry_space_group_name_H-M "P B A N"
_symmetry_group_IT_number 50
_space_group.IT_coordinate_system_code '2'
_symmetry_cell_setting 'orthorhombic'
loop_
_space_group_symop_operation_xyz
x,y,z
1/2-x,1/2-y,z
x,1/2-y,-z
1/2-x,y,-z
-x,-y,-z
1/2+x,1/2+y,-z
-x,1/2+y,z
1/2+x,-y,z
loop_
_atom_site_type_symbol
_atom_site_label
_atom_site_fract_x
_atom_site_fract_y
_atom_site_fract_z
Si Si1 0.250000 0.250000 0.268094
Si Si2 0.574709 0.736816 0.631556
Si Si3 0.750000 0.750000 0.000000
Si Si4 0.750000 0.250000 0.814436
Si Si5 0.081455 0.250000 0.500000
Si Si6 0.081120 0.919828 0.916594
O O1 0.349347 0.180678 0.313124
O O2 0.285980 0.501015 0.227088
O O3 0.532528 0.429807 0.634364
O O4 0.632820 0.766991 0.566274
O O5 0.827278 0.549640 0.960883
O O6 0.848578 0.373265 0.855447
O O7 0.000000 0.500000 0.500000
O O8 0.020592 0.631161 0.923118
#
# Coordination Sequence:
#
# PCOD9396830 Si02
#       6
#     4   8   2   4   4   8
#     4  12  25  41  66  93 127 178 230 282 332 390
#     4  10  21  38  61  90 125 167 218 280 346 409
#     4  12  26  50  80 120 146 166 232 288 324 424
#     4  12  28  47  64  99 140 176 236 280 314 408
#     4   8  16  33  56  85 122 160 208 275 346 413
#     4  12  27  48  76 105 142 187 219 272 346 397
#
# _framework density 22.568342999999999
#
# number of rings (size 3 to 8) (size 9 to 14) (size 15 to 20)
#    0.000    1.067    0.000    6.400    0.000   10.667 
#    0.000    0.000    0.000   11.200    0.000    0.000 
#    0.000    0.000    0.000    0.000    0.000    0.000 
#
# Total GULP energy -167415.192201 kJ/mol
# GULP energy per Si atom -5580.506407 kJ/mol
# Density = 2.251698 g / cm^3
# Si number density = 22.568343 Si / 1000 Ang^3
#
#
#
# Elastic Constant Matrix: (Units=GPa)
#
#
# Indices 1 2 3 4 5 6 
#
# 1 85.9880 10.6021 54.2767 0.0000 0.0000 0.0000
# 2 10.6021 133.5628 42.9190 0.0000 0.0000 0.0000
# 3 54.2767 42.9190 163.3213 0.0000 0.0000 0.0000
# 4 0.0000 0.0000 0.0000 40.6106 0.0000 0.0000
# 5 0.0000 0.0000 0.0000 0.0000 8.7643 0.0000
# 6 0.0000 0.0000 0.0000 0.0000 0.0000 23.0507
#
#
#
# Elastic Compliance Matrix: (Units=1/GPa)
#
#
# Indices 1 2 3 4 5 6 
#
# 1 0.014740 0.000441 -0.005015 0.000000 0.000000 0.000000
# 2 0.000441 0.008191 -0.002299 0.000000 0.000000 0.000000
# 3 -0.005015 -0.002299 0.008394 0.000000 0.000000 0.000000
# 4 0.000000 0.000000 0.000000 0.024624 0.000000 0.000000
# 5 0.000000 0.000000 0.000000 0.000000 0.114099 0.000000
# 6 0.000000 0.000000 0.000000 0.000000 0.000000 0.043383
#
#
# Mechanical properties :
#
#
# Convention : Reuss Voigt Hill
#
# Bulk Modulus (GPa) = 56.88290 66.49640 61.68965
# Shear Modulus (GPa) = 21.45596 32.82341 27.13969
#
# Velocity S-wave (km/s) = 3.08670 3.81780 3.47155
# Velocity P-wave (km/s) = 6.16142 6.99732 6.59263
#
# Compressibility (1/GPa) = 0.01757998
#
# Stress axis : x y z
#
# Youngs Moduli (GPa) = 67.84058 122.08691 119.13814
#
# Poissons Ratio (x) = -0.05388 0.59744
# Poissons Ratio (y) = -0.02994 0.27392
# Poissons Ratio (z) = 0.34020 0.28069
#
# Static dielectric constant tensor:
#      x y z
#    x 1.860770 0.000000 0.000000 
#    y 0.000000 1.775840 0.000000 
#    z 0.000000 0.000000 1.776210 
# 
# From -- ./inp_files/30816.got.cif
#   From: 2010.05.17/outbox.cif.g08.bks.cpg/sg50_16_cif.got.tgz:30816.got - 2010.06.03 11:33:33.
