data_PCOD9396439
_publ_section_title
;
Structure prediction by ZEFSAII (Michael W. Deem and Ramdas Pophale) SiO2 
 PCOD9396439
Probable space group: P B A N
;
_chemical_formula_sum "Si O2"
_cell_formula_units_Z 44
_cell_length_a 16.788211
_cell_length_b 15.061387
_cell_length_c 7.790440
_cell_angle_alpha 90.000000
_cell_angle_beta 90.000000
_cell_angle_gamma 90.000000
_cell_volume 1969.841913
_symmetry_space_group_name_H-M "P B A N"
_symmetry_group_IT_number 50
_space_group.IT_coordinate_system_code '2'
_symmetry_cell_setting 'orthorhombic'
loop_
_space_group_symop_operation_xyz
x,y,z
1/2-x,1/2-y,z
x,1/2-y,-z
1/2-x,y,-z
-x,-y,-z
1/2+x,1/2+y,-z
-x,1/2+y,z
1/2+x,-y,z
loop_
_atom_site_type_symbol
_atom_site_label
_atom_site_fract_x
_atom_site_fract_y
_atom_site_fract_z
Si Si1 0.750000 0.086821 0.500000
Si Si2 0.512202 0.042381 0.250775
Si Si3 0.188775 0.994818 0.147966
Si Si4 0.985289 0.733009 0.802977
Si Si5 0.577125 0.124557 0.610792
Si Si6 0.677390 0.701835 0.815934
O O1 0.671118 0.132356 0.576135
O O2 0.781421 0.033254 0.664227
O O3 0.464880 0.128641 0.189204
O O4 0.540360 0.083685 0.434883
O O5 0.594319 0.029537 0.143482
O O6 0.458342 0.953834 0.263246
O O7 0.193034 0.100470 0.149882
O O8 0.250000 0.961299 0.000000
O O9 0.907485 0.783587 0.733036
O O10 0.051150 0.779989 0.685075
O O11 0.007529 0.750000 0.000000
O O12 0.750000 0.750000 0.723405
O O13 0.668882 0.750000 0.000000
#
# Coordination Sequence:
#
# PCOD9396439 Si02
#       6
#     4   8   8   8   8   8
#     4  10  26  40  70 102 124 184 234 286 351 421
#     4  10  23  42  67  95 132 186 222 286 353 411
#     4  11  22  43  69  94 139 182 224 286 356 413
#     4  11  24  39  66 102 132 179 231 280 348 420
#     4  10  22  46  65  94 141 170 238 290 342 422
#     4  10  20  38  60  97 139 176 218 287 350 410
#
# _framework density 22.336817
#
# number of rings (size 3 to 8) (size 9 to 14) (size 15 to 20)
#    0.000    1.636    3.636    0.545    5.091    0.727 
#    0.000    7.727    0.000    0.000    0.000    0.000 
#    0.000    0.000    0.000    0.000    0.000    0.000 
#
# Total GULP energy -245130.254464 kJ/mol
# GULP energy per Si atom -5571.142147 kJ/mol
# Density = 2.228598 g / cm^3
# Si number density = 22.336817 Si / 1000 Ang^3
#
#
#
# Elastic Constant Matrix: (Units=GPa)
#
#
# Indices 1 2 3 4 5 6 
#
# 1 130.8964 16.7784 33.0979 0.0000 0.0000 0.0000
# 2 16.7784 74.1719 12.5653 0.0000 0.0000 0.0000
# 3 33.0979 12.5653 83.1752 0.0000 0.0000 0.0000
# 4 0.0000 0.0000 0.0000 19.2895 0.0000 0.0000
# 5 0.0000 0.0000 0.0000 0.0000 39.2249 0.0000
# 6 0.0000 0.0000 0.0000 0.0000 0.0000 24.6988
#
#
#
# Elastic Compliance Matrix: (Units=1/GPa)
#
#
# Indices 1 2 3 4 5 6 
#
# 1 0.008635 -0.001407 -0.003224 0.000000 0.000000 0.000000
# 2 -0.001407 0.014066 -0.001565 0.000000 0.000000 0.000000
# 3 -0.003224 -0.001565 0.013542 0.000000 0.000000 0.000000
# 4 0.000000 0.000000 0.000000 0.051842 0.000000 0.000000
# 5 0.000000 0.000000 0.000000 0.000000 0.025494 0.000000
# 6 0.000000 0.000000 0.000000 0.000000 0.000000 0.040488
#
#
# Mechanical properties :
#
#
# Convention : Reuss Voigt Hill
#
# Bulk Modulus (GPa) = 41.92652 45.90297 43.91475
# Shear Modulus (GPa) = 28.66837 31.69608 30.18222
#
# Velocity S-wave (km/s) = 3.58643 3.77106 3.67990
# Velocity P-wave (km/s) = 5.99673 6.28937 6.14479
#
# Compressibility (1/GPa) = 0.02385125
#
# Stress axis : x y z
#
# Youngs Moduli (GPa) = 115.80621 71.09528 73.84436
#
# Poissons Ratio (x) = 0.10005 0.23804
# Poissons Ratio (y) = 0.16297 0.11556
# Poissons Ratio (z) = 0.37331 0.11126
#
# Static dielectric constant tensor:
#      x y z
#    x 1.913640 0.000000 0.000000 
#    y 0.000000 1.796660 0.000000 
#    z 0.000000 0.000000 1.880620 
# 
# From -- ./inp_files/14143.got.cif
#   From: 2010.05.17/outbox.cif.g08.bks.cpg/sg50_8_cif.got.tgz:14143.got - 2010.06.03 11:33:33.
