data_PCOD9396454
_publ_section_title
;
Structure prediction by ZEFSAII (Michael W. Deem and Ramdas Pophale) SiO2 
 PCOD9396454
Probable space group: P B A N
;
_chemical_formula_sum "Si O2"
_cell_formula_units_Z 36
_cell_length_a 9.172053
_cell_length_b 21.600412
_cell_length_c 8.545503
_cell_angle_alpha 90.000000
_cell_angle_beta 90.000000
_cell_angle_gamma 90.000000
_cell_volume 1693.036111
_symmetry_space_group_name_H-M "P B A N"
_symmetry_group_IT_number 50
_space_group.IT_coordinate_system_code '2'
_symmetry_cell_setting 'orthorhombic'
loop_
_space_group_symop_operation_xyz
x,y,z
1/2-x,1/2-y,z
x,1/2-y,-z
1/2-x,y,-z
-x,-y,-z
1/2+x,1/2+y,-z
-x,1/2+y,z
1/2+x,-y,z
loop_
_atom_site_type_symbol
_atom_site_label
_atom_site_fract_x
_atom_site_fract_y
_atom_site_fract_z
Si Si1 0.690247 0.435243 0.174077
Si Si2 0.750000 0.750000 0.000000
Si Si3 0.994713 0.469812 0.326979
Si Si4 0.910027 0.835749 0.254728
Si Si5 0.760813 0.322694 0.318341
Si Si6 0.250000 0.250000 0.500000
O O1 0.555945 0.479365 0.207478
O O2 0.650130 0.364957 0.221955
O O3 0.826666 0.454209 0.285890
O O4 0.750000 0.438545 0.000000
O O5 0.839307 0.701297 0.890715
O O6 0.099285 0.409232 0.298264
O O7 0.000000 0.500000 0.500000
O O8 0.852213 0.794899 0.398887
O O9 0.082962 0.832287 0.240716
O O10 0.750000 0.250000 0.315831
O O11 0.750000 0.342141 0.500000
#
# Coordination Sequence:
#
# PCOD9396454 Si02
#       6
#     8   2   8   8   8   2
#     4  11  24  41  62  96 128 169 214 271 334 395
#     4  10  24  46  62  94 140 178 218 272 344 414
#     4  11  24  43  66  94 131 175 227 270 334 397
#     4  10  23  40  65  95 132 173 222 275 330 398
#     4  10  21  41  65  93 127 167 220 273 331 395
#     4  10  20  38  62  98 124 174 230 264 324 378
#
# _framework density 21.263573999999998
#
# number of rings (size 3 to 8) (size 9 to 14) (size 15 to 20)
#    0.000    1.556    0.000    5.333    4.667    4.000 
#    4.000    0.000    0.000    0.000    0.000    0.000 
#    0.000    0.000    0.000    0.000    0.000    0.000 
#
# Total GULP energy -200653.668197 kJ/mol
# GULP energy per Si atom -5573.713005 kJ/mol
# Density = 2.121518 g / cm^3
# Si number density = 21.263574 Si / 1000 Ang^3
#
#
#
# Elastic Constant Matrix: (Units=GPa)
#
#
# Indices 1 2 3 4 5 6 
#
# 1 22.5399 10.9960 -4.8836 0.0000 0.0000 0.0000
# 2 10.9960 135.4490 41.4712 0.0000 0.0000 0.0000
# 3 -4.8836 41.4712 106.0344 0.0000 0.0000 0.0000
# 4 0.0000 0.0000 0.0000 21.9857 0.0000 0.0000
# 5 0.0000 0.0000 0.0000 0.0000 21.3990 0.0000
# 6 0.0000 0.0000 0.0000 0.0000 0.0000 -12.3061
#
#
#
# Elastic Compliance Matrix: (Units=1/GPa)
#
#
# Indices 1 2 3 4 5 6 
#
# 1 0.047806 -0.005175 0.004226 0.000000 0.000000 0.000000
# 2 -0.005175 0.008947 -0.003738 0.000000 0.000000 0.000000
# 3 0.004226 -0.003738 0.011087 0.000000 0.000000 0.000000
# 4 0.000000 0.000000 0.000000 0.045484 0.000000 0.000000
# 5 0.000000 0.000000 0.000000 0.000000 0.046731 0.000000
# 6 0.000000 0.000000 0.000000 0.000000 0.000000 -0.081261
#
#
# Mechanical properties :
#
#
# Convention : Reuss Voigt Hill
#
# Bulk Modulus (GPa) = 17.10369 39.91006 28.50688
# Shear Modulus (GPa) = 46.44356 20.64506 33.54431
#
# Velocity S-wave (km/s) = 4.67860 3.11933 3.97614
# Velocity P-wave (km/s) = 6.10302 5.63769 5.87496
#
# Compressibility (1/GPa) = 0.05846690
#
# Stress axis : x y z
#
# Youngs Moduli (GPa) = 20.91796 111.76488 90.19255
#
# Poissons Ratio (x) = 0.57836 -0.38113
# Poissons Ratio (y) = 0.10825 0.33712
# Poissons Ratio (z) = -0.08839 0.41775
#
# Static dielectric constant tensor:
#      x y z
#    x 1.733300 0.000000 0.000000 
#    y 0.000000 1.938460 0.000000 
#    z 0.000000 0.000000 1.821900 
# 
# From -- ./inp_files/9287.got.cif
#   From: 2010.05.17/outbox.cif.g08.bks.cpg/sg50_5_cif.got.tgz:9287.got - 2010.06.03 11:33:33.
