data_PCOD9396098
_publ_section_title
;
Structure prediction by ZEFSAII (Michael W. Deem and Ramdas Pophale) SiO2 
 PCOD9396098
Probable space group: P B A N
;
_chemical_formula_sum "Si O2"
_cell_formula_units_Z 64
_cell_length_a 8.969983
_cell_length_b 18.122407
_cell_length_c 21.634092
_cell_angle_alpha 90.000000
_cell_angle_beta 90.000000
_cell_angle_gamma 90.000000
_cell_volume 3516.787863
_symmetry_space_group_name_H-M "P B A N"
_symmetry_group_IT_number 50
_space_group.IT_coordinate_system_code '2'
_symmetry_cell_setting 'orthorhombic'
loop_
_space_group_symop_operation_xyz
x,y,z
1/2-x,1/2-y,z
x,1/2-y,-z
1/2-x,y,-z
-x,-y,-z
1/2+x,1/2+y,-z
-x,1/2+y,z
1/2+x,-y,z
loop_
_atom_site_type_symbol
_atom_site_label
_atom_site_fract_x
_atom_site_fract_y
_atom_site_fract_z
Si Si1 0.931800 0.335730 0.500000
Si Si2 0.576045 0.838816 0.761098
Si Si3 0.431338 0.834381 0.000000
Si Si4 0.576405 0.340057 0.365701
Si Si5 0.576406 0.340057 0.634299
Si Si6 0.428806 0.580538 0.124232
Si Si7 0.576045 0.838816 0.238902
Si Si8 0.428806 0.580538 0.875768
O O1 0.980028 0.250000 0.500000
O O2 0.750000 0.335445 0.500000
O O3 0.976798 0.367386 0.566697
O O4 0.976798 0.367386 0.433303
O O5 0.517876 0.862808 0.693596
O O6 0.483021 0.875830 0.815505
O O7 0.559193 0.750000 0.764627
O O8 0.750000 0.856748 0.768139
O O9 0.477132 0.876366 0.062170
O O10 0.483774 0.750000 0.000000
O O11 0.250000 0.833014 0.000000
O O12 0.477132 0.876366 0.937830
O O13 0.572162 0.250000 0.368317
O O14 0.750000 0.360297 0.357172
O O15 0.482124 0.362808 0.306404
O O16 0.250000 0.575442 0.124195
O O17 0.500000 0.500000 0.124207
O O18 0.483021 0.875830 0.184495
#
# Coordination Sequence:
#
# PCOD9396098 Si02
#       8
#     8   8   8   8   8   8   8   8
#     4   7  10  18  35  61  92 125 164 209 254 303
#     4  10  20  33  49  73 105 138 175 218 260 305
#     4   9  19  36  59  85 108 133 168 207 248 300
#     4   8  13  23  41  65  94 130 170 211 257 306
#     4   8  13  23  41  65  94 130 170 211 257 306
#     4  11  22  37  57  79 106 138 172 211 255 304
#     4  10  20  33  49  73 105 138 175 218 260 305
#     4  11  22  37  57  79 106 138 172 211 255 304
#
# _framework density 18.198422999999998
#
# number of rings (size 3 to 8) (size 9 to 14) (size 15 to 20)
#    0.000    2.750    0.000    4.125    0.000    2.500 
#    0.000    2.500    0.000    8.250    0.000    0.875 
#    0.000    0.000    0.000    0.000    0.000    0.000 
#
# Total GULP energy -356726.510284 kJ/mol
# GULP energy per Si atom -5573.851723 kJ/mol
# Density = 1.815700 g / cm^3
# Si number density = 18.198423 Si / 1000 Ang^3
#
#
#
# Elastic Constant Matrix: (Units=GPa)
#
#
# Indices 1 2 3 4 5 6 
#
# 1 62.9554 31.9632 56.9045 0.0000 0.0000 0.0000
# 2 31.9632 34.3347 43.0387 0.0000 0.0000 0.0000
# 3 56.9045 43.0387 185.4693 0.0000 0.0000 0.0000
# 4 0.0000 0.0000 0.0000 -9.3191 0.0000 0.0000
# 5 0.0000 0.0000 0.0000 0.0000 -2.5138 0.0000
# 6 0.0000 0.0000 0.0000 0.0000 0.0000 16.0544
#
#
#
# Elastic Compliance Matrix: (Units=1/GPa)
#
#
# Indices 1 2 3 4 5 6 
#
# 1 0.032212 -0.024818 -0.004124 0.000000 0.000000 0.000000
# 2 -0.024818 0.060193 -0.006353 0.000000 0.000000 0.000000
# 3 -0.004124 -0.006353 0.008131 0.000000 0.000000 0.000000
# 4 0.000000 0.000000 0.000000 -0.107306 0.000000 0.000000
# 5 0.000000 0.000000 0.000000 0.000000 -0.397798 0.000000
# 6 0.000000 0.000000 0.000000 0.000000 0.000000 0.062288
#
#
# Mechanical properties :
#
#
# Convention : Reuss Voigt Hill
#
# Bulk Modulus (GPa) = 33.39375 60.73025 47.06200
# Shear Modulus (GPa) = -19.10540 10.90115 -4.10212
#
# Velocity S-wave (km/s) = -3.24364 2.45014 -1.50300
# Velocity P-wave (km/s) = 2.08840 6.43800 4.78588
#
# Compressibility (1/GPa) = 0.02994572
#
# Stress axis : x y z
#
# Youngs Moduli (GPa) = 31.04401 16.61326 122.97991
#
# Poissons Ratio (x) = 0.41231 0.50719
# Poissons Ratio (y) = 0.77045 0.78135
# Poissons Ratio (z) = 0.12803 0.10555
#
# Static dielectric constant tensor:
#      x y z
#    x 1.605500 0.000000 0.000000 
#    y 0.000000 1.607770 0.000000 
#    z 0.000000 0.000000 1.643480 
# 
# From -- ./inp_files/30728.got.cif
#   From: 2010.05.17/outbox.cif.g08.bks.cpg/sg50_16_cif.got.tgz:30728.got - 2010.06.03 11:33:33.
