data_PCOD9396014
_publ_section_title
;
Structure prediction by ZEFSAII (Michael W. Deem and Ramdas Pophale) SiO2 
 PCOD9396014
Probable space group: P B A N
;
_chemical_formula_sum "Si O2"
_cell_formula_units_Z 40
_cell_length_a 25.808254
_cell_length_b 7.923111
_cell_length_c 8.587101
_cell_angle_alpha 90.000000
_cell_angle_beta 90.000000
_cell_angle_gamma 90.000000
_cell_volume 1755.904677
_symmetry_space_group_name_H-M "P B A N"
_symmetry_group_IT_number 50
_space_group.IT_coordinate_system_code '2'
_symmetry_cell_setting 'orthorhombic'
loop_
_space_group_symop_operation_xyz
x,y,z
1/2-x,1/2-y,z
x,1/2-y,-z
1/2-x,y,-z
-x,-y,-z
1/2+x,1/2+y,-z
-x,1/2+y,z
1/2+x,-y,z
loop_
_atom_site_type_symbol
_atom_site_label
_atom_site_fract_x
_atom_site_fract_y
_atom_site_fract_z
Si Si1 0.642150 0.622759 0.626186
Si Si2 0.945437 0.062065 0.432223
Si Si3 0.692840 0.439414 0.059023
Si Si4 0.089092 0.370875 0.131261
Si Si5 0.753864 0.550325 0.319207
O O1 0.668368 0.750000 0.500000
O O2 0.601385 0.526183 0.522628
O O3 0.612263 0.736112 0.748489
O O4 0.685521 0.513003 0.714017
O O5 0.942138 0.250000 0.500000
O O6 0.939692 0.006434 0.247864
O O7 0.000000 0.000000 0.500000
O O8 0.638975 0.539714 0.050038
O O9 0.708396 0.446377 0.240478
O O10 0.687577 0.250000 0.000000
O O11 0.750000 0.508347 0.000000
O O12 0.061767 0.250000 0.000000
O O13 0.750000 0.750000 0.277941
O O14 0.750000 0.516707 0.500000
#
# Coordination Sequence:
#
# PCOD9396014 Si02
#       5
#     8   8   8   8   8
#     4  10  19  37  67 100 128 180 237 286 352 423
#     4  11  25  48  74 101 138 179 237 310 376 431
#     4  11  25  40  59 101 153 191 231 289 360 429
#     4  11  23  41  70 101 135 185 234 286 359 440
#     4  11  18  35  66  97 131 182 246 287 334 422
#
# _framework density 22.780280999999999
#
# number of rings (size 3 to 8) (size 9 to 14) (size 15 to 20)
#    0.000    1.200    4.000    4.200    0.000    4.800 
#    0.000    6.000    0.000    1.200    0.000    0.000 
#    0.000    0.000    0.000    0.000    0.000    0.000 
#
# Total GULP energy -222835.371299 kJ/mol
# GULP energy per Si atom -5570.884282 kJ/mol
# Density = 2.272843 g / cm^3
# Si number density = 22.780281 Si / 1000 Ang^3
#
#
#
# Elastic Constant Matrix: (Units=GPa)
#
#
# Indices 1 2 3 4 5 6 
#
# 1 92.4352 31.0095 12.3932 0.0000 0.0000 0.0000
# 2 31.0095 116.0086 64.0494 0.0000 0.0000 0.0000
# 3 12.3932 64.0494 104.9069 0.0000 0.0000 0.0000
# 4 0.0000 0.0000 0.0000 32.3741 0.0000 0.0000
# 5 0.0000 0.0000 0.0000 0.0000 33.3283 0.0000
# 6 0.0000 0.0000 0.0000 0.0000 0.0000 28.5382
#
#
#
# Elastic Compliance Matrix: (Units=1/GPa)
#
#
# Indices 1 2 3 4 5 6 
#
# 1 0.011930 -0.003637 0.000811 0.000000 0.000000 0.000000
# 2 -0.003637 0.014112 -0.008186 0.000000 0.000000 0.000000
# 3 0.000811 -0.008186 0.014434 0.000000 0.000000 0.000000
# 4 0.000000 0.000000 0.000000 0.030889 0.000000 0.000000
# 5 0.000000 0.000000 0.000000 0.000000 0.030005 0.000000
# 6 0.000000 0.000000 0.000000 0.000000 0.000000 0.035041
#
#
# Mechanical properties :
#
#
# Convention : Reuss Voigt Hill
#
# Bulk Modulus (GPa) = 54.19386 58.69499 56.44443
# Shear Modulus (GPa) = 30.37960 32.57469 31.47715
#
# Velocity S-wave (km/s) = 3.65580 3.78557 3.72125
# Velocity P-wave (km/s) = 6.45456 6.70291 6.57991
#
# Compressibility (1/GPa) = 0.01845227
#
# Stress axis : x y z
#
# Youngs Moduli (GPa) = 83.82489 70.86303 69.27914
#
# Poissons Ratio (x) = 0.25770 -0.05618
# Poissons Ratio (y) = 0.30483 0.56713
# Poissons Ratio (z) = -0.06798 0.58009
#
# Static dielectric constant tensor:
#      x y z
#    x 1.861010 0.000000 0.000000 
#    y 0.000000 1.919160 0.000000 
#    z 0.000000 0.000000 2.100660 
# 
# From -- ./inp_files/16379.got.cif
#   From: 2010.05.17/outbox.cif.g08.bks.cpg/sg50_9_cif.got.tgz:16379.got - 2010.06.03 11:33:33.
