data_PCOD9396322
_publ_section_title
;
Structure prediction by ZEFSAII (Michael W. Deem and Ramdas Pophale) SiO2 
 PCOD9396322
Probable space group: P B A N
;
_chemical_formula_sum "Si O2"
_cell_formula_units_Z 48
_cell_length_a 13.946931
_cell_length_b 19.828094
_cell_length_c 9.090426
_cell_angle_alpha 90.000000
_cell_angle_beta 90.000000
_cell_angle_gamma 90.000000
_cell_volume 2513.876032
_symmetry_space_group_name_H-M "P B A N"
_symmetry_group_IT_number 50
_space_group.IT_coordinate_system_code '2'
_symmetry_cell_setting 'orthorhombic'
loop_
_space_group_symop_operation_xyz
x,y,z
1/2-x,1/2-y,z
x,1/2-y,-z
1/2-x,y,-z
-x,-y,-z
1/2+x,1/2+y,-z
-x,1/2+y,z
1/2+x,-y,z
loop_
_atom_site_type_symbol
_atom_site_label
_atom_site_fract_x
_atom_site_fract_y
_atom_site_fract_z
Si Si1 0.123200 0.601824 0.814487
Si Si2 0.864900 0.243485 0.669228
Si Si3 0.256065 0.487502 0.325435
Si Si4 0.435677 0.486978 0.820974
Si Si5 0.449836 0.640551 0.874901
Si Si6 0.349883 0.095185 0.918713
O O1 0.112087 0.668465 0.719690
O O2 0.212770 0.556971 0.758275
O O3 0.030179 0.555232 0.792659
O O4 0.117464 0.628907 0.982175
O O5 0.750000 0.250000 0.680093
O O6 0.893896 0.250000 0.500000
O O7 0.912610 0.299937 0.772806
O O8 0.250000 0.496099 0.500000
O O9 0.149511 0.465864 0.283840
O O10 0.323341 0.432153 0.243776
O O11 0.449343 0.566481 0.801600
O O12 0.394319 0.466507 0.982711
O O13 0.562599 0.648262 0.918567
O O14 0.250000 0.114488 0.000000
#
# Coordination Sequence:
#
# PCOD9396322 Si02
#       6
#     8   8   8   8   8   8
#     4  11  22  40  60  90 121 158 209 250 301 366
#     4  11  27  42  57  88 131 167 199 245 309 378
#     4  11  22  32  56  92 126 158 199 253 310 362
#     4  10  20  36  63  89 117 155 209 258 300 359
#     4  11  20  40  65  88 117 166 208 253 305 365
#     4   9  18  37  60  93 120 148 205 265 305 354
#
# _framework density 19.09402
#
# number of rings (size 3 to 8) (size 9 to 14) (size 15 to 20)
#    0.000    1.500    3.333    2.500    4.667    4.667 
#    0.000    0.000    0.000   17.000    0.000   11.667 
#    0.000    0.000    0.000    0.000    0.000    0.000 
#
# Total GULP energy -267652.151455 kJ/mol
# GULP energy per Si atom -5576.086489 kJ/mol
# Density = 1.905056 g / cm^3
# Si number density = 19.094020 Si / 1000 Ang^3
#
#
#
# Elastic Constant Matrix: (Units=GPa)
#
#
# Indices 1 2 3 4 5 6 
#
# 1 88.4022 15.6873 35.9586 0.0000 0.0000 0.0000
# 2 15.6873 60.4049 42.6617 0.0000 0.0000 0.0000
# 3 35.9586 42.6617 114.7726 0.0000 0.0000 0.0000
# 4 0.0000 0.0000 0.0000 11.0245 0.0000 0.0000
# 5 0.0000 0.0000 0.0000 0.0000 14.9163 0.0000
# 6 0.0000 0.0000 0.0000 0.0000 0.0000 18.1581
#
#
#
# Elastic Compliance Matrix: (Units=1/GPa)
#
#
# Indices 1 2 3 4 5 6 
#
# 1 0.012984 -0.000677 -0.003817 0.000000 0.000000 0.000000
# 2 -0.000677 0.022483 -0.008145 0.000000 0.000000 0.000000
# 3 -0.003817 -0.008145 0.012936 0.000000 0.000000 0.000000
# 4 0.000000 0.000000 0.000000 0.090707 0.000000 0.000000
# 5 0.000000 0.000000 0.000000 0.000000 0.067041 0.000000
# 6 0.000000 0.000000 0.000000 0.000000 0.000000 0.055072
#
#
# Mechanical properties :
#
#
# Convention : Reuss Voigt Hill
#
# Bulk Modulus (GPa) = 43.23906 50.24390 46.74148
# Shear Modulus (GPa) = 16.99470 20.10459 18.54964
#
# Velocity S-wave (km/s) = 2.98661 3.24840 3.12025
# Velocity P-wave (km/s) = 5.88113 6.35929 6.12488
#
# Compressibility (1/GPa) = 0.02312724
#
# Stress axis : x y z
#
# Youngs Moduli (GPa) = 77.01529 44.47743 77.30212
#
# Poissons Ratio (x) = 0.03009 0.29503
# Poissons Ratio (y) = 0.05211 0.62964
# Poissons Ratio (z) = 0.29393 0.36228
#
# Static dielectric constant tensor:
#      x y z
#    x 1.714980 0.000000 0.000000 
#    y 0.000000 1.647330 0.000000 
#    z 0.000000 0.000000 1.718960 
# 
# From -- ./inp_files/12966.got.cif
#   From: 2010.05.17/outbox.cif.g08.bks.cpg/sg50_7_cif.got.tgz:12966.got - 2010.06.03 11:33:33.
