data_PCOD9396779
_publ_section_title
;
Structure prediction by ZEFSAII (Michael W. Deem and Ramdas Pophale) SiO2 
 PCOD9396779
Probable space group: P B A N
;
_chemical_formula_sum "Si O2"
_cell_formula_units_Z 40
_cell_length_a 9.352309
_cell_length_b 17.172623
_cell_length_c 11.748316
_cell_angle_alpha 90.000000
_cell_angle_beta 90.000000
_cell_angle_gamma 90.000000
_cell_volume 1886.822744
_symmetry_space_group_name_H-M "P B A N"
_symmetry_group_IT_number 50
_space_group.IT_coordinate_system_code '2'
_symmetry_cell_setting 'orthorhombic'
loop_
_space_group_symop_operation_xyz
x,y,z
1/2-x,1/2-y,z
x,1/2-y,-z
1/2-x,y,-z
-x,-y,-z
1/2+x,1/2+y,-z
-x,1/2+y,z
1/2+x,-y,z
loop_
_atom_site_type_symbol
_atom_site_label
_atom_site_fract_x
_atom_site_fract_y
_atom_site_fract_z
Si Si1 0.018057 0.320861 0.411558
Si Si2 0.400587 0.913700 0.398242
Si Si3 0.604110 0.219151 0.786894
Si Si4 0.684756 0.667898 0.875878
Si Si5 0.267310 0.430454 0.337856
O O1 0.036099 0.250000 0.500000
O O2 0.166740 0.364166 0.391606
O O3 0.904769 0.377921 0.474403
O O4 0.962694 0.287417 0.292070
O O5 0.363133 0.847500 0.306467
O O6 0.569885 0.931600 0.379736
O O7 0.311194 0.989879 0.369101
O O8 0.750000 0.250000 0.840218
O O9 0.484872 0.184509 0.870708
O O10 0.750000 0.750000 0.831660
O O11 0.722017 0.596342 0.793666
O O12 0.750000 0.656071 0.000000
#
# Coordination Sequence:
#
# PCOD9396779 Si02
#       5
#     8   8   8   8   8
#     4  10  21  37  60  89 127 174 217 254 309 385
#     4  10  24  36  61  93 130 172 214 253 324 380
#     4  10  22  41  65  93 129 165 215 262 317 376
#     4  10  21  41  70  92 116 167 220 269 326 376
#     4  11  22  40  59  89 130 166 212 272 318 378
#
# _framework density 21.199660999999999
#
# number of rings (size 3 to 8) (size 9 to 14) (size 15 to 20)
#    0.000    1.800    2.000    1.200    2.800    7.600 
#    0.000    6.000    0.000    0.000    0.000    0.000 
#    0.000    0.000    0.000    0.000    0.000    0.000 
#
# Total GULP energy -223653.394722 kJ/mol
# GULP energy per Si atom -5591.334868 kJ/mol
# Density = 2.115141 g / cm^3
# Si number density = 21.199661 Si / 1000 Ang^3
#
#
#
# Elastic Constant Matrix: (Units=GPa)
#
#
# Indices 1 2 3 4 5 6 
#
# 1 140.8030 49.0107 54.8483 0.0000 0.0000 0.0000
# 2 49.0107 113.1879 36.7683 0.0000 0.0000 0.0000
# 3 54.8483 36.7683 114.0520 0.0000 0.0000 0.0000
# 4 0.0000 0.0000 0.0000 22.3091 0.0000 0.0000
# 5 0.0000 0.0000 0.0000 0.0000 24.5194 0.0000
# 6 0.0000 0.0000 0.0000 0.0000 0.0000 30.6297
#
#
#
# Elastic Compliance Matrix: (Units=1/GPa)
#
#
# Indices 1 2 3 4 5 6 
#
# 1 0.009547 -0.002952 -0.003640 0.000000 0.000000 0.000000
# 2 -0.002952 0.010781 -0.002056 0.000000 0.000000 0.000000
# 3 -0.003640 -0.002056 0.011181 0.000000 0.000000 0.000000
# 4 0.000000 0.000000 0.000000 0.044825 0.000000 0.000000
# 5 0.000000 0.000000 0.000000 0.000000 0.040784 0.000000
# 6 0.000000 0.000000 0.000000 0.000000 0.000000 0.032648
#
#
# Mechanical properties :
#
#
# Convention : Reuss Voigt Hill
#
# Bulk Modulus (GPa) = 70.35180 72.14414 71.24797
# Shear Modulus (GPa) = 29.10368 30.65268 29.87818
#
# Velocity S-wave (km/s) = 3.70920 3.80663 3.75823
# Velocity P-wave (km/s) = 7.18343 7.30926 7.24662
#
# Compressibility (1/GPa) = 0.01421428
#
# Stress axis : x y z
#
# Youngs Moduli (GPa) = 104.74056 92.75703 89.43597
#
# Poissons Ratio (x) = 0.27379 0.32553
# Poissons Ratio (y) = 0.30916 0.18389
# Poissons Ratio (z) = 0.38124 0.19071
#
# Static dielectric constant tensor:
#      x y z
#    x 1.814580 0.000000 0.000000 
#    y 0.000000 1.772500 0.000000 
#    z 0.000000 0.000000 1.772120 
# 
# From -- ./inp_files/18719.got.cif
#   From: 2010.05.17/outbox.cif.g08.bks.cpg/sg50_10_cif.got.tgz:18719.got - 2010.06.03 11:33:33.
