data_PCOD9396209
_publ_section_title
;
Structure prediction by ZEFSAII (Michael W. Deem and Ramdas Pophale) SiO2 
 PCOD9396209
Probable space group: P B A N
;
_chemical_formula_sum "Si O2"
_cell_formula_units_Z 46
_cell_length_a 25.411406
_cell_length_b 8.786620
_cell_length_c 10.042791
_cell_angle_alpha 90.000000
_cell_angle_beta 90.000000
_cell_angle_gamma 90.000000
_cell_volume 2242.358072
_symmetry_space_group_name_H-M "P B A N"
_symmetry_group_IT_number 50
_space_group.IT_coordinate_system_code '2'
_symmetry_cell_setting 'orthorhombic'
loop_
_space_group_symop_operation_xyz
x,y,z
1/2-x,1/2-y,z
x,1/2-y,-z
1/2-x,y,-z
-x,-y,-z
1/2+x,1/2+y,-z
-x,1/2+y,z
1/2+x,-y,z
loop_
_atom_site_type_symbol
_atom_site_label
_atom_site_fract_x
_atom_site_fract_y
_atom_site_fract_z
Si Si1 0.888548 0.750000 0.500000
Si Si2 0.808022 0.781689 0.844064
Si Si3 0.499382 0.573729 0.787740
Si Si4 0.944188 0.330990 0.361734
Si Si5 0.750000 0.250000 0.500000
Si Si6 0.577419 0.688783 0.209461
Si Si7 0.667705 0.469377 0.644373
O O1 0.923511 0.799208 0.372199
O O2 0.851550 0.609234 0.452025
O O3 0.750000 0.750000 0.784093
O O4 0.860033 0.682718 0.810743
O O5 0.820597 0.948199 0.784724
O O6 0.803400 0.750000 0.000000
O O7 0.524500 0.486307 0.661547
O O8 0.464148 0.716611 0.750136
O O9 0.551245 0.655802 0.848616
O O10 0.458446 0.449438 0.843190
O O11 0.953377 0.250000 0.500000
O O12 0.883235 0.364575 0.344912
O O13 0.713896 0.364522 0.587092
#
# Coordination Sequence:
#
# PCOD9396209 Si02
#       7
#     4   8   8   8   2   8   8
#     4  10  20  35  55  88 130 169 209 252 314 404
#     4  10  23  45  70  87 115 171 233 271 305 388
#     4  10  21  30  56  86 130 166 201 256 322 392
#     4  11  19  33  50  86 129 168 199 247 310 397
#     4  12  28  38  62 102 144 168 192 290 354 394
#     4  10  21  35  57  92 124 162 213 260 324 389
#     4  11  24  39  60  97 129 164 210 264 335 392
#
# _framework density 20.514118
#
# number of rings (size 3 to 8) (size 9 to 14) (size 15 to 20)
#    0.000    1.565    4.348    1.565    9.739    0.000 
#    0.000    0.870    0.000    6.261    0.000    0.000 
#    0.000    0.000    0.000    0.000    0.000    0.000 
#
# Total GULP energy -256078.024345 kJ/mol
# GULP energy per Si atom -5566.913573 kJ/mol
# Density = 2.046743 g / cm^3
# Si number density = 20.514118 Si / 1000 Ang^3
#
#
#
# Elastic Constant Matrix: (Units=GPa)
#
#
# Indices 1 2 3 4 5 6 
#
# 1 153.3584 41.1375 9.3558 0.0000 0.0000 0.0000
# 2 41.1375 104.3424 15.1961 0.0000 0.0000 0.0000
# 3 9.3558 15.1961 53.6030 0.0000 0.0000 0.0000
# 4 0.0000 0.0000 0.0000 8.6342 0.0000 0.0000
# 5 0.0000 0.0000 0.0000 0.0000 25.4615 0.0000
# 6 0.0000 0.0000 0.0000 0.0000 0.0000 50.3107
#
#
#
# Elastic Compliance Matrix: (Units=1/GPa)
#
#
# Indices 1 2 3 4 5 6 
#
# 1 0.007304 -0.002810 -0.000478 0.000000 0.000000 0.000000
# 2 -0.002810 0.011078 -0.002650 0.000000 0.000000 0.000000
# 3 -0.000478 -0.002650 0.019490 0.000000 0.000000 0.000000
# 4 0.000000 0.000000 0.000000 0.115818 0.000000 0.000000
# 5 0.000000 0.000000 0.000000 0.000000 0.039275 0.000000
# 6 0.000000 0.000000 0.000000 0.000000 0.000000 0.019876
#
#
# Mechanical properties :
#
#
# Convention : Reuss Voigt Hill
#
# Bulk Modulus (GPa) = 38.46818 49.18694 43.82756
# Shear Modulus (GPa) = 21.42406 33.25557 27.33981
#
# Velocity S-wave (km/s) = 3.23516 4.03066 3.65462
# Velocity P-wave (km/s) = 5.72256 6.75950 6.26253
#
# Compressibility (1/GPa) = 0.02599551
#
# Stress axis : x y z
#
# Youngs Moduli (GPa) = 136.91944 90.27259 51.30731
#
# Poissons Ratio (x) = 0.25365 0.02453
# Poissons Ratio (y) = 0.38472 0.13596
# Poissons Ratio (z) = 0.06547 0.23922
#
# Static dielectric constant tensor:
#      x y z
#    x 1.801200 0.000000 0.000000 
#    y 0.000000 1.751300 0.000000 
#    z 0.000000 0.000000 1.950310 
# 
# From -- ./inp_files/22796.got.cif
#   From: 2010.05.17/outbox.cif.g08.bks.cpg/sg50_12_cif.got.tgz:22796.got - 2010.06.03 11:33:33.
