data_PCOD9396320
_publ_section_title
;
Structure prediction by ZEFSAII (Michael W. Deem and Ramdas Pophale) SiO2 
 PCOD9396320
Probable space group: P B A N
;
_chemical_formula_sum "Si O2"
_cell_formula_units_Z 56
_cell_length_a 14.149439
_cell_length_b 11.589980
_cell_length_c 12.365112
_cell_angle_alpha 90.000000
_cell_angle_beta 90.000000
_cell_angle_gamma 90.000000
_cell_volume 2027.775923
_symmetry_space_group_name_H-M "P B A N"
_symmetry_group_IT_number 50
_space_group.IT_coordinate_system_code '2'
_symmetry_cell_setting 'orthorhombic'
loop_
_space_group_symop_operation_xyz
x,y,z
1/2-x,1/2-y,z
x,1/2-y,-z
1/2-x,y,-z
-x,-y,-z
1/2+x,1/2+y,-z
-x,1/2+y,z
1/2+x,-y,z
loop_
_atom_site_type_symbol
_atom_site_label
_atom_site_fract_x
_atom_site_fract_y
_atom_site_fract_z
Si Si1 0.766433 0.412449 0.628731
Si Si2 0.462729 0.131124 0.485535
Si Si3 0.525292 0.588715 0.248195
Si Si4 0.890830 0.063094 0.068293
Si Si5 0.860341 0.900263 0.697813
Si Si6 0.632581 0.235758 0.761936
Si Si7 0.890911 0.639347 0.069037
O O1 0.750000 0.401682 0.500000
O O2 0.736465 0.535228 0.671786
O O3 0.693766 0.331870 0.698145
O O4 0.866621 0.366511 0.671798
O O5 0.523772 0.250000 0.500000
O O6 0.431158 0.124341 0.361948
O O7 0.388579 0.147755 0.581219
O O8 0.500000 0.000000 0.500000
O O9 0.591729 0.537673 0.156928
O O10 0.445281 0.491098 0.272692
O O11 0.464437 0.700404 0.213225
O O12 0.836821 0.167290 0.129254
O O13 0.996109 0.115947 0.051105
O O14 0.853601 0.989672 0.966505
O O15 0.857844 0.833404 0.809411
O O16 0.863379 0.750000 0.000000
#
# Coordination Sequence:
#
# PCOD9396320 Si02
#       7
#     8   8   8   8   8   8   8
#     4  10  22  41  63  89 132 180 221 281 335 412
#     4  10  22  35  58  94 137 170 213 286 350 423
#     4   9  20  33  56  93 131 162 212 273 342 414
#     4  10  21  35  62  93 129 171 214 275 347 411
#     4   9  21  40  56  89 127 172 225 273 334 407
#     4  10  20  36  62  95 128 170 222 269 342 410
#     4  10  21  39  61  88 128 173 217 277 342 410
#
# _framework density 27.616463
#
# number of rings (size 3 to 8) (size 9 to 14) (size 15 to 20)
#    0.000    2.286    0.000    1.714   10.000    3.429 
#    0.000    0.714    0.000   10.714    0.000    0.000 
#    0.000    0.000    0.000    0.000    0.000    0.000 
#
# Total GULP energy -312646.683014 kJ/mol
# GULP energy per Si atom -5582.976482 kJ/mol
# Density = 2.755361 g / cm^3
# Si number density = 27.616463 Si / 1000 Ang^3
#
#
#
# Elastic Constant Matrix: (Units=GPa)
#
#
# Indices 1 2 3 4 5 6 
#
# 1 56.5952 37.4163 10.1261 0.0000 0.0000 0.0000
# 2 37.4163 127.9499 52.2779 0.0000 0.0000 0.0000
# 3 10.1261 52.2779 180.5026 0.0000 0.0000 0.0000
# 4 0.0000 0.0000 0.0000 66.9815 0.0000 0.0000
# 5 0.0000 0.0000 0.0000 0.0000 15.1826 0.0000
# 6 0.0000 0.0000 0.0000 0.0000 0.0000 38.4525
#
#
#
# Elastic Compliance Matrix: (Units=1/GPa)
#
#
# Indices 1 2 3 4 5 6 
#
# 1 0.021985 -0.006720 0.000713 0.000000 0.000000 0.000000
# 2 -0.006720 0.010919 -0.002785 0.000000 0.000000 0.000000
# 3 0.000713 -0.002785 0.006307 0.000000 0.000000 0.000000
# 4 0.000000 0.000000 0.000000 0.014929 0.000000 0.000000
# 5 0.000000 0.000000 0.000000 0.000000 0.065865 0.000000
# 6 0.000000 0.000000 0.000000 0.000000 0.000000 0.026006
#
#
# Mechanical properties :
#
#
# Convention : Reuss Voigt Hill
#
# Bulk Modulus (GPa) = 46.24265 62.74316 54.49290
# Shear Modulus (GPa) = 29.27326 41.80514 35.53920
#
# Velocity S-wave (km/s) = 3.25929 3.89495 3.59121
# Velocity P-wave (km/s) = 5.56281 6.55716 6.08034
#
# Compressibility (1/GPa) = 0.02162506
#
# Stress axis : x y z
#
# Youngs Moduli (GPa) = 45.48623 91.58511 158.55931
#
# Poissons Ratio (x) = 0.61548 -0.11306
# Poissons Ratio (y) = 0.30568 0.44164
# Poissons Ratio (z) = -0.03243 0.25510
#
# Static dielectric constant tensor:
#      x y z
#    x 2.397510 0.000000 0.000000 
#    y 0.000000 2.309290 0.000000 
#    z 0.000000 0.000000 2.204910 
# 
# From -- ./inp_files/22382.got.cif
#   From: 2010.05.17/outbox.cif.g08.bks.cpg/sg50_12_cif.got.tgz:22382.got - 2010.06.03 11:33:33.
