data_PCOD9396626
_publ_section_title
;
Structure prediction by ZEFSAII (Michael W. Deem and Ramdas Pophale) SiO2 
 PCOD9396626
Probable space group: P B A N
;
_chemical_formula_sum "Si O2"
_cell_formula_units_Z 64
_cell_length_a 16.875080
_cell_length_b 26.866180
_cell_length_c 5.856119
_cell_angle_alpha 90.000000
_cell_angle_beta 90.000000
_cell_angle_gamma 90.000000
_cell_volume 2654.982445
_symmetry_space_group_name_H-M "P B A N"
_symmetry_group_IT_number 50
_space_group.IT_coordinate_system_code '2'
_symmetry_cell_setting 'orthorhombic'
loop_
_space_group_symop_operation_xyz
x,y,z
1/2-x,1/2-y,z
x,1/2-y,-z
1/2-x,y,-z
-x,-y,-z
1/2+x,1/2+y,-z
-x,1/2+y,z
1/2+x,-y,z
loop_
_atom_site_type_symbol
_atom_site_label
_atom_site_fract_x
_atom_site_fract_y
_atom_site_fract_z
Si Si1 0.997218 0.558581 0.051062
Si Si2 0.815804 0.502217 0.750593
Si Si3 0.381931 0.802716 0.060000
Si Si4 0.779354 0.692223 0.245606
Si Si5 0.045272 0.628834 0.677745
Si Si6 0.041470 0.299040 0.648804
Si Si7 0.650872 0.533473 0.739487
Si Si8 0.654453 0.100647 0.703110
O O1 0.921611 0.569848 0.209766
O O2 0.075985 0.579398 0.169738
O O3 0.996730 0.587920 0.815638
O O4 0.000000 0.500000 0.000000
O O5 0.744936 0.542212 0.731704
O O6 0.865048 0.509862 0.513809
O O7 0.785454 0.444860 0.732761
O O8 0.847847 0.506841 0.007776
O O9 0.462730 0.791433 0.200424
O O10 0.330699 0.844505 0.195266
O O11 0.343758 0.750000 0.000000
O O12 0.415793 0.830001 0.839202
O O13 0.750000 0.750000 0.245430
O O14 0.750000 0.672937 0.500000
O O15 0.874812 0.690845 0.233390
O O16 0.750000 0.670310 0.000000
O O17 0.985096 0.656238 0.512377
O O18 0.121365 0.606453 0.550175
O O19 0.054605 0.250000 0.500000
#
# Coordination Sequence:
#
# PCOD9396626 Si02
#       8
#     8   8   8   8   8   8   8   8
#     4  11  21  37  62  96 130 167 209 274 328 395
#     4  10  21  40  61  97 125 165 220 261 316 400
#     4  10  21  35  58  88 126 163 208 269 334 391
#     4  10  21  32  52  88 102 145 218 266 310 378
#     4  10  23  36  57  92 128 166 218 268 338 396
#     4  11  20  35  58  84 116 170 212 279 328 393
#     4  10  22  37  65  94 125 168 215 261 326 384
#     4  10  22  36  59  96 127 168 217 271 325 393
#
# _framework density 24.105623000000001
#
# number of rings (size 3 to 8) (size 9 to 14) (size 15 to 20)
#    0.000    1.750    3.750    0.750    7.000    1.000 
#    0.000    0.000    0.000    9.000    0.000    1.750 
#    0.000    0.000    0.000    0.000    0.000    0.000 
#
# Total GULP energy -356525.748355 kJ/mol
# GULP energy per Si atom -5570.714818 kJ/mol
# Density = 2.405076 g / cm^3
# Si number density = 24.105623 Si / 1000 Ang^3
#
#
#
# Elastic Constant Matrix: (Units=GPa)
#
#
# Indices 1 2 3 4 5 6 
#
# 1 60.7790 0.2857 18.1846 0.0000 0.0000 0.0000
# 2 0.2857 94.1729 42.2025 0.0000 0.0000 0.0000
# 3 18.1846 42.2025 171.0384 0.0000 0.0000 0.0000
# 4 0.0000 0.0000 0.0000 13.3454 0.0000 0.0000
# 5 0.0000 0.0000 0.0000 0.0000 18.9234 0.0000
# 6 0.0000 0.0000 0.0000 0.0000 0.0000 9.3391
#
#
#
# Elastic Compliance Matrix: (Units=1/GPa)
#
#
# Indices 1 2 3 4 5 6 
#
# 1 0.017055 0.000855 -0.002024 0.000000 0.000000 0.000000
# 2 0.000855 0.011982 -0.003047 0.000000 0.000000 0.000000
# 3 -0.002024 -0.003047 0.006814 0.000000 0.000000 0.000000
# 4 0.000000 0.000000 0.000000 0.074932 0.000000 0.000000
# 5 0.000000 0.000000 0.000000 0.000000 0.052845 0.000000
# 6 0.000000 0.000000 0.000000 0.000000 0.000000 0.107077
#
#
# Mechanical properties :
#
#
# Convention : Reuss Voigt Hill
#
# Bulk Modulus (GPa) = 36.47270 49.70401 43.08835
# Shear Modulus (GPa) = 17.34451 26.00940 21.67696
#
# Velocity S-wave (km/s) = 2.68530 3.28834 3.00200
# Velocity P-wave (km/s) = 4.97772 5.92297 5.47080
#
# Compressibility (1/GPa) = 0.02741777
#
# Stress axis : x y z
#
# Youngs Moduli (GPa) = 58.63486 83.45984 146.76145
#
# Poissons Ratio (x) = -0.07139 0.29709
# Poissons Ratio (y) = -0.05016 0.44724
# Poissons Ratio (z) = 0.11870 0.25433
#
# Static dielectric constant tensor:
#      x y z
#    x 2.016110 0.000000 0.000000 
#    y 0.000000 1.970300 0.000000 
#    z 0.000000 0.000000 2.002290 
# 
# From -- ./inp_files/5550.got.cif
#   From: 2010.05.17/outbox.cif.g08.bks.cpg/sg50_3_cif.got.tgz:5550.got - 2010.06.03 11:33:33.
