data_PCOD9396091
_publ_section_title
;
Structure prediction by ZEFSAII (Michael W. Deem and Ramdas Pophale) SiO2 
 PCOD9396091
Probable space group: P B A N
;
_chemical_formula_sum "Si O2"
_cell_formula_units_Z 64
_cell_length_a 14.908431
_cell_length_b 18.837612
_cell_length_c 11.373373
_cell_angle_alpha 90.000000
_cell_angle_beta 90.000000
_cell_angle_gamma 90.000000
_cell_volume 3194.089415
_symmetry_space_group_name_H-M "P B A N"
_symmetry_group_IT_number 50
_space_group.IT_coordinate_system_code '2'
_symmetry_cell_setting 'orthorhombic'
loop_
_space_group_symop_operation_xyz
x,y,z
1/2-x,1/2-y,z
x,1/2-y,-z
1/2-x,y,-z
-x,-y,-z
1/2+x,1/2+y,-z
-x,1/2+y,z
1/2+x,-y,z
loop_
_atom_site_type_symbol
_atom_site_label
_atom_site_fract_x
_atom_site_fract_y
_atom_site_fract_z
Si Si1 0.928525 0.029237 0.247727
Si Si2 0.469422 0.713432 0.380745
Si Si3 0.853932 0.650806 0.497923
Si Si4 0.583329 0.433534 0.727210
Si Si5 0.648183 0.487364 0.486743
Si Si6 0.741898 0.987272 0.140166
Si Si7 0.784429 0.823917 0.866768
Si Si8 0.456638 0.162398 0.752884
O O1 0.907538 0.047987 0.383740
O O2 0.832504 0.020289 0.190457
O O3 0.991005 0.092960 0.207427
O O4 0.985449 0.957489 0.229923
O O5 0.430706 0.750000 0.500000
O O6 0.570565 0.688641 0.421181
O O7 0.419063 0.646710 0.322066
O O8 0.478428 0.774703 0.284933
O O9 0.750000 0.675725 0.500000
O O10 0.848367 0.570206 0.542998
O O11 0.895342 0.650898 0.365562
O O12 0.599595 0.478546 0.609149
O O13 0.659357 0.463951 0.814484
O O14 0.750000 0.460655 0.500000
O O15 0.735474 0.904007 0.180703
O O16 0.750000 0.986794 0.000000
O O17 0.750000 0.750000 0.808872
O O18 0.890552 0.816695 0.856647
O O19 0.750000 0.824393 0.000000
#
# Coordination Sequence:
#
# PCOD9396091 Si02
#       8
#     8   8   8   8   8   8   8   8
#     4  12  23  40  68  94 131 171 218 282 324 395
#     4  10  23  37  58  95 138 173 213 263 329 411
#     4  10  20  32  55  94 133 168 200 251 324 405
#     4  12  22  42  67  99 130 180 222 270 336 398
#     4  11  19  33  62  96 130 162 211 266 333 399
#     4  11  26  47  68  98 128 175 238 280 328 389
#     4  10  23  42  62  93 133 166 212 277 340 396
#     4  11  23  39  60  93 132 169 213 265 332 395
#
# _framework density 20.037009999999999
#
# number of rings (size 3 to 8) (size 9 to 14) (size 15 to 20)
#    0.000    1.125    5.000    1.875    5.250    2.250 
#    0.000    0.625    0.000    0.750    0.000    0.000 
#    0.000    0.000    0.000    0.000    0.000    0.000 
#
# Total GULP energy -356986.523930 kJ/mol
# GULP energy per Si atom -5577.914436 kJ/mol
# Density = 1.999140 g / cm^3
# Si number density = 20.037010 Si / 1000 Ang^3
#
#
#
# Elastic Constant Matrix: (Units=GPa)
#
#
# Indices 1 2 3 4 5 6 
#
# 1 83.5113 24.9951 19.8141 0.0000 0.0000 0.0000
# 2 24.9951 124.5787 17.4959 0.0000 0.0000 0.0000
# 3 19.8141 17.4959 57.1241 0.0000 0.0000 0.0000
# 4 0.0000 0.0000 0.0000 16.8650 0.0000 0.0000
# 5 0.0000 0.0000 0.0000 0.0000 -12.2786 0.0000
# 6 0.0000 0.0000 0.0000 0.0000 0.0000 -74.3821
#
#
#
# Elastic Compliance Matrix: (Units=1/GPa)
#
#
# Indices 1 2 3 4 5 6 
#
# 1 0.013581 -0.002156 -0.004050 0.000000 0.000000 0.000000
# 2 -0.002156 0.008730 -0.001926 0.000000 0.000000 0.000000
# 3 -0.004050 -0.001926 0.019501 0.000000 0.000000 0.000000
# 4 0.000000 0.000000 0.000000 0.059295 0.000000 0.000000
# 5 0.000000 0.000000 0.000000 0.000000 -0.081443 0.000000
# 6 0.000000 0.000000 0.000000 0.000000 0.000000 -0.013444
#
#
# Mechanical properties :
#
#
# Convention : Reuss Voigt Hill
#
# Bulk Modulus (GPa) = 39.14388 43.31381 41.22885
# Shear Modulus (GPa) = 161.29428 -0.43188 80.43120
#
# Velocity S-wave (km/s) = 8.98181 -0.46477 6.34259
# Velocity P-wave (km/s) = 11.27573 4.62340 8.61736
#
# Compressibility (1/GPa) = 0.02554678
#
# Stress axis : x y z
#
# Youngs Moduli (GPa) = 73.63391 114.54609 51.28068
#
# Poissons Ratio (x) = 0.24696 0.20770
# Poissons Ratio (y) = 0.15875 0.09877
# Poissons Ratio (z) = 0.29824 0.22062
#
# Static dielectric constant tensor:
#      x y z
#    x 1.599330 0.000000 0.000000 
#    y 0.000000 1.752880 0.000000 
#    z 0.000000 0.000000 1.720510 
# 
# From -- ./inp_files/21332.got.cif
#   From: 2010.05.17/outbox.cif.g08.bks.cpg/sg50_11_cif.got.tgz:21332.got - 2010.06.03 11:33:33.
