data_PCOD9396013
_publ_section_title
;
Structure prediction by ZEFSAII (Michael W. Deem and Ramdas Pophale) SiO2 
 PCOD9396013
Probable space group: P B A N
;
_chemical_formula_sum "Si O2"
_cell_formula_units_Z 58
_cell_length_a 21.230413
_cell_length_b 14.683358
_cell_length_c 8.967548
_cell_angle_alpha 90.000000
_cell_angle_beta 90.000000
_cell_angle_gamma 90.000000
_cell_volume 2795.487407
_symmetry_space_group_name_H-M "P B A N"
_symmetry_group_IT_number 50
_space_group.IT_coordinate_system_code '2'
_symmetry_cell_setting 'orthorhombic'
loop_
_space_group_symop_operation_xyz
x,y,z
1/2-x,1/2-y,z
x,1/2-y,-z
1/2-x,y,-z
-x,-y,-z
1/2+x,1/2+y,-z
-x,1/2+y,z
1/2+x,-y,z
loop_
_atom_site_type_symbol
_atom_site_label
_atom_site_fract_x
_atom_site_fract_y
_atom_site_fract_z
Si Si1 0.250000 0.250000 0.000000
Si Si2 0.267287 0.586107 0.833848
Si Si3 0.937956 0.313576 0.142696
Si Si4 0.819611 0.591277 0.162337
Si Si5 0.669947 0.326467 0.623109
Si Si6 0.474753 0.068077 0.298530
Si Si7 0.394630 0.525064 0.938152
Si Si8 0.897087 0.516553 0.429351
O O1 0.209637 0.314421 0.890145
O O2 0.234633 0.486375 0.822936
O O3 0.233441 0.646862 0.710986
O O4 0.341832 0.573612 0.835985
O O5 0.250000 0.621399 0.000000
O O6 0.881513 0.290775 0.255916
O O7 0.000501 0.334912 0.237983
O O8 0.947295 0.250000 0.000000
O O9 0.915418 0.407440 0.067586
O O10 0.860711 0.581287 0.312521
O O11 0.861822 0.557724 0.023722
O O12 0.676207 0.250000 0.500000
O O13 0.643536 0.422980 0.557273
O O14 0.418410 0.065938 0.418759
O O15 0.451027 0.008945 0.160761
O O16 0.536654 0.019370 0.363620
#
# Coordination Sequence:
#
# PCOD9396013 Si02
#       8
#     2   8   8   8   8   8   8   8
#     4  12  20  36  76 110 130 168 238 300 322 412
#     4   9  16  38  65  88 132 181 209 263 339 398
#     4  11  23  39  63  97 132 174 225 285 325 396
#     4  10  19  37  66 100 129 168 223 274 337 394
#     4  10  20  38  66  95 135 176 226 272 333 407
#     4  10  21  39  67  91 123 183 222 263 331 411
#     4  11  19  39  68  94 130 180 221 265 342 405
#     4   9  20  41  66  88 133 182 214 270 350 402
#
# _framework density 20.747724999999999
#
# number of rings (size 3 to 8) (size 9 to 14) (size 15 to 20)
#    0.000    1.931    7.586    0.414    1.931    0.000 
#    1.241    4.138   15.172    0.828    0.000    0.000 
#    0.000    0.000    0.000    0.000    0.000    0.000 
#
# Total GULP energy -323899.265012 kJ/mol
# GULP energy per Si atom -5584.470086 kJ/mol
# Density = 2.070050 g / cm^3
# Si number density = 20.747725 Si / 1000 Ang^3
#
#
#
# Elastic Constant Matrix: (Units=GPa)
#
#
# Indices 1 2 3 4 5 6 
#
# 1 77.6598 37.3815 51.8597 0.0000 0.0000 0.0000
# 2 37.3815 103.3003 69.8779 0.0000 0.0000 0.0000
# 3 51.8597 69.8779 133.4805 0.0000 0.0000 0.0000
# 4 0.0000 0.0000 0.0000 43.2578 0.0000 0.0000
# 5 0.0000 0.0000 0.0000 0.0000 36.5083 0.0000
# 6 0.0000 0.0000 0.0000 0.0000 0.0000 3.5066
#
#
#
# Elastic Compliance Matrix: (Units=1/GPa)
#
#
# Indices 1 2 3 4 5 6 
#
# 1 0.017876 -0.002742 -0.005510 0.000000 0.000000 0.000000
# 2 -0.002742 0.015409 -0.007001 0.000000 0.000000 0.000000
# 3 -0.005510 -0.007001 0.013298 0.000000 0.000000 0.000000
# 4 0.000000 0.000000 0.000000 0.023117 0.000000 0.000000
# 5 0.000000 0.000000 0.000000 0.000000 0.027391 0.000000
# 6 0.000000 0.000000 0.000000 0.000000 0.000000 0.285178
#
#
# Mechanical properties :
#
#
# Convention : Reuss Voigt Hill
#
# Bulk Modulus (GPa) = 62.20261 70.29765 66.25013
# Shear Modulus (GPa) = 11.95792 27.00929 19.48361
#
# Velocity S-wave (km/s) = 2.40333 3.61195 3.06775
# Velocity P-wave (km/s) = 6.14385 7.16593 6.67448
#
# Compressibility (1/GPa) = 0.01607650
#
# Stress axis : x y z
#
# Youngs Moduli (GPa) = 55.94190 64.89813 75.20101
#
# Poissons Ratio (x) = 0.17792 0.41434
# Poissons Ratio (y) = 0.15337 0.52651
# Poissons Ratio (z) = 0.30823 0.45438
#
# Static dielectric constant tensor:
#      x y z
#    x 1.773120 0.000000 0.000000 
#    y 0.000000 1.770610 0.000000 
#    z 0.000000 0.000000 1.579950 
# 
# From -- ./inp_files/16098.got.cif
#   From: 2010.05.17/outbox.cif.g08.bks.cpg/sg50_9_cif.got.tgz:16098.got - 2010.06.03 11:33:33.
