data_PCOD9396563
_publ_section_title
;
Structure prediction by ZEFSAII (Michael W. Deem and Ramdas Pophale) SiO2 
 PCOD9396563
Probable space group: P B A N
;
_chemical_formula_sum "Si O2"
_cell_formula_units_Z 38
_cell_length_a 9.214929
_cell_length_b 16.528536
_cell_length_c 12.375377
_cell_angle_alpha 90.000000
_cell_angle_beta 90.000000
_cell_angle_gamma 90.000000
_cell_volume 1884.884831
_symmetry_space_group_name_H-M "P B A N"
_symmetry_group_IT_number 50
_space_group.IT_coordinate_system_code '2'
_symmetry_cell_setting 'orthorhombic'
loop_
_space_group_symop_operation_xyz
x,y,z
1/2-x,1/2-y,z
x,1/2-y,-z
1/2-x,y,-z
-x,-y,-z
1/2+x,1/2+y,-z
-x,1/2+y,z
1/2+x,-y,z
loop_
_atom_site_type_symbol
_atom_site_label
_atom_site_fract_x
_atom_site_fract_y
_atom_site_fract_z
Si Si1 0.513347 0.427936 0.861180
Si Si2 0.250000 0.025374 0.000000
Si Si3 0.250000 0.250000 0.500000
Si Si4 0.119193 0.981456 0.660890
Si Si5 0.841099 0.166647 0.685786
Si Si6 0.434486 0.116182 0.495111
O O1 0.372110 0.421748 0.938028
O O2 0.456023 0.490248 0.770126
O O3 0.565192 0.348932 0.794739
O O4 0.649912 0.467766 0.923760
O O5 0.354023 0.188040 0.558121
O O6 0.240586 0.913985 0.679112
O O7 0.003285 0.939948 0.583626
O O8 0.156681 0.061675 0.591031
O O9 0.750000 0.250000 0.686007
O O10 0.943783 0.157795 0.581033
#
# Coordination Sequence:
#
# PCOD9396563 Si02
#       6
#     8   4   2   8   8   8
#     4  10  21  38  68  96 123 168 216 276 323 400
#     4  10  20  40  67  97 120 160 224 272 342 389
#     4  12  24  36  50  96 126 178 200 278 312 368
#     4  10  21  39  62  90 124 174 219 255 317 403
#     4  11  22  40  62  96 125 173 219 264 324 392
#     4  10  24  35  59  89 134 172 211 261 322 391
#
# _framework density 20.160382999999999
#
# number of rings (size 3 to 8) (size 9 to 14) (size 15 to 20)
#    0.000    1.684    2.105    1.895    8.842    0.842 
#    0.000    0.526    0.000    1.263    0.000    0.000 
#    0.000    0.000    0.000    0.000    0.000    0.000 
#
# Total GULP energy -211715.682569 kJ/mol
# GULP energy per Si atom -5571.465331 kJ/mol
# Density = 2.011450 g / cm^3
# Si number density = 20.160383 Si / 1000 Ang^3
#
#
#
# Elastic Constant Matrix: (Units=GPa)
#
#
# Indices 1 2 3 4 5 6 
#
# 1 107.7402 54.9346 42.4529 0.0000 0.0000 0.0000
# 2 54.9346 120.2990 27.4519 0.0000 0.0000 0.0000
# 3 42.4529 27.4519 92.6383 0.0000 0.0000 0.0000
# 4 0.0000 0.0000 0.0000 48.6203 0.0000 0.0000
# 5 0.0000 0.0000 0.0000 0.0000 24.9974 0.0000
# 6 0.0000 0.0000 0.0000 0.0000 0.0000 47.3541
#
#
#
# Elastic Compliance Matrix: (Units=1/GPa)
#
#
# Indices 1 2 3 4 5 6 
#
# 1 0.013833 -0.005223 -0.004791 0.000000 0.000000 0.000000
# 2 -0.005223 0.010888 -0.000833 0.000000 0.000000 0.000000
# 3 -0.004791 -0.000833 0.013237 0.000000 0.000000 0.000000
# 4 0.000000 0.000000 0.000000 0.020568 0.000000 0.000000
# 5 0.000000 0.000000 0.000000 0.000000 0.040004 0.000000
# 6 0.000000 0.000000 0.000000 0.000000 0.000000 0.021117
#
#
# Mechanical properties :
#
#
# Convention : Reuss Voigt Hill
#
# Bulk Modulus (GPa) = 61.48909 63.37293 62.43101
# Shear Modulus (GPa) = 34.06859 37.25023 35.65941
#
# Velocity S-wave (km/s) = 4.11527 4.30315 4.21026
# Velocity P-wave (km/s) = 7.29018 7.49613 7.39388
#
# Compressibility (1/GPa) = 0.01626305
#
# Stress axis : x y z
#
# Youngs Moduli (GPa) = 72.29205 91.84485 75.54531
#
# Poissons Ratio (x) = 0.47974 0.36195
# Poissons Ratio (y) = 0.37761 0.06291
# Poissons Ratio (z) = 0.34637 0.07648
#
# Static dielectric constant tensor:
#      x y z
#    x 1.872540 0.000000 0.000000 
#    y 0.000000 1.709430 0.000000 
#    z 0.000000 0.000000 1.748160 
# 
# From -- ./inp_files/18796.got.cif
#   From: 2010.05.17/outbox.cif.g08.bks.cpg/sg50_10_cif.got.tgz:18796.got - 2010.06.03 11:33:33.
