data_PCOD9396735
_publ_section_title
;
Structure prediction by ZEFSAII (Michael W. Deem and Ramdas Pophale) SiO2 
 PCOD9396735
Probable space group: P B A N
;
_chemical_formula_sum "Si O2"
_cell_formula_units_Z 40
_cell_length_a 11.808689
_cell_length_b 16.025052
_cell_length_c 8.980235
_cell_angle_alpha 90.000000
_cell_angle_beta 90.000000
_cell_angle_gamma 90.000000
_cell_volume 1699.373471
_symmetry_space_group_name_H-M "P B A N"
_symmetry_group_IT_number 50
_space_group.IT_coordinate_system_code '2'
_symmetry_cell_setting 'orthorhombic'
loop_
_space_group_symop_operation_xyz
x,y,z
1/2-x,1/2-y,z
x,1/2-y,-z
1/2-x,y,-z
-x,-y,-z
1/2+x,1/2+y,-z
-x,1/2+y,z
1/2+x,-y,z
loop_
_atom_site_type_symbol
_atom_site_label
_atom_site_fract_x
_atom_site_fract_y
_atom_site_fract_z
Si Si1 0.846532 0.076245 0.377440
Si Si2 0.535094 0.668824 0.084520
Si Si3 0.315393 0.598456 0.140977
Si Si4 0.798292 0.621016 0.658515
Si Si5 0.071757 0.071658 0.210565
O O1 0.750000 0.098503 0.500000
O O2 0.790022 0.122695 0.239600
O O3 0.980165 0.090167 0.341867
O O4 0.835305 0.975594 0.366707
O O5 0.401575 0.672709 0.116600
O O6 0.603071 0.658407 0.238498
O O7 0.576571 0.750000 0.000000
O O8 0.539220 0.595145 0.959032
O O9 0.391357 0.525510 0.215850
O O10 0.250000 0.560436 0.000000
O O11 0.750000 0.653018 0.500000
O O12 0.686480 0.620768 0.758762
#
# Coordination Sequence:
#
# PCOD9396735 Si02
#       5
#     8   8   8   8   8
#     4  10  21  36  65 101 131 162 212 287 340 388
#     4  12  25  42  63  91 132 176 220 269 331 406
#     4  11  21  38  66  93 125 167 225 276 326 395
#     4  10  23  39  66  98 127 166 216 275 332 396
#     4  11  21  40  65  95 130 169 219 274 337 391
#
# _framework density 23.538087000000001
#
# number of rings (size 3 to 8) (size 9 to 14) (size 15 to 20)
#    0.000    1.200    4.000    3.600    2.800    4.400 
#    0.000    2.000    0.000    1.200    0.000    0.000 
#    0.000    0.000    0.000    0.000    0.000    0.000 
#
# Total GULP energy -222687.429761 kJ/mol
# GULP energy per Si atom -5567.185744 kJ/mol
# Density = 2.348451 g / cm^3
# Si number density = 23.538087 Si / 1000 Ang^3
#
#
#
# Elastic Constant Matrix: (Units=GPa)
#
#
# Indices 1 2 3 4 5 6 
#
# 1 124.3169 5.6804 15.2429 0.0000 0.0000 0.0000
# 2 5.6804 38.7618 6.5871 0.0000 0.0000 0.0000
# 3 15.2429 6.5871 60.6586 0.0000 0.0000 0.0000
# 4 0.0000 0.0000 0.0000 305.4378 0.0000 0.0000
# 5 0.0000 0.0000 0.0000 0.0000 46.6518 0.0000
# 6 0.0000 0.0000 0.0000 0.0000 0.0000 3.1558
#
#
#
# Elastic Compliance Matrix: (Units=1/GPa)
#
#
# Indices 1 2 3 4 5 6 
#
# 1 0.008329 -0.000881 -0.001997 0.000000 0.000000 0.000000
# 2 -0.000881 0.026377 -0.002643 0.000000 0.000000 0.000000
# 3 -0.001997 -0.002643 0.017275 0.000000 0.000000 0.000000
# 4 0.000000 0.000000 0.000000 0.003274 0.000000 0.000000
# 5 0.000000 0.000000 0.000000 0.000000 0.021435 0.000000
# 6 0.000000 0.000000 0.000000 0.000000 0.000000 0.316878
#
#
# Mechanical properties :
#
#
# Convention : Reuss Voigt Hill
#
# Bulk Modulus (GPa) = 24.42735 30.97313 27.70024
# Shear Modulus (GPa) = 11.95438 84.13087 48.04262
#
# Velocity S-wave (km/s) = 2.25605 5.98498 4.52271
# Velocity P-wave (km/s) = 4.14568 7.80688 6.25036
#
# Compressibility (1/GPa) = 0.04093771
#
# Stress axis : x y z
#
# Youngs Moduli (GPa) = 120.06062 37.91206 57.88841
#
# Poissons Ratio (x) = 0.03341 0.11562
# Poissons Ratio (y) = 0.10579 0.15299
# Poissons Ratio (z) = 0.23980 0.10020
#
# Static dielectric constant tensor:
#      x y z
#    x 3.086830 0.000000 0.000000 
#    y 0.000000 1.919210 0.000000 
#    z 0.000000 0.000000 2.524020 
# 
# From -- ./inp_files/11023.got.cif
#   From: 2010.05.17/outbox.cif.g08.bks.cpg/sg50_6_cif.got.tgz:11023.got - 2010.06.03 11:33:33.
