data_PCOD9396938
_publ_section_title
;
Structure prediction by ZEFSAII (Michael W. Deem and Ramdas Pophale) SiO2 
 PCOD9396938
Probable space group: P B A N
;
_chemical_formula_sum "Si O2"
_cell_formula_units_Z 56
_cell_length_a 20.320250
_cell_length_b 13.506153
_cell_length_c 8.467888
_cell_angle_alpha 90.000000
_cell_angle_beta 90.000000
_cell_angle_gamma 90.000000
_cell_volume 2323.998360
_symmetry_space_group_name_H-M "P B A N"
_symmetry_group_IT_number 50
_space_group.IT_coordinate_system_code '2'
_symmetry_cell_setting 'orthorhombic'
loop_
_space_group_symop_operation_xyz
x,y,z
1/2-x,1/2-y,z
x,1/2-y,-z
1/2-x,y,-z
-x,-y,-z
1/2+x,1/2+y,-z
-x,1/2+y,z
1/2+x,-y,z
loop_
_atom_site_type_symbol
_atom_site_label
_atom_site_fract_x
_atom_site_fract_y
_atom_site_fract_z
Si Si1 0.249070 0.073442 0.691936
Si Si2 0.893766 0.559534 0.383116
Si Si3 0.504993 0.235534 0.814658
Si Si4 0.387412 0.342106 0.708409
Si Si5 0.262212 0.640986 0.307380
Si Si6 0.524177 0.022180 0.823097
Si Si7 0.898662 0.152764 0.603409
O O1 0.250000 0.074910 0.500000
O O2 0.327660 0.082287 0.717701
O O3 0.191085 0.148461 0.740695
O O4 0.230545 0.961745 0.746904
O O5 0.897838 0.639750 0.521570
O O6 0.894001 0.453364 0.481115
O O7 0.957556 0.534396 0.280578
O O8 0.427828 0.246402 0.768252
O O9 0.547083 0.135297 0.795325
O O10 0.537421 0.317282 0.701159
O O11 0.507612 0.250000 0.000000
O O12 0.424171 0.436535 0.786236
O O13 0.250000 0.750000 0.244467
O O14 0.250000 0.642857 0.500000
O O15 0.339812 0.633817 0.275890
O O16 0.500000 0.000000 0.000000
O O17 0.884011 0.250000 0.500000
#
# Coordination Sequence:
#
# PCOD9396938 Si02
#       7
#     8   8   8   8   8   8   8
#     4   8  18  34  59  86 125 161 202 268 326 373
#     4  10  21  40  62  97 125 165 218 273 331 388
#     4  12  26  41  59  89 128 170 219 263 330 397
#     4  11  22  41  65  94 128 168 216 272 330 395
#     4   9  15  27  48  88 124 153 195 246 311 378
#     4  12  24  42  64  87 132 173 213 272 331 389
#     4  11  20  33  60  94 126 162 207 262 322 397
#
# _framework density 24.096401
#
# number of rings (size 3 to 8) (size 9 to 14) (size 15 to 20)
#    0.000    1.571    4.286    2.143    4.000    0.000 
#    0.000    1.429    0.000    3.857    0.000    0.000 
#    0.000    0.000    0.000    0.000    0.000    0.000 
#
# Total GULP energy -311735.849654 kJ/mol
# GULP energy per Si atom -5566.711601 kJ/mol
# Density = 2.404156 g / cm^3
# Si number density = 24.096401 Si / 1000 Ang^3
#
#
#
# Elastic Constant Matrix: (Units=GPa)
#
#
# Indices 1 2 3 4 5 6 
#
# 1 102.9078 -0.0250 19.7914 0.0000 0.0000 0.0000
# 2 -0.0250 86.8131 5.6223 0.0000 0.0000 0.0000
# 3 19.7914 5.6223 24.8525 0.0000 0.0000 0.0000
# 4 0.0000 0.0000 0.0000 13.3246 0.0000 0.0000
# 5 0.0000 0.0000 0.0000 0.0000 -3.0456 0.0000
# 6 0.0000 0.0000 0.0000 0.0000 0.0000 24.9738
#
#
#
# Elastic Compliance Matrix: (Units=1/GPa)
#
#
# Indices 1 2 3 4 5 6 
#
# 1 0.011506 0.000606 -0.009300 0.000000 0.000000 0.000000
# 2 0.000606 0.011722 -0.003134 0.000000 0.000000 0.000000
# 3 -0.009300 -0.003134 0.048353 0.000000 0.000000 0.000000
# 4 0.000000 0.000000 0.000000 0.075049 0.000000 0.000000
# 5 0.000000 0.000000 0.000000 0.000000 -0.328343 0.000000
# 6 0.000000 0.000000 0.000000 0.000000 0.000000 0.040042
#
#
# Mechanical properties :
#
#
# Convention : Reuss Voigt Hill
#
# Bulk Modulus (GPa) = 20.86647 29.48344 25.17495
# Shear Modulus (GPa) = -49.00085 19.66286 -14.66899
#
# Velocity S-wave (km/s) = -4.51436 2.85968 -2.46999
# Velocity P-wave (km/s) = 4.30050 4.81310 1.52834
#
# Compressibility (1/GPa) = 0.04792378
#
# Stress axis : x y z
#
# Youngs Moduli (GPa) = 86.90974 85.30859 20.68140
#
# Poissons Ratio (x) = -0.05166 0.19234
# Poissons Ratio (y) = -0.05263 0.06482
# Poissons Ratio (z) = 0.80826 0.26737
#
# Static dielectric constant tensor:
#      x y z
#    x 2.054110 0.000000 0.000000 
#    y 0.000000 2.183610 0.000000 
#    z 0.000000 0.000000 1.948060 
# 
# From -- ./inp_files/15359.got.cif
#   From: 2010.05.17/outbox.cif.g08.bks.cpg/sg50_8_cif.got.tgz:15359.got - 2010.06.03 11:33:33.
