data_PCOD9396343
_publ_section_title
;
Structure prediction by ZEFSAII (Michael W. Deem and Ramdas Pophale) SiO2 
 PCOD9396343
Probable space group: P B A N
;
_chemical_formula_sum "Si O2"
_cell_formula_units_Z 48
_cell_length_a 5.157572
_cell_length_b 28.306591
_cell_length_c 14.217520
_cell_angle_alpha 90.000000
_cell_angle_beta 90.000000
_cell_angle_gamma 90.000000
_cell_volume 2075.662395
_symmetry_space_group_name_H-M "P B A N"
_symmetry_group_IT_number 50
_space_group.IT_coordinate_system_code '2'
_symmetry_cell_setting 'orthorhombic'
loop_
_space_group_symop_operation_xyz
x,y,z
1/2-x,1/2-y,z
x,1/2-y,-z
1/2-x,y,-z
-x,-y,-z
1/2+x,1/2+y,-z
-x,1/2+y,z
1/2+x,-y,z
loop_
_atom_site_type_symbol
_atom_site_label
_atom_site_fract_x
_atom_site_fract_y
_atom_site_fract_z
Si Si1 0.997810 0.716863 0.294417
Si Si2 0.665548 0.979757 0.395911
Si Si3 0.491812 0.114955 0.215001
Si Si4 0.748595 0.193616 0.107629
Si Si5 0.007038 0.882643 0.664799
Si Si6 0.764921 0.473638 0.112784
O O1 0.750000 0.750000 0.295230
O O2 0.965940 0.671997 0.363411
O O3 0.250000 0.750000 0.311029
O O4 0.037597 0.692217 0.191367
O O5 0.750000 0.996393 0.500000
O O6 0.559296 0.926611 0.401741
O O7 0.444852 0.011831 0.348141
O O8 0.522050 0.164378 0.158818
O O9 0.204689 0.107507 0.252915
O O10 0.611443 0.074524 0.149602
O O11 0.695606 0.115819 0.301693
O O12 0.750000 0.250000 0.096732
O O13 0.750000 0.175156 0.000000
O O14 0.472141 0.486044 0.141608
O O15 0.750000 0.471552 0.000000
#
# Coordination Sequence:
#
# PCOD9396343 Si02
#       6
#     8   8   8   8   8   8
#     4  10  20  37  56  80 112 146 190 238 283 332
#     4  10  22  40  62  90 121 149 179 221 277 340
#     4  11  22  35  53  80 109 140 186 234 277 328
#     4   9  18  34  52  74 104 142 185 234 284 329
#     4  11  22  36  58  84 110 146 184 224 280 337
#     4  10  21  36  51  69 100 144 187 229 280 330
#
# _framework density 23.125146000000001
#
# number of rings (size 3 to 8) (size 9 to 14) (size 15 to 20)
#    0.000    1.833    0.000    5.500    0.000    4.000 
#    0.000   25.000    0.000    0.500    0.000    4.667 
#    0.000    0.000    0.000    0.000    0.000    0.000 
#
# Total GULP energy -267390.038116 kJ/mol
# GULP energy per Si atom -5570.625794 kJ/mol
# Density = 2.307251 g / cm^3
# Si number density = 23.125146 Si / 1000 Ang^3
#
#
#
# Elastic Constant Matrix: (Units=GPa)
#
#
# Indices 1 2 3 4 5 6 
#
# 1 106.5365 36.8516 -7.2950 0.0000 0.0000 0.0000
# 2 36.8516 131.6804 8.5519 0.0000 0.0000 0.0000
# 3 -7.2950 8.5519 24.5389 0.0000 0.0000 0.0000
# 4 0.0000 0.0000 0.0000 29.5207 0.0000 0.0000
# 5 0.0000 0.0000 0.0000 0.0000 6.5354 0.0000
# 6 0.0000 0.0000 0.0000 0.0000 0.0000 45.9075
#
#
#
# Elastic Compliance Matrix: (Units=1/GPa)
#
#
# Indices 1 2 3 4 5 6 
#
# 1 0.010833 -0.003316 0.004376 0.000000 0.000000 0.000000
# 2 -0.003316 0.008785 -0.004047 0.000000 0.000000 0.000000
# 3 0.004376 -0.004047 0.043463 0.000000 0.000000 0.000000
# 4 0.000000 0.000000 0.000000 0.033875 0.000000 0.000000
# 5 0.000000 0.000000 0.000000 0.000000 0.153013 0.000000
# 6 0.000000 0.000000 0.000000 0.000000 0.000000 0.021783
#
#
# Mechanical properties :
#
#
# Convention : Reuss Voigt Hill
#
# Bulk Modulus (GPa) = 17.51104 37.66363 27.58733
# Shear Modulus (GPa) = 16.84852 31.36921 24.10886
#
# Velocity S-wave (km/s) = 2.70215 3.68706 3.23234
# Velocity P-wave (km/s) = 4.16224 5.86925 5.08785
#
# Compressibility (1/GPa) = 0.05710684
#
# Stress axis : x y z
#
# Youngs Moduli (GPa) = 92.30965 113.83069 23.00804
#
# Poissons Ratio (x) = 0.37745 -0.10069
# Poissons Ratio (y) = 0.30609 0.09312
# Poissons Ratio (z) = -0.40396 0.46071
#
# Static dielectric constant tensor:
#      x y z
#    x 1.927760 0.000000 0.000000 
#    y 0.000000 3.221060 0.000000 
#    z 0.000000 0.000000 1.967450 
# 
# From -- ./inp_files/24070.got.cif
#   From: 2010.05.17/outbox.cif.g08.bks.cpg/sg50_13_cif.got.tgz:24070.got - 2010.06.03 11:33:33.
