data_PCOD9396715
_publ_section_title
;
Structure prediction by ZEFSAII (Michael W. Deem and Ramdas Pophale) SiO2 
 PCOD9396715
Probable space group: P B A N
;
_chemical_formula_sum "Si O2"
_cell_formula_units_Z 58
_cell_length_a 5.208110
_cell_length_b 29.423853
_cell_length_c 16.358664
_cell_angle_alpha 90.000000
_cell_angle_beta 90.000000
_cell_angle_gamma 90.000000
_cell_volume 2506.845235
_symmetry_space_group_name_H-M "P B A N"
_symmetry_group_IT_number 50
_space_group.IT_coordinate_system_code '2'
_symmetry_cell_setting 'orthorhombic'
loop_
_space_group_symop_operation_xyz
x,y,z
1/2-x,1/2-y,z
x,1/2-y,-z
1/2-x,y,-z
-x,-y,-z
1/2+x,1/2+y,-z
-x,1/2+y,z
1/2+x,-y,z
loop_
_atom_site_type_symbol
_atom_site_label
_atom_site_fract_x
_atom_site_fract_y
_atom_site_fract_z
Si Si1 0.926542 0.121490 0.388683
Si Si2 0.855979 0.526137 0.192695
Si Si3 0.250000 0.750000 0.500000
Si Si4 0.658800 0.800423 0.775978
Si Si5 0.445089 0.622327 0.795922
Si Si6 0.544223 0.677024 0.394615
Si Si7 0.679051 0.301617 0.906138
Si Si8 0.142741 0.474174 0.608287
O O1 0.840909 0.109558 0.293602
O O2 0.651891 0.137682 0.421015
O O3 0.050018 0.075092 0.419485
O O4 0.157671 0.159754 0.399487
O O5 0.074554 0.490217 0.166545
O O6 0.944803 0.576306 0.165336
O O7 0.849225 0.527155 0.291779
O O8 0.444578 0.719573 0.446297
O O9 0.750000 0.750000 0.757856
O O10 0.469797 0.809471 0.699781
O O11 0.609484 0.801545 0.873871
O O12 0.834203 0.843755 0.768272
O O13 0.284649 0.655071 0.855856
O O14 0.750000 0.250000 0.877085
O O15 0.750000 0.304933 0.000000
O O16 0.926381 0.510660 0.584443
#
# Coordination Sequence:
#
# PCOD9396715 Si02
#       8
#     8   8   2   8   8   8   8   8
#     4  10  21  39  63  94 129 172 215 265 324 381
#     4   9  19  32  54  86 123 161 209 269 322 372
#     4  12  32  46  68  94 134 174 224 262 332 382
#     4  11  23  40  66  91 128 170 219 270 323 390
#     4  10  21  36  60  89 124 171 214 268 323 388
#     4  11  26  42  65  92 128 173 217 266 317 383
#     4  11  23  39  60  92 130 170 217 272 330 393
#     4   9  16  29  55  92 129 158 202 264 321 376
#
# _framework density 23.136651000000001
#
# number of rings (size 3 to 8) (size 9 to 14) (size 15 to 20)
#    0.000    1.793    2.759    0.828    6.759    4.966 
#    0.000    0.000    0.000    0.828    0.000    9.655 
#    0.000    0.000    0.000    0.000    0.000    0.000 
#
# Total GULP energy -322984.981206 kJ/mol
# GULP energy per Si atom -5568.706573 kJ/mol
# Density = 2.308399 g / cm^3
# Si number density = 23.136651 Si / 1000 Ang^3
#
#
#
# Elastic Constant Matrix: (Units=GPa)
#
#
# Indices 1 2 3 4 5 6 
#
# 1 39.0015 -27.9325 2.6792 0.0000 0.0000 0.0000
# 2 -27.9325 71.7747 6.4988 0.0000 0.0000 0.0000
# 3 2.6792 6.4988 53.4779 0.0000 0.0000 0.0000
# 4 0.0000 0.0000 0.0000 21.5277 0.0000 0.0000
# 5 0.0000 0.0000 0.0000 0.0000 13.7925 0.0000
# 6 0.0000 0.0000 0.0000 0.0000 0.0000 16.2724
#
#
#
# Elastic Compliance Matrix: (Units=1/GPa)
#
#
# Indices 1 2 3 4 5 6 
#
# 1 0.036208 0.014414 -0.003566 0.000000 0.000000 0.000000
# 2 0.014414 0.019825 -0.003131 0.000000 0.000000 0.000000
# 3 -0.003566 -0.003131 0.019258 0.000000 0.000000 0.000000
# 4 0.000000 0.000000 0.000000 0.046452 0.000000 0.000000
# 5 0.000000 0.000000 0.000000 0.000000 0.072503 0.000000
# 6 0.000000 0.000000 0.000000 0.000000 0.000000 0.061454
#
#
# Mechanical properties :
#
#
# Convention : Reuss Voigt Hill
#
# Bulk Modulus (GPa) = 11.02220 14.08278 12.55249
# Shear Modulus (GPa) = 18.48367 22.51909 20.50138
#
# Velocity S-wave (km/s) = 2.82953 3.12317 2.97997
# Velocity P-wave (km/s) = 3.93056 4.37100 4.15662
#
# Compressibility (1/GPa) = 0.09072596
#
# Stress axis : x y z
#
# Youngs Moduli (GPa) = 27.61814 50.44018 51.92519
#
# Poissons Ratio (x) = -0.72704 0.18514
# Poissons Ratio (y) = -0.39809 0.16260
# Poissons Ratio (z) = 0.09847 0.15795
#
# Static dielectric constant tensor:
#      x y z
#    x 1.923070 0.000000 0.000000 
#    y 0.000000 1.865370 0.000000 
#    z 0.000000 0.000000 1.979210 
# 
# From -- ./inp_files/28371.got.cif
#   From: 2010.05.17/outbox.cif.g08.bks.cpg/sg50_15_cif.got.tgz:28371.got - 2010.06.03 11:33:33.
