data_PCOD9396972
_publ_section_title
;
Structure prediction by ZEFSAII (Michael W. Deem and Ramdas Pophale) SiO2 
 PCOD9396972
Probable space group: P B A N
;
_chemical_formula_sum "Si O2"
_cell_formula_units_Z 40
_cell_length_a 26.127797
_cell_length_b 4.848261
_cell_length_c 13.596051
_cell_angle_alpha 90.000000
_cell_angle_beta 90.000000
_cell_angle_gamma 90.000000
_cell_volume 1722.271320
_symmetry_space_group_name_H-M "P B A N"
_symmetry_group_IT_number 50
_space_group.IT_coordinate_system_code '2'
_symmetry_cell_setting 'orthorhombic'
loop_
_space_group_symop_operation_xyz
x,y,z
1/2-x,1/2-y,z
x,1/2-y,-z
1/2-x,y,-z
-x,-y,-z
1/2+x,1/2+y,-z
-x,1/2+y,z
1/2+x,-y,z
loop_
_atom_site_type_symbol
_atom_site_label
_atom_site_fract_x
_atom_site_fract_y
_atom_site_fract_z
Si Si1 0.032047 0.712732 0.313939
Si Si2 0.840775 0.801151 0.109619
Si Si3 0.875904 0.019994 0.567304
Si Si4 0.088370 0.805483 0.111292
Si Si5 0.284006 0.026647 0.713750
O O1 0.073470 0.837087 0.388118
O O2 0.051150 0.748523 0.201791
O O3 0.018970 0.394090 0.329084
O O4 0.892420 0.618173 0.116995
O O5 0.801259 0.680194 0.186467
O O6 0.860814 0.112196 0.123855
O O7 0.821053 0.750000 0.000000
O O8 0.849986 0.250000 0.500000
O O9 0.884307 0.750000 0.500000
O O10 0.837472 0.991205 0.657507
O O11 0.068924 0.750000 0.000000
O O12 0.250000 0.250000 0.656343
O O13 0.250000 0.750000 0.725798
#
# Coordination Sequence:
#
# PCOD9396972 Si02
#       5
#     8   8   8   8   8
#     4  12  26  43  72 104 138 179 233 288 350 419
#     4  10  21  41  69 100 139 188 224 274 338 414
#     4  12  28  48  73  98 137 183 230 296 355 405
#     4  10  21  40  69 100 140 186 230 273 340 413
#     4  12  26  44  74 105 138 179 232 285 346 418
#
# _framework density 23.225145000000001
#
# number of rings (size 3 to 8) (size 9 to 14) (size 15 to 20)
#    0.000    0.800    2.000    4.800    2.800    6.000 
#    0.000    1.000    0.000    0.000    0.000    0.000 
#    0.000    0.000    0.000    0.000    0.000    0.000 
#
# Total GULP energy -223696.399970 kJ/mol
# GULP energy per Si atom -5592.409999 kJ/mol
# Density = 2.317228 g / cm^3
# Si number density = 23.225145 Si / 1000 Ang^3
#
#
#
# Elastic Constant Matrix: (Units=GPa)
#
#
# Indices 1 2 3 4 5 6 
#
# 1 55.9535 -0.8665 34.1482 0.0000 0.0000 0.0000
# 2 -0.8665 93.0633 20.0036 0.0000 0.0000 0.0000
# 3 34.1482 20.0036 115.5815 0.0000 0.0000 0.0000
# 4 0.0000 0.0000 0.0000 31.5726 0.0000 0.0000
# 5 0.0000 0.0000 0.0000 0.0000 54.0035 0.0000
# 6 0.0000 0.0000 0.0000 0.0000 0.0000 21.9396
#
#
#
# Elastic Compliance Matrix: (Units=1/GPa)
#
#
# Indices 1 2 3 4 5 6 
#
# 1 0.022050 0.001668 -0.006803 0.000000 0.000000 0.000000
# 2 0.001668 0.011287 -0.002446 0.000000 0.000000 0.000000
# 3 -0.006803 -0.002446 0.011085 0.000000 0.000000 0.000000
# 4 0.000000 0.000000 0.000000 0.031673 0.000000 0.000000
# 5 0.000000 0.000000 0.000000 0.000000 0.018517 0.000000
# 6 0.000000 0.000000 0.000000 0.000000 0.000000 0.045580
#
#
# Mechanical properties :
#
#
# Convention : Reuss Voigt Hill
#
# Bulk Modulus (GPa) = 34.17816 41.24097 37.70957
# Shear Modulus (GPa) = 30.28327 35.59068 32.93698
#
# Velocity S-wave (km/s) = 3.61487 3.91886 3.76993
# Velocity P-wave (km/s) = 5.67195 6.18645 5.93478
#
# Compressibility (1/GPa) = 0.02925845
#
# Stress axis : x y z
#
# Youngs Moduli (GPa) = 45.35202 88.60010 90.21031
#
# Poissons Ratio (x) = -0.14775 0.61371
# Poissons Ratio (y) = -0.07563 0.22066
# Poissons Ratio (z) = 0.30854 0.21672
#
# Static dielectric constant tensor:
#      x y z
#    x 1.882500 0.000000 0.000000 
#    y 0.000000 1.851940 0.000000 
#    z 0.000000 0.000000 1.930820 
# 
# From -- ./inp_files/27385.got.cif
#   From: 2010.05.17/outbox.cif.g08.bks.cpg/sg50_14_cif.got.tgz:27385.got - 2010.06.03 11:33:33.
