data_PCOD9396216
_publ_section_title
;
Structure prediction by ZEFSAII (Michael W. Deem and Ramdas Pophale) SiO2 
 PCOD9396216
Probable space group: P B A N
;
_chemical_formula_sum "Si O2"
_cell_formula_units_Z 58
_cell_length_a 12.932617
_cell_length_b 27.939036
_cell_length_c 8.146770
_cell_angle_alpha 90.000000
_cell_angle_beta 90.000000
_cell_angle_gamma 90.000000
_cell_volume 2943.630464
_symmetry_space_group_name_H-M "P B A N"
_symmetry_group_IT_number 50
_space_group.IT_coordinate_system_code '2'
_symmetry_cell_setting 'orthorhombic'
loop_
_space_group_symop_operation_xyz
x,y,z
1/2-x,1/2-y,z
x,1/2-y,-z
1/2-x,y,-z
-x,-y,-z
1/2+x,1/2+y,-z
-x,1/2+y,z
1/2+x,-y,z
loop_
_atom_site_type_symbol
_atom_site_label
_atom_site_fract_x
_atom_site_fract_y
_atom_site_fract_z
Si Si1 0.546987 0.961333 0.626187
Si Si2 0.622394 0.697523 0.191831
Si Si3 0.250000 0.750000 0.500000
Si Si4 0.508681 0.615532 0.605015
Si Si5 0.601635 0.172382 0.336320
Si Si6 0.146438 0.188598 0.196071
Si Si7 0.645618 0.420376 0.823251
Si Si8 0.637712 0.045854 0.801622
O O1 0.581148 0.916323 0.515571
O O2 0.454219 0.939970 0.732200
O O3 0.500000 0.000000 0.500000
O O4 0.619771 0.991144 0.747505
O O5 0.515159 0.684151 0.277261
O O6 0.734535 0.677424 0.244370
O O7 0.630955 0.754639 0.218160
O O8 0.622575 0.683460 0.998635
O O9 0.324705 0.783721 0.612144
O O10 0.418679 0.640823 0.498984
O O11 0.571038 0.655844 0.700002
O O12 0.451984 0.578510 0.725186
O O13 0.647176 0.137065 0.197071
O O14 0.749645 0.439134 0.739083
O O15 0.639507 0.441389 0.006179
#
# Coordination Sequence:
#
# PCOD9396216 Si02
#       8
#     8   8   2   8   8   8   8   8
#     4   9  20  36  56  82 109 140 178 230 292 350
#     4   9  19  35  58  82 114 153 199 244 291 347
#     4  12  24  36  56  84 128 168 200 246 296 350
#     4  10  20  35  57  83 115 148 188 240 292 355
#     4  11  22  37  55  84 118 158 199 241 292 350
#     4   9  18  36  58  83 112 153 195 244 299 345
#     4  10  21  37  60  82 109 148 195 239 290 353
#     4  10  20  38  60  81 108 147 189 239 296 351
#
# _framework density 19.70356
#
# number of rings (size 3 to 8) (size 9 to 14) (size 15 to 20)
#    0.000    2.207    0.000    3.724    0.000    4.966 
#    0.000   12.414    0.000   16.552    0.000    0.000 
#    0.000    0.000    0.000    0.000    0.000    0.000 
#
# Total GULP energy -323189.462569 kJ/mol
# GULP energy per Si atom -5572.232113 kJ/mol
# Density = 1.965871 g / cm^3
# Si number density = 19.703560 Si / 1000 Ang^3
#
#
#
# Elastic Constant Matrix: (Units=GPa)
#
#
# Indices 1 2 3 4 5 6 
#
# 1 84.1132 30.0960 32.7026 0.0000 0.0000 0.0000
# 2 30.0960 86.9713 46.5611 0.0000 0.0000 0.0000
# 3 32.7026 46.5611 65.5813 0.0000 0.0000 0.0000
# 4 0.0000 0.0000 0.0000 36.0210 0.0000 0.0000
# 5 0.0000 0.0000 0.0000 0.0000 9.6330 0.0000
# 6 0.0000 0.0000 0.0000 0.0000 0.0000 28.6931
#
#
#
# Elastic Compliance Matrix: (Units=1/GPa)
#
#
# Indices 1 2 3 4 5 6 
#
# 1 0.014941 -0.001906 -0.006097 0.000000 0.000000 0.000000
# 2 -0.001906 0.018791 -0.012391 0.000000 0.000000 0.000000
# 3 -0.006097 -0.012391 0.027086 0.000000 0.000000 0.000000
# 4 0.000000 0.000000 0.000000 0.027762 0.000000 0.000000
# 5 0.000000 0.000000 0.000000 0.000000 0.103809 0.000000
# 6 0.000000 0.000000 0.000000 0.000000 0.000000 0.034852
#
#
# Mechanical properties :
#
#
# Convention : Reuss Voigt Hill
#
# Bulk Modulus (GPa) = 49.92514 50.59834 50.26174
# Shear Modulus (GPa) = 18.20128 23.35651 20.77889
#
# Velocity S-wave (km/s) = 3.04263 3.44669 3.25095
# Velocity P-wave (km/s) = 6.14301 6.44788 6.29729
#
# Compressibility (1/GPa) = 0.02002999
#
# Stress axis : x y z
#
# Youngs Moduli (GPa) = 66.92836 53.21646 36.91965
#
# Poissons Ratio (x) = 0.10144 0.22511
# Poissons Ratio (y) = 0.12757 0.45746
# Poissons Ratio (z) = 0.40808 0.65939
#
# Static dielectric constant tensor:
#      x y z
#    x 1.689770 0.000000 0.000000 
#    y 0.000000 1.808660 0.000000 
#    z 0.000000 0.000000 1.729050 
# 
# From -- ./inp_files/11778.got.cif
#   From: 2010.05.17/outbox.cif.g08.bks.cpg/sg50_6_cif.got.tgz:11778.got - 2010.06.03 11:33:33.
