data_PCOD9396757
_publ_section_title
;
Structure prediction by ZEFSAII (Michael W. Deem and Ramdas Pophale) SiO2 
 PCOD9396757
Probable space group: P B A N
;
_chemical_formula_sum "Si O2"
_cell_formula_units_Z 48
_cell_length_a 22.845784
_cell_length_b 9.491654
_cell_length_c 11.893140
_cell_angle_alpha 90.000000
_cell_angle_beta 90.000000
_cell_angle_gamma 90.000000
_cell_volume 2578.959346
_symmetry_space_group_name_H-M "P B A N"
_symmetry_group_IT_number 50
_space_group.IT_coordinate_system_code '2'
_symmetry_cell_setting 'orthorhombic'
loop_
_space_group_symop_operation_xyz
x,y,z
1/2-x,1/2-y,z
x,1/2-y,-z
1/2-x,y,-z
-x,-y,-z
1/2+x,1/2+y,-z
-x,1/2+y,z
1/2+x,-y,z
loop_
_atom_site_type_symbol
_atom_site_label
_atom_site_fract_x
_atom_site_fract_y
_atom_site_fract_z
Si Si1 0.836742 0.674136 0.309118
Si Si2 0.067633 0.288965 0.870387
Si Si3 0.223517 0.039501 0.625332
Si Si4 0.883830 0.351549 0.658208
Si Si5 0.985927 0.513058 0.763916
Si Si6 0.082914 0.946979 0.409503
O O1 0.870389 0.701010 0.193309
O O2 0.816222 0.819841 0.365485
O O3 0.779432 0.576525 0.298536
O O4 0.882121 0.589890 0.386845
O O5 0.031909 0.163958 0.810337
O O6 0.031302 0.430959 0.844155
O O7 0.073371 0.250000 0.000000
O O8 0.250000 0.020898 0.500000
O O9 0.181897 0.911537 0.660395
O O10 0.927149 0.421711 0.747944
O O11 0.887791 0.183205 0.658571
O O12 0.910123 0.402704 0.538049
O O13 0.019197 0.533955 0.644713
#
# Coordination Sequence:
#
# PCOD9396757 Si02
#       6
#     8   8   8   8   8   8
#     4  10  21  37  57  83 118 148 198 243 287 343
#     4  11  23  40  64  86 111 154 202 253 302 346
#     4  11  21  36  59  86 117 159 191 232 293 353
#     4  11  21  36  56  85 125 157 192 228 292 360
#     4  11  21  40  58  87 122 148 192 246 302 353
#     4  10  22  35  54  90 121 157 187 229 290 361
#
# _framework density 18.612157
#
# number of rings (size 3 to 8) (size 9 to 14) (size 15 to 20)
#    0.000    1.333    5.000    2.000    0.000    0.667 
#    0.000    1.667    0.000    0.000    0.000    0.000 
#   10.000    0.000    0.000    0.000    0.000    0.000 
#
# Total GULP energy -267976.563586 kJ/mol
# GULP energy per Si atom -5582.845075 kJ/mol
# Density = 1.856979 g / cm^3
# Si number density = 18.612157 Si / 1000 Ang^3
#
#
#
# Elastic Constant Matrix: (Units=GPa)
#
#
# Indices 1 2 3 4 5 6 
#
# 1 100.8198 22.2164 22.7606 0.0000 0.0000 0.0000
# 2 22.2164 45.0181 -13.6099 0.0000 0.0000 0.0000
# 3 22.7606 -13.6099 50.2413 0.0000 0.0000 0.0000
# 4 0.0000 0.0000 0.0000 14.7985 0.0000 0.0000
# 5 0.0000 0.0000 0.0000 0.0000 14.9391 0.0000
# 6 0.0000 0.0000 0.0000 0.0000 0.0000 12.1654
#
#
#
# Elastic Compliance Matrix: (Units=1/GPa)
#
#
# Indices 1 2 3 4 5 6 
#
# 1 0.014081 -0.009669 -0.008998 0.000000 0.000000 0.000000
# 2 -0.009669 0.030835 0.012733 0.000000 0.000000 0.000000
# 3 -0.008998 0.012733 0.027430 0.000000 0.000000 0.000000
# 4 0.000000 0.000000 0.000000 0.067574 0.000000 0.000000
# 5 0.000000 0.000000 0.000000 0.000000 0.066938 0.000000
# 6 0.000000 0.000000 0.000000 0.000000 0.000000 0.082200
#
#
# Mechanical properties :
#
#
# Convention : Reuss Voigt Hill
#
# Bulk Modulus (GPa) = 16.53534 28.75702 22.64618
# Shear Modulus (GPa) = 15.57220 19.36143 17.46681
#
# Velocity S-wave (km/s) = 2.89566 3.22880 3.06676
# Velocity P-wave (km/s) = 4.48143 5.42074 4.97331
#
# Compressibility (1/GPa) = 0.06047655
#
# Stress axis : x y z
#
# Youngs Moduli (GPa) = 71.01885 32.43117 36.45680
#
# Poissons Ratio (x) = 0.31358 0.32805
# Poissons Ratio (y) = 0.68670 -0.46421
# Poissons Ratio (z) = 0.63905 -0.41295
#
# Static dielectric constant tensor:
#      x y z
#    x 1.664390 0.000000 0.000000 
#    y 0.000000 1.651310 0.000000 
#    z 0.000000 0.000000 1.629260 
# 
# From -- ./inp_files/19149.got.cif
#   From: 2010.05.17/outbox.cif.g08.bks.cpg/sg50_10_cif.got.tgz:19149.got - 2010.06.03 11:33:33.
