data_PCOD9396885
_publ_section_title
;
Structure prediction by ZEFSAII (Michael W. Deem and Ramdas Pophale) SiO2 
 PCOD9396885
Probable space group: P B A N
;
_chemical_formula_sum "Si O2"
_cell_formula_units_Z 58
_cell_length_a 12.287996
_cell_length_b 8.593803
_cell_length_c 26.578694
_cell_angle_alpha 90.000000
_cell_angle_beta 90.000000
_cell_angle_gamma 90.000000
_cell_volume 2806.726482
_symmetry_space_group_name_H-M "P B A N"
_symmetry_group_IT_number 50
_space_group.IT_coordinate_system_code '2'
_symmetry_cell_setting 'orthorhombic'
loop_
_space_group_symop_operation_xyz
x,y,z
1/2-x,1/2-y,z
x,1/2-y,-z
1/2-x,y,-z
-x,-y,-z
1/2+x,1/2+y,-z
-x,1/2+y,z
1/2+x,-y,z
loop_
_atom_site_type_symbol
_atom_site_label
_atom_site_fract_x
_atom_site_fract_y
_atom_site_fract_z
Si Si1 0.901584 0.475567 0.690825
Si Si2 0.757877 0.049002 0.399765
Si Si3 0.572005 0.273891 0.442938
Si Si4 0.858124 0.827275 0.903079
Si Si5 0.402008 0.308320 0.355630
Si Si6 0.368694 0.823985 0.201044
Si Si7 0.750000 0.750000 0.000000
Si Si8 0.999568 0.919795 0.145692
O O1 0.819553 0.394717 0.651019
O O2 0.886951 0.659773 0.680726
O O3 0.876508 0.405396 0.744860
O O4 0.024642 0.432084 0.675137
O O5 0.661983 0.147625 0.425358
O O6 0.860479 0.062962 0.437631
O O7 0.700206 0.894444 0.380284
O O8 0.538782 0.250000 0.500000
O O9 0.475681 0.262084 0.403351
O O10 0.750000 0.750000 0.878914
O O11 0.824050 0.847194 0.961228
O O12 0.950772 0.697703 0.895297
O O13 0.900991 0.980978 0.876621
O O14 0.250000 0.750000 0.192998
O O15 0.455874 0.685030 0.191746
O O16 0.407158 0.958762 0.162710
#
# Coordination Sequence:
#
# PCOD9396885 Si02
#       8
#     8   8   8   8   8   8   2   8
#     4  11  24  39  63  86 126 156 208 256 306 383
#     4  10  21  39  62  86 123 159 192 252 310 357
#     4  10  22  42  65  90 124 158 198 250 317 384
#     4   9  19  38  61  92 134 173 224 283 323 382
#     4  11  22  42  63  91 121 159 200 257 314 370
#     4  11  24  39  65  96 125 176 218 264 331 395
#     4   8  20  36  64  94 130 184 228 274 336 384
#     4  10  21  40  64  91 134 176 219 275 333 385
#
# _framework density 20.664643000000002
#
# number of rings (size 3 to 8) (size 9 to 14) (size 15 to 20)
#    0.414    1.379    1.379    2.897    3.862    2.207 
#    2.483    4.138    0.000    1.655    0.000    0.000 
#    0.000    0.000    0.000    0.000    0.000    0.000 
#
# Total GULP energy -323176.165543 kJ/mol
# GULP energy per Si atom -5572.002854 kJ/mol
# Density = 2.061761 g / cm^3
# Si number density = 20.664643 Si / 1000 Ang^3
#
#
#
# Elastic Constant Matrix: (Units=GPa)
#
#
# Indices 1 2 3 4 5 6 
#
# 1 70.9469 34.0494 24.4717 0.0000 0.0000 0.0000
# 2 34.0494 107.6868 27.3821 0.0000 0.0000 0.0000
# 3 24.4717 27.3821 103.8141 0.0000 0.0000 0.0000
# 4 0.0000 0.0000 0.0000 16.7273 0.0000 0.0000
# 5 0.0000 0.0000 0.0000 0.0000 15.2918 0.0000
# 6 0.0000 0.0000 0.0000 0.0000 0.0000 37.5374
#
#
#
# Elastic Compliance Matrix: (Units=1/GPa)
#
#
# Indices 1 2 3 4 5 6 
#
# 1 0.017361 -0.004769 -0.002835 0.000000 0.000000 0.000000
# 2 -0.004769 0.011264 -0.001847 0.000000 0.000000 0.000000
# 3 -0.002835 -0.001847 0.010788 0.000000 0.000000 0.000000
# 4 0.000000 0.000000 0.000000 0.059783 0.000000 0.000000
# 5 0.000000 0.000000 0.000000 0.000000 0.065395 0.000000
# 6 0.000000 0.000000 0.000000 0.000000 0.000000 0.026640
#
#
# Mechanical properties :
#
#
# Convention : Reuss Voigt Hill
#
# Bulk Modulus (GPa) = 48.75073 50.47269 49.61171
# Shear Modulus (GPa) = 23.04485 27.01428 25.02957
#
# Velocity S-wave (km/s) = 3.34306 3.61954 3.48404
# Velocity P-wave (km/s) = 6.20838 6.47656 6.34389
#
# Compressibility (1/GPa) = 0.02051251
#
# Stress axis : x y z
#
# Youngs Moduli (GPa) = 57.59880 88.78161 92.69615
#
# Poissons Ratio (x) = 0.42337 0.26277
# Poissons Ratio (y) = 0.27467 0.17119
# Poissons Ratio (z) = 0.16328 0.16396
#
# Static dielectric constant tensor:
#      x y z
#    x 1.783920 0.000000 0.000000 
#    y 0.000000 1.841880 0.000000 
#    z 0.000000 0.000000 1.705610 
# 
# From -- ./inp_files/32194.got.cif
#   From: 2010.05.17/outbox.cif.g08.bks.cpg/sg50_17_cif.got.tgz:32194.got - 2010.06.03 11:33:33.
