data_PCOD9396453
_publ_section_title
;
Structure prediction by ZEFSAII (Michael W. Deem and Ramdas Pophale) SiO2 
 PCOD9396453
Probable space group: P B A N
;
_chemical_formula_sum "Si O2"
_cell_formula_units_Z 56
_cell_length_a 26.857252
_cell_length_b 17.152320
_cell_length_c 5.887603
_cell_angle_alpha 90.000000
_cell_angle_beta 90.000000
_cell_angle_gamma 90.000000
_cell_volume 2712.207812
_symmetry_space_group_name_H-M "P B A N"
_symmetry_group_IT_number 50
_space_group.IT_coordinate_system_code '2'
_symmetry_cell_setting 'orthorhombic'
loop_
_space_group_symop_operation_xyz
x,y,z
1/2-x,1/2-y,z
x,1/2-y,-z
1/2-x,y,-z
-x,-y,-z
1/2+x,1/2+y,-z
-x,1/2+y,z
1/2+x,-y,z
loop_
_atom_site_type_symbol
_atom_site_label
_atom_site_fract_x
_atom_site_fract_y
_atom_site_fract_z
Si Si1 0.193813 0.159865 0.933530
Si Si2 0.195396 0.039910 0.584566
Si Si3 0.615077 0.457871 0.176641
Si Si4 0.466666 0.232515 0.252931
Si Si5 0.420200 0.784895 0.251428
Si Si6 0.460684 0.066739 0.440680
Si Si7 0.884133 0.940756 0.794557
O O1 0.191658 0.128974 0.676306
O O2 0.192449 0.250000 0.000000
O O3 0.250000 0.131277 0.000000
O O4 0.145871 0.119637 0.048134
O O5 0.250000 0.021934 0.500000
O O6 0.158316 0.034757 0.378364
O O7 0.172365 0.981428 0.772160
O O8 0.599081 0.372983 0.247848
O O9 0.582234 0.521825 0.306022
O O10 0.602264 0.479041 0.919487
O O11 0.440601 0.250000 0.500000
O O12 0.519601 0.277528 0.254755
O O13 0.477524 0.139738 0.288606
O O14 0.444718 0.250000 0.000000
O O15 0.404333 0.750000 0.500000
O O16 0.405371 0.750000 0.000000
O O17 0.432888 0.092564 0.673060
O O18 0.500000 0.000000 0.500000
#
# Coordination Sequence:
#
# PCOD9396453 Si02
#       7
#     8   8   8   8   8   8   8
#     4  10  20  38  62  92 130 173 219 270 336 412
#     4  10  20  40  66  94 127 165 221 270 338 404
#     4  10  24  40  67  97 125 172 226 283 336 411
#     4  10  23  41  61  89 126 174 226 281 335 397
#     4  10  22  41  68  95 127 166 226 283 338 407
#     4  11  24  41  64  90 130 181 229 281 338 408
#     4  10  23  40  60  95 131 166 228 275 333 406
#
# _framework density 20.647385
#
# number of rings (size 3 to 8) (size 9 to 14) (size 15 to 20)
#    0.000    1.857    1.429    1.714   10.000    1.143 
#    7.714    0.000    0.000    0.429    0.000    0.000 
#    0.000    0.000    0.000    0.000    0.000    0.000 
#
# Total GULP energy -311827.164885 kJ/mol
# GULP energy per Si atom -5568.342230 kJ/mol
# Density = 2.060039 g / cm^3
# Si number density = 20.647385 Si / 1000 Ang^3
#
#
#
# Elastic Constant Matrix: (Units=GPa)
#
#
# Indices 1 2 3 4 5 6 
#
# 1 88.7731 33.6751 21.2167 0.0000 0.0000 0.0000
# 2 33.6751 110.5267 40.9417 0.0000 0.0000 0.0000
# 3 21.2167 40.9417 123.6563 0.0000 0.0000 0.0000
# 4 0.0000 0.0000 0.0000 36.4503 0.0000 0.0000
# 5 0.0000 0.0000 0.0000 0.0000 20.1929 0.0000
# 6 0.0000 0.0000 0.0000 0.0000 0.0000 17.8421
#
#
#
# Elastic Compliance Matrix: (Units=1/GPa)
#
#
# Indices 1 2 3 4 5 6 
#
# 1 0.012852 -0.003532 -0.001036 0.000000 0.000000 0.000000
# 2 -0.003532 0.011283 -0.003130 0.000000 0.000000 0.000000
# 3 -0.001036 -0.003130 0.009301 0.000000 0.000000 0.000000
# 4 0.000000 0.000000 0.000000 0.027435 0.000000 0.000000
# 5 0.000000 0.000000 0.000000 0.000000 0.049522 0.000000
# 6 0.000000 0.000000 0.000000 0.000000 0.000000 0.056047
#
#
# Mechanical properties :
#
#
# Convention : Reuss Voigt Hill
#
# Bulk Modulus (GPa) = 55.42931 57.18035 56.30483
# Shear Modulus (GPa) = 26.61714 30.03857 28.32785
#
# Velocity S-wave (km/s) = 3.59434 3.81837 3.70805
# Velocity P-wave (km/s) = 6.64302 6.86977 6.75735
#
# Compressibility (1/GPa) = 0.01804100
#
# Stress axis : x y z
#
# Youngs Moduli (GPa) = 77.80852 88.62840 107.51699
#
# Poissons Ratio (x) = 0.31305 0.11135
# Poissons Ratio (y) = 0.27483 0.33650
# Poissons Ratio (z) = 0.08058 0.27738
#
# Static dielectric constant tensor:
#      x y z
#    x 1.755360 0.000000 0.000000 
#    y 0.000000 1.754840 0.000000 
#    z 0.000000 0.000000 1.437780 
# 
# From -- ./inp_files/3749.got.cif
#   From: 2010.05.17/outbox.cif.g08.bks.cpg/sg50_2_cif.got.tgz:3749.got - 2010.06.03 11:33:33.
