data_PCOD9396072
_publ_section_title
;
Structure prediction by ZEFSAII (Michael W. Deem and Ramdas Pophale) SiO2 
 PCOD9396072
Probable space group: P B A N
;
_chemical_formula_sum "Si O2"
_cell_formula_units_Z 52
_cell_length_a 9.064781
_cell_length_b 19.950174
_cell_length_c 14.130045
_cell_angle_alpha 90.000000
_cell_angle_beta 90.000000
_cell_angle_gamma 90.000000
_cell_volume 2555.333268
_symmetry_space_group_name_H-M "P B A N"
_symmetry_group_IT_number 50
_space_group.IT_coordinate_system_code '2'
_symmetry_cell_setting 'orthorhombic'
loop_
_space_group_symop_operation_xyz
x,y,z
1/2-x,1/2-y,z
x,1/2-y,-z
1/2-x,y,-z
-x,-y,-z
1/2+x,1/2+y,-z
-x,1/2+y,z
1/2+x,-y,z
loop_
_atom_site_type_symbol
_atom_site_label
_atom_site_fract_x
_atom_site_fract_y
_atom_site_fract_z
Si Si1 0.750000 0.019377 0.000000
Si Si2 0.255163 0.869405 0.141736
Si Si3 0.541090 0.802252 0.125040
Si Si4 0.573066 0.843278 0.911256
Si Si5 0.350653 0.551041 0.311879
Si Si6 0.327046 0.433560 0.159501
Si Si7 0.125542 0.468824 0.433668
O O1 0.816966 0.066480 0.082767
O O2 0.641508 0.972077 0.060603
O O3 0.365318 0.808286 0.127874
O O4 0.098487 0.858421 0.094099
O O5 0.216513 0.889347 0.248792
O O6 0.594086 0.727458 0.143095
O O7 0.588718 0.865629 0.186961
O O8 0.599137 0.825085 0.021369
O O9 0.664394 0.903140 0.864012
O O10 0.355550 0.487484 0.240370
O O11 0.226664 0.526427 0.386091
O O12 0.514859 0.564321 0.355023
O O13 0.250000 0.431690 0.500000
O O14 0.000000 0.500000 0.500000
#
# Coordination Sequence:
#
# PCOD9396072 Si02
#       7
#     4   8   8   8   8   8   8
#     4  10  20  32  46  70 100 146 172 210 280 292
#     4  11  21  33  50  72 107 137 184 223 262 306
#     4  11  21  34  48  66  98 149 200 227 252 291
#     4  11  21  34  48  66  98 149 200 227 252 291
#     4  10  20  33  52  85 106 133 164 223 262 328
#     4  11  21  33  50  72 107 137 184 223 262 306
#     4   9  18  35  56  76 110 136 158 195 270 351
#
# _framework density 20.349595000000001
#
# number of rings (size 3 to 8) (size 9 to 14) (size 15 to 20)
#    0.000    1.538    3.077    2.769    0.000    7.385 
#    0.000    0.000    0.000    0.000    0.000    0.000 
#    0.000  258.462    0.000    0.000    0.000    0.000 
#
# Total GULP energy -289567.419890 kJ/mol
# GULP energy per Si atom -5568.604229 kJ/mol
# Density = 2.030328 g / cm^3
# Si number density = 20.349595 Si / 1000 Ang^3
#
#
#
# Elastic Constant Matrix: (Units=GPa)
#
#
# Indices 1 2 3 4 5 6 
#
# 1 132.3072 10.4645 25.3535 0.0000 0.0000 0.0000
# 2 10.4645 65.8023 9.1652 0.0000 0.0000 0.0000
# 3 25.3535 9.1652 77.5353 0.0000 0.0000 0.0000
# 4 0.0000 0.0000 0.0000 7.9615 0.0000 0.0000
# 5 0.0000 0.0000 0.0000 0.0000 28.0005 0.0000
# 6 0.0000 0.0000 0.0000 0.0000 0.0000 21.2202
#
#
#
# Elastic Compliance Matrix: (Units=1/GPa)
#
#
# Indices 1 2 3 4 5 6 
#
# 1 0.008120 -0.000937 -0.002544 0.000000 0.000000 0.000000
# 2 -0.000937 0.015560 -0.001533 0.000000 0.000000 0.000000
# 3 -0.002544 -0.001533 0.013911 0.000000 0.000000 0.000000
# 4 0.000000 0.000000 0.000000 0.125604 0.000000 0.000000
# 5 0.000000 0.000000 0.000000 0.000000 0.035714 0.000000
# 6 0.000000 0.000000 0.000000 0.000000 0.000000 0.047125
#
#
# Mechanical properties :
#
#
# Convention : Reuss Voigt Hill
#
# Bulk Modulus (GPa) = 36.28235 40.62345 38.45290
# Shear Modulus (GPa) = 18.85027 26.81389 22.83208
#
# Velocity S-wave (km/s) = 3.04685 3.63390 3.35325
# Velocity P-wave (km/s) = 5.49964 6.13295 5.82491
#
# Compressibility (1/GPa) = 0.02756161
#
# Stress axis : x y z
#
# Youngs Moduli (GPa) = 123.15517 64.26922 71.88792
#
# Poissons Ratio (x) = 0.06021 0.18291
# Poissons Ratio (y) = 0.11538 0.11020
# Poissons Ratio (z) = 0.31335 0.09852
#
# Static dielectric constant tensor:
#      x y z
#    x 1.852190 0.000000 0.000000 
#    y 0.000000 1.780300 0.000000 
#    z 0.000000 0.000000 1.811840 
# 
# From -- ./inp_files/25348.got.cif
#   From: 2010.05.17/outbox.cif.g08.bks.cpg/sg50_13_cif.got.tgz:25348.got - 2010.06.03 11:33:33.
