data_PCOD9396208
_publ_section_title
;
Structure prediction by ZEFSAII (Michael W. Deem and Ramdas Pophale) SiO2 
 PCOD9396208
Probable space group: P B A N
;
_chemical_formula_sum "Si O2"
_cell_formula_units_Z 48
_cell_length_a 11.471612
_cell_length_b 8.449949
_cell_length_c 20.247707
_cell_angle_alpha 90.000000
_cell_angle_beta 90.000000
_cell_angle_gamma 90.000000
_cell_volume 1962.702090
_symmetry_space_group_name_H-M "P B A N"
_symmetry_group_IT_number 50
_space_group.IT_coordinate_system_code '2'
_symmetry_cell_setting 'orthorhombic'
loop_
_space_group_symop_operation_xyz
x,y,z
1/2-x,1/2-y,z
x,1/2-y,-z
1/2-x,y,-z
-x,-y,-z
1/2+x,1/2+y,-z
-x,1/2+y,z
1/2+x,-y,z
loop_
_atom_site_type_symbol
_atom_site_label
_atom_site_fract_x
_atom_site_fract_y
_atom_site_fract_z
Si Si1 0.425901 0.643688 0.639409
Si Si2 0.077121 0.118524 0.546488
Si Si3 0.741569 0.565535 0.837207
Si Si4 0.412664 0.916078 0.730040
Si Si5 0.070247 0.381550 0.953524
Si Si6 0.889029 0.294084 0.850227
O O1 0.361089 0.511736 0.594053
O O2 0.503822 0.760209 0.592884
O O3 0.365747 0.781708 0.680887
O O4 0.502057 0.533010 0.689704
O O5 0.135487 0.250000 0.500000
O O6 0.000000 0.000000 0.500000
O O7 0.750000 0.750000 0.839299
O O8 0.683007 0.518619 0.767943
O O9 0.657311 0.534669 0.901201
O O10 0.865912 0.480229 0.839371
O O11 0.449233 0.800757 0.791084
O O12 0.972105 0.288652 0.912040
O O13 0.128333 0.250000 0.000000
O O14 0.000000 0.500000 0.000000
O O15 0.750000 0.250000 0.854300
#
# Coordination Sequence:
#
# PCOD9396208 Si02
#       6
#     8   8   8   8   8   8
#     4   9  17  29  54  86 118 162 210 252 294 365
#     4   8  14  26  45  80 132 166 193 249 304 350
#     4  11  25  42  61  87 124 164 203 262 326 383
#     4  10  20  35  55  82 116 158 203 251 309 361
#     4  12  25  40  63  90 115 157 210 256 317 390
#     4  10  23  42  61  86 123 161 202 262 323 377
#
# _framework density 24.456081000000001
#
# number of rings (size 3 to 8) (size 9 to 14) (size 15 to 20)
#    0.000    2.000    0.000    4.000    0.000    9.333 
#    0.000    0.000    0.000    0.000    0.000    0.000 
#    0.000 1076.667    0.000    0.167    0.000    0.000 
#
# Total GULP energy -267297.450186 kJ/mol
# GULP energy per Si atom -5568.696879 kJ/mol
# Density = 2.440042 g / cm^3
# Si number density = 24.456081 Si / 1000 Ang^3
#
#
#
# Elastic Constant Matrix: (Units=GPa)
#
#
# Indices 1 2 3 4 5 6 
#
# 1 72.8835 33.1541 45.3723 0.0000 0.0000 0.0000
# 2 33.1541 141.9255 49.1189 0.0000 0.0000 0.0000
# 3 45.3723 49.1189 134.4906 0.0000 0.0000 0.0000
# 4 0.0000 0.0000 0.0000 83.6484 0.0000 0.0000
# 5 0.0000 0.0000 0.0000 0.0000 21.9824 0.0000
# 6 0.0000 0.0000 0.0000 0.0000 0.0000 25.7759
#
#
#
# Elastic Compliance Matrix: (Units=1/GPa)
#
#
# Indices 1 2 3 4 5 6 
#
# 1 0.018064 -0.002416 -0.005212 0.000000 0.000000 0.000000
# 2 -0.002416 0.008389 -0.002249 0.000000 0.000000 0.000000
# 3 -0.005212 -0.002249 0.010015 0.000000 0.000000 0.000000
# 4 0.000000 0.000000 0.000000 0.011955 0.000000 0.000000
# 5 0.000000 0.000000 0.000000 0.000000 0.045491 0.000000
# 6 0.000000 0.000000 0.000000 0.000000 0.000000 0.038796
#
#
# Mechanical properties :
#
#
# Convention : Reuss Voigt Hill
#
# Bulk Modulus (GPa) = 59.82744 67.17670 63.50207
# Shear Modulus (GPa) = 31.63881 41.05829 36.34855
#
# Velocity S-wave (km/s) = 3.60071 4.10183 3.85941
# Velocity P-wave (km/s) = 6.46553 7.06833 6.77364
#
# Compressibility (1/GPa) = 0.01671474
#
# Stress axis : x y z
#
# Youngs Moduli (GPa) = 55.35848 119.20992 99.85055
#
# Poissons Ratio (x) = 0.28802 0.52040
# Poissons Ratio (y) = 0.13375 0.22452
# Poissons Ratio (z) = 0.28852 0.26805
#
# Static dielectric constant tensor:
#      x y z
#    x 1.903360 0.000000 0.000000 
#    y 0.000000 2.103930 0.000000 
#    z 0.000000 0.000000 1.991150 
# 
# From -- ./inp_files/29449.got.cif
#   From: 2010.05.17/outbox.cif.g08.bks.cpg/sg50_15_cif.got.tgz:29449.got - 2010.06.03 11:33:33.
