data_PCOD9396909
_publ_section_title
;
Structure prediction by ZEFSAII (Michael W. Deem and Ramdas Pophale) SiO2 
 PCOD9396909
Probable space group: P B A N
;
_chemical_formula_sum "Si O2"
_cell_formula_units_Z 64
_cell_length_a 16.919465
_cell_length_b 17.201605
_cell_length_c 9.972103
_cell_angle_alpha 90.000000
_cell_angle_beta 90.000000
_cell_angle_gamma 90.000000
_cell_volume 2902.300340
_symmetry_space_group_name_H-M "P B A N"
_symmetry_group_IT_number 50
_space_group.IT_coordinate_system_code '2'
_symmetry_cell_setting 'orthorhombic'
loop_
_space_group_symop_operation_xyz
x,y,z
1/2-x,1/2-y,z
x,1/2-y,-z
1/2-x,y,-z
-x,-y,-z
1/2+x,1/2+y,-z
-x,1/2+y,z
1/2+x,-y,z
loop_
_atom_site_type_symbol
_atom_site_label
_atom_site_fract_x
_atom_site_fract_y
_atom_site_fract_z
Si Si1 0.339189 0.634531 0.035824
Si Si2 0.327107 0.009206 0.813090
Si Si3 0.936382 0.148690 0.225721
Si Si4 0.082367 0.968533 0.440739
Si Si5 0.922807 0.185548 0.698639
Si Si6 0.340838 0.003662 0.303490
Si Si7 0.113401 0.332849 0.856147
Si Si8 0.402912 0.162794 0.175029
O O1 0.342965 0.540375 0.053075
O O2 0.361936 0.663593 0.183068
O O3 0.250000 0.655841 0.000000
O O4 0.398894 0.663166 0.922191
O O5 0.322609 0.100877 0.833167
O O6 0.398499 0.994855 0.710036
O O7 0.245499 0.981092 0.748444
O O8 0.914127 0.222236 0.318329
O O9 0.900489 0.066295 0.266603
O O10 0.030644 0.148132 0.215960
O O11 0.084570 0.875014 0.423316
O O12 0.149670 0.004196 0.536203
O O13 0.000000 0.000000 0.500000
O O14 0.009731 0.170942 0.762155
O O15 0.365454 0.085901 0.239078
O O16 0.138153 0.247244 0.807586
O O17 0.093310 0.340217 0.013937
#
# Coordination Sequence:
#
# PCOD9396909 Si02
#       8
#     8   8   8   8   8   8   8   8
#     4  11  21  38  61  96 137 172 207 265 340 405
#     4  11  25  41  61  96 129 170 222 265 326 404
#     4  11  22  37  64  98 129 172 211 271 322 398
#     4  11  23  44  68  89 122 175 222 277 319 376
#     4  10  22  40  62  97 133 167 221 265 328 398
#     4  12  24  41  64  89 131 175 222 269 330 383
#     4  10  22  39  63  97 132 163 217 270 328 396
#     4  10  21  39  65  95 129 170 209 273 334 392
#
# _framework density 22.051473000000001
#
# number of rings (size 3 to 8) (size 9 to 14) (size 15 to 20)
#    0.000    1.250    3.750    2.250    1.750    3.000 
#    0.000    1.875    0.000    3.000    0.000    0.000 
#    0.000    0.000    0.000    0.000    0.000    0.000 
#
# Total GULP energy -357478.749637 kJ/mol
# GULP energy per Si atom -5585.605463 kJ/mol
# Density = 2.200128 g / cm^3
# Si number density = 22.051473 Si / 1000 Ang^3
#
#
#
# Elastic Constant Matrix: (Units=GPa)
#
#
# Indices 1 2 3 4 5 6 
#
# 1 64.1743 26.6287 11.2667 0.0000 0.0000 0.0000
# 2 26.6287 184.6946 42.7704 0.0000 0.0000 0.0000
# 3 11.2667 42.7704 46.5957 0.0000 0.0000 0.0000
# 4 0.0000 0.0000 0.0000 42.0701 0.0000 0.0000
# 5 0.0000 0.0000 0.0000 0.0000 25.9961 0.0000
# 6 0.0000 0.0000 0.0000 0.0000 0.0000 20.4072
#
#
#
# Elastic Compliance Matrix: (Units=1/GPa)
#
#
# Indices 1 2 3 4 5 6 
#
# 1 0.016771 -0.001878 -0.002331 0.000000 0.000000 0.000000
# 2 -0.001878 0.007086 -0.006050 0.000000 0.000000 0.000000
# 3 -0.002331 -0.006050 0.027579 0.000000 0.000000 0.000000
# 4 0.000000 0.000000 0.000000 0.023770 0.000000 0.000000
# 5 0.000000 0.000000 0.000000 0.000000 0.038467 0.000000
# 6 0.000000 0.000000 0.000000 0.000000 0.000000 0.049002
#
#
# Mechanical properties :
#
#
# Convention : Reuss Voigt Hill
#
# Bulk Modulus (GPa) = 32.34525 50.75512 41.55018
# Shear Modulus (GPa) = 25.83973 32.01460 28.92717
#
# Velocity S-wave (km/s) = 3.42686 3.81440 3.62581
# Velocity P-wave (km/s) = 5.50978 6.51661 6.03423
#
# Compressibility (1/GPa) = 0.03091644
#
# Stress axis : x y z
#
# Youngs Moduli (GPa) = 59.62612 141.11879 36.26010
#
# Poissons Ratio (x) = 0.26504 0.08453
# Poissons Ratio (y) = 0.11199 0.21939
# Poissons Ratio (z) = 0.13900 0.85382
#
# Static dielectric constant tensor:
#      x y z
#    x 1.763980 0.000000 0.000000 
#    y 0.000000 1.901830 0.000000 
#    z 0.000000 0.000000 1.837970 
# 
# From -- ./inp_files/22000.got.cif
#   From: 2010.05.17/outbox.cif.g08.bks.cpg/sg50_11_cif.got.tgz:22000.got - 2010.06.03 11:33:33.
