data_PCOD9396899
_publ_section_title
;
Structure prediction by ZEFSAII (Michael W. Deem and Ramdas Pophale) SiO2 
 PCOD9396899
Probable space group: P B A N
;
_chemical_formula_sum "Si O2"
_cell_formula_units_Z 40
_cell_length_a 13.633997
_cell_length_b 9.114059
_cell_length_c 13.042958
_cell_angle_alpha 90.000000
_cell_angle_beta 90.000000
_cell_angle_gamma 90.000000
_cell_volume 1620.731696
_symmetry_space_group_name_H-M "P B A N"
_symmetry_group_IT_number 50
_space_group.IT_coordinate_system_code '2'
_symmetry_cell_setting 'orthorhombic'
loop_
_space_group_symop_operation_xyz
x,y,z
1/2-x,1/2-y,z
x,1/2-y,-z
1/2-x,y,-z
-x,-y,-z
1/2+x,1/2+y,-z
-x,1/2+y,z
1/2+x,-y,z
loop_
_atom_site_type_symbol
_atom_site_label
_atom_site_fract_x
_atom_site_fract_y
_atom_site_fract_z
Si Si1 0.492579 0.686392 0.765259
Si Si2 0.585910 0.907475 0.443921
Si Si3 0.336481 0.542993 0.070372
Si Si4 0.181193 0.891117 0.300727
Si Si5 0.440968 0.094824 0.102449
O O1 0.538454 0.617967 0.666241
O O2 0.421372 0.809977 0.720841
O O3 0.443811 0.560074 0.835668
O O4 0.579253 0.771058 0.823683
O O5 0.605540 0.750000 0.500000
O O6 0.500000 0.000000 0.500000
O O7 0.676787 0.007663 0.402211
O O8 0.300029 0.532969 0.188318
O O9 0.443428 0.622385 0.074890
O O10 0.250000 0.605667 0.000000
O O11 0.372895 0.412584 0.995765
O O12 0.250000 0.750000 0.314716
#
# Coordination Sequence:
#
# PCOD9396899 Si02
#       5
#     8   8   8   8   8
#     4  11  20  43  67 103 145 192 254 310 381 468
#     4  12  23  45  77 112 142 204 268 332 398 473
#     4  10  21  39  64 106 147 200 245 304 384 473
#     4  11  24  42  74 112 156 197 258 324 398 478
#     4  10  22  37  66 101 150 196 248 306 377 475
#
# _framework density 24.680211
#
# number of rings (size 3 to 8) (size 9 to 14) (size 15 to 20)
#    0.000    1.200    6.000    1.200    0.000   10.800 
#    0.000    4.000    0.000   12.000    0.000    0.000 
#    0.000    0.000    0.000    0.000    0.000    0.000 
#
# Total GULP energy -222847.338133 kJ/mol
# GULP energy per Si atom -5571.183453 kJ/mol
# Density = 2.462404 g / cm^3
# Si number density = 24.680211 Si / 1000 Ang^3
#
#
#
# Elastic Constant Matrix: (Units=GPa)
#
#
# Indices 1 2 3 4 5 6 
#
# 1 72.2040 28.4053 37.8600 0.0000 0.0000 0.0000
# 2 28.4053 177.5770 103.9774 0.0000 0.0000 0.0000
# 3 37.8600 103.9774 169.9934 0.0000 0.0000 0.0000
# 4 0.0000 0.0000 0.0000 64.3886 0.0000 0.0000
# 5 0.0000 0.0000 0.0000 0.0000 29.5936 0.0000
# 6 0.0000 0.0000 0.0000 0.0000 0.0000 19.6595
#
#
#
# Elastic Compliance Matrix: (Units=1/GPa)
#
#
# Indices 1 2 3 4 5 6 
#
# 1 0.015741 -0.000725 -0.003062 0.000000 0.000000 0.000000
# 2 -0.000725 0.008807 -0.005225 0.000000 0.000000 0.000000
# 3 -0.003062 -0.005225 0.009761 0.000000 0.000000 0.000000
# 4 0.000000 0.000000 0.000000 0.015531 0.000000 0.000000
# 5 0.000000 0.000000 0.000000 0.000000 0.033791 0.000000
# 6 0.000000 0.000000 0.000000 0.000000 0.000000 0.050866
#
#
# Mechanical properties :
#
#
# Convention : Reuss Voigt Hill
#
# Bulk Modulus (GPa) = 61.41295 84.47330 72.94312
# Shear Modulus (GPa) = 31.65582 39.36377 35.50980
#
# Velocity S-wave (km/s) = 3.58528 3.99802 3.79726
# Velocity P-wave (km/s) = 6.48664 7.45746 6.98892
#
# Compressibility (1/GPa) = 0.01628321
#
# Stress axis : x y z
#
# Youngs Moduli (GPa) = 63.53037 113.54676 102.45117
#
# Poissons Ratio (x) = 0.08229 0.31374
# Poissons Ratio (y) = 0.04604 0.53535
# Poissons Ratio (z) = 0.19455 0.59333
#
# Static dielectric constant tensor:
#      x y z
#    x 2.709910 0.000000 0.000000 
#    y 0.000000 2.588730 0.000000 
#    z 0.000000 0.000000 2.251180 
# 
# From -- ./inp_files/26296.got.cif
#   From: 2010.05.17/outbox.cif.g08.bks.cpg/sg50_14_cif.got.tgz:26296.got - 2010.06.03 11:33:33.
