data_PCOD9396424
_publ_section_title
;
Structure prediction by ZEFSAII (Michael W. Deem and Ramdas Pophale) SiO2 
 PCOD9396424
Probable space group: P B A N
;
_chemical_formula_sum "Si O2"
_cell_formula_units_Z 58
_cell_length_a 27.416881
_cell_length_b 11.995395
_cell_length_c 8.851858
_cell_angle_alpha 90.000000
_cell_angle_beta 90.000000
_cell_angle_gamma 90.000000
_cell_volume 2911.166460
_symmetry_space_group_name_H-M "P B A N"
_symmetry_group_IT_number 50
_space_group.IT_coordinate_system_code '2'
_symmetry_cell_setting 'orthorhombic'
loop_
_space_group_symop_operation_xyz
x,y,z
1/2-x,1/2-y,z
x,1/2-y,-z
1/2-x,y,-z
-x,-y,-z
1/2+x,1/2+y,-z
-x,1/2+y,z
1/2+x,-y,z
loop_
_atom_site_type_symbol
_atom_site_label
_atom_site_fract_x
_atom_site_fract_y
_atom_site_fract_z
Si Si1 0.917561 0.148328 0.802625
Si Si2 0.750000 0.250000 0.500000
Si Si3 0.193567 0.951024 0.651808
Si Si4 0.101141 0.896123 0.854941
Si Si5 0.354596 0.042457 0.650263
Si Si6 0.236712 0.121937 0.176838
Si Si7 0.048423 0.366549 0.560552
Si Si8 0.514178 0.519865 0.260479
O O1 0.914136 0.279960 0.773942
O O2 0.973986 0.108854 0.793103
O O3 0.885714 0.067657 0.696236
O O4 0.894659 0.128935 0.968208
O O5 0.782396 0.167047 0.396562
O O6 0.149197 0.934971 0.768467
O O7 0.175200 0.008503 0.498057
O O8 0.231752 0.033159 0.730030
O O9 0.058113 0.987112 0.846712
O O10 0.318771 0.089774 0.778845
O O11 0.395415 0.132988 0.607349
O O12 0.250000 0.250000 0.219018
O O13 0.250000 0.110148 0.000000
O O14 0.030590 0.250000 0.500000
O O15 0.039978 0.447329 0.418103
O O16 0.017695 0.411219 0.700533
#
# Coordination Sequence:
#
# PCOD9396424 Si02
#       8
#     8   2   8   8   8   8   8   8
#     4  10  23  39  61  92 129 166 211 264 322 385
#     4  12  24  44  64 100 128 168 222 282 328 384
#     4  12  24  42  68  94 129 167 219 268 330 389
#     4  11  22  39  63  91 126 172 212 262 328 386
#     4  11  22  42  63  92 125 160 210 265 315 381
#     4  11  26  46  67  94 130 171 216 269 331 395
#     4  10  21  35  58  90 119 155 204 253 311 366
#     4  10  20  38  58  88 124 165 205 258 309 382
#
# _framework density 19.923283999999999
#
# number of rings (size 3 to 8) (size 9 to 14) (size 15 to 20)
#    0.000    1.241    2.759    2.897    1.931    0.552 
#    1.241    0.000    0.000    6.621    0.000    0.000 
#    0.000    0.000    0.000    0.000    0.000    0.000 
#
# Total GULP energy -323765.588383 kJ/mol
# GULP energy per Si atom -5582.165317 kJ/mol
# Density = 1.987794 g / cm^3
# Si number density = 19.923284 Si / 1000 Ang^3
#
#
#
# Elastic Constant Matrix: (Units=GPa)
#
#
# Indices 1 2 3 4 5 6 
#
# 1 105.9178 26.4744 27.6112 0.0000 0.0000 0.0000
# 2 26.4744 59.6391 -2.8968 0.0000 0.0000 0.0000
# 3 27.6112 -2.8968 59.5894 0.0000 0.0000 0.0000
# 4 0.0000 0.0000 0.0000 32.1281 0.0000 0.0000
# 5 0.0000 0.0000 0.0000 0.0000 21.1271 0.0000
# 6 0.0000 0.0000 0.0000 0.0000 0.0000 20.2170
#
#
#
# Elastic Compliance Matrix: (Units=1/GPa)
#
#
# Indices 1 2 3 4 5 6 
#
# 1 0.012481 -0.005835 -0.006067 0.000000 0.000000 0.000000
# 2 -0.005835 0.019535 0.003654 0.000000 0.000000 0.000000
# 3 -0.006067 0.003654 0.019770 0.000000 0.000000 0.000000
# 4 0.000000 0.000000 0.000000 0.031125 0.000000 0.000000
# 5 0.000000 0.000000 0.000000 0.000000 0.047333 0.000000
# 6 0.000000 0.000000 0.000000 0.000000 0.000000 0.049463
#
#
# Mechanical properties :
#
#
# Convention : Reuss Voigt Hill
#
# Bulk Modulus (GPa) = 28.33713 36.39156 32.36435
# Shear Modulus (GPa) = 24.04202 26.29161 25.16681
#
# Velocity S-wave (km/s) = 3.47757 3.63663 3.55799
# Velocity P-wave (km/s) = 5.51168 5.99491 5.75837
#
# Compressibility (1/GPa) = 0.03528938
#
# Stress axis : x y z
#
# Youngs Moduli (GPa) = 80.11899 51.18927 50.58087
#
# Poissons Ratio (x) = 0.29871 0.30688
# Poissons Ratio (y) = 0.46752 -0.18480
# Poissons Ratio (z) = 0.48609 -0.18702
#
# Static dielectric constant tensor:
#      x y z
#    x 1.714300 0.000000 0.000000 
#    y 0.000000 1.726370 0.000000 
#    z 0.000000 0.000000 1.717200 
# 
# From -- ./inp_files/11748.got.cif
#   From: 2010.05.17/outbox.cif.g08.bks.cpg/sg50_6_cif.got.tgz:11748.got - 2010.06.03 11:33:33.
