data_PCOD9396387
_publ_section_title
;
Structure prediction by ZEFSAII (Michael W. Deem and Ramdas Pophale) SiO2 
 PCOD9396387
Probable space group: P B A N
;
_chemical_formula_sum "Si O2"
_cell_formula_units_Z 48
_cell_length_a 9.102858
_cell_length_b 30.253936
_cell_length_c 8.882629
_cell_angle_alpha 90.000000
_cell_angle_beta 90.000000
_cell_angle_gamma 90.000000
_cell_volume 2446.251896
_symmetry_space_group_name_H-M "P B A N"
_symmetry_group_IT_number 50
_space_group.IT_coordinate_system_code '2'
_symmetry_cell_setting 'orthorhombic'
loop_
_space_group_symop_operation_xyz
x,y,z
1/2-x,1/2-y,z
x,1/2-y,-z
1/2-x,y,-z
-x,-y,-z
1/2+x,1/2+y,-z
-x,1/2+y,z
1/2+x,-y,z
loop_
_atom_site_type_symbol
_atom_site_label
_atom_site_fract_x
_atom_site_fract_y
_atom_site_fract_z
Si Si1 0.978798 0.031709 0.142504
Si Si2 0.578517 0.796444 0.453518
Si Si3 0.910115 0.377551 0.016337
Si Si4 0.223447 0.032069 0.666392
Si Si5 0.165096 0.321781 0.860445
Si Si6 0.924467 0.873503 0.317507
O O1 0.130217 0.040451 0.233708
O O2 0.870834 0.004525 0.248545
O O3 0.912032 0.076143 0.072665
O O4 0.000000 0.000000 0.000000
O O5 0.506355 0.750000 0.500000
O O6 0.750000 0.794344 0.500000
O O7 0.582689 0.796608 0.272980
O O8 0.530063 0.840921 0.544189
O O9 0.950473 0.380853 0.192448
O O10 0.750000 0.356773 0.000000
O O11 0.041664 0.351075 0.939141
O O12 0.250000 0.014405 0.500000
O O13 0.135881 0.078138 0.641372
O O14 0.288512 0.350045 0.770725
O O15 0.250000 0.299208 0.000000
#
# Coordination Sequence:
#
# PCOD9396387 Si02
#       6
#     8   8   8   8   8   8
#     4  12  24  39  60  84 120 169 211 262 303 359
#     4   9  18  36  63  97 122 148 195 255 314 379
#     4  11  22  38  56  85 118 160 215 253 299 364
#     4  12  24  40  59  88 126 161 212 260 315 365
#     4   9  18  35  61  86 116 155 193 239 310 370
#     4  10  20  37  63  85 119 160 193 253 318 371
#
# _framework density 19.621855
#
# number of rings (size 3 to 8) (size 9 to 14) (size 15 to 20)
#    0.000    1.500    3.333    3.500    0.000    0.000 
#    0.000   15.000    0.000    3.000    0.000    0.000 
#    0.000    0.000    0.000    0.000    0.000    0.000 
#
# Total GULP energy -267532.374980 kJ/mol
# GULP energy per Si atom -5573.591145 kJ/mol
# Density = 1.957719 g / cm^3
# Si number density = 19.621855 Si / 1000 Ang^3
#
#
#
# Elastic Constant Matrix: (Units=GPa)
#
#
# Indices 1 2 3 4 5 6 
#
# 1 54.5003 12.1747 25.3761 0.0000 0.0000 0.0000
# 2 12.1747 84.2813 54.2769 0.0000 0.0000 0.0000
# 3 25.3761 54.2769 166.6203 0.0000 0.0000 0.0000
# 4 0.0000 0.0000 0.0000 6.0741 0.0000 0.0000
# 5 0.0000 0.0000 0.0000 0.0000 24.5764 0.0000
# 6 0.0000 0.0000 0.0000 0.0000 0.0000 -1.6208
#
#
#
# Elastic Compliance Matrix: (Units=1/GPa)
#
#
# Indices 1 2 3 4 5 6 
#
# 1 0.019839 -0.001164 -0.002642 0.000000 0.000000 0.000000
# 2 -0.001164 0.015083 -0.004736 0.000000 0.000000 0.000000
# 3 -0.002642 -0.004736 0.007947 0.000000 0.000000 0.000000
# 4 0.000000 0.000000 0.000000 0.164634 0.000000 0.000000
# 5 0.000000 0.000000 0.000000 0.000000 0.040690 0.000000
# 6 0.000000 0.000000 0.000000 0.000000 0.000000 -0.616987
#
#
# Mechanical properties :
#
#
# Convention : Reuss Voigt Hill
#
# Bulk Modulus (GPa) = 38.78386 54.33969 46.56177
# Shear Modulus (GPa) = -14.57239 20.04421 2.73591
#
# Velocity S-wave (km/s) = -2.72814 3.19960 1.18209
# Velocity P-wave (km/s) = 3.14403 6.43455 5.06401
#
# Compressibility (1/GPa) = 0.02578392
#
# Stress axis : x y z
#
# Youngs Moduli (GPa) = 50.40622 66.29879 125.83593
#
# Poissons Ratio (x) = 0.07719 0.33248
# Poissons Ratio (y) = 0.05868 0.59597
# Poissons Ratio (z) = 0.13318 0.31400
#
# Static dielectric constant tensor:
#      x y z
#    x 1.654270 0.000000 0.000000 
#    y 0.000000 1.762100 0.000000 
#    z 0.000000 0.000000 2.327860 
# 
# From -- ./inp_files/10038.got.cif
#   From: 2010.05.17/outbox.cif.g08.bks.cpg/sg50_6_cif.got.tgz:10038.got - 2010.06.03 11:33:33.
