data_PCOD9396191
_publ_section_title
;
Structure prediction by ZEFSAII (Michael W. Deem and Ramdas Pophale) SiO2 
 PCOD9396191
Probable space group: P B A N
;
_chemical_formula_sum "Si O2"
_cell_formula_units_Z 32
_cell_length_a 12.562294
_cell_length_b 4.884085
_cell_length_c 21.372406
_cell_angle_alpha 90.000000
_cell_angle_beta 90.000000
_cell_angle_gamma 90.000000
_cell_volume 1311.310632
_symmetry_space_group_name_H-M "P B A N"
_symmetry_group_IT_number 50
_space_group.IT_coordinate_system_code '2'
_symmetry_cell_setting 'orthorhombic'
loop_
_space_group_symop_operation_xyz
x,y,z
1/2-x,1/2-y,z
x,1/2-y,-z
1/2-x,y,-z
-x,-y,-z
1/2+x,1/2+y,-z
-x,1/2+y,z
1/2+x,-y,z
loop_
_atom_site_type_symbol
_atom_site_label
_atom_site_fract_x
_atom_site_fract_y
_atom_site_fract_z
Si Si1 0.750000 0.750000 0.000000
Si Si2 0.079735 0.047163 0.097936
Si Si3 0.936967 0.146385 0.635995
Si Si4 0.750000 0.250000 0.718335
Si Si5 0.750000 0.750000 0.801705
Si Si6 0.118983 0.750000 0.500000
Si Si7 0.750000 0.750000 0.500000
O O1 0.832493 0.579125 0.042894
O O2 0.152744 0.123377 0.157836
O O3 0.980394 0.258345 0.095302
O O4 0.829851 0.091747 0.672030
O O5 0.929551 0.112082 0.560820
O O6 0.969415 0.448226 0.654594
O O7 0.793416 0.492521 0.762084
O O8 0.178207 0.484765 0.467641
#
# Coordination Sequence:
#
# PCOD9396191 Si02
#       7
#     2   8   8   4   4   4   2
#     4  10  24  42  68 110 144 172 220 268 320 382
#     4  11  24  43  70 100 137 181 220 267 322 377
#     4  12  26  43  67  95 126 166 211 268 336 402
#     4  12  26  45  66  95 130 168 222 280 324 382
#     4  11  26  44  66  95 130 174 228 272 316 381
#     4  11  22  41  64  94 128 160 208 264 330 412
#     4  10  20  34  64  90 116 162 196 240 312 386
#
# _framework density 24.403065999999999
#
# number of rings (size 3 to 8) (size 9 to 14) (size 15 to 20)
#    0.000    0.750    0.000    7.500    0.000   12.000 
#    0.000    0.000    0.000    0.000    0.000    0.000 
#    0.000    0.000    0.000    0.000    0.000    0.000 
#
# Total GULP energy -178554.971441 kJ/mol
# GULP energy per Si atom -5579.842858 kJ/mol
# Density = 2.434752 g / cm^3
# Si number density = 24.403066 Si / 1000 Ang^3
#
#
#
# Elastic Constant Matrix: (Units=GPa)
#
#
# Indices 1 2 3 4 5 6 
#
# 1 81.9525 -8.9034 32.7654 0.0000 0.0000 0.0000
# 2 -8.9034 101.5747 12.2432 0.0000 0.0000 0.0000
# 3 32.7654 12.2432 95.6986 0.0000 0.0000 0.0000
# 4 0.0000 0.0000 0.0000 14.1639 0.0000 0.0000
# 5 0.0000 0.0000 0.0000 0.0000 21.0838 0.0000
# 6 0.0000 0.0000 0.0000 0.0000 0.0000 24.8943
#
#
#
# Elastic Compliance Matrix: (Units=1/GPa)
#
#
# Indices 1 2 3 4 5 6 
#
# 1 0.014489 0.001897 -0.005203 0.000000 0.000000 0.000000
# 2 0.001897 0.010248 -0.001961 0.000000 0.000000 0.000000
# 3 -0.005203 -0.001961 0.012482 0.000000 0.000000 0.000000
# 4 0.000000 0.000000 0.000000 0.070602 0.000000 0.000000
# 5 0.000000 0.000000 0.000000 0.000000 0.047430 0.000000
# 6 0.000000 0.000000 0.000000 0.000000 0.000000 0.040170
#
#
# Mechanical properties :
#
#
# Convention : Reuss Voigt Hill
#
# Bulk Modulus (GPa) = 37.47489 39.04846 38.26167
# Shear Modulus (GPa) = 23.27226 28.23644 25.75435
#
# Velocity S-wave (km/s) = 3.09149 3.40529 3.25218
# Velocity P-wave (km/s) = 5.30406 5.61226 5.46034
#
# Compressibility (1/GPa) = 0.02668453
#
# Stress axis : x y z
#
# Youngs Moduli (GPa) = 69.01952 97.58400 80.11648
#
# Poissons Ratio (x) = -0.18513 0.41687
# Poissons Ratio (y) = -0.13094 0.15707
# Poissons Ratio (z) = 0.35913 0.19132
#
# Static dielectric constant tensor:
#      x y z
#    x 2.093260 0.000000 0.000000 
#    y 0.000000 1.935470 0.000000 
#    z 0.000000 0.000000 1.943540 
# 
# From -- ./inp_files/29351.got.cif
#   From: 2010.05.17/outbox.cif.g08.bks.cpg/sg50_15_cif.got.tgz:29351.got - 2010.06.03 11:33:33.
