data_PCOD9396421
_publ_section_title
;
Structure prediction by ZEFSAII (Michael W. Deem and Ramdas Pophale) SiO2 
 PCOD9396421
Probable space group: P B A N
;
_chemical_formula_sum "Si O2"
_cell_formula_units_Z 52
_cell_length_a 8.816610
_cell_length_b 25.801827
_cell_length_c 11.247078
_cell_angle_alpha 90.000000
_cell_angle_beta 90.000000
_cell_angle_gamma 90.000000
_cell_volume 2558.537557
_symmetry_space_group_name_H-M "P B A N"
_symmetry_group_IT_number 50
_space_group.IT_coordinate_system_code '2'
_symmetry_cell_setting 'orthorhombic'
loop_
_space_group_symop_operation_xyz
x,y,z
1/2-x,1/2-y,z
x,1/2-y,-z
1/2-x,y,-z
-x,-y,-z
1/2+x,1/2+y,-z
-x,1/2+y,z
1/2+x,-y,z
loop_
_atom_site_type_symbol
_atom_site_label
_atom_site_fract_x
_atom_site_fract_y
_atom_site_fract_z
Si Si1 0.779458 0.865424 0.144213
Si Si2 0.821062 0.521355 0.131019
Si Si3 0.365324 0.930200 0.184877
Si Si4 0.750000 0.345754 0.000000
Si Si5 0.578508 0.191480 0.206969
Si Si6 0.607135 0.784623 0.311518
Si Si7 0.159146 0.850217 0.619095
O O1 0.749417 0.924899 0.177071
O O2 0.671097 0.826210 0.216517
O O3 0.946342 0.851192 0.191194
O O4 0.750000 0.860106 0.000000
O O5 0.777913 0.468258 0.195250
O O6 0.998102 0.534025 0.139031
O O7 0.750000 0.515111 0.000000
O O8 0.337665 0.884923 0.088418
O O9 0.392455 0.900969 0.308355
O O10 0.645896 0.309083 0.923365
O O11 0.499048 0.243967 0.243951
O O12 0.714248 0.177385 0.296770
O O13 0.750000 0.750000 0.357270
O O14 0.490951 0.814644 0.398724
O O15 0.250000 0.861826 0.500000
#
# Coordination Sequence:
#
# PCOD9396421 Si02
#       7
#     8   8   8   4   8   8   8
#     4  10  21  39  61  96 141 172 207 265 332 401
#     4  11  21  35  66  95 134 170 213 269 332 401
#     4  11  23  38  64  96 128 177 213 270 335 398
#     4  10  20  38  57  96 136 160 217 256 340 400
#     4  10  23  37  65  94 127 174 213 266 329 401
#     4  10  22  44  65  96 127 173 223 265 331 396
#     4  11  25  48  66  90 131 171 224 286 326 383
#
# _framework density 20.324110999999998
#
# number of rings (size 3 to 8) (size 9 to 14) (size 15 to 20)
#    0.000    1.538    2.308    2.769    6.462    4.000 
#    2.769    6.154    0.000    0.000    0.000    0.000 
#    0.000    0.000    0.000    0.000    0.000    0.000 
#
# Total GULP energy -290206.995202 kJ/mol
# GULP energy per Si atom -5580.903754 kJ/mol
# Density = 2.027785 g / cm^3
# Si number density = 20.324111 Si / 1000 Ang^3
#
#
#
# Elastic Constant Matrix: (Units=GPa)
#
#
# Indices 1 2 3 4 5 6 
#
# 1 106.1504 20.7228 27.4690 0.0000 0.0000 0.0000
# 2 20.7228 66.7610 22.1210 0.0000 0.0000 0.0000
# 3 27.4690 22.1210 68.0804 0.0000 0.0000 0.0000
# 4 0.0000 0.0000 0.0000 5.8866 0.0000 0.0000
# 5 0.0000 0.0000 0.0000 0.0000 19.1170 0.0000
# 6 0.0000 0.0000 0.0000 0.0000 0.0000 -142.4179
#
#
#
# Elastic Compliance Matrix: (Units=1/GPa)
#
#
# Indices 1 2 3 4 5 6 
#
# 1 0.010784 -0.002136 -0.003657 0.000000 0.000000 0.000000
# 2 -0.002136 0.017209 -0.004730 0.000000 0.000000 0.000000
# 3 -0.003657 -0.004730 0.017701 0.000000 0.000000 0.000000
# 4 0.000000 0.000000 0.000000 0.169877 0.000000 0.000000
# 5 0.000000 0.000000 0.000000 0.000000 0.052310 0.000000
# 6 0.000000 0.000000 0.000000 0.000000 0.000000 -0.007022
#
#
# Mechanical properties :
#
#
# Convention : Reuss Voigt Hill
#
# Bulk Modulus (GPa) = 40.57053 42.40194 41.48623
# Shear Modulus (GPa) = 17.23425 -12.10427 2.56499
#
# Velocity S-wave (km/s) = 2.91515 -2.44306 1.12463
# Velocity P-wave (km/s) = 5.59785 3.59862 4.70564
#
# Compressibility (1/GPa) = 0.02464843
#
# Stress axis : x y z
#
# Youngs Moduli (GPa) = 92.73096 58.10935 56.49397
#
# Poissons Ratio (x) = 0.12410 0.20661
# Poissons Ratio (y) = 0.19803 0.26721
# Poissons Ratio (z) = 0.33913 0.27486
#
# Static dielectric constant tensor:
#      x y z
#    x 1.895460 0.000000 0.000000 
#    y 0.000000 1.717500 0.000000 
#    z 0.000000 0.000000 1.718300 
# 
# From -- ./inp_files/19346.got.cif
#   From: 2010.05.17/outbox.cif.g08.bks.cpg/sg50_10_cif.got.tgz:19346.got - 2010.06.03 11:33:33.
