data_PCOD9396415
_publ_section_title
;
Structure prediction by ZEFSAII (Michael W. Deem and Ramdas Pophale) SiO2 
 PCOD9396415
Probable space group: P B A N
;
_chemical_formula_sum "Si O2"
_cell_formula_units_Z 44
_cell_length_a 19.385759
_cell_length_b 14.896415
_cell_length_c 6.644449
_cell_angle_alpha 90.000000
_cell_angle_beta 90.000000
_cell_angle_gamma 90.000000
_cell_volume 1918.772761
_symmetry_space_group_name_H-M "P B A N"
_symmetry_group_IT_number 50
_space_group.IT_coordinate_system_code '2'
_symmetry_cell_setting 'orthorhombic'
loop_
_space_group_symop_operation_xyz
x,y,z
1/2-x,1/2-y,z
x,1/2-y,-z
1/2-x,y,-z
-x,-y,-z
1/2+x,1/2+y,-z
-x,1/2+y,z
1/2+x,-y,z
loop_
_atom_site_type_symbol
_atom_site_label
_atom_site_fract_x
_atom_site_fract_y
_atom_site_fract_z
Si Si1 0.750000 0.750000 0.000000
Si Si2 0.979867 0.785416 0.210388
Si Si3 0.250000 0.250000 0.500000
Si Si4 0.445708 0.894393 0.312102
Si Si5 0.160638 0.134550 0.680557
Si Si6 0.560103 0.041018 0.235981
Si Si7 0.826015 0.456176 0.922515
O O1 0.796612 0.805921 0.155869
O O2 0.918959 0.839228 0.318501
O O3 0.014567 0.700058 0.316212
O O4 0.035132 0.861866 0.158383
O O5 0.950080 0.750000 0.000000
O O6 0.191182 0.170655 0.471428
O O7 0.428212 0.936661 0.529495
O O8 0.374628 0.884219 0.189279
O O9 0.499379 0.967409 0.220169
O O10 0.175306 0.035673 0.757787
O O11 0.627363 0.012036 0.112538
O O12 0.750000 0.432338 0.000000
#
# Coordination Sequence:
#
# PCOD9396415 Si02
#       7
#     2   8   2   8   8   8   8
#     4  10  20  38  52  94 132 176 210 262 336 426
#     4  12  22  41  73  94 136 181 239 294 349 412
#     4  10  28  38  60 106 156 178 236 278 382 452
#     4  11  25  43  70 102 138 186 236 294 348 417
#     4  11  23  39  63  99 137 184 221 284 353 433
#     4  11  25  44  67 104 136 177 244 291 349 416
#     4  12  25  45  69 100 143 184 231 289 358 420
#
# _framework density 22.931325000000001
#
# number of rings (size 3 to 8) (size 9 to 14) (size 15 to 20)
#    0.000    0.727    5.455    2.182    2.545    2.182 
#    0.000    1.818    0.000    2.182    0.000    0.000 
#    0.000    0.000    0.000    0.000    0.000    0.000 
#
# Total GULP energy -245427.349456 kJ/mol
# GULP energy per Si atom -5577.894306 kJ/mol
# Density = 2.287913 g / cm^3
# Si number density = 22.931325 Si / 1000 Ang^3
#
#
#
# Elastic Constant Matrix: (Units=GPa)
#
#
# Indices 1 2 3 4 5 6 
#
# 1 135.3423 14.6334 24.3683 0.0000 0.0000 0.0000
# 2 14.6334 85.1072 3.8881 0.0000 0.0000 0.0000
# 3 24.3683 3.8881 71.3306 0.0000 0.0000 0.0000
# 4 0.0000 0.0000 0.0000 24.9589 0.0000 0.0000
# 5 0.0000 0.0000 0.0000 0.0000 19.9511 0.0000
# 6 0.0000 0.0000 0.0000 0.0000 0.0000 29.3113
#
#
#
# Elastic Compliance Matrix: (Units=1/GPa)
#
#
# Indices 1 2 3 4 5 6 
#
# 1 0.008004 -0.001254 -0.002666 0.000000 0.000000 0.000000
# 2 -0.001254 0.011976 -0.000224 0.000000 0.000000 0.000000
# 3 -0.002666 -0.000224 0.014942 0.000000 0.000000 0.000000
# 4 0.000000 0.000000 0.000000 0.040066 0.000000 0.000000
# 5 0.000000 0.000000 0.000000 0.000000 0.050123 0.000000
# 6 0.000000 0.000000 0.000000 0.000000 0.000000 0.034117
#
#
# Mechanical properties :
#
#
# Convention : Reuss Voigt Hill
#
# Bulk Modulus (GPa) = 37.54767 41.95110 39.74938
# Shear Modulus (GPa) = 28.34554 31.43694 29.89124
#
# Velocity S-wave (km/s) = 3.51964 3.70661 3.61433
# Velocity P-wave (km/s) = 5.73818 6.05413 5.89827
#
# Compressibility (1/GPa) = 0.02663281
#
# Stress axis : x y z
#
# Youngs Moduli (GPa) = 124.93219 83.50158 66.92428
#
# Poissons Ratio (x) = 0.10475 0.17843
# Poissons Ratio (y) = 0.15672 0.01501
# Poissons Ratio (z) = 0.33308 0.01872
#
# Static dielectric constant tensor:
#      x y z
#    x 1.936050 0.000000 0.000000 
#    y 0.000000 1.877720 0.000000 
#    z 0.000000 0.000000 1.167760 
# 
# From -- ./inp_files/14179.got.cif
#   From: 2010.05.17/outbox.cif.g08.bks.cpg/sg50_8_cif.got.tgz:14179.got - 2010.06.03 11:33:33.
