data_PCOD9396266
_publ_section_title
;
Structure prediction by ZEFSAII (Michael W. Deem and Ramdas Pophale) SiO2 
 PCOD9396266
Probable space group: P B A N
;
_chemical_formula_sum "Si O2"
_cell_formula_units_Z 64
_cell_length_a 23.189815
_cell_length_b 12.440050
_cell_length_c 11.687224
_cell_angle_alpha 90.000000
_cell_angle_beta 90.000000
_cell_angle_gamma 90.000000
_cell_volume 3371.559108
_symmetry_space_group_name_H-M "P B A N"
_symmetry_group_IT_number 50
_space_group.IT_coordinate_system_code '2'
_symmetry_cell_setting 'orthorhombic'
loop_
_space_group_symop_operation_xyz
x,y,z
1/2-x,1/2-y,z
x,1/2-y,-z
1/2-x,y,-z
-x,-y,-z
1/2+x,1/2+y,-z
-x,1/2+y,z
1/2+x,-y,z
loop_
_atom_site_type_symbol
_atom_site_label
_atom_site_fract_x
_atom_site_fract_y
_atom_site_fract_z
Si Si1 0.598171 0.158833 0.598120
Si Si2 0.932130 0.756474 0.865779
Si Si3 0.411992 0.048214 0.730339
Si Si4 0.576822 0.915733 0.535283
Si Si5 0.979338 0.169476 0.704245
Si Si6 0.269197 0.638067 0.631283
Si Si7 0.830579 0.804954 0.306074
Si Si8 0.784021 0.916002 0.711607
O O1 0.606352 0.250000 0.500000
O O2 0.554869 0.220492 0.681506
O O3 0.662025 0.132531 0.643150
O O4 0.573573 0.044207 0.557415
O O5 0.944604 0.876857 0.820250
O O6 0.875684 0.722021 0.794046
O O7 0.982495 0.681716 0.817214
O O8 0.924445 0.750000 0.000000
O O9 0.420146 0.097954 0.601710
O O10 0.344886 0.051611 0.768577
O O11 0.435548 0.928602 0.719069
O O12 0.523463 0.857608 0.599326
O O13 0.634462 0.871143 0.598154
O O14 0.250000 0.750000 0.689138
O O15 0.250000 0.646621 0.500000
O O16 0.236916 0.529479 0.664335
O O17 0.806347 0.691458 0.355098
O O18 0.777221 0.867716 0.247706
#
# Coordination Sequence:
#
# PCOD9396266 Si02
#       8
#     8   8   8   8   8   8   8   8
#     4  12  21  34  56  87 127 172 204 238 300 373
#     4  10  24  44  62  85 113 154 213 266 314 367
#     4  11  22  36  58  90 124 157 201 251 309 369
#     4  11  22  37  56  90 131 167 205 249 307 376
#     4  11  24  37  61  88 123 166 206 254 311 367
#     4  11  20  33  51  82 126 174 203 234 283 364
#     4   9  21  39  60  88 120 159 198 252 314 368
#     4  10  20  36  55  87 123 156 205 245 305 369
#
# _framework density 18.982315
#
# number of rings (size 3 to 8) (size 9 to 14) (size 15 to 20)
#    0.000    1.375    3.750    2.625    1.750    4.500 
#    2.250    5.000    0.000    0.000    0.000    0.000 
#    0.000    0.000    0.000    0.000    0.000    0.000 
#
# Total GULP energy -356416.328002 kJ/mol
# GULP energy per Si atom -5569.005125 kJ/mol
# Density = 1.893911 g / cm^3
# Si number density = 18.982315 Si / 1000 Ang^3
#
#
#
# Elastic Constant Matrix: (Units=GPa)
#
#
# Indices 1 2 3 4 5 6 
#
# 1 103.5318 31.6646 16.7224 0.0000 0.0000 0.0000
# 2 31.6646 130.0089 30.9424 0.0000 0.0000 0.0000
# 3 16.7224 30.9424 89.3947 0.0000 0.0000 0.0000
# 4 0.0000 0.0000 0.0000 11.5557 0.0000 0.0000
# 5 0.0000 0.0000 0.0000 0.0000 7.5672 0.0000
# 6 0.0000 0.0000 0.0000 0.0000 0.0000 32.8384
#
#
#
# Elastic Compliance Matrix: (Units=1/GPa)
#
#
# Indices 1 2 3 4 5 6 
#
# 1 0.010550 -0.002288 -0.001181 0.000000 0.000000 0.000000
# 2 -0.002288 0.008879 -0.002645 0.000000 0.000000 0.000000
# 3 -0.001181 -0.002645 0.012323 0.000000 0.000000 0.000000
# 4 0.000000 0.000000 0.000000 0.086538 0.000000 0.000000
# 5 0.000000 0.000000 0.000000 0.000000 0.132149 0.000000
# 6 0.000000 0.000000 0.000000 0.000000 0.000000 0.030452
#
#
# Mechanical properties :
#
#
# Convention : Reuss Voigt Hill
#
# Bulk Modulus (GPa) = 51.22545 53.51046 52.36796
# Shear Modulus (GPa) = 16.68745 26.63265 21.66005
#
# Velocity S-wave (km/s) = 2.96819 3.74976 3.38163
# Velocity P-wave (km/s) = 6.22827 6.85554 6.54942
#
# Compressibility (1/GPa) = 0.01952155
#
# Stress axis : x y z
#
# Youngs Moduli (GPa) = 94.79093 112.62974 81.14967
#
# Poissons Ratio (x) = 0.25772 0.09587
# Poissons Ratio (y) = 0.21690 0.21465
# Poissons Ratio (z) = 0.11198 0.29792
#
# Static dielectric constant tensor:
#      x y z
#    x 1.731150 0.000000 0.000000 
#    y 0.000000 1.756690 0.000000 
#    z 0.000000 0.000000 1.624510 
# 
# From -- ./inp_files/22880.got.cif
#   From: 2010.05.17/outbox.cif.g08.bks.cpg/sg50_12_cif.got.tgz:22880.got - 2010.06.03 11:33:33.
