data_PCOD9396810
_publ_section_title
;
Structure prediction by ZEFSAII (Michael W. Deem and Ramdas Pophale) SiO2 
 PCOD9396810
Probable space group: P B A N
;
_chemical_formula_sum "Si O2"
_cell_formula_units_Z 58
_cell_length_a 28.829857
_cell_length_b 8.232110
_cell_length_c 11.642127
_cell_angle_alpha 90.000000
_cell_angle_beta 90.000000
_cell_angle_gamma 90.000000
_cell_volume 2763.032452
_symmetry_space_group_name_H-M "P B A N"
_symmetry_group_IT_number 50
_space_group.IT_coordinate_system_code '2'
_symmetry_cell_setting 'orthorhombic'
loop_
_space_group_symop_operation_xyz
x,y,z
1/2-x,1/2-y,z
x,1/2-y,-z
1/2-x,y,-z
-x,-y,-z
1/2+x,1/2+y,-z
-x,1/2+y,z
1/2+x,-y,z
loop_
_atom_site_type_symbol
_atom_site_label
_atom_site_fract_x
_atom_site_fract_y
_atom_site_fract_z
Si Si1 0.440109 0.719894 0.632218
Si Si2 0.865797 0.570112 0.986131
Si Si3 0.250000 0.750000 0.000000
Si Si4 0.035564 0.161578 0.895948
Si Si5 0.313649 0.572207 0.185414
Si Si6 0.350559 0.591660 0.744552
Si Si7 0.972819 0.552905 0.263249
Si Si8 0.757078 0.050990 0.368978
O O1 0.428289 0.750000 0.500000
O O2 0.402132 0.601635 0.692145
O O3 0.490433 0.633754 0.647881
O O4 0.444007 0.901289 0.687254
O O5 0.919878 0.585343 0.956676
O O6 0.847359 0.475391 0.874582
O O7 0.845356 0.750000 0.000000
O O8 0.855073 0.499368 0.110218
O O9 0.279829 0.639585 0.085489
O O10 0.051048 0.294739 0.800467
O O11 0.008889 0.250000 0.000000
O O12 0.004380 0.031759 0.833545
O O13 0.336311 0.720982 0.251438
O O14 0.280841 0.483450 0.278026
O O15 0.309369 0.511485 0.671202
O O16 0.750000 0.250000 0.364734
O O17 0.750000 0.000592 0.500000
#
# Coordination Sequence:
#
# PCOD9396810 Si02
#       8
#     8   8   2   8   8   8   8   8
#     4  11  24  39  66  92 123 169 218 270 320 386
#     4  11  23  38  59  90 131 163 209 259 317 383
#     4  12  16  36  60  88 116 164 210 258 308 372
#     4  10  21  38  58  88 124 164 208 256 322 387
#     4  11  20  37  63  87 125 164 204 261 323 371
#     4  11  21  38  61  95 122 156 218 258 312 385
#     4  10  22  43  61  86 127 169 214 267 326 381
#     4   9  19  36  63  91 123 156 205 269 315 365
#
# _framework density 20.991430000000001
#
# number of rings (size 3 to 8) (size 9 to 14) (size 15 to 20)
#    0.000    1.517    4.828    0.828    7.724    0.000 
#    0.000    3.103    0.000    3.310    0.000    0.000 
#    0.000    0.000    0.000    0.000    0.000    0.000 
#
# Total GULP energy -323299.436946 kJ/mol
# GULP energy per Si atom -5574.128223 kJ/mol
# Density = 2.094365 g / cm^3
# Si number density = 20.991430 Si / 1000 Ang^3
#
#
#
# Elastic Constant Matrix: (Units=GPa)
#
#
# Indices 1 2 3 4 5 6 
#
# 1 87.3737 13.5062 49.7517 0.0000 0.0000 0.0000
# 2 13.5062 37.8555 13.9452 0.0000 0.0000 0.0000
# 3 49.7517 13.9452 128.0235 0.0000 0.0000 0.0000
# 4 0.0000 0.0000 0.0000 17.3386 0.0000 0.0000
# 5 0.0000 0.0000 0.0000 0.0000 -122.5462 0.0000
# 6 0.0000 0.0000 0.0000 0.0000 0.0000 -133.6237
#
#
#
# Elastic Compliance Matrix: (Units=1/GPa)
#
#
# Indices 1 2 3 4 5 6 
#
# 1 0.015097 -0.003360 -0.005501 0.000000 0.000000 0.000000
# 2 -0.003360 0.028268 -0.001773 0.000000 0.000000 0.000000
# 3 -0.005501 -0.001773 0.010142 0.000000 0.000000 0.000000
# 4 0.000000 0.000000 0.000000 0.057675 0.000000 0.000000
# 5 0.000000 0.000000 0.000000 0.000000 -0.008160 0.000000
# 6 0.000000 0.000000 0.000000 0.000000 0.000000 -0.007484
#
#
# Mechanical properties :
#
#
# Convention : Reuss Voigt Hill
#
# Bulk Modulus (GPa) = 31.01872 45.29545 38.15708
# Shear Modulus (GPa) = 39.19959 -36.02963 1.58498
#
# Velocity S-wave (km/s) = 4.32604 -4.14744 0.86989
# Velocity P-wave (km/s) = 6.30569 1.14458 4.38473
#
# Compressibility (1/GPa) = 0.03223859
#
# Stress axis : x y z
#
# Youngs Moduli (GPa) = 66.23973 35.37534 98.60051
#
# Poissons Ratio (x) = 0.11886 0.54238
# Poissons Ratio (y) = 0.22256 0.17487
# Poissons Ratio (z) = 0.36437 0.06274
#
# Static dielectric constant tensor:
#      x y z
#    x 1.828400 0.000000 0.000000 
#    y 0.000000 1.828650 0.000000 
#    z 0.000000 0.000000 1.790080 
# 
# From -- ./inp_files/23167.got.cif
#   From: 2010.05.17/outbox.cif.g08.bks.cpg/sg50_12_cif.got.tgz:23167.got - 2010.06.03 11:33:33.
