data_PCOD9396366
_publ_section_title
;
Structure prediction by ZEFSAII (Michael W. Deem and Ramdas Pophale) SiO2 
 PCOD9396366
Probable space group: P B A N
;
_chemical_formula_sum "Si O2"
_cell_formula_units_Z 42
_cell_length_a 10.196241
_cell_length_b 14.846749
_cell_length_c 14.088085
_cell_angle_alpha 90.000000
_cell_angle_beta 90.000000
_cell_angle_gamma 90.000000
_cell_volume 2132.668830
_symmetry_space_group_name_H-M "P B A N"
_symmetry_group_IT_number 50
_space_group.IT_coordinate_system_code '2'
_symmetry_cell_setting 'orthorhombic'
loop_
_space_group_symop_operation_xyz
x,y,z
1/2-x,1/2-y,z
x,1/2-y,-z
1/2-x,y,-z
-x,-y,-z
1/2+x,1/2+y,-z
-x,1/2+y,z
1/2+x,-y,z
loop_
_atom_site_type_symbol
_atom_site_label
_atom_site_fract_x
_atom_site_fract_y
_atom_site_fract_z
Si Si1 0.791955 0.383435 0.353405
Si Si2 0.594567 0.732801 0.107771
Si Si3 0.012611 0.632715 0.265446
Si Si4 0.235359 0.093726 0.391083
Si Si5 0.963669 0.921148 0.237376
Si Si6 0.750000 0.250000 0.500000
O O1 0.650448 0.350843 0.317431
O O2 0.784431 0.485262 0.391556
O O3 0.895200 0.385840 0.269518
O O4 0.834949 0.317120 0.436477
O O5 0.750000 0.750000 0.114274
O O6 0.521147 0.799172 0.181032
O O7 0.574589 0.630768 0.142710
O O8 0.552246 0.750000 0.000000
O O9 0.891943 0.634804 0.339654
O O10 0.026810 0.528953 0.229955
O O11 0.250000 0.124154 0.500000
O O12 0.360293 0.105020 0.321069
#
# Coordination Sequence:
#
# PCOD9396366 Si02
#       6
#     8   8   8   8   8   2
#     4  10  22  34  57  84 126 159 204 246 301 360
#     4  11  23  43  68  94 120 157 211 260 315 374
#     4  10  22  41  63  91 126 161 203 258 309 364
#     4  10  20  37  60  87 122 167 208 244 293 361
#     4  10  22  41  63  91 126 161 203 258 309 364
#     4  12  20  32  48  82 122 166 204 242 300 348
#
# _framework density 19.693635
#
# number of rings (size 3 to 8) (size 9 to 14) (size 15 to 20)
#    0.000    1.714    2.857    1.143    2.667    3.048 
#    0.000    2.857    0.000    0.000    0.000    0.000 
#    0.000    0.000    0.000    0.000    0.000    0.000 
#
# Total GULP energy -234561.273022 kJ/mol
# GULP energy per Si atom -5584.792215 kJ/mol
# Density = 1.964881 g / cm^3
# Si number density = 19.693635 Si / 1000 Ang^3
#
#
#
# Elastic Constant Matrix: (Units=GPa)
#
#
# Indices 1 2 3 4 5 6 
#
# 1 87.5885 12.9550 19.8249 0.0000 0.0000 0.0000
# 2 12.9550 66.0376 44.7733 0.0000 0.0000 0.0000
# 3 19.8249 44.7733 112.4776 0.0000 0.0000 0.0000
# 4 0.0000 0.0000 0.0000 57.5728 0.0000 0.0000
# 5 0.0000 0.0000 0.0000 0.0000 5.1716 0.0000
# 6 0.0000 0.0000 0.0000 0.0000 0.0000 10.8897
#
#
#
# Elastic Compliance Matrix: (Units=1/GPa)
#
#
# Indices 1 2 3 4 5 6 
#
# 1 0.011967 -0.001257 -0.001609 0.000000 0.000000 0.000000
# 2 -0.001257 0.020872 -0.008087 0.000000 0.000000 0.000000
# 3 -0.001609 -0.008087 0.012393 0.000000 0.000000 0.000000
# 4 0.000000 0.000000 0.000000 0.017369 0.000000 0.000000
# 5 0.000000 0.000000 0.000000 0.000000 0.193365 0.000000
# 6 0.000000 0.000000 0.000000 0.000000 0.000000 0.091830
#
#
# Mechanical properties :
#
#
# Convention : Reuss Voigt Hill
#
# Bulk Modulus (GPa) = 42.86818 46.80112 44.83465
# Shear Modulus (GPa) = 13.24577 27.29683 20.27130
#
# Velocity S-wave (km/s) = 2.59625 3.72704 3.21180
# Velocity P-wave (km/s) = 5.54997 6.50671 6.04729
#
# Compressibility (1/GPa) = 0.02332732
#
# Stress axis : x y z
#
# Youngs Moduli (GPa) = 83.56246 47.91002 80.68787
#
# Poissons Ratio (x) = 0.06021 0.12983
# Poissons Ratio (y) = 0.10502 0.65253
# Poissons Ratio (z) = 0.13445 0.38745
#
# Static dielectric constant tensor:
#      x y z
#    x 1.675830 0.000000 0.000000 
#    y 0.000000 1.714600 0.000000 
#    z 0.000000 0.000000 1.685420 
# 
# From -- ./inp_files/24741.got.cif
#   From: 2010.05.17/outbox.cif.g08.bks.cpg/sg50_13_cif.got.tgz:24741.got - 2010.06.03 11:33:33.
