data_PCOD9396851
_publ_section_title
;
Structure prediction by ZEFSAII (Michael W. Deem and Ramdas Pophale) SiO2 
 PCOD9396851
Probable space group: P B A N
;
_chemical_formula_sum "Si O2"
_cell_formula_units_Z 32
_cell_length_a 13.935196
_cell_length_b 8.746416
_cell_length_c 10.142907
_cell_angle_alpha 90.000000
_cell_angle_beta 90.000000
_cell_angle_gamma 90.000000
_cell_volume 1236.248149
_symmetry_space_group_name_H-M "P B A N"
_symmetry_group_IT_number 50
_space_group.IT_coordinate_system_code '2'
_symmetry_cell_setting 'orthorhombic'
loop_
_space_group_symop_operation_xyz
x,y,z
1/2-x,1/2-y,z
x,1/2-y,-z
1/2-x,y,-z
-x,-y,-z
1/2+x,1/2+y,-z
-x,1/2+y,z
1/2+x,-y,z
loop_
_atom_site_type_symbol
_atom_site_label
_atom_site_fract_x
_atom_site_fract_y
_atom_site_fract_z
Si Si1 0.396940 0.416971 0.044282
Si Si2 0.968910 0.483209 0.726346
Si Si3 0.628116 0.176002 0.359601
Si Si4 0.222111 0.024536 0.797538
O O1 0.476389 0.501167 0.132239
O O2 0.310459 0.378645 0.147818
O O3 0.339729 0.988661 0.068663
O O4 0.429535 0.250000 0.000000
O O5 0.931788 0.309443 0.714772
O O6 0.868995 0.576203 0.710780
O O7 0.051217 0.538514 0.628275
O O8 0.649580 0.250000 0.500000
O O9 0.719070 0.104882 0.282314
#
# Coordination Sequence:
#
# PCOD9396851 Si02
#       4
#     8   8   8   8
#     4  10  21  39  64 101 144 180 229 295 364 440
#     4  11  23  42  68  97 138 186 234 296 362 423
#     4  11  25  45  68  99 138 185 243 298 352 428
#     4  10  21  38  64  98 134 182 231 290 359 424
#
# _framework density 25.88477
#
# number of rings (size 3 to 8) (size 9 to 14) (size 15 to 20)
#    0.000    1.500    0.000    5.250    0.000    8.000 
#    0.000   10.000    0.000    6.000    0.000    0.000 
#    0.000    0.000    0.000    0.000    0.000    0.000 
#
# Total GULP energy -178354.308413 kJ/mol
# GULP energy per Si atom -5573.572138 kJ/mol
# Density = 2.582586 g / cm^3
# Si number density = 25.884770 Si / 1000 Ang^3
#
#
#
# Elastic Constant Matrix: (Units=GPa)
#
#
# Indices 1 2 3 4 5 6 
#
# 1 236.6656 62.9196 37.9965 0.0000 0.0000 0.0000
# 2 62.9196 95.1280 70.3012 0.0000 0.0000 0.0000
# 3 37.9965 70.3012 121.3776 0.0000 0.0000 0.0000
# 4 0.0000 0.0000 0.0000 46.5249 0.0000 0.0000
# 5 0.0000 0.0000 0.0000 0.0000 43.3619 0.0000
# 6 0.0000 0.0000 0.0000 0.0000 0.0000 47.2523
#
#
#
# Elastic Compliance Matrix: (Units=1/GPa)
#
#
# Indices 1 2 3 4 5 6 
#
# 1 0.005154 -0.003876 0.000631 0.000000 0.000000 0.000000
# 2 -0.003876 0.021293 -0.011120 0.000000 0.000000 0.000000
# 3 0.000631 -0.011120 0.014482 0.000000 0.000000 0.000000
# 4 0.000000 0.000000 0.000000 0.021494 0.000000 0.000000
# 5 0.000000 0.000000 0.000000 0.000000 0.023062 0.000000
# 6 0.000000 0.000000 0.000000 0.000000 0.000000 0.021163
#
#
# Mechanical properties :
#
#
# Convention : Reuss Voigt Hill
#
# Bulk Modulus (GPa) = 81.96072 88.40064 85.18068
# Shear Modulus (GPa) = 35.85691 46.22477 41.04084
#
# Velocity S-wave (km/s) = 3.72593 4.23045 3.98618
# Velocity P-wave (km/s) = 7.08820 7.62155 7.35970
#
# Compressibility (1/GPa) = 0.01220097
#
# Stress axis : x y z
#
# Youngs Moduli (GPa) = 194.00806 46.96317 69.05319
#
# Poissons Ratio (x) = 0.18202 -0.04359
# Poissons Ratio (y) = 0.75193 0.76785
# Poissons Ratio (z) = -0.12247 0.52221
#
# Static dielectric constant tensor:
#      x y z
#    x 2.172250 0.000000 0.000000 
#    y 0.000000 2.143480 0.000000 
#    z 0.000000 0.000000 2.256330 
# 
# From -- ./inp_files/20712.got.cif
#   From: 2010.05.17/outbox.cif.g08.bks.cpg/sg50_11_cif.got.tgz:20712.got - 2010.06.03 11:33:33.
