data_PCOD9396353
_publ_section_title
;
Structure prediction by ZEFSAII (Michael W. Deem and Ramdas Pophale) SiO2 
 PCOD9396353
Probable space group: P B A N
;
_chemical_formula_sum "Si O2"
_cell_formula_units_Z 48
_cell_length_a 8.832889
_cell_length_b 11.251117
_cell_length_c 24.635127
_cell_angle_alpha 90.000000
_cell_angle_beta 90.000000
_cell_angle_gamma 90.000000
_cell_volume 2448.235659
_symmetry_space_group_name_H-M "P B A N"
_symmetry_group_IT_number 50
_space_group.IT_coordinate_system_code '2'
_symmetry_cell_setting 'orthorhombic'
loop_
_space_group_symop_operation_xyz
x,y,z
1/2-x,1/2-y,z
x,1/2-y,-z
1/2-x,y,-z
-x,-y,-z
1/2+x,1/2+y,-z
-x,1/2+y,z
1/2+x,-y,z
loop_
_atom_site_type_symbol
_atom_site_label
_atom_site_fract_x
_atom_site_fract_y
_atom_site_fract_z
Si Si1 0.512319 0.002906 0.634262
Si Si2 0.575728 0.622496 0.979295
Si Si3 0.759133 0.388706 0.293617
Si Si4 0.617077 0.393447 0.826012
Si Si5 0.767889 0.610814 0.439477
Si Si6 0.557603 0.126761 0.860842
O O1 0.384704 0.925751 0.662945
O O2 0.635411 0.933386 0.599601
O O3 0.601292 0.062459 0.684027
O O4 0.424759 0.084430 0.591017
O O5 0.541410 0.632118 0.915380
O O6 0.512822 0.750000 0.000000
O O7 0.750000 0.617916 0.000000
O O8 0.500000 0.500000 0.000000
O O9 0.750000 0.250000 0.294125
O O10 0.807351 0.418555 0.232584
O O11 0.548657 0.257849 0.830927
O O12 0.760759 0.392364 0.867382
O O13 0.503953 0.503629 0.834580
O O14 0.750000 0.750000 0.444493
O O15 0.750000 0.557090 0.500000
#
# Coordination Sequence:
#
# PCOD9396353 Si02
#       6
#     8   8   8   8   8   8
#     4  10  22  36  59  86 119 163 198 256 310 361
#     4  11  24  42  65  95 126 163 206 254 308 369
#     4  11  21  39  59  86 125 157 210 250 309 373
#     4  11  24  42  66  95 125 171 208 261 314 372
#     4  10  20  37  58  86 118 156 205 251 306 367
#     4  11  23  43  65  93 130 162 211 256 311 373
#
# _framework density 19.605955999999999
#
# number of rings (size 3 to 8) (size 9 to 14) (size 15 to 20)
#    0.000    1.333    1.667    4.500    0.000    3.667 
#    0.000    0.000    0.000    8.000    0.000    0.000 
#    0.000    0.000    0.000    0.000    0.000    0.000 
#
# Total GULP energy -267414.301469 kJ/mol
# GULP energy per Si atom -5571.131281 kJ/mol
# Density = 1.956133 g / cm^3
# Si number density = 19.605956 Si / 1000 Ang^3
#
#
#
# Elastic Constant Matrix: (Units=GPa)
#
#
# Indices 1 2 3 4 5 6 
#
# 1 86.8978 41.7485 21.0548 0.0000 0.0000 0.0000
# 2 41.7485 122.7965 21.7469 0.0000 0.0000 0.0000
# 3 21.0548 21.7469 90.5482 0.0000 0.0000 0.0000
# 4 0.0000 0.0000 0.0000 48.2426 0.0000 0.0000
# 5 0.0000 0.0000 0.0000 0.0000 37.8744 0.0000
# 6 0.0000 0.0000 0.0000 0.0000 0.0000 36.2267
#
#
#
# Elastic Compliance Matrix: (Units=1/GPa)
#
#
# Indices 1 2 3 4 5 6 
#
# 1 0.014174 -0.004423 -0.002233 0.000000 0.000000 0.000000
# 2 -0.004423 0.009886 -0.001346 0.000000 0.000000 0.000000
# 3 -0.002233 -0.001346 0.011886 0.000000 0.000000 0.000000
# 4 0.000000 0.000000 0.000000 0.020729 0.000000 0.000000
# 5 0.000000 0.000000 0.000000 0.000000 0.026403 0.000000
# 6 0.000000 0.000000 0.000000 0.000000 0.000000 0.027604
#
#
# Mechanical properties :
#
#
# Convention : Reuss Voigt Hill
#
# Bulk Modulus (GPa) = 50.14775 52.14921 51.14848
# Shear Modulus (GPa) = 37.49985 38.84823 38.17404
#
# Velocity S-wave (km/s) = 4.37816 4.45618 4.41734
# Velocity P-wave (km/s) = 7.15479 7.28924 7.22233
#
# Compressibility (1/GPa) = 0.01994108
#
# Stress axis : x y z
#
# Youngs Moduli (GPa) = 70.55139 101.15590 84.12989
#
# Poissons Ratio (x) = 0.44745 0.18790
# Poissons Ratio (y) = 0.31207 0.11321
# Poissons Ratio (z) = 0.15758 0.13613
#
# Static dielectric constant tensor:
#      x y z
#    x 1.838840 0.000000 0.000000 
#    y 0.000000 1.689440 0.000000 
#    z 0.000000 0.000000 1.786080 
# 
# From -- ./inp_files/31584.got.cif
#   From: 2010.05.17/outbox.cif.g08.bks.cpg/sg50_16_cif.got.tgz:31584.got - 2010.06.03 11:33:33.
