data_PCOD9396533
_publ_section_title
;
Structure prediction by ZEFSAII (Michael W. Deem and Ramdas Pophale) SiO2 
 PCOD9396533
Probable space group: P B A N
;
_chemical_formula_sum "Si O2"
_cell_formula_units_Z 64
_cell_length_a 18.042148
_cell_length_b 20.496251
_cell_length_c 8.849727
_cell_angle_alpha 90.000000
_cell_angle_beta 90.000000
_cell_angle_gamma 90.000000
_cell_volume 3272.597132
_symmetry_space_group_name_H-M "P B A N"
_symmetry_group_IT_number 50
_space_group.IT_coordinate_system_code '2'
_symmetry_cell_setting 'orthorhombic'
loop_
_space_group_symop_operation_xyz
x,y,z
1/2-x,1/2-y,z
x,1/2-y,-z
1/2-x,y,-z
-x,-y,-z
1/2+x,1/2+y,-z
-x,1/2+y,z
1/2+x,-y,z
loop_
_atom_site_type_symbol
_atom_site_label
_atom_site_fract_x
_atom_site_fract_y
_atom_site_fract_z
Si Si1 0.767252 0.041022 0.821768
Si Si2 0.916820 0.175489 0.463197
Si Si3 0.972138 0.614770 0.679993
Si Si4 0.203588 0.681506 0.706774
Si Si5 0.419516 0.006929 0.703579
Si Si6 0.442256 0.683313 0.085666
Si Si7 0.453364 0.596059 0.805135
Si Si8 0.639184 0.983288 0.644164
O O1 0.756603 0.116539 0.768485
O O2 0.850966 0.016443 0.802379
O O3 0.721645 0.997385 0.700097
O O4 0.750000 0.035399 0.000000
O O5 0.928830 0.250000 0.500000
O O6 0.838889 0.161863 0.549610
O O7 0.920359 0.156672 0.290524
O O8 0.987222 0.137062 0.528248
O O9 0.889097 0.589650 0.677776
O O10 0.020579 0.550621 0.715726
O O11 0.991891 0.670332 0.797344
O O12 0.250000 0.750000 0.696719
O O13 0.134624 0.689388 0.822573
O O14 0.463404 0.071158 0.762424
O O15 0.389157 0.007635 0.529332
O O16 0.454399 0.750000 0.000000
O O17 0.443937 0.621058 0.974394
O O18 0.402940 0.536268 0.749317
#
# Coordination Sequence:
#
# PCOD9396533 Si02
#       8
#     8   8   8   8   8   8   8   8
#     4  12  26  39  58  91 126 169 205 244 316 382
#     4  11  21  39  60  87 119 161 217 250 296 364
#     4  10  20  40  60  86 120 156 213 262 301 364
#     4  11  26  41  55  82 136 179 208 241 289 369
#     4  11  21  41  62  87 120 159 207 271 311 365
#     4  11  24  39  59  88 124 168 212 249 300 366
#     4  11  21  38  65  87 116 160 217 264 311 352
#     4  11  22  37  64  87 120 160 203 266 318 359
#
# _framework density 19.556332000000001
#
# number of rings (size 3 to 8) (size 9 to 14) (size 15 to 20)
#    0.000    1.000    5.000    3.375    7.000    1.250 
#    0.000    0.625    0.000    0.000    0.000    5.250 
#    0.000    0.000    0.000    0.000    0.000    0.000 
#
# Total GULP energy -356917.242972 kJ/mol
# GULP energy per Si atom -5576.831921 kJ/mol
# Density = 1.951182 g / cm^3
# Si number density = 19.556332 Si / 1000 Ang^3
#
#
#
# Elastic Constant Matrix: (Units=GPa)
#
#
# Indices 1 2 3 4 5 6 
#
# 1 48.0121 22.3971 4.8757 0.0000 0.0000 0.0000
# 2 22.3971 47.5723 10.4614 0.0000 0.0000 0.0000
# 3 4.8757 10.4614 82.2828 0.0000 0.0000 0.0000
# 4 0.0000 0.0000 0.0000 16.9645 0.0000 0.0000
# 5 0.0000 0.0000 0.0000 0.0000 38.3068 0.0000
# 6 0.0000 0.0000 0.0000 0.0000 0.0000 37.2432
#
#
#
# Elastic Compliance Matrix: (Units=1/GPa)
#
#
# Indices 1 2 3 4 5 6 
#
# 1 0.026690 -0.012569 0.000017 0.000000 0.000000 0.000000
# 2 -0.012569 0.027545 -0.002757 0.000000 0.000000 0.000000
# 3 0.000017 -0.002757 0.012503 0.000000 0.000000 0.000000
# 4 0.000000 0.000000 0.000000 0.058947 0.000000 0.000000
# 5 0.000000 0.000000 0.000000 0.000000 0.026105 0.000000
# 6 0.000000 0.000000 0.000000 0.000000 0.000000 0.026851
#
#
# Mechanical properties :
#
#
# Convention : Reuss Voigt Hill
#
# Bulk Modulus (GPa) = 27.68754 28.14840 27.91797
# Shear Modulus (GPa) = 22.59394 27.84510 25.21952
#
# Velocity S-wave (km/s) = 3.40270 3.77747 3.59497
# Velocity P-wave (km/s) = 5.44301 5.78364 5.61591
#
# Compressibility (1/GPa) = 0.03611734
#
# Stress axis : x y z
#
# Youngs Moduli (GPa) = 37.46753 36.30481 79.98221
#
# Poissons Ratio (x) = 0.45632 -0.00132
# Poissons Ratio (y) = 0.47094 0.22053
# Poissons Ratio (z) = -0.00062 0.10010
#
# Static dielectric constant tensor:
#      x y z
#    x 1.735510 0.000000 0.000000 
#    y 0.000000 1.711340 0.000000 
#    z 0.000000 0.000000 1.746830 
# 
# From -- ./inp_files/14606.got.cif
#   From: 2010.05.17/outbox.cif.g08.bks.cpg/sg50_8_cif.got.tgz:14606.got - 2010.06.03 11:33:33.
