data_PCOD9396227
_publ_section_title
;
Structure prediction by ZEFSAII (Michael W. Deem and Ramdas Pophale) SiO2 
 PCOD9396227
Probable space group: P B A N
;
_chemical_formula_sum "Si O2"
_cell_formula_units_Z 56
_cell_length_a 14.746931
_cell_length_b 8.396847
_cell_length_c 22.257814
_cell_angle_alpha 90.000000
_cell_angle_beta 90.000000
_cell_angle_gamma 90.000000
_cell_volume 2756.134434
_symmetry_space_group_name_H-M "P B A N"
_symmetry_group_IT_number 50
_space_group.IT_coordinate_system_code '2'
_symmetry_cell_setting 'orthorhombic'
loop_
_space_group_symop_operation_xyz
x,y,z
1/2-x,1/2-y,z
x,1/2-y,-z
1/2-x,y,-z
-x,-y,-z
1/2+x,1/2+y,-z
-x,1/2+y,z
1/2+x,-y,z
loop_
_atom_site_type_symbol
_atom_site_label
_atom_site_fract_x
_atom_site_fract_y
_atom_site_fract_z
Si Si1 0.620328 0.109403 0.708126
Si Si2 0.178365 0.979702 0.283504
Si Si3 0.379132 0.941504 0.848061
Si Si4 0.944214 0.627041 0.369624
Si Si5 0.041873 0.629182 0.545097
Si Si6 0.231382 0.432880 0.071170
Si Si7 0.923349 0.429367 0.844162
O O1 0.719382 0.040939 0.693580
O O2 0.631050 0.303468 0.709614
O O3 0.540465 0.079552 0.660645
O O4 0.595223 0.034486 0.773274
O O5 0.172470 0.999390 0.211892
O O6 0.125866 0.126212 0.314802
O O7 0.403876 0.757367 0.844957
O O8 0.309701 0.960900 0.901097
O O9 0.471828 0.036360 0.856040
O O10 0.968717 0.770112 0.415173
O O11 0.905273 0.478999 0.408199
O O12 0.091112 0.750000 0.500000
O O13 0.000000 0.500000 0.500000
O O14 0.250000 0.250000 0.088072
O O15 0.139176 0.486213 0.105384
O O16 0.250000 0.443949 0.000000
#
# Coordination Sequence:
#
# PCOD9396227 Si02
#       7
#     8   8   8   8   8   8   8
#     4  10  20  35  58  92 128 158 203 260 327 377
#     4  10  20  35  58  92 128 159 202 263 322 382
#     4  11  22  39  63  93 130 167 210 266 329 382
#     4  11  18  36  62  90 121 165 210 255 308 376
#     4   9  20  36  60  88 122 167 210 245 299 363
#     4  11  25  45  65  89 125 171 218 263 323 398
#     4  11  22  39  63  93 130 168 209 267 326 384
#
# _framework density 20.318311999999999
#
# number of rings (size 3 to 8) (size 9 to 14) (size 15 to 20)
#    0.000    1.571    4.286    1.286    0.000    1.714 
#    2.571    0.714    0.000   12.857    0.000    0.000 
#    0.000    0.000    0.000    0.000    0.000    0.000 
#
# Total GULP energy -311958.349545 kJ/mol
# GULP energy per Si atom -5570.684813 kJ/mol
# Density = 2.027207 g / cm^3
# Si number density = 20.318312 Si / 1000 Ang^3
#
#
#
# Elastic Constant Matrix: (Units=GPa)
#
#
# Indices 1 2 3 4 5 6 
#
# 1 79.7092 -4.6442 1.9606 0.0000 0.0000 0.0000
# 2 -4.6442 33.5972 12.5927 0.0000 0.0000 0.0000
# 3 1.9606 12.5927 53.6141 0.0000 0.0000 0.0000
# 4 0.0000 0.0000 0.0000 29.9544 0.0000 0.0000
# 5 0.0000 0.0000 0.0000 0.0000 8.3758 0.0000
# 6 0.0000 0.0000 0.0000 0.0000 0.0000 24.4243
#
#
#
# Elastic Compliance Matrix: (Units=1/GPa)
#
#
# Indices 1 2 3 4 5 6 
#
# 1 0.012692 0.002115 -0.000961 0.000000 0.000000 0.000000
# 2 0.002115 0.032990 -0.007826 0.000000 0.000000 0.000000
# 3 -0.000961 -0.007826 0.020525 0.000000 0.000000 0.000000
# 4 0.000000 0.000000 0.000000 0.033384 0.000000 0.000000
# 5 0.000000 0.000000 0.000000 0.000000 0.119391 0.000000
# 6 0.000000 0.000000 0.000000 0.000000 0.000000 0.040943
#
#
# Mechanical properties :
#
#
# Convention : Reuss Voigt Hill
#
# Bulk Modulus (GPa) = 18.91675 20.74877 19.83276
# Shear Modulus (GPa) = 17.18856 23.01831 20.10344
#
# Velocity S-wave (km/s) = 2.91170 3.36949 3.14892
# Velocity P-wave (km/s) = 4.54251 5.03706 4.79616
#
# Compressibility (1/GPa) = 0.05286321
#
# Stress axis : x y z
#
# Youngs Moduli (GPa) = 78.78706 30.31224 48.72087
#
# Poissons Ratio (x) = -0.06410 0.04681
# Poissons Ratio (y) = -0.16660 0.38129
# Poissons Ratio (z) = 0.07570 0.23722
#
# Static dielectric constant tensor:
#      x y z
#    x 1.704240 0.000000 0.000000 
#    y 0.000000 1.794960 0.000000 
#    z 0.000000 0.000000 1.753390 
# 
# From -- ./inp_files/30653.got.cif
#   From: 2010.05.17/outbox.cif.g08.bks.cpg/sg50_16_cif.got.tgz:30653.got - 2010.06.03 11:33:33.
