data_PCOD9396882
_publ_section_title
;
Structure prediction by ZEFSAII (Michael W. Deem and Ramdas Pophale) SiO2 
 PCOD9396882
Probable space group: P B A N
;
_chemical_formula_sum "Si O2"
_cell_formula_units_Z 56
_cell_length_a 19.870813
_cell_length_b 8.930927
_cell_length_c 15.280105
_cell_angle_alpha 90.000000
_cell_angle_beta 90.000000
_cell_angle_gamma 90.000000
_cell_volume 2711.680477
_symmetry_space_group_name_H-M "P B A N"
_symmetry_group_IT_number 50
_space_group.IT_coordinate_system_code '2'
_symmetry_cell_setting 'orthorhombic'
loop_
_space_group_symop_operation_xyz
x,y,z
1/2-x,1/2-y,z
x,1/2-y,-z
1/2-x,y,-z
-x,-y,-z
1/2+x,1/2+y,-z
-x,1/2+y,z
1/2+x,-y,z
loop_
_atom_site_type_symbol
_atom_site_label
_atom_site_fract_x
_atom_site_fract_y
_atom_site_fract_z
Si Si1 0.400630 0.077413 0.478336
Si Si2 0.134126 0.578855 0.658617
Si Si3 0.948171 0.124864 0.337768
Si Si4 0.126984 0.444331 0.192685
Si Si5 0.274444 0.423528 0.659042
Si Si6 0.438978 0.354492 0.219098
Si Si7 0.456510 0.891218 0.060064
O O1 0.415967 0.250000 0.500000
O O2 0.332160 0.069336 0.416894
O O3 0.391505 0.998001 0.570455
O O4 0.451946 0.976409 0.422918
O O5 0.109378 0.749452 0.656196
O O6 0.212753 0.538279 0.651461
O O7 0.099555 0.500935 0.744183
O O8 0.017222 0.196287 0.303720
O O9 0.927335 0.011177 0.260961
O O10 0.195131 0.462603 0.245811
O O11 0.114579 0.268005 0.189944
O O12 0.108178 0.527864 0.103342
O O13 0.250000 0.250000 0.657217
O O14 0.491571 0.356057 0.139034
O O15 0.438535 0.750000 0.000000
O O16 0.500000 0.000000 0.000000
#
# Coordination Sequence:
#
# PCOD9396882 Si02
#       7
#     8   8   8   8   8   8   8
#     4  11  22  38  60  85 124 174 221 267 316 372
#     4  12  23  37  65  90 124 172 214 275 317 372
#     4  10  23  38  57  92 128 159 216 268 320 382
#     4  10  21  39  61  95 125 162 210 258 317 386
#     4  11  21  40  65  89 120 171 224 262 311 379
#     4  11  22  41  64  94 127 162 210 259 333 394
#     4  11  22  39  68 101 126 160 200 259 320 396
#
# _framework density 20.651401
#
# number of rings (size 3 to 8) (size 9 to 14) (size 15 to 20)
#    0.000    1.143    4.286    3.429    2.000    2.857 
#    0.000    5.714    0.000    0.857    3.714    0.000 
#    0.000    0.000    0.000    0.000    0.000    0.000 
#
# Total GULP energy -312388.011379 kJ/mol
# GULP energy per Si atom -5578.357346 kJ/mol
# Density = 2.060440 g / cm^3
# Si number density = 20.651401 Si / 1000 Ang^3
#
#
#
# Elastic Constant Matrix: (Units=GPa)
#
#
# Indices 1 2 3 4 5 6 
#
# 1 69.3815 18.8241 27.8335 0.0000 0.0000 0.0000
# 2 18.8241 102.3063 34.7288 0.0000 0.0000 0.0000
# 3 27.8335 34.7288 112.0761 0.0000 0.0000 0.0000
# 4 0.0000 0.0000 0.0000 29.0151 0.0000 0.0000
# 5 0.0000 0.0000 0.0000 0.0000 30.2581 0.0000
# 6 0.0000 0.0000 0.0000 0.0000 0.0000 26.5190
#
#
#
# Elastic Compliance Matrix: (Units=1/GPa)
#
#
# Indices 1 2 3 4 5 6 
#
# 1 0.016304 -0.001817 -0.003486 0.000000 0.000000 0.000000
# 2 -0.001817 0.011126 -0.002996 0.000000 0.000000 0.000000
# 3 -0.003486 -0.002996 0.010717 0.000000 0.000000 0.000000
# 4 0.000000 0.000000 0.000000 0.034465 0.000000 0.000000
# 5 0.000000 0.000000 0.000000 0.000000 0.033049 0.000000
# 6 0.000000 0.000000 0.000000 0.000000 0.000000 0.037709
#
#
# Mechanical properties :
#
#
# Convention : Reuss Voigt Hill
#
# Bulk Modulus (GPa) = 46.40633 49.61518 48.01075
# Shear Modulus (GPa) = 29.91300 30.65025 30.28163
#
# Velocity S-wave (km/s) = 3.81001 3.85668 3.83341
# Velocity P-wave (km/s) = 6.47109 6.62640 6.54920
#
# Compressibility (1/GPa) = 0.02154879
#
# Stress axis : x y z
#
# Youngs Moduli (GPa) = 61.33281 89.87970 93.31142
#
# Poissons Ratio (x) = 0.16327 0.32531
# Poissons Ratio (y) = 0.11141 0.27960
# Poissons Ratio (z) = 0.21382 0.26932
#
# Static dielectric constant tensor:
#      x y z
#    x 1.511250 0.000000 0.000000 
#    y 0.000000 1.837240 0.000000 
#    z 0.000000 0.000000 1.577670 
# 
# From -- ./inp_files/27264.got.cif
#   From: 2010.05.17/outbox.cif.g08.bks.cpg/sg50_14_cif.got.tgz:27264.got - 2010.06.03 11:33:33.
