data_PCOD9396769
_publ_section_title
;
Structure prediction by ZEFSAII (Michael W. Deem and Ramdas Pophale) SiO2 
 PCOD9396769
Probable space group: P B A N
;
_chemical_formula_sum "Si O2"
_cell_formula_units_Z 64
_cell_length_a 14.922754
_cell_length_b 14.139023
_cell_length_c 15.131218
_cell_angle_alpha 90.000000
_cell_angle_beta 90.000000
_cell_angle_gamma 90.000000
_cell_volume 3192.583531
_symmetry_space_group_name_H-M "P B A N"
_symmetry_group_IT_number 50
_space_group.IT_coordinate_system_code '2'
_symmetry_cell_setting 'orthorhombic'
loop_
_space_group_symop_operation_xyz
x,y,z
1/2-x,1/2-y,z
x,1/2-y,-z
1/2-x,y,-z
-x,-y,-z
1/2+x,1/2+y,-z
-x,1/2+y,z
1/2+x,-y,z
loop_
_atom_site_type_symbol
_atom_site_label
_atom_site_fract_x
_atom_site_fract_y
_atom_site_fract_z
Si Si1 0.344225 0.710684 0.207851
Si Si2 0.857431 0.739416 0.296871
Si Si3 0.858888 0.449316 0.334111
Si Si4 0.603198 0.419288 0.209474
Si Si5 0.162575 0.396260 0.542947
Si Si6 0.214983 0.944783 0.095603
Si Si7 0.596754 0.918134 0.169426
Si Si8 0.432631 0.063993 0.361902
O O1 0.250000 0.750000 0.176738
O O2 0.329950 0.651986 0.298082
O O3 0.400333 0.805156 0.221265
O O4 0.359020 0.630722 0.133444
O O5 0.750000 0.750000 0.294415
O O6 0.878497 0.673394 0.383141
O O7 0.889263 0.686720 0.207950
O O8 0.901474 0.841208 0.311033
O O9 0.806137 0.508407 0.406493
O O10 0.864119 0.518490 0.250084
O O11 0.960606 0.440407 0.365401
O O12 0.695109 0.446175 0.157868
O O13 0.508687 0.441331 0.160755
O O14 0.600503 0.475430 0.302576
O O15 0.250000 0.351227 0.500000
O O16 0.101062 0.425642 0.461655
O O17 0.161749 0.044643 0.092667
O O18 0.250000 0.916660 0.000000
#
# Coordination Sequence:
#
# PCOD9396769 Si02
#       8
#     8   8   8   8   8   8   8   8
#     4   9  19  35  60  79 112 146 193 233 282 344
#     4  11  20  34  56  82 110 153 197 239 283 341
#     4   9  20  37  53  78 110 150 186 241 287 336
#     4  10  21  37  59  87 115 154 193 238 289 351
#     4  11  22  33  54  79 112 145 197 240 284 327
#     4  10  21  38  63  90 115 146 188 237 293 352
#     4   9  20  37  59  86 118 150 191 239 294 351
#     4  11  21  34  56  79 111 148 194 235 284 332
#
# _framework density 20.046461999999998
#
# number of rings (size 3 to 8) (size 9 to 14) (size 15 to 20)
#    0.000    2.000    1.250    2.250    5.250    2.750 
#    0.000    1.875    0.000    6.375    0.000    0.000 
#    0.000    0.000    0.000    0.000    0.000    0.000 
#
# Total GULP energy -356342.301898 kJ/mol
# GULP energy per Si atom -5567.848467 kJ/mol
# Density = 2.000084 g / cm^3
# Si number density = 20.046462 Si / 1000 Ang^3
#
#
#
# Elastic Constant Matrix: (Units=GPa)
#
#
# Indices 1 2 3 4 5 6 
#
# 1 54.0268 14.8468 7.8952 0.0000 0.0000 0.0000
# 2 14.8468 110.0213 36.4267 0.0000 0.0000 0.0000
# 3 7.8952 36.4267 43.8769 0.0000 0.0000 0.0000
# 4 0.0000 0.0000 0.0000 11.6744 0.0000 0.0000
# 5 0.0000 0.0000 0.0000 0.0000 12.5388 0.0000
# 6 0.0000 0.0000 0.0000 0.0000 0.0000 49.8987
#
#
#
# Elastic Compliance Matrix: (Units=1/GPa)
#
#
# Indices 1 2 3 4 5 6 
#
# 1 0.019326 -0.002009 -0.001810 0.000000 0.000000 0.000000
# 2 -0.002009 0.012743 -0.010218 0.000000 0.000000 0.000000
# 3 -0.001810 -0.010218 0.031600 0.000000 0.000000 0.000000
# 4 0.000000 0.000000 0.000000 0.085658 0.000000 0.000000
# 5 0.000000 0.000000 0.000000 0.000000 0.079752 0.000000
# 6 0.000000 0.000000 0.000000 0.000000 0.000000 0.020041
#
#
# Mechanical properties :
#
#
# Convention : Reuss Voigt Hill
#
# Bulk Modulus (GPa) = 28.09336 36.25140 32.17238
# Shear Modulus (GPa) = 17.29756 24.73945 21.01850
#
# Velocity S-wave (km/s) = 2.94066 3.51679 3.24155
# Velocity P-wave (km/s) = 5.05712 5.88332 5.48580
#
# Compressibility (1/GPa) = 0.03559560
#
# Stress axis : x y z
#
# Youngs Moduli (GPa) = 51.74427 78.47271 31.64579
#
# Poissons Ratio (x) = 0.15763 0.05728
# Poissons Ratio (y) = 0.10394 0.32336
# Poissons Ratio (z) = 0.09365 0.80184
#
# Static dielectric constant tensor:
#      x y z
#    x 1.748570 0.000000 0.000000 
#    y 0.000000 1.813700 0.000000 
#    z 0.000000 0.000000 1.768520 
# 
# From -- ./inp_files/27005.got.cif
#   From: 2010.05.17/outbox.cif.g08.bks.cpg/sg50_14_cif.got.tgz:27005.got - 2010.06.03 11:33:33.
