data_PCOD9396158
_publ_section_title
;
Structure prediction by ZEFSAII (Michael W. Deem and Ramdas Pophale) SiO2 
 PCOD9396158
Probable space group: P B A N
;
_chemical_formula_sum "Si O2"
_cell_formula_units_Z 32
_cell_length_a 25.399044
_cell_length_b 12.102049
_cell_length_c 4.900853
_cell_angle_alpha 90.000000
_cell_angle_beta 90.000000
_cell_angle_gamma 90.000000
_cell_volume 1506.426523
_symmetry_space_group_name_H-M "P B A N"
_symmetry_group_IT_number 50
_space_group.IT_coordinate_system_code '2'
_symmetry_cell_setting 'orthorhombic'
loop_
_space_group_symop_operation_xyz
x,y,z
1/2-x,1/2-y,z
x,1/2-y,-z
1/2-x,y,-z
-x,-y,-z
1/2+x,1/2+y,-z
-x,1/2+y,z
1/2+x,-y,z
loop_
_atom_site_type_symbol
_atom_site_label
_atom_site_fract_x
_atom_site_fract_y
_atom_site_fract_z
Si Si1 0.084748 0.670468 0.754051
Si Si2 0.130963 0.468681 0.434060
Si Si3 0.467273 0.169541 0.243987
Si Si4 0.187997 0.123105 0.058968
O O1 0.076891 0.750000 0.500000
O O2 0.120064 0.575379 0.620783
O O3 0.025981 0.626954 0.831985
O O4 0.104007 0.750000 0.000000
O O5 0.074263 0.421704 0.338720
O O6 0.161484 0.465037 0.147410
O O7 0.167029 0.396046 0.635955
O O8 0.470918 0.250000 0.500000
O O9 0.449056 0.250000 0.000000
O O10 0.172886 0.250000 0.000000
O O11 0.250000 0.114398 0.000000
#
# Coordination Sequence:
#
# PCOD9396158 Si02
#       4
#     8   8   8   8
#     4  10  22  38  56  85 123 159 198 244 285 340
#     4  12  21  37  63  85 115 161 200 235 298 364
#     4  10  20  34  55  88 124 154 193 239 290 356
#     4  11  24  40  60  89 119 146 189 251 310 363
#
# _framework density 21.242322999999999
#
# number of rings (size 3 to 8) (size 9 to 14) (size 15 to 20)
#    0.000    1.250    0.000    7.500    0.000    2.000 
#    0.000   10.000    0.000   11.250    0.000    0.000 
#    0.000    0.000    0.000    0.000    0.000    0.000 
#
# Total GULP energy -178434.610337 kJ/mol
# GULP energy per Si atom -5576.081573 kJ/mol
# Density = 2.119397 g / cm^3
# Si number density = 21.242323 Si / 1000 Ang^3
#
#
#
# Elastic Constant Matrix: (Units=GPa)
#
#
# Indices 1 2 3 4 5 6 
#
# 1 61.8327 24.9940 6.0768 0.0000 0.0000 0.0000
# 2 24.9940 57.7522 31.1142 0.0000 0.0000 0.0000
# 3 6.0768 31.1142 147.7684 0.0000 0.0000 0.0000
# 4 0.0000 0.0000 0.0000 46.1361 0.0000 0.0000
# 5 0.0000 0.0000 0.0000 0.0000 78.1078 0.0000
# 6 0.0000 0.0000 0.0000 0.0000 0.0000 25.9050
#
#
#
# Elastic Compliance Matrix: (Units=1/GPa)
#
#
# Indices 1 2 3 4 5 6 
#
# 1 0.019763 -0.009154 0.001115 0.000000 0.000000 0.000000
# 2 -0.009154 0.023771 -0.004629 0.000000 0.000000 0.000000
# 3 0.001115 -0.004629 0.007696 0.000000 0.000000 0.000000
# 4 0.000000 0.000000 0.000000 0.021675 0.000000 0.000000
# 5 0.000000 0.000000 0.000000 0.000000 0.012803 0.000000
# 6 0.000000 0.000000 0.000000 0.000000 0.000000 0.038603
#
#
# Mechanical properties :
#
#
# Convention : Reuss Voigt Hill
#
# Bulk Modulus (GPa) = 38.61821 43.52483 41.07152
# Shear Modulus (GPa) = 31.59012 43.70765 37.64888
#
# Velocity S-wave (km/s) = 3.86052 4.54097 4.21450
# Velocity P-wave (km/s) = 6.17177 6.93023 6.56197
#
# Compressibility (1/GPa) = 0.02589452
#
# Stress axis : x y z
#
# Youngs Moduli (GPa) = 50.59909 42.06874 129.93531
#
# Poissons Ratio (x) = 0.38508 -0.14483
# Poissons Ratio (y) = 0.46317 0.60143
# Poissons Ratio (z) = -0.05640 0.19472
#
# Static dielectric constant tensor:
#      x y z
#    x 1.836210 0.000000 0.000000 
#    y 0.000000 1.772470 0.000000 
#    z 0.000000 0.000000 1.755800 
# 
# From -- ./inp_files/5744.got.cif
#   From: 2010.05.17/outbox.cif.g08.bks.cpg/sg50_3_cif.got.tgz:5744.got - 2010.06.03 11:33:33.
