data_PCOD9396066
_publ_section_title
;
Structure prediction by ZEFSAII (Michael W. Deem and Ramdas Pophale) SiO2 
 PCOD9396066
Probable space group: P B A N
;
_chemical_formula_sum "Si O2"
_cell_formula_units_Z 28
_cell_length_a 9.915494
_cell_length_b 14.738495
_cell_length_c 8.592210
_cell_angle_alpha 90.000000
_cell_angle_beta 90.000000
_cell_angle_gamma 90.000000
_cell_volume 1255.660919
_symmetry_space_group_name_H-M "P B A N"
_symmetry_group_IT_number 50
_space_group.IT_coordinate_system_code '2'
_symmetry_cell_setting 'orthorhombic'
loop_
_space_group_symop_operation_xyz
x,y,z
1/2-x,1/2-y,z
x,1/2-y,-z
1/2-x,y,-z
-x,-y,-z
1/2+x,1/2+y,-z
-x,1/2+y,z
1/2+x,-y,z
loop_
_atom_site_type_symbol
_atom_site_label
_atom_site_fract_x
_atom_site_fract_y
_atom_site_fract_z
Si Si1 0.250000 0.750000 0.500000
Si Si2 0.750000 0.250000 0.000000
Si Si3 0.612939 0.557252 0.791340
Si Si4 0.456283 0.773647 0.248936
Si Si5 0.909755 0.904790 0.161768
O O1 0.362797 0.721318 0.372799
O O2 0.648134 0.196589 0.888133
O O3 0.533257 0.636118 0.699640
O O4 0.771868 0.559946 0.760557
O O5 0.535543 0.462930 0.775698
O O6 0.600738 0.580947 0.975921
O O7 0.563814 0.700928 0.189837
#
# Coordination Sequence:
#
# PCOD9396066 Si02
#       5
#     2   2   8   8   8
#     4  10  28  38  66  86 128 160 230 238 320 350
#     4  10  20  30  70  86 112 164 210 250 324 330
#     4  10  21  35  63  99 127 155 202 257 313 367
#     4  11  21  41  60  89 125 166 203 265 298 373
#     4  10  21  35  63  99 127 155 202 257 313 367
#
# _framework density 22.299014
#
# number of rings (size 3 to 8) (size 9 to 14) (size 15 to 20)
#    0.000    1.714    2.857    0.857    8.000    2.286 
#    0.000    4.286    0.000    0.000    0.000    0.000 
#    0.000    0.000    0.000    0.000    0.000    0.000 
#
# Total GULP energy -155895.945491 kJ/mol
# GULP energy per Si atom -5567.712339 kJ/mol
# Density = 2.224826 g / cm^3
# Si number density = 22.299014 Si / 1000 Ang^3
#
#
#
# Elastic Constant Matrix: (Units=GPa)
#
#
# Indices 1 2 3 4 5 6 
#
# 1 132.1517 14.9557 22.8718 0.0000 0.0000 0.0000
# 2 14.9557 78.0074 4.6604 0.0000 0.0000 0.0000
# 3 22.8718 4.6604 22.2524 0.0000 0.0000 0.0000
# 4 0.0000 0.0000 0.0000 -6.5434 0.0000 0.0000
# 5 0.0000 0.0000 0.0000 0.0000 23.1255 0.0000
# 6 0.0000 0.0000 0.0000 0.0000 0.0000 13.0804
#
#
#
# Elastic Compliance Matrix: (Units=1/GPa)
#
#
# Indices 1 2 3 4 5 6 
#
# 1 0.009320 -0.001230 -0.009321 0.000000 0.000000 0.000000
# 2 -0.001230 0.013144 -0.001489 0.000000 0.000000 0.000000
# 3 -0.009321 -0.001489 0.054832 0.000000 0.000000 0.000000
# 4 0.000000 0.000000 0.000000 -0.152825 0.000000 0.000000
# 5 0.000000 0.000000 0.000000 0.000000 0.043242 0.000000
# 6 0.000000 0.000000 0.000000 0.000000 0.000000 0.076450
#
#
# Mechanical properties :
#
#
# Convention : Reuss Voigt Hill
#
# Bulk Modulus (GPa) = 18.79158 35.26524 27.02841
# Shear Modulus (GPa) = 58.15231 18.59408 38.37319
#
# Velocity S-wave (km/s) = 5.11224 2.89078 4.15281
# Velocity P-wave (km/s) = 6.57967 5.19531 5.92804
#
# Compressibility (1/GPa) = 0.05321533
#
# Stress axis : x y z
#
# Youngs Moduli (GPa) = 107.30181 76.08017 18.23767
#
# Poissons Ratio (x) = 0.09357 0.17000
# Poissons Ratio (y) = 0.13197 0.02715
# Poissons Ratio (z) = 1.00020 0.11326
#
# Static dielectric constant tensor:
#      x y z
#    x 1.832970 0.000000 0.000000 
#    y 0.000000 1.775560 0.000000 
#    z 0.000000 0.000000 1.875560 
# 
# From -- ./inp_files/8832.got.cif
#   From: 2010.05.17/outbox.cif.g08.bks.cpg/sg50_5_cif.got.tgz:8832.got - 2010.06.03 11:33:33.
