data_PCOD9396568
_publ_section_title
;
Structure prediction by ZEFSAII (Michael W. Deem and Ramdas Pophale) SiO2 
 PCOD9396568
Probable space group: P B A N
;
_chemical_formula_sum "Si O2"
_cell_formula_units_Z 48
_cell_length_a 28.477379
_cell_length_b 8.963148
_cell_length_c 8.537907
_cell_angle_alpha 90.000000
_cell_angle_beta 90.000000
_cell_angle_gamma 90.000000
_cell_volume 2179.274829
_symmetry_space_group_name_H-M "P B A N"
_symmetry_group_IT_number 50
_space_group.IT_coordinate_system_code '2'
_symmetry_cell_setting 'orthorhombic'
loop_
_space_group_symop_operation_xyz
x,y,z
1/2-x,1/2-y,z
x,1/2-y,-z
1/2-x,y,-z
-x,-y,-z
1/2+x,1/2+y,-z
-x,1/2+y,z
1/2+x,-y,z
loop_
_atom_site_type_symbol
_atom_site_label
_atom_site_fract_x
_atom_site_fract_y
_atom_site_fract_z
Si Si1 0.438094 0.418809 0.263133
Si Si2 0.750000 0.502853 0.000000
Si Si3 0.965567 0.238090 0.317183
Si Si4 0.672287 0.250000 0.000000
Si Si5 0.880447 0.750000 0.000000
Si Si6 0.865830 0.174578 0.328139
Si Si7 0.371232 0.250000 0.500000
Si Si8 0.312469 0.392692 0.760880
O O1 0.487681 0.332382 0.249315
O O2 0.449523 0.595741 0.264266
O O3 0.409599 0.354101 0.116651
O O4 0.407437 0.370086 0.418611
O O5 0.706065 0.392735 0.991056
O O6 0.738510 0.593677 0.158752
O O7 0.976312 0.250000 0.500000
O O8 0.920274 0.130108 0.304866
O O9 0.644719 0.242570 0.163919
O O10 0.847058 0.639487 0.904985
O O11 0.863582 0.250000 0.500000
O O12 0.827183 0.045831 0.323942
O O13 0.333416 0.277484 0.637685
#
# Coordination Sequence:
#
# PCOD9396568 Si02
#       8
#     8   4   8   4   4   8   4   8
#     4  11  24  39  63  94 140 182 234 288 335 413
#     4   9  20  41  72  94 128 161 219 276 354 412
#     4  11  23  37  63  98 135 182 233 286 340 403
#     4   9  20  41  68 101 130 171 204 291 350 411
#     4  10  26  42  64  93 136 185 230 278 360 406
#     4  10  22  39  69 100 134 174 227 276 350 410
#     4  10  20  40  68  93 134 180 230 275 346 406
#     4  10  22  44  69  96 133 179 223 290 343 427
#
# _framework density 22.025676000000001
#
# number of rings (size 3 to 8) (size 9 to 14) (size 15 to 20)
#    0.000    1.833    0.833    2.500    9.333    1.667 
#    0.000    6.667    3.667    0.000    0.000    0.000 
#    0.000    0.000    0.000    0.000    0.000    0.000 
#
# Total GULP energy -267219.564986 kJ/mol
# GULP energy per Si atom -5567.074271 kJ/mol
# Density = 2.197554 g / cm^3
# Si number density = 22.025676 Si / 1000 Ang^3
#
#
#
# Elastic Constant Matrix: (Units=GPa)
#
#
# Indices 1 2 3 4 5 6 
#
# 1 91.2342 28.0135 64.9856 0.0000 0.0000 0.0000
# 2 28.0135 76.0676 16.8387 0.0000 0.0000 0.0000
# 3 64.9856 16.8387 111.1946 0.0000 0.0000 0.0000
# 4 0.0000 0.0000 0.0000 18.6164 0.0000 0.0000
# 5 0.0000 0.0000 0.0000 0.0000 38.2992 0.0000
# 6 0.0000 0.0000 0.0000 0.0000 0.0000 30.8675
#
#
#
# Elastic Compliance Matrix: (Units=1/GPa)
#
#
# Indices 1 2 3 4 5 6 
#
# 1 0.020507 -0.005069 -0.011218 0.000000 0.000000 0.000000
# 2 -0.005069 0.014855 0.000713 0.000000 0.000000 0.000000
# 3 -0.011218 0.000713 0.015441 0.000000 0.000000 0.000000
# 4 0.000000 0.000000 0.000000 0.053716 0.000000 0.000000
# 5 0.000000 0.000000 0.000000 0.000000 0.026110 0.000000
# 6 0.000000 0.000000 0.000000 0.000000 0.000000 0.032397
#
#
# Mechanical properties :
#
#
# Convention : Reuss Voigt Hill
#
# Bulk Modulus (GPa) = 50.87407 55.35244 53.11325
# Shear Modulus (GPa) = 24.90956 28.80054 26.85505
#
# Velocity S-wave (km/s) = 3.36658 3.61998 3.49558
# Velocity P-wave (km/s) = 6.18543 6.53129 6.36072
#
# Compressibility (1/GPa) = 0.01965638
#
# Stress axis : x y z
#
# Youngs Moduli (GPa) = 48.76269 67.31656 64.76193
#
# Poissons Ratio (x) = 0.34124 0.72647
# Poissons Ratio (y) = 0.24718 -0.04617
# Poissons Ratio (z) = 0.54700 -0.04799
#
# Static dielectric constant tensor:
#      x y z
#    x 1.807230 0.000000 0.000000 
#    y 0.000000 1.815020 0.000000 
#    z 0.000000 0.000000 1.812010 
# 
# From -- ./inp_files/17030.got.cif
#   From: 2010.05.17/outbox.cif.g08.bks.cpg/sg50_9_cif.got.tgz:17030.got - 2010.06.03 11:33:33.
