data_PCOD9396750
_publ_section_title
;
Structure prediction by ZEFSAII (Michael W. Deem and Ramdas Pophale) SiO2 
 PCOD9396750
Probable space group: P B A N
;
_chemical_formula_sum "Si O2"
_cell_formula_units_Z 64
_cell_length_a 11.631881
_cell_length_b 18.288435
_cell_length_c 14.387178
_cell_angle_alpha 90.000000
_cell_angle_beta 90.000000
_cell_angle_gamma 90.000000
_cell_volume 3060.568544
_symmetry_space_group_name_H-M "P B A N"
_symmetry_group_IT_number 50
_space_group.IT_coordinate_system_code '2'
_symmetry_cell_setting 'orthorhombic'
loop_
_space_group_symop_operation_xyz
x,y,z
1/2-x,1/2-y,z
x,1/2-y,-z
1/2-x,y,-z
-x,-y,-z
1/2+x,1/2+y,-z
-x,1/2+y,z
1/2+x,-y,z
loop_
_atom_site_type_symbol
_atom_site_label
_atom_site_fract_x
_atom_site_fract_y
_atom_site_fract_z
Si Si1 0.459644 0.762834 0.238456
Si Si2 0.966279 0.548250 0.908683
Si Si3 0.372710 0.291904 0.914099
Si Si4 0.437401 0.069300 0.593827
Si Si5 0.371726 0.911175 0.545909
Si Si6 0.366307 0.218623 0.604350
Si Si7 0.897193 0.427891 0.766305
Si Si8 0.140149 0.616331 0.755620
O O1 0.559983 0.727776 0.177746
O O2 0.515726 0.767339 0.340486
O O3 0.433111 0.845116 0.206509
O O4 0.359169 0.703483 0.227856
O O5 0.887445 0.620459 0.929292
O O6 0.904571 0.488724 0.844517
O O7 0.070557 0.578628 0.841139
O O8 0.000000 0.500000 0.000000
O O9 0.250000 0.250000 0.907408
O O10 0.432321 0.250000 0.000000
O O11 0.525477 0.107550 0.522897
O O12 0.346823 0.131798 0.613222
O O13 0.516225 0.050542 0.682971
O O14 0.377682 0.999242 0.550931
O O15 0.250000 0.887545 0.500000
O O16 0.406211 0.888312 0.650017
O O17 0.250000 0.250000 0.648233
O O18 0.372878 0.250000 0.500000
O O19 0.764196 0.419836 0.741076
#
# Coordination Sequence:
#
# PCOD9396750 Si02
#       8
#     8   8   8   8   8   8   8   8
#     4  10  22  40  62  87 128 165 212 272 320 393
#     4  11  25  44  67  97 134 170 217 282 338 409
#     4  10  22  42  67  97 126 169 215 267 336 401
#     4  10  22  38  59  90 126 168 213 275 329 400
#     4  11  21  38  63  92 127 169 215 269 332 392
#     4  10  21  37  56  87 121 167 214 262 328 392
#     4  11  22  41  63  93 124 170 217 266 332 395
#     4  11  23  41  62  94 122 169 215 268 329 398
#
# _framework density 20.911148000000001
#
# number of rings (size 3 to 8) (size 9 to 14) (size 15 to 20)
#    0.000    1.500    2.500    2.250    1.750    3.500 
#    4.500    0.000    0.000    2.250    0.000    0.000 
#    0.000    0.000    0.000    0.000    0.000    0.000 
#
# Total GULP energy -356416.484717 kJ/mol
# GULP energy per Si atom -5569.007574 kJ/mol
# Density = 2.086355 g / cm^3
# Si number density = 20.911148 Si / 1000 Ang^3
#
#
#
# Elastic Constant Matrix: (Units=GPa)
#
#
# Indices 1 2 3 4 5 6 
#
# 1 23.6403 28.5358 -1.1319 0.0000 0.0000 0.0000
# 2 28.5358 119.8311 41.6056 0.0000 0.0000 0.0000
# 3 -1.1319 41.6056 96.3963 0.0000 0.0000 0.0000
# 4 0.0000 0.0000 0.0000 29.1278 0.0000 0.0000
# 5 0.0000 0.0000 0.0000 0.0000 12.1668 0.0000
# 6 0.0000 0.0000 0.0000 0.0000 0.0000 27.5009
#
#
#
# Elastic Compliance Matrix: (Units=1/GPa)
#
#
# Indices 1 2 3 4 5 6 
#
# 1 0.065114 -0.018551 0.008771 0.000000 0.000000 0.000000
# 2 -0.018551 0.015101 -0.006736 0.000000 0.000000 0.000000
# 3 0.008771 -0.006736 0.013384 0.000000 0.000000 0.000000
# 4 0.000000 0.000000 0.000000 0.034331 0.000000 0.000000
# 5 0.000000 0.000000 0.000000 0.000000 0.082191 0.000000
# 6 0.000000 0.000000 0.000000 0.000000 0.000000 0.036362
#
#
# Mechanical properties :
#
#
# Convention : Reuss Voigt Hill
#
# Bulk Modulus (GPa) = 16.51034 41.98739 29.24886
# Shear Modulus (GPa) = 16.68314 25.14967 20.91640
#
# Velocity S-wave (km/s) = 2.82762 3.47175 3.16611
# Velocity P-wave (km/s) = 4.30966 6.01608 5.23290
#
# Compressibility (1/GPa) = 0.06056812
#
# Stress axis : x y z
#
# Youngs Moduli (GPa) = 15.35777 66.21896 74.71577
#
# Poissons Ratio (x) = 1.22844 -0.65537
# Poissons Ratio (y) = 0.28491 0.50327
# Poissons Ratio (z) = -0.13471 0.44603
#
# Static dielectric constant tensor:
#      x y z
#    x 1.799250 0.000000 0.000000 
#    y 0.000000 1.789150 0.000000 
#    z 0.000000 0.000000 1.833020 
# 
# From -- ./inp_files/26060.got.cif
#   From: 2010.05.17/outbox.cif.g08.bks.cpg/sg50_14_cif.got.tgz:26060.got - 2010.06.03 11:33:33.
