data_PCOD9396365
_publ_section_title
;
Structure prediction by ZEFSAII (Michael W. Deem and Ramdas Pophale) SiO2 
 PCOD9396365
Probable space group: P B A N
;
_chemical_formula_sum "Si O2"
_cell_formula_units_Z 64
_cell_length_a 12.828176
_cell_length_b 8.732269
_cell_length_c 28.895562
_cell_angle_alpha 90.000000
_cell_angle_beta 90.000000
_cell_angle_gamma 90.000000
_cell_volume 3236.854376
_symmetry_space_group_name_H-M "P B A N"
_symmetry_group_IT_number 50
_space_group.IT_coordinate_system_code '2'
_symmetry_cell_setting 'orthorhombic'
loop_
_space_group_symop_operation_xyz
x,y,z
1/2-x,1/2-y,z
x,1/2-y,-z
1/2-x,y,-z
-x,-y,-z
1/2+x,1/2+y,-z
-x,1/2+y,z
1/2+x,-y,z
loop_
_atom_site_type_symbol
_atom_site_label
_atom_site_fract_x
_atom_site_fract_y
_atom_site_fract_z
Si Si1 0.126635 0.262787 0.945095
Si Si2 0.946090 0.360199 0.732273
Si Si3 0.694134 0.900231 0.682175
Si Si4 0.043746 0.422714 0.398137
Si Si5 0.502721 0.009573 0.110161
Si Si6 0.131139 0.712579 0.445604
Si Si7 0.875746 0.257710 0.833545
Si Si8 0.403288 0.957082 0.683666
O O1 0.250000 0.250000 0.936554
O O2 0.065210 0.128607 0.919057
O O3 0.080013 0.417957 0.923704
O O4 0.109013 0.250000 0.000000
O O5 0.877978 0.508539 0.717916
O O6 0.914154 0.298193 0.781995
O O7 0.926588 0.217510 0.697775
O O8 0.061331 0.429461 0.725111
O O9 0.750000 0.750000 0.700876
O O10 0.631948 0.853871 0.635802
O O11 0.784435 0.020777 0.670917
O O12 0.100067 0.538647 0.433028
O O13 0.961049 0.312068 0.422374
O O14 0.972989 0.508264 0.359747
O O15 0.571028 0.102078 0.147857
O O16 0.423868 0.891026 0.134343
O O17 0.250000 0.750000 0.429623
O O18 0.128655 0.750000 0.500000
O O19 0.750000 0.250000 0.835088
#
# Coordination Sequence:
#
# PCOD9396365 Si02
#       8
#     8   8   8   8   8   8   8   8
#     4  10  20  37  60  86 117 153 198 255 314 371
#     4  11  23  38  59  86 120 161 204 252 302 362
#     4  11  22  37  59  87 118 153 200 251 302 359
#     4  11  22  39  62  87 118 153 194 244 296 354
#     4  10  22  37  58  87 118 157 204 251 307 374
#     4  11  24  42  64  90 122 159 197 242 300 365
#     4  11  22  39  59  84 122 164 205 251 305 366
#     4  11  21  37  58  85 115 151 198 249 303 355
#
# _framework density 19.772283000000002
#
# number of rings (size 3 to 8) (size 9 to 14) (size 15 to 20)
#    0.000    1.250    0.000    7.875    0.000    0.000 
#    0.000    1.875    0.000    9.000    0.000    0.000 
#    0.000    0.000    0.000    0.000    0.000    0.000 
#
# Total GULP energy -357291.794464 kJ/mol
# GULP energy per Si atom -5582.684288 kJ/mol
# Density = 1.972728 g / cm^3
# Si number density = 19.772283 Si / 1000 Ang^3
#
#
#
# Elastic Constant Matrix: (Units=GPa)
#
#
# Indices 1 2 3 4 5 6 
#
# 1 126.3123 40.4140 45.4623 0.0000 0.0000 0.0000
# 2 40.4140 107.7469 38.0074 0.0000 0.0000 0.0000
# 3 45.4623 38.0074 98.1519 0.0000 0.0000 0.0000
# 4 0.0000 0.0000 0.0000 31.7851 0.0000 0.0000
# 5 0.0000 0.0000 0.0000 0.0000 27.4888 0.0000
# 6 0.0000 0.0000 0.0000 0.0000 0.0000 31.4844
#
#
#
# Elastic Compliance Matrix: (Units=1/GPa)
#
#
# Indices 1 2 3 4 5 6 
#
# 1 0.010034 -0.002460 -0.003695 0.000000 0.000000 0.000000
# 2 -0.002460 0.011353 -0.003257 0.000000 0.000000 0.000000
# 3 -0.003695 -0.003257 0.013161 0.000000 0.000000 0.000000
# 4 0.000000 0.000000 0.000000 0.031461 0.000000 0.000000
# 5 0.000000 0.000000 0.000000 0.000000 0.036378 0.000000
# 6 0.000000 0.000000 0.000000 0.000000 0.000000 0.031762
#
#
# Mechanical properties :
#
#
# Convention : Reuss Voigt Hill
#
# Bulk Modulus (GPa) = 63.59720 64.44206 64.01963
# Shear Modulus (GPa) = 31.60294 32.04014 31.82154
#
# Velocity S-wave (km/s) = 4.00227 4.02986 4.01609
# Velocity P-wave (km/s) = 7.32067 7.36993 7.34534
#
# Compressibility (1/GPa) = 0.01572396
#
# Stress axis : x y z
#
# Youngs Moduli (GPa) = 99.66227 88.08622 75.98369
#
# Poissons Ratio (x) = 0.21671 0.28075
# Poissons Ratio (y) = 0.24519 0.24744
# Poissons Ratio (z) = 0.36824 0.28685
#
# Static dielectric constant tensor:
#      x y z
#    x 1.732320 0.000000 0.000000 
#    y 0.000000 1.712120 0.000000 
#    z 0.000000 0.000000 1.691230 
# 
# From -- ./inp_files/32477.got.cif
#   From: 2010.05.17/outbox.cif.g08.bks.cpg/sg50_17_cif.got.tgz:32477.got - 2010.06.03 11:33:33.
