data_PCOD9396804
_publ_section_title
;
Structure prediction by ZEFSAII (Michael W. Deem and Ramdas Pophale) SiO2 
 PCOD9396804
Probable space group: P B A N
;
_chemical_formula_sum "Si O2"
_cell_formula_units_Z 48
_cell_length_a 17.083201
_cell_length_b 5.408559
_cell_length_c 21.360241
_cell_angle_alpha 90.000000
_cell_angle_beta 90.000000
_cell_angle_gamma 90.000000
_cell_volume 1973.590158
_symmetry_space_group_name_H-M "P B A N"
_symmetry_group_IT_number 50
_space_group.IT_coordinate_system_code '2'
_symmetry_cell_setting 'orthorhombic'
loop_
_space_group_symop_operation_xyz
x,y,z
1/2-x,1/2-y,z
x,1/2-y,-z
1/2-x,y,-z
-x,-y,-z
1/2+x,1/2+y,-z
-x,1/2+y,z
1/2+x,-y,z
loop_
_atom_site_type_symbol
_atom_site_label
_atom_site_fract_x
_atom_site_fract_y
_atom_site_fract_z
Si Si1 0.044385 0.546936 0.107705
Si Si2 0.226125 0.499970 0.270529
Si Si3 0.968459 0.323171 0.427587
Si Si4 0.453321 0.966035 0.259221
Si Si5 0.292456 0.502306 0.409121
Si Si6 0.281812 0.499608 0.929180
O O1 0.056247 0.534847 0.183208
O O2 0.125572 0.502753 0.073539
O O3 0.987929 0.318053 0.092087
O O4 0.250000 0.750000 0.237011
O O5 0.134317 0.505805 0.285100
O O6 0.277817 0.499107 0.334237
O O7 0.250000 0.250000 0.237113
O O8 0.986006 0.250000 0.500000
O O9 0.883449 0.452084 0.423202
O O10 0.024841 0.541494 0.400961
O O11 0.493378 0.703844 0.275109
O O12 0.250000 0.750000 0.432105
O O13 0.250000 0.250000 0.431308
O O14 0.250000 0.250000 0.899627
O O15 0.250000 0.750000 0.899739
O O16 0.250000 0.499654 0.000000
#
# Coordination Sequence:
#
# PCOD9396804 Si02
#       6
#     8   8   8   8   8   8
#     4  10  21  38  60  85 114 150 193 242 294 348
#     4  10  21  38  57  85 120 154 194 238 291 350
#     4  10  21  39  62  87 116 152 194 240 288 339
#     4  10  21  38  60  86 116 152 195 242 292 348
#     4  10  21  39  58  86 122 155 196 239 291 351
#     4  10  21  38  56  83 117 150 193 238 292 354
#
# _framework density 24.321158
#
# number of rings (size 3 to 8) (size 9 to 14) (size 15 to 20)
#    0.000    2.000    0.000    3.000    0.000    1.667 
#    0.000   30.833    0.000    0.000    0.000    0.000 
#    0.000    0.000    0.000    0.000    0.000    0.000 
#
# Total GULP energy -268423.878616 kJ/mol
# GULP energy per Si atom -5592.164138 kJ/mol
# Density = 2.426580 g / cm^3
# Si number density = 24.321158 Si / 1000 Ang^3
#
#
#
# Elastic Constant Matrix: (Units=GPa)
#
#
# Indices 1 2 3 4 5 6 
#
# 1 133.2894 58.2156 10.6473 0.0000 0.0000 0.0000
# 2 58.2156 256.4637 23.3317 0.0000 0.0000 0.0000
# 3 10.6473 23.3317 98.4793 0.0000 0.0000 0.0000
# 4 0.0000 0.0000 0.0000 412.3965 0.0000 0.0000
# 5 0.0000 0.0000 0.0000 0.0000 112.0500 0.0000
# 6 0.0000 0.0000 0.0000 0.0000 0.0000 55.0209
#
#
#
# Elastic Compliance Matrix: (Units=1/GPa)
#
#
# Indices 1 2 3 4 5 6 
#
# 1 0.008349 -0.001853 -0.000464 0.000000 0.000000 0.000000
# 2 -0.001853 0.004396 -0.000841 0.000000 0.000000 0.000000
# 3 -0.000464 -0.000841 0.010404 0.000000 0.000000 0.000000
# 4 0.000000 0.000000 0.000000 0.002425 0.000000 0.000000
# 5 0.000000 0.000000 0.000000 0.000000 0.008925 0.000000
# 6 0.000000 0.000000 0.000000 0.000000 0.000000 0.018175
#
#
# Mechanical properties :
#
#
# Convention : Reuss Voigt Hill
#
# Bulk Modulus (GPa) = 59.40601 74.73574 67.07087
# Shear Modulus (GPa) = 77.39924 142.29600 109.84762
#
# Velocity S-wave (km/s) = 5.64738 7.65729 6.72782
# Velocity P-wave (km/s) = 8.18551 10.43907 9.38021
#
# Compressibility (1/GPa) = 0.01683331
#
# Stress axis : x y z
#
# Youngs Moduli (GPa) = 119.77765 227.46267 96.11819
#
# Poissons Ratio (x) = 0.42148 0.04456
# Poissons Ratio (y) = 0.22194 0.08086
# Poissons Ratio (z) = 0.05553 0.19135
#
# Static dielectric constant tensor:
#      x y z
#    x 1.863000 0.000000 0.000000 
#    y 0.000000 2.067480 0.000000 
#    z 0.000000 0.000000 1.935870 
# 
# From -- ./inp_files/32248.got.cif
#   From: 2010.05.17/outbox.cif.g08.bks.cpg/sg50_17_cif.got.tgz:32248.got - 2010.06.03 11:33:33.
