data_PCOD9396802
_publ_section_title
;
Structure prediction by ZEFSAII (Michael W. Deem and Ramdas Pophale) SiO2 
 PCOD9396802
Probable space group: P B A N
;
_chemical_formula_sum "Si O2"
_cell_formula_units_Z 44
_cell_length_a 12.469422
_cell_length_b 4.904692
_cell_length_c 31.745167
_cell_angle_alpha 90.000000
_cell_angle_beta 90.000000
_cell_angle_gamma 90.000000
_cell_volume 1941.492330
_symmetry_space_group_name_H-M "P B A N"
_symmetry_group_IT_number 50
_space_group.IT_coordinate_system_code '2'
_symmetry_cell_setting 'orthorhombic'
loop_
_space_group_symop_operation_xyz
x,y,z
1/2-x,1/2-y,z
x,1/2-y,-z
1/2-x,y,-z
-x,-y,-z
1/2+x,1/2+y,-z
-x,1/2+y,z
1/2+x,-y,z
loop_
_atom_site_type_symbol
_atom_site_label
_atom_site_fract_x
_atom_site_fract_y
_atom_site_fract_z
Si Si1 0.750000 0.750000 0.113876
Si Si2 0.423349 0.430208 0.585507
Si Si3 0.250000 0.750000 0.172078
Si Si4 0.425336 0.355354 0.676443
Si Si5 0.577099 0.520766 0.233131
Si Si6 0.570423 0.779312 0.047940
Si Si7 0.582044 0.750000 0.500000
O O1 0.787982 0.496168 0.142178
O O2 0.652807 0.680813 0.082835
O O3 0.469918 0.736093 0.584625
O O4 0.370662 0.399166 0.631348
O O5 0.361685 0.322009 0.544223
O O6 0.337121 0.902206 0.201060
O O7 0.533318 0.544745 0.676891
O O8 0.372482 0.456360 0.719679
O O9 0.524943 0.818584 0.228462
O O10 0.465134 0.591519 0.052365
O O11 0.611068 0.750000 0.000000
O O12 0.500000 0.500000 0.500000
#
# Coordination Sequence:
#
# PCOD9396802 Si02
#       7
#     4   8   4   8   8   8   4
#     4  12  25  40  60  88 120 150 186 233 282 336
#     4   8  12  18  29  48  73 105 149 191 238 296
#     4  12  26  38  57  86 112 150 194 233 290 346
#     4   8  14  25  42  60  81 118 166 209 254 305
#     4  10  21  38  56  75 105 142 186 238 283 330
#     4  10  22  41  65  91 119 153 190 228 275 333
#     4   8  12  16  24  42  72 104 138 186 236 288
#
# _framework density 22.662977999999999
#
# number of rings (size 3 to 8) (size 9 to 14) (size 15 to 20)
#    0.000    2.545    0.000    2.455    0.000    4.364 
#    0.000    3.636    0.000    0.000    0.000    0.000 
#    0.000    0.000    0.000    0.000    0.000 1199.091 
#
# Total GULP energy -245030.241381 kJ/mol
# GULP energy per Si atom -5568.869122 kJ/mol
# Density = 2.261140 g / cm^3
# Si number density = 22.662978 Si / 1000 Ang^3
#
#
#
# Elastic Constant Matrix: (Units=GPa)
#
#
# Indices 1 2 3 4 5 6 
#
# 1 41.0551 -2.7128 39.0950 0.0000 0.0000 0.0000
# 2 -2.7128 107.5852 13.8153 0.0000 0.0000 0.0000
# 3 39.0950 13.8153 171.1331 0.0000 0.0000 0.0000
# 4 0.0000 0.0000 0.0000 29.6521 0.0000 0.0000
# 5 0.0000 0.0000 0.0000 0.0000 73.1384 0.0000
# 6 0.0000 0.0000 0.0000 0.0000 0.0000 11.7749
#
#
#
# Elastic Compliance Matrix: (Units=1/GPa)
#
#
# Indices 1 2 3 4 5 6 
#
# 1 0.031446 0.001733 -0.007324 0.000000 0.000000 0.000000
# 2 0.001733 0.009488 -0.001162 0.000000 0.000000 0.000000
# 3 -0.007324 -0.001162 0.007610 0.000000 0.000000 0.000000
# 4 0.000000 0.000000 0.000000 0.033724 0.000000 0.000000
# 5 0.000000 0.000000 0.000000 0.000000 0.013673 0.000000
# 6 0.000000 0.000000 0.000000 0.000000 0.000000 0.084927
#
#
# Mechanical properties :
#
#
# Convention : Reuss Voigt Hill
#
# Bulk Modulus (GPa) = 28.53905 46.68539 37.61222
# Shear Modulus (GPa) = 24.26565 40.88480 32.57523
#
# Velocity S-wave (km/s) = 3.27573 4.25200 3.79539
# Velocity P-wave (km/s) = 5.18916 6.68959 5.98657
#
# Compressibility (1/GPa) = 0.03503971
#
# Stress axis : x y z
#
# Youngs Moduli (GPa) = 31.80045 105.39770 131.40088
#
# Poissons Ratio (x) = -0.18269 0.96234
# Poissons Ratio (y) = -0.05512 0.15268
# Poissons Ratio (z) = 0.23290 0.12246
#
# Static dielectric constant tensor:
#      x y z
#    x 2.104240 0.000000 0.000000 
#    y 0.000000 1.785930 0.000000 
#    z 0.000000 0.000000 1.980130 
# 
# From -- ./inp_files/32485.got.cif
#   From: 2010.05.17/outbox.cif.g08.bks.cpg/sg50_17_cif.got.tgz:32485.got - 2010.06.03 11:33:33.
