data_PCOD9396956
_publ_section_title
;
Structure prediction by ZEFSAII (Michael W. Deem and Ramdas Pophale) SiO2 
 PCOD9396956
Probable space group: P B A N
;
_chemical_formula_sum "Si O2"
_cell_formula_units_Z 40
_cell_length_a 24.348210
_cell_length_b 14.963964
_cell_length_c 5.024980
_cell_angle_alpha 90.000000
_cell_angle_beta 90.000000
_cell_angle_gamma 90.000000
_cell_volume 1830.830046
_symmetry_space_group_name_H-M "P B A N"
_symmetry_group_IT_number 50
_space_group.IT_coordinate_system_code '2'
_symmetry_cell_setting 'orthorhombic'
loop_
_space_group_symop_operation_xyz
x,y,z
1/2-x,1/2-y,z
x,1/2-y,-z
1/2-x,y,-z
-x,-y,-z
1/2+x,1/2+y,-z
-x,1/2+y,z
1/2+x,-y,z
loop_
_atom_site_type_symbol
_atom_site_label
_atom_site_fract_x
_atom_site_fract_y
_atom_site_fract_z
Si Si1 0.189202 0.484588 0.541356
Si Si2 0.688500 0.109338 0.971638
Si Si3 0.408729 0.702904 0.293088
Si Si4 0.513058 0.895947 0.957390
Si Si5 0.087246 0.352966 0.536714
O O1 0.250000 0.446133 0.500000
O O2 0.188613 0.524566 0.835190
O O3 0.140781 0.413891 0.543721
O O4 0.182075 0.565565 0.323302
O O5 0.643961 0.170654 0.131093
O O6 0.750000 0.149156 0.000000
O O7 0.460485 0.660611 0.147880
O O8 0.410010 0.691130 0.617470
O O9 0.454847 0.360402 0.215464
O O10 0.554660 0.887857 0.716193
O O11 0.500000 0.000000 0.000000
O O12 0.101946 0.250000 0.500000
#
# Coordination Sequence:
#
# PCOD9396956 Si02
#       5
#     8   8   8   8   8
#     4  10  21  40  65  90 122 166 213 255 307 380
#     4  10  22  42  64  89 123 165 212 258 309 379
#     4  12  24  40  63  92 126 161 207 265 321 374
#     4  12  25  42  64  89 124 169 214 256 313 386
#     4  12  24  40  63  94 129 161 205 266 323 373
#
# _framework density 21.848012000000001
#
# number of rings (size 3 to 8) (size 9 to 14) (size 15 to 20)
#    0.000    0.800    0.000    9.000    0.000    0.800 
#    0.000    1.000    0.000    6.000    0.000    0.000 
#    0.000    0.000    0.000    0.000    0.000    0.000 
#
# Total GULP energy -222756.412325 kJ/mol
# GULP energy per Si atom -5568.910308 kJ/mol
# Density = 2.179828 g / cm^3
# Si number density = 21.848012 Si / 1000 Ang^3
#
#
#
# Elastic Constant Matrix: (Units=GPa)
#
#
# Indices 1 2 3 4 5 6 
#
# 1 251.6455 83.4134 70.6021 0.0000 0.0000 0.0000
# 2 83.4134 96.7405 30.1235 0.0000 0.0000 0.0000
# 3 70.6021 30.1235 136.1087 0.0000 0.0000 0.0000
# 4 0.0000 0.0000 0.0000 26.7368 0.0000 0.0000
# 5 0.0000 0.0000 0.0000 0.0000 28.2122 0.0000
# 6 0.0000 0.0000 0.0000 0.0000 0.0000 132.4055
#
#
#
# Elastic Compliance Matrix: (Units=1/GPa)
#
#
# Indices 1 2 3 4 5 6 
#
# 1 0.006097 -0.004589 -0.002147 0.000000 0.000000 0.000000
# 2 -0.004589 0.014555 -0.000841 0.000000 0.000000 0.000000
# 3 -0.002147 -0.000841 0.008647 0.000000 0.000000 0.000000
# 4 0.000000 0.000000 0.000000 0.037402 0.000000 0.000000
# 5 0.000000 0.000000 0.000000 0.000000 0.035446 0.000000
# 6 0.000000 0.000000 0.000000 0.000000 0.000000 0.007553
#
#
# Mechanical properties :
#
#
# Convention : Reuss Voigt Hill
#
# Bulk Modulus (GPa) = 70.69335 94.75253 82.72294
# Shear Modulus (GPa) = 38.58953 57.49462 48.04207
#
# Velocity S-wave (km/s) = 4.20726 5.13545 4.69435
# Velocity P-wave (km/s) = 7.48522 8.86718 8.20535
#
# Compressibility (1/GPa) = 0.01414560
#
# Stress axis : x y z
#
# Youngs Moduli (GPa) = 164.00704 68.70293 115.64661
#
# Poissons Ratio (x) = 0.31526 0.24832
# Poissons Ratio (y) = 0.75258 0.09728
# Poissons Ratio (z) = 0.35216 0.05779
#
# Static dielectric constant tensor:
#      x y z
#    x 1.848740 0.000000 0.000000 
#    y 0.000000 1.927040 0.000000 
#    z 0.000000 0.000000 1.768960 
# 
# From -- ./inp_files/6527.got.cif
#   From: 2010.05.17/outbox.cif.g08.bks.cpg/sg50_4_cif.got.tgz:6527.got - 2010.06.03 11:33:33.
