data_PCOD9396945
_publ_section_title
;
Structure prediction by ZEFSAII (Michael W. Deem and Ramdas Pophale) SiO2 
 PCOD9396945
Probable space group: P B A N
;
_chemical_formula_sum "Si O2"
_cell_formula_units_Z 54
_cell_length_a 10.789308
_cell_length_b 20.524009
_cell_length_c 11.178963
_cell_angle_alpha 90.000000
_cell_angle_beta 90.000000
_cell_angle_gamma 90.000000
_cell_volume 2475.467940
_symmetry_space_group_name_H-M "P B A N"
_symmetry_group_IT_number 50
_space_group.IT_coordinate_system_code '2'
_symmetry_cell_setting 'orthorhombic'
loop_
_space_group_symop_operation_xyz
x,y,z
1/2-x,1/2-y,z
x,1/2-y,-z
1/2-x,y,-z
-x,-y,-z
1/2+x,1/2+y,-z
-x,1/2+y,z
1/2+x,-y,z
loop_
_atom_site_type_symbol
_atom_site_label
_atom_site_fract_x
_atom_site_fract_y
_atom_site_fract_z
Si Si1 0.750000 0.750000 0.500000
Si Si2 0.885294 0.082598 0.976755
Si Si3 0.899927 0.559621 0.139776
Si Si4 0.250000 0.332230 0.000000
Si Si5 0.109540 0.905828 0.464690
Si Si6 0.009024 0.290213 0.114220
Si Si7 0.134492 0.441762 0.587797
Si Si8 0.992636 0.715094 0.621646
O O1 0.846622 0.712145 0.586010
O O2 0.957276 0.136448 0.899373
O O3 0.872746 0.012804 0.910461
O O4 0.750000 0.109113 0.000000
O O5 0.956139 0.069276 0.102579
O O6 0.848760 0.566938 0.272503
O O7 0.836235 0.618752 0.072435
O O8 0.155932 0.296016 0.089041
O O9 0.250000 0.888360 0.500000
O O10 0.994669 0.905207 0.558368
O O11 0.058989 0.854339 0.370637
O O12 0.114331 0.980781 0.426418
O O13 0.990595 0.257600 0.244438
O O14 0.958632 0.250000 0.000000
O O15 0.250000 0.425090 0.500000
O O16 0.044965 0.750000 0.500000
#
# Coordination Sequence:
#
# PCOD9396945 Si02
#       8
#     2   8   8   4   8   8   8   8
#     4   8  24  40  68  96 112 168 224 284 322 384
#     4  10  22  41  65  93 133 178 220 289 328 413
#     4  10  21  40  64 100 128 168 228 267 351 396
#     4  10  23  38  68  96 127 166 208 284 334 388
#     4  10  23  43  59  98 133 178 219 269 342 402
#     4  11  25  41  64  97 132 174 222 275 336 394
#     4  10  23  38  66  98 137 176 216 279 336 418
#     4  10  24  43  68  91 129 172 229 278 334 395
#
# _framework density 21.814056000000001
#
# number of rings (size 3 to 8) (size 9 to 14) (size 15 to 20)
#    0.444    1.481    0.741    1.111    5.185    7.704 
#    0.000    1.481    0.000    0.000    0.000    0.000 
#    0.000    0.000    0.000    0.000    0.000    0.000 
#
# Total GULP energy -300664.350741 kJ/mol
# GULP energy per Si atom -5567.858347 kJ/mol
# Density = 2.176441 g / cm^3
# Si number density = 21.814056 Si / 1000 Ang^3
#
#
#
# Elastic Constant Matrix: (Units=GPa)
#
#
# Indices 1 2 3 4 5 6 
#
# 1 119.7131 10.7910 31.5623 0.0000 0.0000 0.0000
# 2 10.7910 46.8899 22.1544 0.0000 0.0000 0.0000
# 3 31.5623 22.1544 161.0822 0.0000 0.0000 0.0000
# 4 0.0000 0.0000 0.0000 16.2650 0.0000 0.0000
# 5 0.0000 0.0000 0.0000 0.0000 7.1100 0.0000
# 6 0.0000 0.0000 0.0000 0.0000 0.0000 -11.9558
#
#
#
# Elastic Compliance Matrix: (Units=1/GPa)
#
#
# Indices 1 2 3 4 5 6 
#
# 1 0.008883 -0.001307 -0.001561 0.000000 0.000000 0.000000
# 2 -0.001307 0.023001 -0.002907 0.000000 0.000000 0.000000
# 3 -0.001561 -0.002907 0.006914 0.000000 0.000000 0.000000
# 4 0.000000 0.000000 0.000000 0.061482 0.000000 0.000000
# 5 0.000000 0.000000 0.000000 0.000000 0.140647 0.000000
# 6 0.000000 0.000000 0.000000 0.000000 0.000000 -0.083641
#
#
# Mechanical properties :
#
#
# Convention : Reuss Voigt Hill
#
# Bulk Modulus (GPa) = 36.70069 50.74451 43.72260
# Shear Modulus (GPa) = 28.10296 19.82899 23.96598
#
# Velocity S-wave (km/s) = 3.59318 3.01823 3.31818
# Velocity P-wave (km/s) = 5.83742 5.95476 5.89638
#
# Compressibility (1/GPa) = 0.02724744
#
# Stress axis : x y z
#
# Youngs Moduli (GPa) = 112.57983 43.47645 144.64076
#
# Poissons Ratio (x) = 0.05681 0.22574
# Poissons Ratio (y) = 0.14712 0.42053
# Poissons Ratio (z) = 0.17571 0.12640
#
# Static dielectric constant tensor:
#      x y z
#    x 1.821930 0.000000 0.000000 
#    y 0.000000 1.877240 0.000000 
#    z 0.000000 0.000000 1.851540 
# 
# From -- ./inp_files/20407.got.cif
#   From: 2010.05.17/outbox.cif.g08.bks.cpg/sg50_11_cif.got.tgz:20407.got - 2010.06.03 11:33:33.
