data_PCOD9396218
_publ_section_title
;
Structure prediction by ZEFSAII (Michael W. Deem and Ramdas Pophale) SiO2 
 PCOD9396218
Probable space group: P B A N
;
_chemical_formula_sum "Si O2"
_cell_formula_units_Z 64
_cell_length_a 18.141004
_cell_length_b 15.927677
_cell_length_c 11.038753
_cell_angle_alpha 90.000000
_cell_angle_beta 90.000000
_cell_angle_gamma 90.000000
_cell_volume 3189.582023
_symmetry_space_group_name_H-M "P B A N"
_symmetry_group_IT_number 50
_space_group.IT_coordinate_system_code '2'
_symmetry_cell_setting 'orthorhombic'
loop_
_space_group_symop_operation_xyz
x,y,z
1/2-x,1/2-y,z
x,1/2-y,-z
1/2-x,y,-z
-x,-y,-z
1/2+x,1/2+y,-z
-x,1/2+y,z
1/2+x,-y,z
loop_
_atom_site_type_symbol
_atom_site_label
_atom_site_fract_x
_atom_site_fract_y
_atom_site_fract_z
Si Si1 0.585443 0.427723 0.609795
Si Si2 0.367357 0.022819 0.205131
Si Si3 0.026251 0.913314 0.649593
Si Si4 0.508106 0.372267 0.829783
Si Si5 0.945101 0.798727 0.826088
Si Si6 0.103768 0.025293 0.071635
Si Si7 0.705871 0.969616 0.308261
Si Si8 0.668253 0.713959 0.626832
O O1 0.535466 0.512207 0.637463
O O2 0.559273 0.397234 0.480910
O O3 0.563270 0.365321 0.716499
O O4 0.670636 0.454230 0.616152
O O5 0.429484 0.094356 0.219514
O O6 0.409383 0.943721 0.261429
O O7 0.291705 0.035501 0.276737
O O8 0.359926 0.016381 0.059977
O O9 0.988721 0.835126 0.711250
O O10 0.489090 0.280287 0.878021
O O11 0.545194 0.448793 0.907227
O O12 0.870863 0.769621 0.756314
O O13 0.930714 0.880775 0.910215
O O14 0.163437 0.022191 0.179247
O O15 0.678875 0.886274 0.377011
O O16 0.750000 0.750000 0.633884
O O17 0.635093 0.750000 0.500000
#
# Coordination Sequence:
#
# PCOD9396218 Si02
#       8
#     8   8   8   8   8   8   8   8
#     4   9  19  37  56  82 122 152 202 251 293 369
#     4  11  21  37  62  86 119 163 203 249 311 359
#     4  10  20  35  57  85 117 157 202 250 299 364
#     4  10  21  35  60  87 118 159 202 255 309 361
#     4  11  21  37  58  88 122 163 206 254 312 366
#     4  10  21  42  56  88 124 157 208 259 295 374
#     4  10  20  38  58  86 119 165 196 246 310 362
#     4  10  21  33  50  85 128 158 193 236 293 382
#
# _framework density 20.065325000000001
#
# number of rings (size 3 to 8) (size 9 to 14) (size 15 to 20)
#    0.000    1.875    5.000    1.500    1.750    4.000 
#    0.000    0.000    0.000    5.250    0.000    7.000 
#    0.000    0.000    0.000    0.000    0.000    0.000 
#
# Total GULP energy -356735.843989 kJ/mol
# GULP energy per Si atom -5573.997562 kJ/mol
# Density = 2.001966 g / cm^3
# Si number density = 20.065325 Si / 1000 Ang^3
#
#
#
# Elastic Constant Matrix: (Units=GPa)
#
#
# Indices 1 2 3 4 5 6 
#
# 1 78.3781 20.2161 10.3280 0.0000 0.0000 0.0000
# 2 20.2161 59.4792 13.4463 0.0000 0.0000 0.0000
# 3 10.3280 13.4463 89.6613 0.0000 0.0000 0.0000
# 4 0.0000 0.0000 0.0000 23.2545 0.0000 0.0000
# 5 0.0000 0.0000 0.0000 0.0000 22.4508 0.0000
# 6 0.0000 0.0000 0.0000 0.0000 0.0000 17.7287
#
#
#
# Elastic Compliance Matrix: (Units=1/GPa)
#
#
# Indices 1 2 3 4 5 6 
#
# 1 0.014060 -0.004567 -0.000935 0.000000 0.000000 0.000000
# 2 -0.004567 0.018886 -0.002306 0.000000 0.000000 0.000000
# 3 -0.000935 -0.002306 0.011607 0.000000 0.000000 0.000000
# 4 0.000000 0.000000 0.000000 0.043003 0.000000 0.000000
# 5 0.000000 0.000000 0.000000 0.000000 0.044542 0.000000
# 6 0.000000 0.000000 0.000000 0.000000 0.000000 0.056406
#
#
# Mechanical properties :
#
#
# Convention : Reuss Voigt Hill
#
# Bulk Modulus (GPa) = 34.55864 35.05550 34.80707
# Shear Modulus (GPa) = 23.39017 24.92199 24.15608
#
# Velocity S-wave (km/s) = 3.41794 3.52809 3.47345
# Velocity P-wave (km/s) = 5.73035 5.83996 5.78541
#
# Compressibility (1/GPa) = 0.02893633
#
# Stress axis : x y z
#
# Youngs Moduli (GPa) = 71.12426 52.94821 86.15787
#
# Poissons Ratio (x) = 0.24184 0.08052
# Poissons Ratio (y) = 0.32486 0.19870
# Poissons Ratio (z) = 0.06647 0.12211
#
# Static dielectric constant tensor:
#      x y z
#    x 1.752500 0.000000 0.000000 
#    y 0.000000 1.750420 0.000000 
#    z 0.000000 0.000000 1.777910 
# 
# From -- ./inp_files/21932.got.cif
#   From: 2010.05.17/outbox.cif.g08.bks.cpg/sg50_11_cif.got.tgz:21932.got - 2010.06.03 11:33:33.
