data_PCOD9396831
_publ_section_title
;
Structure prediction by ZEFSAII (Michael W. Deem and Ramdas Pophale) SiO2 
 PCOD9396831
Probable space group: P B A N
;
_chemical_formula_sum "Si O2"
_cell_formula_units_Z 48
_cell_length_a 8.899083
_cell_length_b 16.838222
_cell_length_c 14.957167
_cell_angle_alpha 90.000000
_cell_angle_beta 90.000000
_cell_angle_gamma 90.000000
_cell_volume 2241.252728
_symmetry_space_group_name_H-M "P B A N"
_symmetry_group_IT_number 50
_space_group.IT_coordinate_system_code '2'
_symmetry_cell_setting 'orthorhombic'
loop_
_space_group_symop_operation_xyz
x,y,z
1/2-x,1/2-y,z
x,1/2-y,-z
1/2-x,y,-z
-x,-y,-z
1/2+x,1/2+y,-z
-x,1/2+y,z
1/2+x,-y,z
loop_
_atom_site_type_symbol
_atom_site_label
_atom_site_fract_x
_atom_site_fract_y
_atom_site_fract_z
Si Si1 0.919457 0.779471 0.251917
Si Si2 0.042889 0.038041 0.718923
Si Si3 0.250000 0.750000 0.652186
Si Si4 0.757785 0.071108 0.601880
Si Si5 0.025179 0.693076 0.073101
Si Si6 0.750000 0.904099 0.000000
Si Si7 0.419965 0.522176 0.905092
O O1 0.750000 0.750000 0.281193
O O2 0.900430 0.874284 0.255215
O O3 0.956822 0.741538 0.155504
O O4 0.083358 0.760650 0.299933
O O5 0.917537 0.054522 0.645485
O O6 0.151073 0.976300 0.669657
O O7 0.997111 0.999407 0.813560
O O8 0.270691 0.665695 0.603359
O O9 0.750000 0.042178 0.500000
O O10 0.886742 0.651965 0.022882
O O11 0.121857 0.615223 0.099465
O O12 0.096015 0.750000 0.000000
O O13 0.782241 0.961561 0.083932
O O14 0.500000 0.500000 0.000000
#
# Coordination Sequence:
#
# PCOD9396831 Si02
#       7
#     8   8   4   8   8   4   8
#     4  11  23  42  69 101 139 188 237 295 358 427
#     4  11  25  42  71 105 136 189 240 289 366 432
#     4  10  25  46  71 106 140 178 235 294 368 442
#     4  11  25  47  73 102 141 182 234 303 365 428
#     4  11  21  38  60  91 135 186 237 290 349 425
#     4  10  21  38  61  92 132 190 240 287 358 422
#     4  10  22  37  61  97 138 176 231 290 343 425
#
# _framework density 21.416594
#
# number of rings (size 3 to 8) (size 9 to 14) (size 15 to 20)
#    0.000    1.333    0.000    6.000    9.333    0.000 
#    3.000    0.000    0.000    0.000    0.000    0.000 
#    0.000    0.000    0.000    0.000    0.000    0.000 
#
# Total GULP energy -267285.202541 kJ/mol
# GULP energy per Si atom -5568.441720 kJ/mol
# Density = 2.136785 g / cm^3
# Si number density = 21.416594 Si / 1000 Ang^3
#
#
#
# Elastic Constant Matrix: (Units=GPa)
#
#
# Indices 1 2 3 4 5 6 
#
# 1 86.2849 36.3909 18.9610 0.0000 0.0000 0.0000
# 2 36.3909 150.8421 48.8661 0.0000 0.0000 0.0000
# 3 18.9610 48.8661 100.7928 0.0000 0.0000 0.0000
# 4 0.0000 0.0000 0.0000 19.7351 0.0000 0.0000
# 5 0.0000 0.0000 0.0000 0.0000 13.6681 0.0000
# 6 0.0000 0.0000 0.0000 0.0000 0.0000 20.2148
#
#
#
# Elastic Compliance Matrix: (Units=1/GPa)
#
#
# Indices 1 2 3 4 5 6 
#
# 1 0.013004 -0.002782 -0.001098 0.000000 0.000000 0.000000
# 2 -0.002782 0.008460 -0.003578 0.000000 0.000000 0.000000
# 3 -0.001098 -0.003578 0.011863 0.000000 0.000000 0.000000
# 4 0.000000 0.000000 0.000000 0.050671 0.000000 0.000000
# 5 0.000000 0.000000 0.000000 0.000000 0.073163 0.000000
# 6 0.000000 0.000000 0.000000 0.000000 0.000000 0.049469
#
#
# Mechanical properties :
#
#
# Convention : Reuss Voigt Hill
#
# Bulk Modulus (GPa) = 54.31455 60.70619 57.51037
# Shear Modulus (GPa) = 21.96053 26.30371 24.13212
#
# Velocity S-wave (km/s) = 3.20566 3.50836 3.36042
# Velocity P-wave (km/s) = 6.25441 6.69465 6.47827
#
# Compressibility (1/GPa) = 0.01841127
#
# Stress axis : x y z
#
# Youngs Moduli (GPa) = 76.90013 118.20800 84.29870
#
# Poissons Ratio (x) = 0.32881 0.09254
# Poissons Ratio (y) = 0.21391 0.30163
# Poissons Ratio (z) = 0.08441 0.42296
#
# Static dielectric constant tensor:
#      x y z
#    x 1.903990 0.000000 0.000000 
#    y 0.000000 1.830790 0.000000 
#    z 0.000000 0.000000 1.774370 
# 
# From -- ./inp_files/25060.got.cif
#   From: 2010.05.17/outbox.cif.g08.bks.cpg/sg50_13_cif.got.tgz:25060.got - 2010.06.03 11:33:33.
