data_PCOD9396136
_publ_section_title
;
Structure prediction by ZEFSAII (Michael W. Deem and Ramdas Pophale) SiO2 
 PCOD9396136
Probable space group: P B A N
;
_chemical_formula_sum "Si O2"
_cell_formula_units_Z 64
_cell_length_a 8.761290
_cell_length_b 15.057201
_cell_length_c 26.876867
_cell_angle_alpha 90.000000
_cell_angle_beta 90.000000
_cell_angle_gamma 90.000000
_cell_volume 3545.609855
_symmetry_space_group_name_H-M "P B A N"
_symmetry_group_IT_number 50
_space_group.IT_coordinate_system_code '2'
_symmetry_cell_setting 'orthorhombic'
loop_
_space_group_symop_operation_xyz
x,y,z
1/2-x,1/2-y,z
x,1/2-y,-z
1/2-x,y,-z
-x,-y,-z
1/2+x,1/2+y,-z
-x,1/2+y,z
1/2+x,-y,z
loop_
_atom_site_type_symbol
_atom_site_label
_atom_site_fract_x
_atom_site_fract_y
_atom_site_fract_z
Si Si1 0.433364 0.092699 0.877001
Si Si2 0.934301 0.400396 0.500079
Si Si3 0.934115 0.250063 0.578236
Si Si4 0.454447 0.105825 0.764236
Si Si5 0.432758 0.755346 0.057801
Si Si6 0.432190 0.103186 0.127768
Si Si7 0.065718 0.241959 0.688192
Si Si8 0.089265 0.087541 0.759308
O O1 0.482702 0.127935 0.822209
O O2 0.507025 0.153732 0.918649
O O3 0.250150 0.096394 0.878956
O O4 0.490813 0.992059 0.881551
O O5 0.750000 0.406797 0.500000
O O6 0.979156 0.338689 0.547353
O O7 0.979246 0.338230 0.453000
O O8 0.000000 0.500000 0.500000
O O9 0.750000 0.250000 0.580126
O O10 0.000912 0.249185 0.633158
O O11 0.495214 0.181362 0.724931
O O12 0.272562 0.091327 0.759745
O O13 0.536332 0.013117 0.753906
O O14 0.250000 0.750000 0.060842
O O15 0.503028 0.676642 0.090905
O O16 0.477565 0.750000 0.000000
O O17 0.461210 0.123070 0.186297
O O18 0.250000 0.250000 0.686352
O O19 0.029791 0.149244 0.715235
#
# Coordination Sequence:
#
# PCOD9396136 Si02
#       8
#     8   8   8   8   8   8   8   8
#     4  10  20  37  60  82 107 141 180 222 267 318
#     4   9  19  37  58  76 100 135 175 219 262 306
#     4   9  20  37  53  75 106 138 173 213 260 310
#     4   9  19  35  54  78 107 139 175 213 257 310
#     4  11  24  39  55  79 109 140 178 223 271 324
#     4  10  20  37  60  82 107 141 180 222 267 318
#     4  10  20  34  52  77 111 143 171 211 258 305
#     4   9  19  35  54  78 107 139 175 213 257 310
#
# _framework density 18.05049
#
# number of rings (size 3 to 8) (size 9 to 14) (size 15 to 20)
#    0.000    2.375    0.000    2.625    0.000    7.500 
#    0.000    7.500    0.000    0.000    0.000    0.000 
#    0.000    0.000    0.000    0.000    0.000    0.000 
#
# Total GULP energy -357150.931464 kJ/mol
# GULP energy per Si atom -5580.483304 kJ/mol
# Density = 1.800941 g / cm^3
# Si number density = 18.050490 Si / 1000 Ang^3
#
#
#
# Elastic Constant Matrix: (Units=GPa)
#
#
# Indices 1 2 3 4 5 6 
#
# 1 19.6557 9.7272 14.7491 0.0000 0.0000 0.0000
# 2 9.7272 49.7072 5.8039 0.0000 0.0000 0.0000
# 3 14.7491 5.8039 55.5434 0.0000 0.0000 0.0000
# 4 0.0000 0.0000 0.0000 -47.2414 0.0000 0.0000
# 5 0.0000 0.0000 0.0000 0.0000 30.8064 0.0000
# 6 0.0000 0.0000 0.0000 0.0000 0.0000 33.8891
#
#
#
# Elastic Compliance Matrix: (Units=1/GPa)
#
#
# Indices 1 2 3 4 5 6 
#
# 1 0.069568 -0.011598 -0.017261 0.000000 0.000000 0.000000
# 2 -0.011598 0.022300 0.000750 0.000000 0.000000 0.000000
# 3 -0.017261 0.000750 0.022509 0.000000 0.000000 0.000000
# 4 0.000000 0.000000 0.000000 -0.021168 0.000000 0.000000
# 5 0.000000 0.000000 0.000000 0.000000 0.032461 0.000000
# 6 0.000000 0.000000 0.000000 0.000000 0.000000 0.029508
#
#
# Mechanical properties :
#
#
# Convention : Reuss Voigt Hill
#
# Bulk Modulus (GPa) = 17.19472 20.60739 18.90106
# Shear Modulus (GPa) = 21.66532 9.79922 15.73227
#
# Velocity S-wave (km/s) = 3.46824 2.33250 2.95544
# Velocity P-wave (km/s) = 5.05814 4.32382 4.70533
#
# Compressibility (1/GPa) = 0.05815738
#
# Stress axis : x y z
#
# Youngs Moduli (GPa) = 14.37443 44.84314 44.42634
#
# Poissons Ratio (x) = 0.52010 0.76685
# Poissons Ratio (y) = 0.16672 -0.03330
# Poissons Ratio (z) = 0.24812 -0.03362
#
# Static dielectric constant tensor:
#      x y z
#    x 1.608420 0.000000 0.000000 
#    y 0.000000 1.610200 0.000000 
#    z 0.000000 0.000000 1.605860 
# 
# From -- ./inp_files/31606.got.cif
#   From: 2010.05.17/outbox.cif.g08.bks.cpg/sg50_16_cif.got.tgz:31606.got - 2010.06.03 11:33:33.
