data_PCOD9396760
_publ_section_title
;
Structure prediction by ZEFSAII (Michael W. Deem and Ramdas Pophale) SiO2 
 PCOD9396760
Probable space group: P B A N
;
_chemical_formula_sum "Si O2"
_cell_formula_units_Z 58
_cell_length_a 23.927288
_cell_length_b 15.204337
_cell_length_c 7.719242
_cell_angle_alpha 90.000000
_cell_angle_beta 90.000000
_cell_angle_gamma 90.000000
_cell_volume 2808.249049
_symmetry_space_group_name_H-M "P B A N"
_symmetry_group_IT_number 50
_space_group.IT_coordinate_system_code '2'
_symmetry_cell_setting 'orthorhombic'
loop_
_space_group_symop_operation_xyz
x,y,z
1/2-x,1/2-y,z
x,1/2-y,-z
1/2-x,y,-z
-x,-y,-z
1/2+x,1/2+y,-z
-x,1/2+y,z
1/2+x,-y,z
loop_
_atom_site_type_symbol
_atom_site_label
_atom_site_fract_x
_atom_site_fract_y
_atom_site_fract_z
Si Si1 0.041841 0.155802 0.214341
Si Si2 0.413735 0.842141 0.295908
Si Si3 0.408486 0.855841 0.703005
Si Si4 0.135026 0.020147 0.793182
Si Si5 0.535912 0.642871 0.203317
Si Si6 0.738830 0.880592 0.692494
Si Si7 0.144152 0.035586 0.197485
Si Si8 0.250000 0.250000 0.000000
O O1 0.051579 0.258160 0.260797
O O2 0.092495 0.093599 0.271442
O O3 0.979621 0.136076 0.279750
O O4 0.037619 0.145906 0.005862
O O5 0.400600 0.846762 0.498361
O O6 0.402861 0.743817 0.225818
O O7 0.378053 0.917431 0.207407
O O8 0.473025 0.879845 0.742329
O O9 0.368880 0.933664 0.765911
O O10 0.080385 0.072778 0.730219
O O11 0.188442 0.049833 0.685020
O O12 0.143875 0.047062 0.991276
O O13 0.750000 0.843410 0.500000
O O14 0.796652 0.928036 0.741399
O O15 0.722867 0.814682 0.853210
#
# Coordination Sequence:
#
# PCOD9396760 Si02
#       8
#     8   8   8   8   8   8   8   2
#     4   9  19  34  57  86 120 161 202 250 317 382
#     4  10  21  37  57  86 123 161 208 265 317 376
#     4  10  21  37  57  86 123 161 208 265 317 376
#     4  11  22  39  63  88 125 163 210 265 312 376
#     4   9  19  34  57  86 120 161 202 250 317 382
#     4  12  27  45  70  97 128 169 211 258 314 368
#     4  11  22  39  63  88 125 163 210 265 312 376
#     4  12  26  52  68  94 134 168 214 264 296 376
#
# _framework density 20.653438999999999
#
# number of rings (size 3 to 8) (size 9 to 14) (size 15 to 20)
#    0.000    1.655    1.379    2.690    1.931    7.172 
#    0.000    0.690    0.000    4.138    0.000    0.000 
#    0.000    0.000    0.000    0.000    0.000    0.000 
#
# Total GULP energy -323741.329581 kJ/mol
# GULP energy per Si atom -5581.747062 kJ/mol
# Density = 2.060643 g / cm^3
# Si number density = 20.653439 Si / 1000 Ang^3
#
#
#
# Elastic Constant Matrix: (Units=GPa)
#
#
# Indices 1 2 3 4 5 6 
#
# 1 58.7307 64.9695 9.2765 0.0000 0.0000 0.0000
# 2 64.9695 109.0349 16.9579 0.0000 0.0000 0.0000
# 3 9.2765 16.9579 71.5050 0.0000 0.0000 0.0000
# 4 0.0000 0.0000 0.0000 23.2279 0.0000 0.0000
# 5 0.0000 0.0000 0.0000 0.0000 65.8096 0.0000
# 6 0.0000 0.0000 0.0000 0.0000 0.0000 -21.4206
#
#
#
# Elastic Compliance Matrix: (Units=1/GPa)
#
#
# Indices 1 2 3 4 5 6 
#
# 1 0.049980 -0.029874 0.000601 0.000000 0.000000 0.000000
# 2 -0.029874 0.027379 -0.002618 0.000000 0.000000 0.000000
# 3 0.000601 -0.002618 0.014528 0.000000 0.000000 0.000000
# 4 0.000000 0.000000 0.000000 0.043052 0.000000 0.000000
# 5 0.000000 0.000000 0.000000 0.000000 0.015195 0.000000
# 6 0.000000 0.000000 0.000000 0.000000 0.000000 -0.046684
#
#
# Mechanical properties :
#
#
# Convention : Reuss Voigt Hill
#
# Bulk Modulus (GPa) = 35.58083 46.85315 41.21699
# Shear Modulus (GPa) = 28.31253 23.39450 25.85352
#
# Velocity S-wave (km/s) = 3.70650 3.36924 3.54189
# Velocity P-wave (km/s) = 5.96511 6.15389 6.06023
#
# Compressibility (1/GPa) = 0.02810502
#
# Stress axis : x y z
#
# Youngs Moduli (GPa) = 20.00810 36.52382 68.83336
#
# Poissons Ratio (x) = 1.09113 -0.04136
# Poissons Ratio (y) = 0.59773 0.18017
# Poissons Ratio (z) = -0.01202 0.09560
#
# Static dielectric constant tensor:
#      x y z
#    x 1.704680 0.000000 0.000000 
#    y 0.000000 1.771530 0.000000 
#    z 0.000000 0.000000 1.756110 
# 
# From -- ./inp_files/16113.got.cif
#   From: 2010.05.17/outbox.cif.g08.bks.cpg/sg50_9_cif.got.tgz:16113.got - 2010.06.03 11:33:33.
