data_PCOD9396656
_publ_section_title
;
Structure prediction by ZEFSAII (Michael W. Deem and Ramdas Pophale) SiO2 
 PCOD9396656
Probable space group: P B A N
;
_chemical_formula_sum "Si O2"
_cell_formula_units_Z 64
_cell_length_a 28.436227
_cell_length_b 19.872265
_cell_length_c 5.142670
_cell_angle_alpha 90.000000
_cell_angle_beta 90.000000
_cell_angle_gamma 90.000000
_cell_volume 2906.082902
_symmetry_space_group_name_H-M "P B A N"
_symmetry_group_IT_number 50
_space_group.IT_coordinate_system_code '2'
_symmetry_cell_setting 'orthorhombic'
loop_
_space_group_symop_operation_xyz
x,y,z
1/2-x,1/2-y,z
x,1/2-y,-z
1/2-x,y,-z
-x,-y,-z
1/2+x,1/2+y,-z
-x,1/2+y,z
1/2+x,-y,z
loop_
_atom_site_type_symbol
_atom_site_label
_atom_site_fract_x
_atom_site_fract_y
_atom_site_fract_z
Si Si1 0.905039 0.319537 0.380899
Si Si2 0.866375 0.460179 0.432463
Si Si3 0.929787 0.851092 0.960666
Si Si4 0.234876 0.966685 0.252666
Si Si5 0.222613 0.114911 0.747457
Si Si6 0.078447 0.995376 0.938155
Si Si7 0.371733 0.322527 0.564147
Si Si8 0.964037 0.144764 0.127572
O O1 0.886184 0.250000 0.500000
O O2 0.867502 0.379548 0.405108
O O3 0.945743 0.336971 0.588089
O O4 0.929345 0.324886 0.095958
O O5 0.818526 0.486814 0.303045
O O6 0.880356 0.479707 0.725620
O O7 0.906236 0.485231 0.236136
O O8 0.896940 0.849277 0.700082
O O9 0.982931 0.831202 0.900201
O O10 0.908488 0.810282 0.202571
O O11 0.933394 0.926738 0.078888
O O12 0.250000 0.925293 0.500000
O O13 0.267212 0.034378 0.245556
O O14 0.250000 0.928309 0.000000
O O15 0.250000 0.142129 0.500000
O O16 0.168399 0.130895 0.694480
O O17 0.250000 0.141580 0.000000
O O18 0.040488 0.936778 0.888554
O O19 0.349922 0.250000 0.500000
#
# Coordination Sequence:
#
# PCOD9396656 Si02
#       8
#     8   8   8   8   8   8   8   8
#     4  10  21  38  63  90 127 170 210 249 298 364
#     4  10  21  37  59  96 125 155 202 261 304 372
#     4  12  25  40  67  87 128 171 204 265 319 362
#     4  10  21  34  60  91 121 145 196 248 317 370
#     4  10  23  41  65  85 113 150 204 252 319 368
#     4  10  22  37  63  90 127 160 206 256 319 362
#     4  12  28  45  60  92 125 165 216 259 314 377
#     4  10  22  40  59  96 126 166 217 255 300 366
#
# _framework density 22.022773000000001
#
# number of rings (size 3 to 8) (size 9 to 14) (size 15 to 20)
#    0.000    1.500    0.000    4.125   10.500    3.250 
#    0.000    5.625    0.000    0.375    0.000    0.875 
#    0.000    0.000    0.000    0.000    0.000    0.000 
#
# Total GULP energy -357073.687887 kJ/mol
# GULP energy per Si atom -5579.276373 kJ/mol
# Density = 2.197265 g / cm^3
# Si number density = 22.022773 Si / 1000 Ang^3
#
#
#
# Elastic Constant Matrix: (Units=GPa)
#
#
# Indices 1 2 3 4 5 6 
#
# 1 84.1147 5.8487 16.2466 0.0000 0.0000 0.0000
# 2 5.8487 87.7934 -3.0172 0.0000 0.0000 0.0000
# 3 16.2466 -3.0172 143.5836 0.0000 0.0000 0.0000
# 4 0.0000 0.0000 0.0000 31.7717 0.0000 0.0000
# 5 0.0000 0.0000 0.0000 0.0000 24.0580 0.0000
# 6 0.0000 0.0000 0.0000 0.0000 0.0000 19.2875
#
#
#
# Elastic Compliance Matrix: (Units=1/GPa)
#
#
# Indices 1 2 3 4 5 6 
#
# 1 0.012219 -0.000862 -0.001401 0.000000 0.000000 0.000000
# 2 -0.000862 0.011459 0.000338 0.000000 0.000000 0.000000
# 3 -0.001401 0.000338 0.007130 0.000000 0.000000 0.000000
# 4 0.000000 0.000000 0.000000 0.031475 0.000000 0.000000
# 5 0.000000 0.000000 0.000000 0.000000 0.041566 0.000000
# 6 0.000000 0.000000 0.000000 0.000000 0.000000 0.051847
#
#
# Mechanical properties :
#
#
# Convention : Reuss Voigt Hill
#
# Bulk Modulus (GPa) = 37.09249 39.29420 38.19335
# Shear Modulus (GPa) = 29.66794 34.78434 32.22614
#
# Velocity S-wave (km/s) = 3.67433 3.97857 3.82947
# Velocity P-wave (km/s) = 5.90596 6.24393 6.07729
#
# Compressibility (1/GPa) = 0.02695963
#
# Stress axis : x y z
#
# Youngs Moduli (GPa) = 81.83959 87.26432 140.24878
#
# Poissons Ratio (x) = 0.07524 0.19645
# Poissons Ratio (y) = 0.07056 -0.04745
# Poissons Ratio (z) = 0.11463 -0.02953
#
# Static dielectric constant tensor:
#      x y z
#    x 2.930110 0.000000 0.000000 
#    y 0.000000 1.887600 0.000000 
#    z 0.000000 0.000000 1.731020 
# 
# From -- ./inp_files/6807.got.cif
#   From: 2010.05.17/outbox.cif.g08.bks.cpg/sg50_4_cif.got.tgz:6807.got - 2010.06.03 11:33:33.
