data_PCOD9396388
_publ_section_title
;
Structure prediction by ZEFSAII (Michael W. Deem and Ramdas Pophale) SiO2 
 PCOD9396388
Probable space group: P B A N
;
_chemical_formula_sum "Si O2"
_cell_formula_units_Z 40
_cell_length_a 9.011718
_cell_length_b 18.627366
_cell_length_c 10.868321
_cell_angle_alpha 90.000000
_cell_angle_beta 90.000000
_cell_angle_gamma 90.000000
_cell_volume 1824.406026
_symmetry_space_group_name_H-M "P B A N"
_symmetry_group_IT_number 50
_space_group.IT_coordinate_system_code '2'
_symmetry_cell_setting 'orthorhombic'
loop_
_space_group_symop_operation_xyz
x,y,z
1/2-x,1/2-y,z
x,1/2-y,-z
1/2-x,y,-z
-x,-y,-z
1/2+x,1/2+y,-z
-x,1/2+y,z
1/2+x,-y,z
loop_
_atom_site_type_symbol
_atom_site_label
_atom_site_fract_x
_atom_site_fract_y
_atom_site_fract_z
Si Si1 0.262356 0.001158 0.817368
Si Si2 0.074457 0.423995 0.469732
Si Si3 0.483904 0.895376 0.285129
Si Si4 0.080417 0.244630 0.146117
Si Si5 0.509471 0.902162 0.819992
O O1 0.373603 0.945192 0.880181
O O2 0.158165 0.945667 0.741182
O O3 0.376502 0.052244 0.744046
O O4 0.152942 0.058692 0.879445
O O5 0.250000 0.423107 0.500000
O O6 0.998261 0.373075 0.572169
O O7 0.000000 0.500000 0.500000
O O8 0.037255 0.411825 0.327139
O O9 0.502821 0.826559 0.197731
O O10 0.250000 0.250000 0.197206
O O11 0.994867 0.317811 0.172590
O O12 0.093057 0.250000 0.000000
#
# Coordination Sequence:
#
# PCOD9396388 Si02
#       5
#     8   8   8   8   8
#     4  10  20  37  63  90 122 154 201 247 284 360
#     4  12  18  31  61  90 124 152 191 247 291 351
#     4  11  21  38  61  93 120 159 197 240 300 353
#     4  11  24  44  62  83 122 161 197 249 301 348
#     4  11  21  38  61  93 120 159 197 240 300 353
#
# _framework density 21.924942000000001
#
# number of rings (size 3 to 8) (size 9 to 14) (size 15 to 20)
#    0.000    1.000    8.000    0.000    0.000    1.600 
#    0.000   10.000    0.000    2.400    0.000    0.000 
#    0.000    0.000    0.000    0.000    0.000    0.000 
#
# Total GULP energy -222909.588021 kJ/mol
# GULP energy per Si atom -5572.739701 kJ/mol
# Density = 2.187504 g / cm^3
# Si number density = 21.924942 Si / 1000 Ang^3
#
#
#
# Elastic Constant Matrix: (Units=GPa)
#
#
# Indices 1 2 3 4 5 6 
#
# 1 87.4697 23.9044 2.8761 0.0000 0.0000 0.0000
# 2 23.9044 153.0175 36.6805 0.0000 0.0000 0.0000
# 3 2.8761 36.6805 63.5291 0.0000 0.0000 0.0000
# 4 0.0000 0.0000 0.0000 24.3229 0.0000 0.0000
# 5 0.0000 0.0000 0.0000 0.0000 15.2295 0.0000
# 6 0.0000 0.0000 0.0000 0.0000 0.0000 19.3247
#
#
#
# Elastic Compliance Matrix: (Units=1/GPa)
#
#
# Indices 1 2 3 4 5 6 
#
# 1 0.011964 -0.002018 0.000624 0.000000 0.000000 0.000000
# 2 -0.002018 0.007926 -0.004485 0.000000 0.000000 0.000000
# 3 0.000624 -0.004485 0.018302 0.000000 0.000000 0.000000
# 4 0.000000 0.000000 0.000000 0.041114 0.000000 0.000000
# 5 0.000000 0.000000 0.000000 0.000000 0.065662 0.000000
# 6 0.000000 0.000000 0.000000 0.000000 0.000000 0.051747
#
#
# Mechanical properties :
#
#
# Convention : Reuss Voigt Hill
#
# Bulk Modulus (GPa) = 37.83230 47.88202 42.85716
# Shear Modulus (GPa) = 23.01139 27.81243 25.41191
#
# Velocity S-wave (km/s) = 3.24320 3.56551 3.40816
# Velocity P-wave (km/s) = 5.59618 6.23193 5.92259
#
# Compressibility (1/GPa) = 0.02643244
#
# Stress axis : x y z
#
# Youngs Moduli (GPa) = 83.58651 126.17379 54.63897
#
# Poissons Ratio (x) = 0.25468 -0.03409
# Poissons Ratio (y) = 0.16872 0.24504
# Poissons Ratio (z) = -0.05214 0.56585
#
# Static dielectric constant tensor:
#      x y z
#    x 1.848060 0.000000 0.000000 
#    y 0.000000 1.798430 0.000000 
#    z 0.000000 0.000000 1.386360 
# 
# From -- ./inp_files/18758.got.cif
#   From: 2010.05.17/outbox.cif.g08.bks.cpg/sg50_10_cif.got.tgz:18758.got - 2010.06.03 11:33:33.
