data_PCOD9396015
_publ_section_title
;
Structure prediction by ZEFSAII (Michael W. Deem and Ramdas Pophale) SiO2 
 PCOD9396015
Probable space group: P B A N
;
_chemical_formula_sum "Si O2"
_cell_formula_units_Z 56
_cell_length_a 19.373206
_cell_length_b 23.396621
_cell_length_c 5.379293
_cell_angle_alpha 90.000000
_cell_angle_beta 90.000000
_cell_angle_gamma 90.000000
_cell_volume 2438.259004
_symmetry_space_group_name_H-M "P B A N"
_symmetry_group_IT_number 50
_space_group.IT_coordinate_system_code '2'
_symmetry_cell_setting 'orthorhombic'
loop_
_space_group_symop_operation_xyz
x,y,z
1/2-x,1/2-y,z
x,1/2-y,-z
1/2-x,y,-z
-x,-y,-z
1/2+x,1/2+y,-z
-x,1/2+y,z
1/2+x,-y,z
loop_
_atom_site_type_symbol
_atom_site_label
_atom_site_fract_x
_atom_site_fract_y
_atom_site_fract_z
Si Si1 0.419279 0.774809 0.751577
Si Si2 0.043892 0.310325 0.801295
Si Si3 0.056041 0.889160 0.476590
Si Si4 0.066618 0.094832 0.801791
Si Si5 0.164239 0.031077 0.099082
Si Si6 0.824144 0.641144 0.402958
Si Si7 0.680473 0.459548 0.399078
O O1 0.388243 0.750000 0.500000
O O2 0.497581 0.746719 0.765878
O O3 0.415541 0.842609 0.721238
O O4 0.386326 0.750000 0.000000
O O5 0.121793 0.311059 0.694994
O O6 0.995272 0.353001 0.647400
O O7 0.052724 0.345191 0.058577
O O8 0.116108 0.918071 0.630340
O O9 0.001643 0.927861 0.331883
O O10 0.130192 0.108208 0.614011
O O11 0.089156 0.049173 0.004131
O O12 0.191877 0.093431 0.190157
O O13 0.163044 0.996000 0.353256
O O14 0.192153 0.997371 0.851252
O O15 0.750000 0.661409 0.500000
O O16 0.750000 0.429624 0.500000
#
# Coordination Sequence:
#
# PCOD9396015 Si02
#       7
#     8   8   8   8   8   8   8
#     4  10  19  37  67  93 122 160 207 261 335 395
#     4   9  20  37  62 100 127 164 214 274 336 394
#     4  10  23  40  63  96 128 168 217 278 331 390
#     4  10  20  38  63  96 126 169 218 267 323 387
#     4  11  24  41  61  87 130 177 220 263 323 389
#     4  10  21  38  64  95 133 176 222 262 318 398
#     4  12  27  42  63  90 131 179 225 271 329 392
#
# _framework density 22.967209
#
# number of rings (size 3 to 8) (size 9 to 14) (size 15 to 20)
#    0.000    1.714    2.857    0.857    4.000    2.857 
#    0.000    0.000    0.000   14.571    0.000    4.000 
#    0.000    0.000    0.000    0.000    0.000    0.000 
#
# Total GULP energy -311770.734073 kJ/mol
# GULP energy per Si atom -5567.334537 kJ/mol
# Density = 2.291493 g / cm^3
# Si number density = 22.967209 Si / 1000 Ang^3
#
#
#
# Elastic Constant Matrix: (Units=GPa)
#
#
# Indices 1 2 3 4 5 6 
#
# 1 64.7547 17.2649 11.9710 0.0000 0.0000 0.0000
# 2 17.2649 30.9210 16.8487 0.0000 0.0000 0.0000
# 3 11.9710 16.8487 140.8830 0.0000 0.0000 0.0000
# 4 0.0000 0.0000 0.0000 28.5555 0.0000 0.0000
# 5 0.0000 0.0000 0.0000 0.0000 21.7992 0.0000
# 6 0.0000 0.0000 0.0000 0.0000 0.0000 2.8701
#
#
#
# Elastic Compliance Matrix: (Units=1/GPa)
#
#
# Indices 1 2 3 4 5 6 
#
# 1 0.018160 -0.009947 -0.000353 0.000000 0.000000 0.000000
# 2 -0.009947 0.040044 -0.003944 0.000000 0.000000 0.000000
# 3 -0.000353 -0.003944 0.007600 0.000000 0.000000 0.000000
# 4 0.000000 0.000000 0.000000 0.035020 0.000000 0.000000
# 5 0.000000 0.000000 0.000000 0.000000 0.045873 0.000000
# 6 0.000000 0.000000 0.000000 0.000000 0.000000 0.348416
#
#
# Mechanical properties :
#
#
# Convention : Reuss Voigt Hill
#
# Bulk Modulus (GPa) = 26.79912 36.52530 31.66221
# Shear Modulus (GPa) = 9.32767 23.34324 16.33545
#
# Velocity S-wave (km/s) = 2.01745 3.19152 2.66982
# Velocity P-wave (km/s) = 4.13770 5.43312 4.82905
#
# Compressibility (1/GPa) = 0.03731466
#
# Stress axis : x y z
#
# Youngs Moduli (GPa) = 55.06484 24.97282 131.58299
#
# Poissons Ratio (x) = 0.24841 0.04651
# Poissons Ratio (y) = 0.54775 0.51892
# Poissons Ratio (z) = 0.01946 0.09849
#
# Static dielectric constant tensor:
#      x y z
#    x 1.910890 0.000000 0.000000 
#    y 0.000000 1.926770 0.000000 
#    z 0.000000 0.000000 2.081560 
# 
# From -- ./inp_files/5446.got.cif
#   From: 2010.05.17/outbox.cif.g08.bks.cpg/sg50_3_cif.got.tgz:5446.got - 2010.06.03 11:33:33.
