data_PCOD9396662
_publ_section_title
;
Structure prediction by ZEFSAII (Michael W. Deem and Ramdas Pophale) SiO2 
 PCOD9396662
Probable space group: P B A N
;
_chemical_formula_sum "Si O2"
_cell_formula_units_Z 64
_cell_length_a 22.386240
_cell_length_b 25.243408
_cell_length_c 6.107718
_cell_angle_alpha 90.000000
_cell_angle_beta 90.000000
_cell_angle_gamma 90.000000
_cell_volume 3451.501919
_symmetry_space_group_name_H-M "P B A N"
_symmetry_group_IT_number 50
_space_group.IT_coordinate_system_code '2'
_symmetry_cell_setting 'orthorhombic'
loop_
_space_group_symop_operation_xyz
x,y,z
1/2-x,1/2-y,z
x,1/2-y,-z
1/2-x,y,-z
-x,-y,-z
1/2+x,1/2+y,-z
-x,1/2+y,z
1/2+x,-y,z
loop_
_atom_site_type_symbol
_atom_site_label
_atom_site_fract_x
_atom_site_fract_y
_atom_site_fract_z
Si Si1 0.910963 0.790502 0.826574
Si Si2 0.911792 0.485350 0.094730
Si Si3 0.898677 0.617417 0.851113
Si Si4 0.475811 0.611440 0.334760
Si Si5 0.962286 0.264467 0.254610
Si Si6 0.810968 0.552705 0.136704
Si Si7 0.481173 0.960436 0.304087
Si Si8 0.316536 0.153196 0.533636
O O1 0.971795 0.763502 0.742621
O O2 0.860869 0.807631 0.658354
O O3 0.883780 0.750000 0.000000
O O4 0.924113 0.843217 0.965248
O O5 0.935726 0.430474 0.202274
O O6 0.846801 0.499080 0.194689
O O7 0.960239 0.531465 0.155805
O O8 0.923562 0.476412 0.836685
O O9 0.850467 0.644250 0.692598
O O10 0.954710 0.599560 0.711789
O O11 0.859492 0.573504 0.964692
O O12 0.465228 0.671836 0.269646
O O13 0.469855 0.596715 0.590437
O O14 0.935534 0.250000 0.500000
O O15 0.940560 0.250000 0.000000
O O16 0.808898 0.597595 0.326968
O O17 0.750000 0.546731 0.000000
O O18 0.500000 0.000000 0.500000
O O19 0.250000 0.173839 0.500000
#
# Coordination Sequence:
#
# PCOD9396662 Si02
#       8
#     8   8   8   8   8   8   8   8
#     4  10  22  38  57  77 109 148 202 258 308 350
#     4  10  21  35  54  84 113 146 192 244 313 368
#     4  11  20  36  58  81 106 148 198 247 304 358
#     4  11  21  35  61  83 117 151 194 251 306 375
#     4  11  23  39  61  90 121 165 202 246 314 372
#     4  11  22  38  57  79 113 152 197 246 300 370
#     4   9  18  33  52  82 111 146 185 245 300 370
#     4  11  23  39  59  75 104 153 211 257 308 359
#
# _framework density 18.542652
#
# number of rings (size 3 to 8) (size 9 to 14) (size 15 to 20)
#    0.000    1.500    3.750    3.750    1.750    3.000 
#    0.000    1.875    0.000    0.000    0.000    0.000 
#    0.000    0.500    0.750    0.000    0.000    0.000 
#
# Total GULP energy -356352.055240 kJ/mol
# GULP energy per Si atom -5568.000863 kJ/mol
# Density = 1.850045 g / cm^3
# Si number density = 18.542652 Si / 1000 Ang^3
#
#
#
# Elastic Constant Matrix: (Units=GPa)
#
#
# Indices 1 2 3 4 5 6 
#
# 1 27.5194 14.3294 -8.7407 0.0000 0.0000 0.0000
# 2 14.3294 73.1735 6.2408 0.0000 0.0000 0.0000
# 3 -8.7407 6.2408 68.2627 0.0000 0.0000 0.0000
# 4 0.0000 0.0000 0.0000 16.6851 0.0000 0.0000
# 5 0.0000 0.0000 0.0000 0.0000 17.9498 0.0000
# 6 0.0000 0.0000 0.0000 0.0000 0.0000 24.7036
#
#
#
# Elastic Compliance Matrix: (Units=1/GPa)
#
#
# Indices 1 2 3 4 5 6 
#
# 1 0.043015 -0.008963 0.006327 0.000000 0.000000 0.000000
# 2 -0.008963 0.015641 -0.002578 0.000000 0.000000 0.000000
# 3 0.006327 -0.002578 0.015695 0.000000 0.000000 0.000000
# 4 0.000000 0.000000 0.000000 0.059934 0.000000 0.000000
# 5 0.000000 0.000000 0.000000 0.000000 0.055711 0.000000
# 6 0.000000 0.000000 0.000000 0.000000 0.000000 0.040480
#
#
# Mechanical properties :
#
#
# Convention : Reuss Voigt Hill
#
# Bulk Modulus (GPa) = 15.64355 21.40163 18.52259
# Shear Modulus (GPa) = 19.06860 22.34276 20.70568
#
# Velocity S-wave (km/s) = 3.21029 3.47499 3.34526
# Velocity P-wave (km/s) = 4.71128 5.26000 4.99318
#
# Compressibility (1/GPa) = 0.06392410
#
# Stress axis : x y z
#
# Youngs Moduli (GPa) = 23.24777 63.93361 63.71408
#
# Poissons Ratio (x) = 0.57305 -0.40313
# Poissons Ratio (y) = 0.20837 0.16423
# Poissons Ratio (z) = -0.14709 0.16480
#
# Static dielectric constant tensor:
#      x y z
#    x 1.658740 0.000000 0.000000 
#    y 0.000000 1.866820 0.000000 
#    z 0.000000 0.000000 1.861980 
# 
# From -- ./inp_files/6173.got.cif
#   From: 2010.05.17/outbox.cif.g08.bks.cpg/sg50_4_cif.got.tgz:6173.got - 2010.06.03 11:33:33.
