data_PCOD9396254
_publ_section_title
;
Structure prediction by ZEFSAII (Michael W. Deem and Ramdas Pophale) SiO2 
 PCOD9396254
Probable space group: P B A N
;
_chemical_formula_sum "Si O2"
_cell_formula_units_Z 40
_cell_length_a 8.973733
_cell_length_b 15.421469
_cell_length_c 13.387539
_cell_angle_alpha 90.000000
_cell_angle_beta 90.000000
_cell_angle_gamma 90.000000
_cell_volume 1852.676692
_symmetry_space_group_name_H-M "P B A N"
_symmetry_group_IT_number 50
_space_group.IT_coordinate_system_code '2'
_symmetry_cell_setting 'orthorhombic'
loop_
_space_group_symop_operation_xyz
x,y,z
1/2-x,1/2-y,z
x,1/2-y,-z
1/2-x,y,-z
-x,-y,-z
1/2+x,1/2+y,-z
-x,1/2+y,z
1/2+x,-y,z
loop_
_atom_site_type_symbol
_atom_site_label
_atom_site_fract_x
_atom_site_fract_y
_atom_site_fract_z
Si Si1 0.072567 0.233068 0.608803
Si Si2 0.128403 0.174656 0.194801
Si Si3 0.218889 0.504360 0.258032
Si Si4 0.314903 0.658234 0.889305
Si Si5 0.528905 0.463229 0.610098
O O1 0.250000 0.250000 0.600518
O O2 0.003615 0.250000 0.500000
O O3 0.040134 0.292254 0.704690
O O4 0.033122 0.133384 0.622642
O O5 0.250000 0.250000 0.170550
O O6 0.995499 0.161286 0.115735
O O7 0.224265 0.088165 0.217325
O O8 0.241929 0.579710 0.178665
O O9 0.048672 0.507573 0.293904
O O10 0.299928 0.525810 0.362655
O O11 0.250000 0.750000 0.852191
O O12 0.250000 0.646870 0.000000
O O13 0.500000 0.500000 0.500000
#
# Coordination Sequence:
#
# PCOD9396254 Si02
#       5
#     8   8   8   8   8
#     4  10  20  35  64  98 141 186 236 283 344 428
#     4  11  22  44  74 103 142 190 237 294 368 444
#     4  12  24  45  72 104 145 186 241 303 359 433
#     4  11  27  49  73 102 144 186 237 314 375 430
#     4  12  24  40  67 105 144 194 242 291 354 425
#
# _framework density 21.590384
#
# number of rings (size 3 to 8) (size 9 to 14) (size 15 to 20)
#    0.000    0.800    6.000    3.000    2.800    0.800 
#    0.000    2.000    0.000    0.000    0.000    0.000 
#    0.000    0.000    0.000    0.000    0.000    0.000 
#
# Total GULP energy -223167.969959 kJ/mol
# GULP energy per Si atom -5579.199249 kJ/mol
# Density = 2.154124 g / cm^3
# Si number density = 21.590384 Si / 1000 Ang^3
#
#
#
# Elastic Constant Matrix: (Units=GPa)
#
#
# Indices 1 2 3 4 5 6 
#
# 1 69.5939 20.7864 25.2633 0.0000 0.0000 0.0000
# 2 20.7864 166.0812 45.8328 0.0000 0.0000 0.0000
# 3 25.2633 45.8328 107.4548 0.0000 0.0000 0.0000
# 4 0.0000 0.0000 0.0000 43.7895 0.0000 0.0000
# 5 0.0000 0.0000 0.0000 0.0000 39.5153 0.0000
# 6 0.0000 0.0000 0.0000 0.0000 0.0000 26.3198
#
#
#
# Elastic Compliance Matrix: (Units=1/GPa)
#
#
# Indices 1 2 3 4 5 6 
#
# 1 0.015880 -0.001085 -0.003271 0.000000 0.000000 0.000000
# 2 -0.001085 0.006899 -0.002687 0.000000 0.000000 0.000000
# 3 -0.003271 -0.002687 0.011221 0.000000 0.000000 0.000000
# 4 0.000000 0.000000 0.000000 0.022837 0.000000 0.000000
# 5 0.000000 0.000000 0.000000 0.000000 0.025307 0.000000
# 6 0.000000 0.000000 0.000000 0.000000 0.000000 0.037994
#
#
# Mechanical properties :
#
#
# Convention : Reuss Voigt Hill
#
# Bulk Modulus (GPa) = 50.21536 58.54388 54.37962
# Shear Modulus (GPa) = 35.49569 38.67476 37.08522
#
# Velocity S-wave (km/s) = 4.05909 4.23696 4.14898
# Velocity P-wave (km/s) = 6.72882 7.14915 6.94217
#
# Compressibility (1/GPa) = 0.01991423
#
# Stress axis : x y z
#
# Youngs Moduli (GPa) = 62.97042 144.95774 89.11485
#
# Poissons Ratio (x) = 0.15727 0.29148
# Poissons Ratio (y) = 0.06832 0.23948
# Poissons Ratio (z) = 0.20597 0.38956
#
# Static dielectric constant tensor:
#      x y z
#    x 1.770160 0.000000 0.000000 
#    y 0.000000 1.712750 0.000000 
#    z 0.000000 0.000000 1.814700 
# 
# From -- ./inp_files/24635.got.cif
#   From: 2010.05.17/outbox.cif.g08.bks.cpg/sg50_13_cif.got.tgz:24635.got - 2010.06.03 11:33:33.
