data_PCOD9396739
_publ_section_title
;
Structure prediction by ZEFSAII (Michael W. Deem and Ramdas Pophale) SiO2 
 PCOD9396739
Probable space group: P B A N
;
_chemical_formula_sum "Si O2"
_cell_formula_units_Z 56
_cell_length_a 5.471689
_cell_length_b 15.509911
_cell_length_c 30.228709
_cell_angle_alpha 90.000000
_cell_angle_beta 90.000000
_cell_angle_gamma 90.000000
_cell_volume 2565.371765
_symmetry_space_group_name_H-M "P B A N"
_symmetry_group_IT_number 50
_space_group.IT_coordinate_system_code '2'
_symmetry_cell_setting 'orthorhombic'
loop_
_space_group_symop_operation_xyz
x,y,z
1/2-x,1/2-y,z
x,1/2-y,-z
1/2-x,y,-z
-x,-y,-z
1/2+x,1/2+y,-z
-x,1/2+y,z
1/2+x,-y,z
loop_
_atom_site_type_symbol
_atom_site_label
_atom_site_fract_x
_atom_site_fract_y
_atom_site_fract_z
Si Si1 0.500228 0.899931 0.018538
Si Si2 0.500524 0.303892 0.110851
Si Si3 0.499534 0.697238 0.293570
Si Si4 0.036694 0.525053 0.135775
Si Si5 0.939687 0.542178 0.766868
Si Si6 0.499988 0.400964 0.518417
Si Si7 0.000051 0.692569 0.606902
O O1 0.503799 0.870229 0.069342
O O2 0.750000 0.861757 0.000000
O O3 0.250000 0.861975 0.000000
O O4 0.500000 0.000000 0.000000
O O5 0.750000 0.250000 0.109477
O O6 0.515183 0.375203 0.149443
O O7 0.250000 0.250000 0.111938
O O8 0.250000 0.750000 0.291277
O O9 0.503277 0.634190 0.252346
O O10 0.499212 0.656678 0.342954
O O11 0.750000 0.750000 0.291623
O O12 0.793679 0.491631 0.111882
O O13 0.056072 0.467177 0.179996
O O14 0.669551 0.515471 0.751459
O O15 0.750000 0.361429 0.500000
O O16 0.500000 0.500000 0.500000
O O17 0.499889 0.383205 0.570602
O O18 0.250000 0.361412 0.500000
O O19 0.750000 0.750000 0.601796
O O20 0.250000 0.750000 0.601706
#
# Coordination Sequence:
#
# PCOD9396739 Si02
#       7
#     8   8   8   8   8   8   8
#     4  10  23  40  65  97 126 178 212 255 321 382
#     4  12  26  43  68 101 134 167 217 274 317 363
#     4  10  21  40  65  95 128 161 208 264 316 370
#     4  10  23  43  69  91 133 172 215 252 314 392
#     4  10  21  42  63  99 125 168 211 253 314 388
#     4  10  21  37  53  80 121 155 201 251 301 361
#     4  10  21  37  59  87 119 158 201 251 310 366
#
# _framework density 21.829194000000001
#
# number of rings (size 3 to 8) (size 9 to 14) (size 15 to 20)
#    0.000    1.714    0.000    3.429    4.000    3.429 
#    5.143   17.143    0.000    0.000    0.000    0.000 
#    0.000    0.000    0.000    0.000    0.000    0.000 
#
# Total GULP energy -312127.067449 kJ/mol
# GULP energy per Si atom -5573.697633 kJ/mol
# Density = 2.177951 g / cm^3
# Si number density = 21.829194 Si / 1000 Ang^3
#
#
#
# Elastic Constant Matrix: (Units=GPa)
#
#
# Indices 1 2 3 4 5 6 
#
# 1 364.1317 -8.3751 -120.6014 0.0000 0.0000 0.0000
# 2 -8.3751 96.6978 82.0429 0.0000 0.0000 0.0000
# 3 -120.6014 82.0429 178.4137 0.0000 0.0000 0.0000
# 4 0.0000 0.0000 0.0000 86.1623 0.0000 0.0000
# 5 0.0000 0.0000 0.0000 0.0000 14.1367 0.0000
# 6 0.0000 0.0000 0.0000 0.0000 0.0000 16.9485
#
#
#
# Elastic Compliance Matrix: (Units=1/GPa)
#
#
# Indices 1 2 3 4 5 6 
#
# 1 0.004081 -0.003259 0.004257 0.000000 0.000000 0.000000
# 2 -0.003259 0.019559 -0.011197 0.000000 0.000000 0.000000
# 3 0.004257 -0.011197 0.013632 0.000000 0.000000 0.000000
# 4 0.000000 0.000000 0.000000 0.011606 0.000000 0.000000
# 5 0.000000 0.000000 0.000000 0.000000 0.070738 0.000000
# 6 0.000000 0.000000 0.000000 0.000000 0.000000 0.059002
#
#
# Mechanical properties :
#
#
# Convention : Reuss Voigt Hill
#
# Bulk Modulus (GPa) = 59.25675 60.59732 59.92704
# Shear Modulus (GPa) = 24.43316 69.19463 46.81389
#
# Velocity S-wave (km/s) = 3.34921 5.63622 4.63596
# Velocity P-wave (km/s) = 6.49314 8.37711 7.49456
#
# Compressibility (1/GPa) = 0.01687571
#
# Stress axis : x y z
#
# Youngs Moduli (GPa) = 245.01783 51.12663 73.35897
#
# Poissons Ratio (x) = 0.16660 -0.31231
# Poissons Ratio (y) = 0.79841 0.82140
# Poissons Ratio (z) = -1.04311 0.57246
#
# Static dielectric constant tensor:
#      x y z
#    x 1.894250 0.000000 0.000000 
#    y 0.000000 1.828010 0.000000 
#    z 0.000000 0.000000 1.874560 
# 
# From -- ./inp_files/32397.got.cif
#   From: 2010.05.17/outbox.cif.g08.bks.cpg/sg50_17_cif.got.tgz:32397.got - 2010.06.03 11:33:33.
