data_PCOD9396355
_publ_section_title
;
Structure prediction by ZEFSAII (Michael W. Deem and Ramdas Pophale) SiO2 
 PCOD9396355
Probable space group: P B A N
;
_chemical_formula_sum "Si O2"
_cell_formula_units_Z 48
_cell_length_a 19.491247
_cell_length_b 7.799435
_cell_length_c 14.526811
_cell_angle_alpha 90.000000
_cell_angle_beta 90.000000
_cell_angle_gamma 90.000000
_cell_volume 2208.376181
_symmetry_space_group_name_H-M "P B A N"
_symmetry_group_IT_number 50
_space_group.IT_coordinate_system_code '2'
_symmetry_cell_setting 'orthorhombic'
loop_
_space_group_symop_operation_xyz
x,y,z
1/2-x,1/2-y,z
x,1/2-y,-z
1/2-x,y,-z
-x,-y,-z
1/2+x,1/2+y,-z
-x,1/2+y,z
1/2+x,-y,z
loop_
_atom_site_type_symbol
_atom_site_label
_atom_site_fract_x
_atom_site_fract_y
_atom_site_fract_z
Si Si1 0.922312 0.179561 0.193877
Si Si2 0.250000 0.005252 0.000000
Si Si3 0.273583 0.448249 0.598698
Si Si4 0.075889 0.335431 0.401567
Si Si5 0.773156 0.054474 0.197962
Si Si6 0.543729 0.510547 0.704458
Si Si7 0.375996 0.750000 0.000000
O O1 0.855777 0.060354 0.204040
O O2 0.915886 0.346204 0.259156
O O3 0.921037 0.245455 0.090342
O O4 0.991443 0.080812 0.218403
O O5 0.248742 0.060459 0.890490
O O6 0.322659 0.906984 0.999757
O O7 0.250000 0.250000 0.596793
O O8 0.250000 0.525053 0.500000
O O9 0.356139 0.449149 0.597805
O O10 0.248536 0.516924 0.697967
O O11 0.067365 0.250000 0.500000
O O12 0.084478 0.174500 0.331903
O O13 0.008835 0.440889 0.373048
O O14 0.750000 0.250000 0.174035
#
# Coordination Sequence:
#
# PCOD9396355 Si02
#       7
#     8   4   8   8   8   8   4
#     4  10  20  37  58  87 117 148 194 235 288 343
#     4   9  16  34  59  90 111 150 195 238 301 332
#     4  11  24  40  58  85 122 155 185 244 308 342
#     4  11  21  41  59  82 115 153 196 233 285 349
#     4  11  20  37  64  87 114 151 200 244 283 355
#     4  10  23  37  59  86 115 157 190 235 283 346
#     4   9  16  32  58  84 116 148 187 242 290 342
#
# _framework density 21.735426
#
# number of rings (size 3 to 8) (size 9 to 14) (size 15 to 20)
#    0.000    1.667    6.667    0.500    2.333    1.000 
#    0.000    0.417    0.000    0.000    0.000    0.000 
#    0.000    0.000    0.000    0.000    0.000    0.000 
#
# Total GULP energy -267478.031653 kJ/mol
# GULP energy per Si atom -5572.458993 kJ/mol
# Density = 2.168596 g / cm^3
# Si number density = 21.735426 Si / 1000 Ang^3
#
#
#
# Elastic Constant Matrix: (Units=GPa)
#
#
# Indices 1 2 3 4 5 6 
#
# 1 55.9854 2.4032 40.6733 0.0000 0.0000 0.0000
# 2 2.4032 51.6465 20.4043 0.0000 0.0000 0.0000
# 3 40.6733 20.4043 186.9271 0.0000 0.0000 0.0000
# 4 0.0000 0.0000 0.0000 73.1511 0.0000 0.0000
# 5 0.0000 0.0000 0.0000 0.0000 -106.7666 0.0000
# 6 0.0000 0.0000 0.0000 0.0000 0.0000 5.8091
#
#
#
# Elastic Compliance Matrix: (Units=1/GPa)
#
#
# Indices 1 2 3 4 5 6 
#
# 1 0.021253 0.000876 -0.004720 0.000000 0.000000 0.000000
# 2 0.000876 0.020271 -0.002403 0.000000 0.000000 0.000000
# 3 -0.004720 -0.002403 0.006639 0.000000 0.000000 0.000000
# 4 0.000000 0.000000 0.000000 0.013670 0.000000 0.000000
# 5 0.000000 0.000000 0.000000 0.000000 -0.009366 0.000000
# 6 0.000000 0.000000 0.000000 0.000000 0.000000 0.172145
#
#
# Mechanical properties :
#
#
# Convention : Reuss Voigt Hill
#
# Bulk Modulus (GPa) = 28.03599 46.83560 37.43579
# Shear Modulus (GPa) = 20.08056 9.84393 14.96225
#
# Velocity S-wave (km/s) = 3.04281 2.13045 2.62655
# Velocity P-wave (km/s) = 5.02709 5.25800 5.14384
#
# Compressibility (1/GPa) = 0.03566844
#
# Stress axis : x y z
#
# Youngs Moduli (GPa) = 47.05147 49.33121 150.62389
#
# Poissons Ratio (x) = -0.04321 0.71096
# Poissons Ratio (y) = -0.04121 0.36199
# Poissons Ratio (z) = 0.22209 0.11856
#
# Static dielectric constant tensor:
#      x y z
#    x 1.791820 0.000000 0.000000 
#    y 0.000000 1.819180 0.000000 
#    z 0.000000 0.000000 1.856370 
# 
# From -- ./inp_files/26889.got.cif
#   From: 2010.05.17/outbox.cif.g08.bks.cpg/sg50_14_cif.got.tgz:26889.got - 2010.06.03 11:33:33.
