data_PCOD9396147
_publ_section_title
;
Structure prediction by ZEFSAII (Michael W. Deem and Ramdas Pophale) SiO2 
 PCOD9396147
Probable space group: P B A N
;
_chemical_formula_sum "Si O2"
_cell_formula_units_Z 64
_cell_length_a 11.263406
_cell_length_b 23.393563
_cell_length_c 12.130155
_cell_angle_alpha 90.000000
_cell_angle_beta 90.000000
_cell_angle_gamma 90.000000
_cell_volume 3196.189071
_symmetry_space_group_name_H-M "P B A N"
_symmetry_group_IT_number 50
_space_group.IT_coordinate_system_code '2'
_symmetry_cell_setting 'orthorhombic'
loop_
_space_group_symop_operation_xyz
x,y,z
1/2-x,1/2-y,z
x,1/2-y,-z
1/2-x,y,-z
-x,-y,-z
1/2+x,1/2+y,-z
-x,1/2+y,z
1/2+x,-y,z
loop_
_atom_site_type_symbol
_atom_site_label
_atom_site_fract_x
_atom_site_fract_y
_atom_site_fract_z
Si Si1 0.588117 0.159463 0.398079
Si Si2 0.486575 0.446103 0.730104
Si Si3 0.499739 0.744156 0.228841
Si Si4 0.364788 0.658892 0.652866
Si Si5 0.935743 0.929041 0.685374
Si Si6 0.630779 0.524593 0.470933
Si Si7 0.934159 0.645794 0.911833
Si Si8 0.839267 0.839680 0.850846
O O1 0.548157 0.097624 0.355361
O O2 0.503256 0.204326 0.336662
O O3 0.723583 0.162819 0.355534
O O4 0.589836 0.170289 0.528096
O O5 0.554460 0.506589 0.733067
O O6 0.369521 0.460939 0.657811
O O7 0.468574 0.411730 0.843955
O O8 0.406566 0.793828 0.259200
O O9 0.483567 0.697784 0.131400
O O10 0.615753 0.780147 0.198662
O O11 0.431588 0.599083 0.679540
O O12 0.872599 0.927048 0.565283
O O13 0.862457 0.888894 0.764117
O O14 0.750000 0.489419 0.500000
O O15 0.500000 0.500000 0.500000
O O16 0.798938 0.660792 0.878347
O O17 0.921896 0.645157 0.043184
#
# Coordination Sequence:
#
# PCOD9396147 Si02
#       8
#     8   8   8   8   8   8   8   8
#     4  10  20  35  57  84 117 157 196 230 284 361
#     4  10  21  36  57  87 122 154 191 240 292 350
#     4  10  20  34  56  80 108 137 193 246 292 338
#     4  10  20  35  57  84 117 157 196 230 284 361
#     4  10  21  36  57  87 122 154 191 240 292 350
#     4  10  20  34  54  83 118 157 195 240 292 350
#     4  10  21  38  60  82 108 150 199 246 297 356
#     4  10  21  38  60  82 108 150 199 246 297 356
#
# _framework density 20.023848000000001
#
# number of rings (size 3 to 8) (size 9 to 14) (size 15 to 20)
#    0.000    2.000    1.250    2.250    0.000    7.500 
#    0.000    0.000    0.000   33.750    0.000    0.000 
#    0.000    0.000    0.000    0.000    0.000    0.000 
#
# Total GULP energy -356282.284775 kJ/mol
# GULP energy per Si atom -5566.910700 kJ/mol
# Density = 1.997827 g / cm^3
# Si number density = 20.023848 Si / 1000 Ang^3
#
#
#
# Elastic Constant Matrix: (Units=GPa)
#
#
# Indices 1 2 3 4 5 6 
#
# 1 25.5561 -11.8817 9.0130 0.0000 0.0000 0.0000
# 2 -11.8817 99.2071 25.0285 0.0000 0.0000 0.0000
# 3 9.0130 25.0285 74.2536 0.0000 0.0000 0.0000
# 4 0.0000 0.0000 0.0000 -0.2089 0.0000 0.0000
# 5 0.0000 0.0000 0.0000 0.0000 27.1677 0.0000
# 6 0.0000 0.0000 0.0000 0.0000 0.0000 19.5319
#
#
#
# Elastic Compliance Matrix: (Units=1/GPa)
#
#
# Indices 1 2 3 4 5 6 
#
# 1 0.045434 0.007468 -0.008032 0.000000 0.000000 0.000000
# 2 0.007468 0.012244 -0.005034 0.000000 0.000000 0.000000
# 3 -0.008032 -0.005034 0.016139 0.000000 0.000000 0.000000
# 4 0.000000 0.000000 0.000000 -4.787319 0.000000 0.000000
# 5 0.000000 0.000000 0.000000 0.000000 0.036808 0.000000
# 6 0.000000 0.000000 0.000000 0.000000 0.000000 0.051198
#
#
# Mechanical properties :
#
#
# Convention : Reuss Voigt Hill
#
# Bulk Modulus (GPa) = 15.96884 27.03739 21.50311
# Shear Modulus (GPa) = -1.08851 21.08861 10.00005
#
# Velocity S-wave (km/s) = -0.73810 3.24879 2.23717
# Velocity P-wave (km/s) = 2.69552 5.25402 4.17556
#
# Compressibility (1/GPa) = 0.06262198
#
# Stress axis : x y z
#
# Youngs Moduli (GPa) = 22.00979 81.67106 61.96184
#
# Poissons Ratio (x) = -0.60991 0.49768
# Poissons Ratio (y) = -0.16437 0.31189
# Poissons Ratio (z) = 0.17678 0.41110
#
# Static dielectric constant tensor:
#      x y z
#    x 1.763980 0.000000 0.000000 
#    y 0.000000 1.759510 0.000000 
#    z 0.000000 0.000000 1.750510 
# 
# From -- ./inp_files/20537.got.cif
#   From: 2010.05.17/outbox.cif.g08.bks.cpg/sg50_11_cif.got.tgz:20537.got - 2010.06.03 11:33:33.
