data_PCOD9396683
_publ_section_title
;
Structure prediction by ZEFSAII (Michael W. Deem and Ramdas Pophale) SiO2 
 PCOD9396683
Probable space group: P B A N
;
_chemical_formula_sum "Si O2"
_cell_formula_units_Z 32
_cell_length_a 19.543533
_cell_length_b 5.192992
_cell_length_c 14.506215
_cell_angle_alpha 90.000000
_cell_angle_beta 90.000000
_cell_angle_gamma 90.000000
_cell_volume 1472.227209
_symmetry_space_group_name_H-M "P B A N"
_symmetry_group_IT_number 50
_space_group.IT_coordinate_system_code '2'
_symmetry_cell_setting 'orthorhombic'
loop_
_space_group_symop_operation_xyz
x,y,z
1/2-x,1/2-y,z
x,1/2-y,-z
1/2-x,y,-z
-x,-y,-z
1/2+x,1/2+y,-z
-x,1/2+y,z
1/2+x,-y,z
loop_
_atom_site_type_symbol
_atom_site_label
_atom_site_fract_x
_atom_site_fract_y
_atom_site_fract_z
Si Si1 0.821237 0.680677 0.221244
Si Si2 0.958022 0.726950 0.889517
Si Si3 0.028322 0.570357 0.397763
Si Si4 0.677777 0.321205 0.345023
O O1 0.750000 0.750000 0.170619
O O2 0.886278 0.725790 0.158633
O O3 0.824905 0.395681 0.264818
O O4 0.819299 0.892935 0.302945
O O5 0.987936 0.449023 0.864379
O O6 0.949571 0.750000 0.000000
O O7 0.105473 0.674257 0.397347
O O8 0.000000 0.500000 0.500000
O O9 0.018714 0.290092 0.352170
O O10 0.750000 0.250000 0.393280
#
# Coordination Sequence:
#
# PCOD9396683 Si02
#       4
#     8   8   8   8
#     4  10  21  36  56  83 111 147 192 233 280 336
#     4  10  21  36  54  80 114 150 189 234 285 338
#     4  10  21  37  57  83 111 142 182 227 275 336
#     4  10  21  37  57  82 114 147 185 234 284 335
#
# _framework density 21.735776999999999
#
# number of rings (size 3 to 8) (size 9 to 14) (size 15 to 20)
#    0.000    2.000    0.000    3.000    0.000    6.500 
#    0.000    2.500    0.000   15.000    0.000    0.000 
#    0.000    0.000    0.000    0.000    0.000    0.000 
#
# Total GULP energy -178615.525506 kJ/mol
# GULP energy per Si atom -5581.735172 kJ/mol
# Density = 2.168631 g / cm^3
# Si number density = 21.735777 Si / 1000 Ang^3
#
#
#
# Elastic Constant Matrix: (Units=GPa)
#
#
# Indices 1 2 3 4 5 6 
#
# 1 205.0490 18.1712 38.5099 0.0000 0.0000 0.0000
# 2 18.1712 126.7013 10.7011 0.0000 0.0000 0.0000
# 3 38.5099 10.7011 36.3589 0.0000 0.0000 0.0000
# 4 0.0000 0.0000 0.0000 11.6449 0.0000 0.0000
# 5 0.0000 0.0000 0.0000 0.0000 -14.1668 0.0000
# 6 0.0000 0.0000 0.0000 0.0000 0.0000 35.7568
#
#
#
# Elastic Compliance Matrix: (Units=1/GPa)
#
#
# Indices 1 2 3 4 5 6 
#
# 1 0.006102 -0.000338 -0.006364 0.000000 0.000000 0.000000
# 2 -0.000338 0.008112 -0.002030 0.000000 0.000000 0.000000
# 3 -0.006364 -0.002030 0.034841 0.000000 0.000000 0.000000
# 4 0.000000 0.000000 0.000000 0.085875 0.000000 0.000000
# 5 0.000000 0.000000 0.000000 0.000000 -0.070588 0.000000
# 6 0.000000 0.000000 0.000000 0.000000 0.000000 0.027967
#
#
# Mechanical properties :
#
#
# Convention : Reuss Voigt Hill
#
# Bulk Modulus (GPa) = 31.65254 55.87483 43.76368
# Shear Modulus (GPa) = 41.56192 26.69546 34.12869
#
# Velocity S-wave (km/s) = 4.37755 3.50834 3.96683
# Velocity P-wave (km/s) = 6.33598 6.49411 6.41553
#
# Compressibility (1/GPa) = 0.03159305
#
# Stress axis : x y z
#
# Youngs Moduli (GPa) = 163.88258 123.26724 28.70175
#
# Poissons Ratio (x) = 0.04162 0.18264
# Poissons Ratio (y) = 0.05534 0.05826
# Poissons Ratio (z) = 1.04287 0.25023
#
# Static dielectric constant tensor:
#      x y z
#    x 1.849290 0.000000 0.000000 
#    y 0.000000 1.908460 0.000000 
#    z 0.000000 0.000000 1.895970 
# 
# From -- ./inp_files/23659.got.cif
#   From: 2010.05.17/outbox.cif.g08.bks.cpg/sg50_12_cif.got.tgz:23659.got - 2010.06.03 11:33:33.
