data_PCOD9396996
_publ_section_title
;
Structure prediction by ZEFSAII (Michael W. Deem and Ramdas Pophale) SiO2 
 PCOD9396996
Probable space group: P B A N
;
_chemical_formula_sum "Si O2"
_cell_formula_units_Z 34
_cell_length_a 12.435838
_cell_length_b 8.785538
_cell_length_c 13.595190
_cell_angle_alpha 90.000000
_cell_angle_beta 90.000000
_cell_angle_gamma 90.000000
_cell_volume 1485.349652
_symmetry_space_group_name_H-M "P B A N"
_symmetry_group_IT_number 50
_space_group.IT_coordinate_system_code '2'
_symmetry_cell_setting 'orthorhombic'
loop_
_space_group_symop_operation_xyz
x,y,z
1/2-x,1/2-y,z
x,1/2-y,-z
1/2-x,y,-z
-x,-y,-z
1/2+x,1/2+y,-z
-x,1/2+y,z
1/2+x,-y,z
loop_
_atom_site_type_symbol
_atom_site_label
_atom_site_fract_x
_atom_site_fract_y
_atom_site_fract_z
Si Si1 0.250000 0.250000 0.500000
Si Si2 0.087521 0.667826 0.901626
Si Si3 0.132949 0.313024 0.863679
Si Si4 0.918965 0.898104 0.643831
Si Si5 0.872188 0.257814 0.318263
O O1 0.168039 0.150476 0.435633
O O2 0.114305 0.488311 0.897813
O O3 0.126080 0.752551 0.801465
O O4 0.958999 0.697353 0.899594
O O5 0.127760 0.750000 0.000000
O O6 0.250000 0.250000 0.887889
O O7 0.118132 0.320253 0.745802
O O8 0.043613 0.854062 0.630775
O O9 0.915891 0.076246 0.659440
O O10 0.750000 0.250000 0.351956
#
# Coordination Sequence:
#
# PCOD9396996 Si02
#       5
#     2   8   8   8   8
#     4  12  24  44  76 104 138 176 238 294 336 428
#     4  10  22  40  66 101 137 179 238 284 333 413
#     4  10  21  41  67  97 141 186 223 285 354 406
#     4  10  24  43  71 101 138 183 231 286 354 408
#     4  10  24  45  69  97 143 186 226 281 355 411
#
# _framework density 22.890234
#
# number of rings (size 3 to 8) (size 9 to 14) (size 15 to 20)
#    0.000    1.882    1.176    0.706    3.294   11.294 
#    0.000    7.059    0.000    0.000    0.000    0.000 
#    0.000    0.000    0.000    0.000    0.000    0.000 
#
# Total GULP energy -190236.551871 kJ/mol
# GULP energy per Si atom -5595.192702 kJ/mol
# Density = 2.283813 g / cm^3
# Si number density = 22.890234 Si / 1000 Ang^3
#
#
#
# Elastic Constant Matrix: (Units=GPa)
#
#
# Indices 1 2 3 4 5 6 
#
# 1 222.8735 58.1686 23.9866 0.0000 0.0000 0.0000
# 2 58.1686 62.1569 24.2069 0.0000 0.0000 0.0000
# 3 23.9866 24.2069 82.4960 0.0000 0.0000 0.0000
# 4 0.0000 0.0000 0.0000 8.5145 0.0000 0.0000
# 5 0.0000 0.0000 0.0000 0.0000 428.8316 0.0000
# 6 0.0000 0.0000 0.0000 0.0000 0.0000 19.3357
#
#
#
# Elastic Compliance Matrix: (Units=1/GPa)
#
#
# Indices 1 2 3 4 5 6 
#
# 1 0.005938 -0.005515 -0.000108 0.000000 0.000000 0.000000
# 2 -0.005515 0.023286 -0.005229 0.000000 0.000000 0.000000
# 3 -0.000108 -0.005229 0.013688 0.000000 0.000000 0.000000
# 4 0.000000 0.000000 0.000000 0.117447 0.000000 0.000000
# 5 0.000000 0.000000 0.000000 0.000000 0.002332 0.000000
# 6 0.000000 0.000000 0.000000 0.000000 0.000000 0.051718
#
#
# Mechanical properties :
#
#
# Convention : Reuss Voigt Hill
#
# Bulk Modulus (GPa) = 47.15489 64.47228 55.81358
# Shear Modulus (GPa) = 20.56082 108.74731 64.65407
#
# Velocity S-wave (km/s) = 3.00031 6.90009 5.32039
# Velocity P-wave (km/s) = 5.71381 9.57647 7.88531
#
# Compressibility (1/GPa) = 0.02120671
#
# Stress axis : x y z
#
# Youngs Moduli (GPa) = 168.41299 42.94499 73.05817
#
# Poissons Ratio (x) = 0.23682 0.00791
# Poissons Ratio (y) = 0.92873 0.38204
# Poissons Ratio (z) = 0.01824 0.22457
#
# Static dielectric constant tensor:
#      x y z
#    x 1.847380 0.000000 0.000000 
#    y 0.000000 1.791000 0.000000 
#    z 0.000000 0.000000 1.975980 
# 
# From -- ./inp_files/25675.got.cif
#   From: 2010.05.17/outbox.cif.g08.bks.cpg/sg50_13_cif.got.tgz:25675.got - 2010.06.03 11:33:33.
