data_PCOD9396861
_publ_section_title
;
Structure prediction by ZEFSAII (Michael W. Deem and Ramdas Pophale) SiO2 
 PCOD9396861
Probable space group: P B A N
;
_chemical_formula_sum "Si O2"
_cell_formula_units_Z 58
_cell_length_a 27.852256
_cell_length_b 17.870289
_cell_length_c 5.334756
_cell_angle_alpha 90.000000
_cell_angle_beta 90.000000
_cell_angle_gamma 90.000000
_cell_volume 2655.256709
_symmetry_space_group_name_H-M "P B A N"
_symmetry_group_IT_number 50
_space_group.IT_coordinate_system_code '2'
_symmetry_cell_setting 'orthorhombic'
loop_
_space_group_symop_operation_xyz
x,y,z
1/2-x,1/2-y,z
x,1/2-y,-z
1/2-x,y,-z
-x,-y,-z
1/2+x,1/2+y,-z
-x,1/2+y,z
1/2+x,-y,z
loop_
_atom_site_type_symbol
_atom_site_label
_atom_site_fract_x
_atom_site_fract_y
_atom_site_fract_z
Si Si1 0.120930 0.936419 0.370858
Si Si2 0.666793 0.333387 0.004596
Si Si3 0.250000 0.250000 0.500000
Si Si4 0.684947 0.875545 0.713769
Si Si5 0.875211 0.596989 0.202911
Si Si6 0.429859 0.673745 0.659054
Si Si7 0.209318 0.536699 0.300035
Si Si8 0.536130 0.701698 0.757018
O O1 0.073517 0.899651 0.482951
O O2 0.155929 0.966006 0.584922
O O3 0.117747 0.006684 0.186032
O O4 0.149404 0.865773 0.258594
O O5 0.616999 0.329182 0.164358
O O6 0.702647 0.396359 0.106540
O O7 0.686894 0.250000 0.000000
O O8 0.282200 0.196504 0.325477
O O9 0.658343 0.884398 0.443305
O O10 0.716630 0.950211 0.771007
O O11 0.648398 0.872606 0.947139
O O12 0.926188 0.634721 0.255690
O O13 0.426952 0.750000 0.500000
O O14 0.481080 0.675524 0.792676
O O15 0.250000 0.555941 0.500000
O O16 0.538533 0.750000 0.500000
O O17 0.549218 0.750000 0.000000
#
# Coordination Sequence:
#
# PCOD9396861 Si02
#       8
#     8   8   2   8   8   8   8   8
#     4  10  22  40  66  94 129 179 222 280 352 402
#     4  11  20  38  68  94 127 179 226 286 343 420
#     4  12  28  46  76 110 128 200 252 294 328 438
#     4  11  25  45  71 101 140 181 234 289 346 408
#     4  11  25  46  68  99 146 180 220 291 354 414
#     4  10  21  38  67  95 131 173 233 283 335 420
#     4  10  22  43  62  94 137 178 220 286 356 410
#     4  11  25  43  67 100 137 186 227 284 355 411
#
# _framework density 21.843464000000001
#
# number of rings (size 3 to 8) (size 9 to 14) (size 15 to 20)
#    0.000    1.379    3.448    1.241    4.828    2.207 
#    0.000    2.759    0.000    0.000    0.000    0.000 
#    0.000    0.000    0.000    0.000    0.000    0.000 
#
# Total GULP energy -323910.991636 kJ/mol
# GULP energy per Si atom -5584.672270 kJ/mol
# Density = 2.179375 g / cm^3
# Si number density = 21.843464 Si / 1000 Ang^3
#
#
#
# Elastic Constant Matrix: (Units=GPa)
#
#
# Indices 1 2 3 4 5 6 
#
# 1 63.0936 41.6509 14.0225 0.0000 0.0000 0.0000
# 2 41.6509 150.4839 23.7395 0.0000 0.0000 0.0000
# 3 14.0225 23.7395 81.5851 0.0000 0.0000 0.0000
# 4 0.0000 0.0000 0.0000 22.6171 0.0000 0.0000
# 5 0.0000 0.0000 0.0000 0.0000 -32.3743 0.0000
# 6 0.0000 0.0000 0.0000 0.0000 0.0000 296.1761
#
#
#
# Elastic Compliance Matrix: (Units=1/GPa)
#
#
# Indices 1 2 3 4 5 6 
#
# 1 0.019665 -0.005146 -0.001883 0.000000 0.000000 0.000000
# 2 -0.005146 0.008311 -0.001534 0.000000 0.000000 0.000000
# 3 -0.001883 -0.001534 0.013027 0.000000 0.000000 0.000000
# 4 0.000000 0.000000 0.000000 0.044214 0.000000 0.000000
# 5 0.000000 0.000000 0.000000 0.000000 -0.030889 0.000000
# 6 0.000000 0.000000 0.000000 0.000000 0.000000 0.003376
#
#
# Mechanical properties :
#
#
# Convention : Reuss Voigt Hill
#
# Bulk Modulus (GPa) = 41.87862 50.44317 46.16090
# Shear Modulus (GPa) = 60.39383 71.66709 66.03046
#
# Velocity S-wave (km/s) = 5.26389 5.73416 5.50405
# Velocity P-wave (km/s) = 7.49389 8.18437 7.84673
#
# Compressibility (1/GPa) = 0.02387853
#
# Stress axis : x y z
#
# Youngs Moduli (GPa) = 50.85210 120.31527 76.76318
#
# Poissons Ratio (x) = 0.61913 0.14451
# Poissons Ratio (y) = 0.26168 0.11776
# Poissons Ratio (z) = 0.09573 0.18457
#
# Static dielectric constant tensor:
#      x y z
#    x 1.805010 0.000000 0.000000 
#    y 0.000000 1.851420 0.000000 
#    z 0.000000 0.000000 1.859380 
# 
# From -- ./inp_files/4671.got.cif
#   From: 2010.05.17/outbox.cif.g08.bks.cpg/sg50_3_cif.got.tgz:4671.got - 2010.06.03 11:33:33.
