data_PCOD9396778
_publ_section_title
;
Structure prediction by ZEFSAII (Michael W. Deem and Ramdas Pophale) SiO2 
 PCOD9396778
Probable space group: P B A N
;
_chemical_formula_sum "Si O2"
_cell_formula_units_Z 58
_cell_length_a 9.361306
_cell_length_b 23.108825
_cell_length_c 13.399398
_cell_angle_alpha 90.000000
_cell_angle_beta 90.000000
_cell_angle_gamma 90.000000
_cell_volume 2898.675451
_symmetry_space_group_name_H-M "P B A N"
_symmetry_group_IT_number 50
_space_group.IT_coordinate_system_code '2'
_symmetry_cell_setting 'orthorhombic'
loop_
_space_group_symop_operation_xyz
x,y,z
1/2-x,1/2-y,z
x,1/2-y,-z
1/2-x,y,-z
-x,-y,-z
1/2+x,1/2+y,-z
-x,1/2+y,z
1/2+x,-y,z
loop_
_atom_site_type_symbol
_atom_site_label
_atom_site_fract_x
_atom_site_fract_y
_atom_site_fract_z
Si Si1 0.302569 0.811437 0.759452
Si Si2 0.750000 0.750000 0.500000
Si Si3 0.051702 0.470888 0.603737
Si Si4 0.971214 0.677336 0.606797
Si Si5 0.174892 0.923790 0.100027
Si Si6 0.839885 0.543581 0.900382
Si Si7 0.854969 0.558569 0.684182
Si Si8 0.134159 0.862405 0.572191
O O1 0.250000 0.750000 0.803796
O O2 0.451395 0.799072 0.703734
O O3 0.322065 0.869371 0.825178
O O4 0.201868 0.831762 0.667293
O O5 0.833201 0.709759 0.574964
O O6 0.976412 0.509378 0.688765
O O7 0.984860 0.407282 0.605840
O O8 0.000000 0.500000 0.500000
O O9 0.219232 0.465836 0.624365
O O10 0.929534 0.611208 0.627666
O O11 0.069446 0.681142 0.508437
O O12 0.011573 0.947366 0.083737
O O13 0.277244 0.979041 0.124348
O O14 0.250000 0.901034 0.000000
O O15 0.810436 0.576390 0.795985
O O16 0.750000 0.560696 0.000000
O O17 0.250000 0.894484 0.500000
#
# Coordination Sequence:
#
# PCOD9396778 Si02
#       8
#     8   2   8   8   8   8   8   8
#     4  11  24  43  66  95 129 173 226 281 330 398
#     4  12  24  40  62  84 126 180 228 274 322 384
#     4  12  23  35  58  94 134 178 210 265 331 410
#     4  11  23  41  60  90 126 171 223 271 322 390
#     4  11  23  43  71 101 131 169 220 279 348 411
#     4  11  23  42  67 102 134 168 215 277 343 411
#     4  12  24  38  62  91 137 172 215 266 333 403
#     4  10  21  37  60  89 125 167 215 266 323 389
#
# _framework density 20.009139999999999
#
# number of rings (size 3 to 8) (size 9 to 14) (size 15 to 20)
#    0.000    0.828    2.759    6.207    1.931    3.310 
#    0.000    0.000    0.000    0.000    0.000    0.000 
#    0.000    0.000    0.000    0.000    0.000    0.000 
#
# Total GULP energy -323536.965195 kJ/mol
# GULP energy per Si atom -5578.223538 kJ/mol
# Density = 1.996360 g / cm^3
# Si number density = 20.009140 Si / 1000 Ang^3
#
#
#
# Elastic Constant Matrix: (Units=GPa)
#
#
# Indices 1 2 3 4 5 6 
#
# 1 113.9500 38.1998 34.6266 0.0000 0.0000 0.0000
# 2 38.1998 76.4946 26.3992 0.0000 0.0000 0.0000
# 3 34.6266 26.3992 101.5469 0.0000 0.0000 0.0000
# 4 0.0000 0.0000 0.0000 52.4864 0.0000 0.0000
# 5 0.0000 0.0000 0.0000 0.0000 35.0721 0.0000
# 6 0.0000 0.0000 0.0000 0.0000 0.0000 41.3103
#
#
#
# Elastic Compliance Matrix: (Units=1/GPa)
#
#
# Indices 1 2 3 4 5 6 
#
# 1 0.011124 -0.004664 -0.002580 0.000000 0.000000 0.000000
# 2 -0.004664 0.016317 -0.002651 0.000000 0.000000 0.000000
# 3 -0.002580 -0.002651 0.011417 0.000000 0.000000 0.000000
# 4 0.000000 0.000000 0.000000 0.019053 0.000000 0.000000
# 5 0.000000 0.000000 0.000000 0.000000 0.028513 0.000000
# 6 0.000000 0.000000 0.000000 0.000000 0.000000 0.024207
#
#
# Mechanical properties :
#
#
# Convention : Reuss Voigt Hill
#
# Bulk Modulus (GPa) = 52.45195 54.49364 53.47279
# Shear Modulus (GPa) = 36.55575 38.62482 37.59028
#
# Velocity S-wave (km/s) = 4.27892 4.39835 4.33905
# Velocity P-wave (km/s) = 7.11921 7.28612 7.20315
#
# Compressibility (1/GPa) = 0.01906507
#
# Stress axis : x y z
#
# Youngs Moduli (GPa) = 89.89937 61.28521 87.58959
#
# Poissons Ratio (x) = 0.28585 0.22602
# Poissons Ratio (y) = 0.41932 0.23224
# Poissons Ratio (z) = 0.23198 0.16250
#
# Static dielectric constant tensor:
#      x y z
#    x 1.783020 0.000000 0.000000 
#    y 0.000000 1.730040 0.000000 
#    z 0.000000 0.000000 1.759650 
# 
# From -- ./inp_files/25376.got.cif
#   From: 2010.05.17/outbox.cif.g08.bks.cpg/sg50_13_cif.got.tgz:25376.got - 2010.06.03 11:33:33.
