data_PCOD9396842
_publ_section_title
;
Structure prediction by ZEFSAII (Michael W. Deem and Ramdas Pophale) SiO2 
 PCOD9396842
Probable space group: P B A N
;
_chemical_formula_sum "Si O2"
_cell_formula_units_Z 64
_cell_length_a 8.833615
_cell_length_b 15.307347
_cell_length_c 23.577341
_cell_angle_alpha 90.000000
_cell_angle_beta 90.000000
_cell_angle_gamma 90.000000
_cell_volume 3188.109426
_symmetry_space_group_name_H-M "P B A N"
_symmetry_group_IT_number 50
_space_group.IT_coordinate_system_code '2'
_symmetry_cell_setting 'orthorhombic'
loop_
_space_group_symop_operation_xyz
x,y,z
1/2-x,1/2-y,z
x,1/2-y,-z
1/2-x,y,-z
-x,-y,-z
1/2+x,1/2+y,-z
-x,1/2+y,z
1/2+x,-y,z
loop_
_atom_site_type_symbol
_atom_site_label
_atom_site_fract_x
_atom_site_fract_y
_atom_site_fract_z
Si Si1 0.902565 0.867757 0.246492
Si Si2 0.555416 0.840554 0.237032
Si Si3 0.916499 0.293734 0.880221
Si Si4 0.063514 0.577041 0.637695
Si Si5 0.933580 0.240634 0.564110
Si Si6 0.423281 0.897789 0.353639
Si Si7 0.492733 0.103364 0.121429
Si Si8 0.199790 0.955128 0.935515
O O1 0.722520 0.881690 0.240811
O O2 0.927938 0.763356 0.247408
O O3 0.975404 0.904269 0.189023
O O4 0.979004 0.903684 0.302990
O O5 0.477091 0.843601 0.175609
O O6 0.460082 0.880700 0.287928
O O7 0.750000 0.250000 0.869972
O O8 0.904133 0.367990 0.928199
O O9 0.017677 0.207565 0.891883
O O10 0.019760 0.648839 0.591159
O O11 0.244013 0.586037 0.643073
O O12 0.013028 0.480359 0.622700
O O13 0.750000 0.250000 0.561580
O O14 0.990467 0.250000 0.500000
O O15 0.975028 0.315319 0.609064
O O16 0.654685 0.068680 0.101760
O O17 0.375113 0.042123 0.088944
O O18 0.250000 0.965819 0.000000
#
# Coordination Sequence:
#
# PCOD9396842 Si02
#       8
#     8   8   8   8   8   8   8   8
#     4  10  22  39  61  93 130 166 211 268 325 383
#     4  10  21  38  63  90 131 166 212 266 320 386
#     4   9  22  40  65  93 127 171 212 263 322 390
#     4  11  23  38  62  96 129 167 219 264 328 384
#     4   9  20  41  65  90 125 173 219 264 318 384
#     4  11  23  37  63  93 127 172 210 270 322 383
#     4  10  24  41  64  95 127 168 215 267 321 384
#     4  11  24  44  68  93 128 170 216 263 321 392
#
# _framework density 20.074593
#
# number of rings (size 3 to 8) (size 9 to 14) (size 15 to 20)
#    0.000    1.875    1.250    1.125    8.750    2.750 
#    0.000    0.000    0.000    5.250    0.000    0.000 
#    0.000    0.000    0.000    0.000    0.000    0.000 
#
# Total GULP energy -357451.227551 kJ/mol
# GULP energy per Si atom -5585.175430 kJ/mol
# Density = 2.002890 g / cm^3
# Si number density = 20.074593 Si / 1000 Ang^3
#
#
#
# Elastic Constant Matrix: (Units=GPa)
#
#
# Indices 1 2 3 4 5 6 
#
# 1 48.2478 29.0251 31.4749 0.0000 0.0000 0.0000
# 2 29.0251 108.0694 69.9013 0.0000 0.0000 0.0000
# 3 31.4749 69.9013 94.9979 0.0000 0.0000 0.0000
# 4 0.0000 0.0000 0.0000 35.4321 0.0000 0.0000
# 5 0.0000 0.0000 0.0000 0.0000 4.8412 0.0000
# 6 0.0000 0.0000 0.0000 0.0000 0.0000 -15.4915
#
#
#
# Elastic Compliance Matrix: (Units=1/GPa)
#
#
# Indices 1 2 3 4 5 6 
#
# 1 0.026873 -0.002783 -0.006856 0.000000 0.000000 0.000000
# 2 -0.002783 0.017945 -0.012282 0.000000 0.000000 0.000000
# 3 -0.006856 -0.012282 0.021836 0.000000 0.000000 0.000000
# 4 0.000000 0.000000 0.000000 0.028223 0.000000 0.000000
# 5 0.000000 0.000000 0.000000 0.000000 0.206560 0.000000
# 6 0.000000 0.000000 0.000000 0.000000 0.000000 -0.064552
#
#
# Mechanical properties :
#
#
# Convention : Reuss Voigt Hill
#
# Bulk Modulus (GPa) = 43.83762 56.90198 50.36980
# Shear Modulus (GPa) = 17.34111 13.01727 15.17919
#
# Velocity S-wave (km/s) = 2.94229 2.54922 2.75278
# Velocity P-wave (km/s) = 5.78166 6.08864 5.93713
#
# Compressibility (1/GPa) = 0.02281145
#
# Stress axis : x y z
#
# Youngs Moduli (GPa) = 37.21202 55.72497 45.79668
#
# Poissons Ratio (x) = 0.15509 0.31397
# Poissons Ratio (y) = 0.10356 0.56249
# Poissons Ratio (z) = 0.25512 0.68444
#
# Static dielectric constant tensor:
#      x y z
#    x 1.743010 0.000000 0.000000 
#    y 0.000000 1.740120 0.000000 
#    z 0.000000 0.000000 1.674260 
# 
# From -- ./inp_files/31628.got.cif
#   From: 2010.05.17/outbox.cif.g08.bks.cpg/sg50_16_cif.got.tgz:31628.got - 2010.06.03 11:33:33.
