data_PCOD9396552
_publ_section_title
;
Structure prediction by ZEFSAII (Michael W. Deem and Ramdas Pophale) SiO2 
 PCOD9396552
Probable space group: P B A N
;
_chemical_formula_sum "Si O2"
_cell_formula_units_Z 64
_cell_length_a 9.454359
_cell_length_b 22.845053
_cell_length_c 15.205067
_cell_angle_alpha 90.000000
_cell_angle_beta 90.000000
_cell_angle_gamma 90.000000
_cell_volume 3284.071451
_symmetry_space_group_name_H-M "P B A N"
_symmetry_group_IT_number 50
_space_group.IT_coordinate_system_code '2'
_symmetry_cell_setting 'orthorhombic'
loop_
_space_group_symop_operation_xyz
x,y,z
1/2-x,1/2-y,z
x,1/2-y,-z
1/2-x,y,-z
-x,-y,-z
1/2+x,1/2+y,-z
-x,1/2+y,z
1/2+x,-y,z
loop_
_atom_site_type_symbol
_atom_site_label
_atom_site_fract_x
_atom_site_fract_y
_atom_site_fract_z
Si Si1 0.915468 0.263872 0.900530
Si Si2 0.019609 0.960263 0.414556
Si Si3 0.714088 0.022716 0.701421
Si Si4 0.392746 0.289437 0.745498
Si Si5 0.592885 0.364357 0.216106
Si Si6 0.705428 0.601842 0.713127
Si Si7 0.396534 0.142295 0.525202
Si Si8 0.605052 0.276486 0.372433
O O1 0.750000 0.250000 0.888747
O O2 0.912724 0.332718 0.877015
O O3 0.016720 0.228705 0.832248
O O4 0.957561 0.250000 0.000000
O O5 0.176363 0.955801 0.374120
O O6 0.956950 0.898787 0.448458
O O7 0.000000 0.000000 0.500000
O O8 0.923706 0.994141 0.343746
O O9 0.674265 0.075583 0.765456
O O10 0.778743 0.964582 0.744006
O O11 0.250000 0.250000 0.742230
O O12 0.337494 0.355865 0.734587
O O13 0.494716 0.270829 0.665556
O O14 0.429761 0.371953 0.239937
O O15 0.646396 0.317688 0.288992
O O16 0.657922 0.603861 0.609825
O O17 0.250000 0.173767 0.500000
O O18 0.518899 0.184199 0.559262
O O19 0.750000 0.250000 0.404961
#
# Coordination Sequence:
#
# PCOD9396552 Si02
#       8
#     8   8   8   8   8   8   8   8
#     4  10  22  42  71 107 135 162 199 258 330 395
#     4  12  21  35  58  85 120 170 231 285 334 372
#     4  12  23  37  62  88 123 172 220 275 332 390
#     4  11  19  38  69  93 125 165 215 267 327 405
#     4  10  20  40  64  95 129 161 213 269 313 404
#     4  11  21  38  59  93 122 172 224 272 326 384
#     4  11  20  38  63  81 121 173 227 290 337 386
#     4  10  22  41  64  85 122 167 221 281 344 390
#
# _framework density 19.488004
#
# number of rings (size 3 to 8) (size 9 to 14) (size 15 to 20)
#    0.000    1.125    7.500    2.625    0.000    2.250 
#    0.000    1.250    8.250    0.750    0.000    0.000 
#    0.000    0.000    0.000    0.000    0.000    0.000 
#
# Total GULP energy -357223.850663 kJ/mol
# GULP energy per Si atom -5581.622667 kJ/mol
# Density = 1.944365 g / cm^3
# Si number density = 19.488004 Si / 1000 Ang^3
#
#
#
# Elastic Constant Matrix: (Units=GPa)
#
#
# Indices 1 2 3 4 5 6 
#
# 1 106.5350 43.5640 38.8879 0.0000 0.0000 0.0000
# 2 43.5640 124.1445 53.8529 0.0000 0.0000 0.0000
# 3 38.8879 53.8529 83.8446 0.0000 0.0000 0.0000
# 4 0.0000 0.0000 0.0000 23.8323 0.0000 0.0000
# 5 0.0000 0.0000 0.0000 0.0000 16.5474 0.0000
# 6 0.0000 0.0000 0.0000 0.0000 0.0000 30.4923
#
#
#
# Elastic Compliance Matrix: (Units=1/GPa)
#
#
# Indices 1 2 3 4 5 6 
#
# 1 0.011815 -0.002452 -0.003905 0.000000 0.000000 0.000000
# 2 -0.002452 0.011675 -0.006362 0.000000 0.000000 0.000000
# 3 -0.003905 -0.006362 0.017824 0.000000 0.000000 0.000000
# 4 0.000000 0.000000 0.000000 0.041960 0.000000 0.000000
# 5 0.000000 0.000000 0.000000 0.000000 0.060432 0.000000
# 6 0.000000 0.000000 0.000000 0.000000 0.000000 0.032795
#
#
# Mechanical properties :
#
#
# Convention : Reuss Voigt Hill
#
# Bulk Modulus (GPa) = 62.98488 65.23707 64.11098
# Shear Modulus (GPa) = 24.12773 26.05569 25.09171
#
# Velocity S-wave (km/s) = 3.52246 3.66048 3.59213
# Velocity P-wave (km/s) = 6.99525 7.17033 7.08334
#
# Compressibility (1/GPa) = 0.01587683
#
# Stress axis : x y z
#
# Youngs Moduli (GPa) = 84.64090 85.65152 56.10429
#
# Poissons Ratio (x) = 0.21002 0.21908
# Poissons Ratio (y) = 0.20754 0.35692
# Poissons Ratio (z) = 0.33050 0.54488
#
# Static dielectric constant tensor:
#      x y z
#    x 2.279250 0.000000 0.000000 
#    y 0.000000 1.262520 0.000000 
#    z 0.000000 0.000000 1.707190 
# 
# From -- ./inp_files/25398.got.cif
#   From: 2010.05.17/outbox.cif.g08.bks.cpg/sg50_13_cif.got.tgz:25398.got - 2010.06.03 11:33:33.
