data_PCOD9396181
_publ_section_title
;
Structure prediction by ZEFSAII (Michael W. Deem and Ramdas Pophale) SiO2 
 PCOD9396181
Probable space group: P B A N
;
_chemical_formula_sum "Si O2"
_cell_formula_units_Z 40
_cell_length_a 15.331962
_cell_length_b 15.559080
_cell_length_c 7.149724
_cell_angle_alpha 90.000000
_cell_angle_beta 90.000000
_cell_angle_gamma 90.000000
_cell_volume 1705.575407
_symmetry_space_group_name_H-M "P B A N"
_symmetry_group_IT_number 50
_space_group.IT_coordinate_system_code '2'
_symmetry_cell_setting 'orthorhombic'
loop_
_space_group_symop_operation_xyz
x,y,z
1/2-x,1/2-y,z
x,1/2-y,-z
1/2-x,y,-z
-x,-y,-z
1/2+x,1/2+y,-z
-x,1/2+y,z
1/2+x,-y,z
loop_
_atom_site_type_symbol
_atom_site_label
_atom_site_fract_x
_atom_site_fract_y
_atom_site_fract_z
Si Si1 0.574006 0.557157 0.264048
Si Si2 0.573011 0.925571 0.281338
Si Si3 0.832006 0.297866 0.199550
Si Si4 0.242113 0.981249 0.274561
Si Si5 0.973618 0.738055 0.709958
O O1 0.569735 0.566408 0.491341
O O2 0.489999 0.501302 0.210855
O O3 0.661346 0.506475 0.211357
O O4 0.572000 0.655793 0.198202
O O5 0.537626 0.833861 0.213587
O O6 0.673325 0.943229 0.235104
O O7 0.750000 0.250000 0.291646
O O8 0.800608 0.395720 0.190419
O O9 0.924523 0.287959 0.298750
O O10 0.843610 0.250000 0.000000
O O11 0.250000 0.968030 0.500000
O O12 0.938395 0.750000 0.500000
#
# Coordination Sequence:
#
# PCOD9396181 Si02
#       5
#     8   8   8   8   8
#     4   9  17  31  52  87 122 151 200 245 285 351
#     4   9  17  31  51  88 120 148 203 248 283 346
#     4  11  24  38  55  85 122 146 198 249 292 353
#     4  10  20  34  60  86 118 162 195 242 305 346
#     4  10  20  34  60  87 117 158 198 245 293 346
#
# _framework density 23.452494999999999
#
# number of rings (size 3 to 8) (size 9 to 14) (size 15 to 20)
#    0.000    2.200    2.000    1.200    5.600    0.800 
#    0.000    5.000    4.400    0.000    0.000    1.400 
#    0.000    0.000    0.000    0.000    0.000    0.000 
#
# Total GULP energy -223486.429382 kJ/mol
# GULP energy per Si atom -5587.160735 kJ/mol
# Density = 2.339912 g / cm^3
# Si number density = 23.452495 Si / 1000 Ang^3
#
#
#
# Elastic Constant Matrix: (Units=GPa)
#
#
# Indices 1 2 3 4 5 6 
#
# 1 118.8711 49.2864 -9.9547 0.0000 0.0000 0.0000
# 2 49.2864 184.4522 5.3637 0.0000 0.0000 0.0000
# 3 -9.9547 5.3637 95.5595 0.0000 0.0000 0.0000
# 4 0.0000 0.0000 0.0000 -10.6386 0.0000 0.0000
# 5 0.0000 0.0000 0.0000 0.0000 -5.8474 0.0000
# 6 0.0000 0.0000 0.0000 0.0000 0.0000 44.3791
#
#
#
# Elastic Compliance Matrix: (Units=1/GPa)
#
#
# Indices 1 2 3 4 5 6 
#
# 1 0.009584 -0.002594 0.001144 0.000000 0.000000 0.000000
# 2 -0.002594 0.006132 -0.000614 0.000000 0.000000 0.000000
# 3 0.001144 -0.000614 0.010618 0.000000 0.000000 0.000000
# 4 0.000000 0.000000 0.000000 -0.093998 0.000000 0.000000
# 5 0.000000 0.000000 0.000000 0.000000 -0.171016 0.000000
# 6 0.000000 0.000000 0.000000 0.000000 0.000000 0.022533
#
#
# Mechanical properties :
#
#
# Convention : Reuss Voigt Hill
#
# Bulk Modulus (GPa) = 45.03387 54.25265 49.64326
# Shear Modulus (GPa) = -24.43619 29.19111 2.37746
#
# Velocity S-wave (km/s) = -3.23142 3.53185 1.00794
# Velocity P-wave (km/s) = 2.30675 6.30992 4.75059
#
# Compressibility (1/GPa) = 0.02220551
#
# Stress axis : x y z
#
# Youngs Moduli (GPa) = 104.34226 163.06601 94.17664
#
# Poissons Ratio (x) = 0.42301 -0.10774
# Poissons Ratio (y) = 0.27068 0.05787
# Poissons Ratio (z) = -0.11937 0.10020
#
# Static dielectric constant tensor:
#      x y z
#    x 1.812720 0.000000 0.000000 
#    y 0.000000 1.887590 0.000000 
#    z 0.000000 0.000000 2.000780 
# 
# From -- ./inp_files/14058.got.cif
#   From: 2010.05.17/outbox.cif.g08.bks.cpg/sg50_8_cif.got.tgz:14058.got - 2010.06.03 11:33:33.
