data_PCOD9396911
_publ_section_title
;
Structure prediction by ZEFSAII (Michael W. Deem and Ramdas Pophale) SiO2 
 PCOD9396911
Probable space group: P B A N
;
_chemical_formula_sum "Si O2"
_cell_formula_units_Z 64
_cell_length_a 30.294875
_cell_length_b 8.605505
_cell_length_c 11.411984
_cell_angle_alpha 90.000000
_cell_angle_beta 90.000000
_cell_angle_gamma 90.000000
_cell_volume 2975.135022
_symmetry_space_group_name_H-M "P B A N"
_symmetry_group_IT_number 50
_space_group.IT_coordinate_system_code '2'
_symmetry_cell_setting 'orthorhombic'
loop_
_space_group_symop_operation_xyz
x,y,z
1/2-x,1/2-y,z
x,1/2-y,-z
1/2-x,y,-z
-x,-y,-z
1/2+x,1/2+y,-z
-x,1/2+y,z
1/2+x,-y,z
loop_
_atom_site_type_symbol
_atom_site_label
_atom_site_fract_x
_atom_site_fract_y
_atom_site_fract_z
Si Si1 0.955565 0.808886 0.123613
Si Si2 0.197159 0.068831 0.495555
Si Si3 0.060044 0.711284 0.368517
Si Si4 0.646964 0.663284 0.117642
Si Si5 0.483058 0.021864 0.729792
Si Si6 0.703940 0.321482 0.870906
Si Si7 0.792355 0.872313 0.757050
Si Si8 0.153146 0.892043 0.718013
O O1 0.905184 0.857112 0.105709
O O2 0.956755 0.664690 0.213804
O O3 0.984873 0.947016 0.172991
O O4 0.973738 0.750000 0.000000
O O5 0.181669 0.250000 0.500000
O O6 0.250000 0.069681 0.500000
O O7 0.194935 0.030263 0.358508
O O8 0.176353 0.963119 0.599576
O O9 0.073376 0.750000 0.500000
O O10 0.046177 0.877073 0.312508
O O11 0.101235 0.625583 0.308228
O O12 0.016860 0.600189 0.362923
O O13 0.663569 0.776726 0.218335
O O14 0.664292 0.503225 0.171096
O O15 0.662522 0.750000 0.000000
O O16 0.750000 0.250000 0.830048
O O17 0.712624 0.505535 0.862625
O O18 0.668567 0.269196 0.774570
O O19 0.694759 0.250000 0.000000
O O20 0.750000 0.750000 0.746285
#
# Coordination Sequence:
#
# PCOD9396911 Si02
#       8
#     8   8   8   8   8   8   8   8
#     4  10  21  39  65  96 128 166 219 269 340 402
#     4  11  21  41  68  96 133 176 230 281 340 409
#     4  11  25  44  67  99 133 178 225 280 349 414
#     4  11  23  40  64  94 134 176 226 276 336 404
#     4  10  22  44  67  93 131 173 219 280 337 413
#     4  11  26  46  67  99 143 186 236 287 346 401
#     4  12  24  43  71  98 132 184 232 282 340 413
#     4  12  25  45  66 106 140 178 233 289 343 412
#
# _framework density 21.511628999999999
#
# number of rings (size 3 to 8) (size 9 to 14) (size 15 to 20)
#    0.000    1.000    3.750    3.000    3.500    1.250 
#    0.000    2.500    0.000    0.000    0.000    0.000 
#    0.000    0.000    0.000    0.000    0.000    0.000 
#
# Total GULP energy -356394.687329 kJ/mol
# GULP energy per Si atom -5568.666990 kJ/mol
# Density = 2.146267 g / cm^3
# Si number density = 21.511629 Si / 1000 Ang^3
#
#
#
# Elastic Constant Matrix: (Units=GPa)
#
#
# Indices 1 2 3 4 5 6 
#
# 1 24.2919 5.3751 16.8283 0.0000 0.0000 0.0000
# 2 5.3751 77.1537 20.2019 0.0000 0.0000 0.0000
# 3 16.8283 20.2019 96.1250 0.0000 0.0000 0.0000
# 4 0.0000 0.0000 0.0000 33.7681 0.0000 0.0000
# 5 0.0000 0.0000 0.0000 0.0000 8.7152 0.0000
# 6 0.0000 0.0000 0.0000 0.0000 0.0000 21.9038
#
#
#
# Elastic Compliance Matrix: (Units=1/GPa)
#
#
# Indices 1 2 3 4 5 6 
#
# 1 0.046950 -0.001184 -0.007971 0.000000 0.000000 0.000000
# 2 -0.001184 0.013746 -0.002682 0.000000 0.000000 0.000000
# 3 -0.007971 -0.002682 0.012362 0.000000 0.000000 0.000000
# 4 0.000000 0.000000 0.000000 0.029614 0.000000 0.000000
# 5 0.000000 0.000000 0.000000 0.000000 0.114742 0.000000
# 6 0.000000 0.000000 0.000000 0.000000 0.000000 0.045654
#
#
# Mechanical properties :
#
#
# Convention : Reuss Voigt Hill
#
# Bulk Modulus (GPa) = 20.24888 31.37568 25.81228
# Shear Modulus (GPa) = 16.49074 23.22180 19.85627
#
# Velocity S-wave (km/s) = 2.77175 3.28914 3.04147
# Velocity P-wave (km/s) = 4.43587 5.38903 4.93551
#
# Compressibility (1/GPa) = 0.04938545
#
# Stress axis : x y z
#
# Youngs Moduli (GPa) = 21.29946 72.74967 80.89268
#
# Poissons Ratio (x) = 0.08613 0.64476
# Poissons Ratio (y) = 0.02522 0.21692
# Poissons Ratio (z) = 0.16977 0.19508
#
# Static dielectric constant tensor:
#      x y z
#    x 1.091340 0.000000 0.000000 
#    y 0.000000 1.838210 0.000000 
#    z 0.000000 0.000000 1.851860 
# 
# From -- ./inp_files/23415.got.cif
#   From: 2010.05.17/outbox.cif.g08.bks.cpg/sg50_12_cif.got.tgz:23415.got - 2010.06.03 11:33:33.
