data_PCOD9396471
_publ_section_title
;
Structure prediction by ZEFSAII (Michael W. Deem and Ramdas Pophale) SiO2 
 PCOD9396471
Probable space group: P B A N
;
_chemical_formula_sum "Si O2"
_cell_formula_units_Z 56
_cell_length_a 9.512629
_cell_length_b 20.167167
_cell_length_c 13.626295
_cell_angle_alpha 90.000000
_cell_angle_beta 90.000000
_cell_angle_gamma 90.000000
_cell_volume 2614.106282
_symmetry_space_group_name_H-M "P B A N"
_symmetry_group_IT_number 50
_space_group.IT_coordinate_system_code '2'
_symmetry_cell_setting 'orthorhombic'
loop_
_space_group_symop_operation_xyz
x,y,z
1/2-x,1/2-y,z
x,1/2-y,-z
1/2-x,y,-z
-x,-y,-z
1/2+x,1/2+y,-z
-x,1/2+y,z
1/2+x,-y,z
loop_
_atom_site_type_symbol
_atom_site_label
_atom_site_fract_x
_atom_site_fract_y
_atom_site_fract_z
Si Si1 0.395684 0.413368 0.943992
Si Si2 0.373676 0.564305 0.920634
Si Si3 0.570879 0.888518 0.726238
Si Si4 0.005473 0.750000 0.500000
Si Si5 0.750000 0.250000 0.638278
Si Si6 0.678011 0.632641 0.596421
Si Si7 0.761660 0.116384 0.286017
Si Si8 0.047688 0.525018 0.391877
O O1 0.430997 0.489319 0.911613
O O2 0.390947 0.378479 0.839827
O O3 0.250000 0.412696 0.000000
O O4 0.509214 0.392223 0.024785
O O5 0.320323 0.587512 0.815576
O O6 0.250000 0.561823 0.000000
O O7 0.689869 0.849411 0.664853
O O8 0.405132 0.876378 0.720759
O O9 0.575563 0.962621 0.678733
O O10 0.911282 0.805141 0.554447
O O11 0.121484 0.780045 0.425486
O O12 0.816911 0.309523 0.698269
O O13 0.750000 0.601495 0.500000
O O14 0.575992 0.576483 0.641356
O O15 0.813662 0.070591 0.376455
O O16 0.000000 0.500000 0.500000
#
# Coordination Sequence:
#
# PCOD9396471 Si02
#       8
#     8   8   8   4   4   8   8   8
#     4  10  22  36  63 101 139 174 218 275 345 425
#     4  10  20  38  64  98 136 177 222 278 346 409
#     4  12  25  41  68 105 139 177 224 281 361 418
#     4  11  25  48  70  90 132 186 240 290 322 408
#     4  11  26  46  71 100 126 186 253 280 339 408
#     4  12  25  44  64  95 133 180 228 277 337 403
#     4  12  25  44  70  99 140 182 235 292 340 427
#     4  12  26  43  64 100 144 180 219 285 353 420
#
# _framework density 21.422235000000001
#
# number of rings (size 3 to 8) (size 9 to 14) (size 15 to 20)
#    0.000    0.714    5.714    1.929    2.000    0.000 
#    0.000    0.357    0.000    0.000    0.000    0.000 
#    0.000    0.000    0.000    0.000    0.000    0.000 
#
# Total GULP energy -312373.202777 kJ/mol
# GULP energy per Si atom -5578.092907 kJ/mol
# Density = 2.137348 g / cm^3
# Si number density = 21.422235 Si / 1000 Ang^3
#
#
#
# Elastic Constant Matrix: (Units=GPa)
#
#
# Indices 1 2 3 4 5 6 
#
# 1 121.7710 12.2005 62.6757 0.0000 0.0000 0.0000
# 2 12.2005 55.3683 29.7502 0.0000 0.0000 0.0000
# 3 62.6757 29.7502 126.1701 0.0000 0.0000 0.0000
# 4 0.0000 0.0000 0.0000 -222.2160 0.0000 0.0000
# 5 0.0000 0.0000 0.0000 0.0000 31.8596 0.0000
# 6 0.0000 0.0000 0.0000 0.0000 0.0000 9.5057
#
#
#
# Elastic Compliance Matrix: (Units=1/GPa)
#
#
# Indices 1 2 3 4 5 6 
#
# 1 0.011050 0.000589 -0.005628 0.000000 0.000000 0.000000
# 2 0.000589 0.020712 -0.005177 0.000000 0.000000 0.000000
# 3 -0.005628 -0.005177 0.011942 0.000000 0.000000 0.000000
# 4 0.000000 0.000000 0.000000 -0.004500 0.000000 0.000000
# 5 0.000000 0.000000 0.000000 0.000000 0.031388 0.000000
# 6 0.000000 0.000000 0.000000 0.000000 0.000000 0.105200
#
#
# Mechanical properties :
#
#
# Convention : Reuss Voigt Hill
#
# Bulk Modulus (GPa) = 42.96698 56.95137 49.95917
# Shear Modulus (GPa) = 24.51210 -22.92461 0.79374
#
# Velocity S-wave (km/s) = 3.38633 -3.27484 0.60937
# Velocity P-wave (km/s) = 5.94898 3.51333 4.88538
#
# Compressibility (1/GPa) = 0.02327369
#
# Stress axis : x y z
#
# Youngs Moduli (GPa) = 90.49895 48.28006 83.73694
#
# Poissons Ratio (x) = -0.02844 0.47127
# Poissons Ratio (y) = -0.05332 0.43347
# Poissons Ratio (z) = 0.50933 0.24992
#
# Static dielectric constant tensor:
#      x y z
#    x 1.842670 0.000000 0.000000 
#    y 0.000000 1.815210 0.000000 
#    z 0.000000 0.000000 1.793450 
# 
# From -- ./inp_files/25294.got.cif
#   From: 2010.05.17/outbox.cif.g08.bks.cpg/sg50_13_cif.got.tgz:25294.got - 2010.06.03 11:33:33.
