data_PCOD9396553
_publ_section_title
;
Structure prediction by ZEFSAII (Michael W. Deem and Ramdas Pophale) SiO2 
 PCOD9396553
Probable space group: P B A N
;
_chemical_formula_sum "Si O2"
_cell_formula_units_Z 32
_cell_length_a 12.744452
_cell_length_b 11.832139
_cell_length_c 8.287680
_cell_angle_alpha 90.000000
_cell_angle_beta 90.000000
_cell_angle_gamma 90.000000
_cell_volume 1249.733475
_symmetry_space_group_name_H-M "P B A N"
_symmetry_group_IT_number 50
_space_group.IT_coordinate_system_code '2'
_symmetry_cell_setting 'orthorhombic'
loop_
_space_group_symop_operation_xyz
x,y,z
1/2-x,1/2-y,z
x,1/2-y,-z
1/2-x,y,-z
-x,-y,-z
1/2+x,1/2+y,-z
-x,1/2+y,z
1/2+x,-y,z
loop_
_atom_site_type_symbol
_atom_site_label
_atom_site_fract_x
_atom_site_fract_y
_atom_site_fract_z
Si Si1 0.201172 0.638370 0.318009
Si Si2 0.570697 0.644155 0.095926
Si Si3 0.223308 0.101302 0.206829
Si Si4 0.016879 0.050780 0.326199
O O1 0.250000 0.750000 0.243973
O O2 0.250000 0.630435 0.500000
O O3 0.231428 0.524919 0.227967
O O4 0.075472 0.642415 0.310536
O O5 0.670362 0.676345 0.210959
O O6 0.502960 0.550075 0.190957
O O7 0.518278 0.750000 0.000000
O O8 0.648002 0.602020 0.951596
O O9 0.131504 0.104037 0.336951
O O10 0.000000 0.000000 0.500000
#
# Coordination Sequence:
#
# PCOD9396553 Si02
#       4
#     8   8   8   8
#     4  10  21  39  62  92 135 171 217 284 355 413
#     4  10  23  43  66  92 137 184 226 287 352 426
#     4  10  20  40  65  91 133 182 221 283 350 415
#     4  11  22  40  69 100 133 178 232 292 358 425
#
# _framework density 25.605460999999998
#
# number of rings (size 3 to 8) (size 9 to 14) (size 15 to 20)
#    0.000    1.750    2.500    2.250    0.000    2.000 
#    0.000   12.500    5.500    0.000    0.000    0.000 
#    0.000    0.000    0.000    0.000    0.000    0.000 
#
# Total GULP energy -178245.729805 kJ/mol
# GULP energy per Si atom -5570.179056 kJ/mol
# Density = 2.554718 g / cm^3
# Si number density = 25.605461 Si / 1000 Ang^3
#
#
#
# Elastic Constant Matrix: (Units=GPa)
#
#
# Indices 1 2 3 4 5 6 
#
# 1 114.3809 23.1526 -20.3955 0.0000 0.0000 0.0000
# 2 23.1526 81.8651 23.7704 0.0000 0.0000 0.0000
# 3 -20.3955 23.7704 71.6799 0.0000 0.0000 0.0000
# 4 0.0000 0.0000 0.0000 37.2856 0.0000 0.0000
# 5 0.0000 0.0000 0.0000 0.0000 31.9480 0.0000
# 6 0.0000 0.0000 0.0000 0.0000 0.0000 14.2763
#
#
#
# Elastic Compliance Matrix: (Units=1/GPa)
#
#
# Indices 1 2 3 4 5 6 
#
# 1 0.010365 -0.004191 0.004339 0.000000 0.000000 0.000000
# 2 -0.004191 0.015212 -0.006237 0.000000 0.000000 0.000000
# 3 0.004339 -0.006237 0.017254 0.000000 0.000000 0.000000
# 4 0.000000 0.000000 0.000000 0.026820 0.000000 0.000000
# 5 0.000000 0.000000 0.000000 0.000000 0.031301 0.000000
# 6 0.000000 0.000000 0.000000 0.000000 0.000000 0.070046
#
#
# Mechanical properties :
#
#
# Convention : Reuss Voigt Hill
#
# Bulk Modulus (GPa) = 32.62444 35.66455 34.14450
# Shear Modulus (GPa) = 25.85415 32.79522 29.32468
#
# Velocity S-wave (km/s) = 3.18104 3.58270 3.38783
# Velocity P-wave (km/s) = 5.12454 5.57432 5.35415
#
# Compressibility (1/GPa) = 0.03065186
#
# Stress axis : x y z
#
# Youngs Moduli (GPa) = 96.48054 65.73965 57.95815
#
# Poissons Ratio (x) = 0.27553 -0.25148
# Poissons Ratio (y) = 0.40437 0.36148
# Poissons Ratio (z) = -0.41863 0.41002
#
# Static dielectric constant tensor:
#      x y z
#    x 2.256150 0.000000 0.000000 
#    y 0.000000 2.153240 0.000000 
#    z 0.000000 0.000000 2.116060 
# 
# From -- ./inp_files/10590.got.cif
#   From: 2010.05.17/outbox.cif.g08.bks.cpg/sg50_6_cif.got.tgz:10590.got - 2010.06.03 11:33:33.
