data_PCOD9396657
_publ_section_title
;
Structure prediction by ZEFSAII (Michael W. Deem and Ramdas Pophale) SiO2 
 PCOD9396657
Probable space group: P B A N
;
_chemical_formula_sum "Si O2"
_cell_formula_units_Z 26
_cell_length_a 14.386526
_cell_length_b 18.299733
_cell_length_c 5.216493
_cell_angle_alpha 90.000000
_cell_angle_beta 90.000000
_cell_angle_gamma 90.000000
_cell_volume 1373.343945
_symmetry_space_group_name_H-M "P B A N"
_symmetry_group_IT_number 50
_space_group.IT_coordinate_system_code '2'
_symmetry_cell_setting 'orthorhombic'
loop_
_space_group_symop_operation_xyz
x,y,z
1/2-x,1/2-y,z
x,1/2-y,-z
1/2-x,y,-z
-x,-y,-z
1/2+x,1/2+y,-z
-x,1/2+y,z
1/2+x,-y,z
loop_
_atom_site_type_symbol
_atom_site_label
_atom_site_fract_x
_atom_site_fract_y
_atom_site_fract_z
Si Si1 0.115834 0.862544 0.740462
Si Si2 0.027074 0.590923 0.751391
Si Si3 0.649919 0.985213 0.547980
Si Si4 0.250000 0.750000 0.000000
O O1 0.168505 0.940227 0.707605
O O2 0.063739 0.854256 0.469995
O O3 0.186311 0.800676 0.822453
O O4 0.044641 0.876392 0.971996
O O5 0.923070 0.565818 0.692671
O O6 0.091782 0.518748 0.694508
O O7 0.750000 0.951231 0.500000
#
# Coordination Sequence:
#
# PCOD9396657 Si02
#       4
#     8   8   8   2
#     4  10  21  35  47  78 110 139 177 212 275 327
#     4   9  20  35  50  74 115 136 175 231 266 324
#     4   9  18  33  55  78 106 140 179 225 275 322
#     4  12  24  34  60  78 114 154 176 216 280 358
#
# _framework density 18.931892999999999
#
# number of rings (size 3 to 8) (size 9 to 14) (size 15 to 20)
#    1.846    0.615    0.000    2.769    0.000    2.462 
#    0.000    0.000    0.000    0.000    0.000    6.462 
#    0.000    0.000    0.000    0.000    0.000    0.000 
#
# Total GULP energy -144845.567052 kJ/mol
# GULP energy per Si atom -5570.983348 kJ/mol
# Density = 1.888880 g / cm^3
# Si number density = 18.931893 Si / 1000 Ang^3
#
#
#
# Elastic Constant Matrix: (Units=GPa)
#
#
# Indices 1 2 3 4 5 6 
#
# 1 132.3680 23.3695 1.2204 0.0000 0.0000 0.0000
# 2 23.3695 52.3833 1.3227 0.0000 0.0000 0.0000
# 3 1.2204 1.3227 65.7549 0.0000 0.0000 0.0000
# 4 0.0000 0.0000 0.0000 -5.1230 0.0000 0.0000
# 5 0.0000 0.0000 0.0000 0.0000 9.2854 0.0000
# 6 0.0000 0.0000 0.0000 0.0000 0.0000 -50.3729
#
#
#
# Elastic Compliance Matrix: (Units=1/GPa)
#
#
# Indices 1 2 3 4 5 6 
#
# 1 0.008201 -0.003657 -0.000079 0.000000 0.000000 0.000000
# 2 -0.003657 0.020730 -0.000349 0.000000 0.000000 0.000000
# 3 -0.000079 -0.000349 0.015216 0.000000 0.000000 0.000000
# 4 0.000000 0.000000 0.000000 -0.195197 0.000000 0.000000
# 5 0.000000 0.000000 0.000000 0.000000 0.107696 0.000000
# 6 0.000000 0.000000 0.000000 0.000000 0.000000 -0.019852
#
#
# Mechanical properties :
#
#
# Convention : Reuss Voigt Hill
#
# Bulk Modulus (GPa) = 27.79421 33.59239 30.69330
# Shear Modulus (GPa) = -116.16327 5.73079 -55.21624
#
# Velocity S-wave (km/s) = -7.84167 1.74173 -5.40639
# Velocity P-wave (km/s) = 8.20219 4.67196 4.76701
#
# Compressibility (1/GPa) = 0.03597871
#
# Stress axis : x y z
#
# Youngs Moduli (GPa) = 121.93616 48.23878 65.71822
#
# Poissons Ratio (x) = 0.17639 0.00517
# Poissons Ratio (y) = 0.44588 0.02295
# Poissons Ratio (z) = 0.00959 0.01684
#
# Static dielectric constant tensor:
#      x y z
#    x 1.655460 0.000000 0.000000 
#    y 0.000000 1.673710 0.000000 
#    z 0.000000 0.000000 1.717800 
# 
# From -- ./inp_files/2716.got.cif
#   From: 2010.05.17/outbox.cif.g08.bks.cpg/sg50_2_cif.got.tgz:2716.got - 2010.06.03 11:33:33.
