data_PCOD9396258
_publ_section_title
;
Structure prediction by ZEFSAII (Michael W. Deem and Ramdas Pophale) SiO2 
 PCOD9396258
Probable space group: P B A N
;
_chemical_formula_sum "Si O2"
_cell_formula_units_Z 42
_cell_length_a 16.462606
_cell_length_b 18.935760
_cell_length_c 7.176898
_cell_angle_alpha 90.000000
_cell_angle_beta 90.000000
_cell_angle_gamma 90.000000
_cell_volume 2237.268453
_symmetry_space_group_name_H-M "P B A N"
_symmetry_group_IT_number 50
_space_group.IT_coordinate_system_code '2'
_symmetry_cell_setting 'orthorhombic'
loop_
_space_group_symop_operation_xyz
x,y,z
1/2-x,1/2-y,z
x,1/2-y,-z
1/2-x,y,-z
-x,-y,-z
1/2+x,1/2+y,-z
-x,1/2+y,z
1/2+x,-y,z
loop_
_atom_site_type_symbol
_atom_site_label
_atom_site_fract_x
_atom_site_fract_y
_atom_site_fract_z
Si Si1 0.470048 0.512093 0.204910
Si Si2 0.977214 0.750000 0.500000
Si Si3 0.375582 0.760252 0.776363
Si Si4 0.250000 0.750000 0.500000
Si Si5 0.750000 0.987241 0.500000
Si Si6 0.700999 0.411468 0.810058
Si Si7 0.079315 0.405935 0.494732
O O1 0.379930 0.541643 0.177675
O O2 0.465445 0.441089 0.327600
O O3 0.528019 0.565548 0.318168
O O4 0.500000 0.500000 0.000000
O O5 0.925931 0.678220 0.497274
O O6 0.037209 0.747601 0.680136
O O7 0.313760 0.714039 0.647970
O O8 0.337348 0.837612 0.743484
O O9 0.375268 0.750000 0.000000
O O10 0.669674 0.938704 0.503646
O O11 0.744974 0.041700 0.672067
O O12 0.750000 0.400096 0.000000
#
# Coordination Sequence:
#
# PCOD9396258 Si02
#       7
#     8   4   8   2   4   8   8
#     4  10  21  38  62  88 120 160 211 256 307 377
#     4  11  24  40  62  91 132 168 212 257 320 388
#     4  11  23  37  56  89 126 169 203 254 318 384
#     4  10  20  36  52  76 122 154 202 244 292 372
#     4  10  23  41  64  89 121 158 218 270 312 364
#     4  11  21  36  59  88 117 159 203 253 311 371
#     4  10  22  41  62  92 121 166 210 265 318 373
#
# _framework density 18.772891999999999
#
# number of rings (size 3 to 8) (size 9 to 14) (size 15 to 20)
#    0.000    1.524    1.905    3.143    2.667    1.905 
#    0.000    0.000    0.000    0.000    0.000    5.333 
#    0.000    0.000    0.000    0.000    0.000    0.000 
#
# Total GULP energy -234123.005112 kJ/mol
# GULP energy per Si atom -5574.357265 kJ/mol
# Density = 1.873016 g / cm^3
# Si number density = 18.772892 Si / 1000 Ang^3
#
#
#
# Elastic Constant Matrix: (Units=GPa)
#
#
# Indices 1 2 3 4 5 6 
#
# 1 60.0177 36.3165 35.3352 0.0000 0.0000 0.0000
# 2 36.3165 144.2930 43.4615 0.0000 0.0000 0.0000
# 3 35.3352 43.4615 150.5081 0.0000 0.0000 0.0000
# 4 0.0000 0.0000 0.0000 14.7665 0.0000 0.0000
# 5 0.0000 0.0000 0.0000 0.0000 22.4290 0.0000
# 6 0.0000 0.0000 0.0000 0.0000 0.0000 18.9882
#
#
#
# Elastic Compliance Matrix: (Units=1/GPa)
#
#
# Indices 1 2 3 4 5 6 
#
# 1 0.021484 -0.004258 -0.003814 0.000000 0.000000 0.000000
# 2 -0.004258 0.008435 -0.001436 0.000000 0.000000 0.000000
# 3 -0.003814 -0.001436 0.007954 0.000000 0.000000 0.000000
# 4 0.000000 0.000000 0.000000 0.067721 0.000000 0.000000
# 5 0.000000 0.000000 0.000000 0.000000 0.044585 0.000000
# 6 0.000000 0.000000 0.000000 0.000000 0.000000 0.052664
#
#
# Mechanical properties :
#
#
# Convention : Reuss Voigt Hill
#
# Bulk Modulus (GPa) = 53.03340 65.00501 59.01921
# Shear Modulus (GPa) = 21.91584 27.21711 24.56648
#
# Velocity S-wave (km/s) = 3.42046 3.81177 3.62140
# Velocity P-wave (km/s) = 6.62652 7.35357 6.99949
#
# Compressibility (1/GPa) = 0.01885604
#
# Stress axis : x y z
#
# Youngs Moduli (GPa) = 46.54603 118.55917 125.71884
#
# Poissons Ratio (x) = 0.50487 0.47952
# Poissons Ratio (y) = 0.19821 0.18052
# Poissons Ratio (z) = 0.17754 0.17023
#
# Static dielectric constant tensor:
#      x y z
#    x 6.330970 0.000000 0.000000 
#    y 0.000000 1.719850 0.000000 
#    z 0.000000 0.000000 0.469950 
# 
# From -- ./inp_files/4505.got.cif
#   From: 2010.05.17/outbox.cif.g08.bks.cpg/sg50_3_cif.got.tgz:4505.got - 2010.06.03 11:33:33.
