data_PCOD9396585
_publ_section_title
;
Structure prediction by ZEFSAII (Michael W. Deem and Ramdas Pophale) SiO2 
 PCOD9396585
Probable space group: P B A N
;
_chemical_formula_sum "Si O2"
_cell_formula_units_Z 40
_cell_length_a 12.683720
_cell_length_b 11.295268
_cell_length_c 11.189289
_cell_angle_alpha 90.000000
_cell_angle_beta 90.000000
_cell_angle_gamma 90.000000
_cell_volume 1603.044864
_symmetry_space_group_name_H-M "P B A N"
_symmetry_group_IT_number 50
_space_group.IT_coordinate_system_code '2'
_symmetry_cell_setting 'orthorhombic'
loop_
_space_group_symop_operation_xyz
x,y,z
1/2-x,1/2-y,z
x,1/2-y,-z
1/2-x,y,-z
-x,-y,-z
1/2+x,1/2+y,-z
-x,1/2+y,z
1/2+x,-y,z
loop_
_atom_site_type_symbol
_atom_site_label
_atom_site_fract_x
_atom_site_fract_y
_atom_site_fract_z
Si Si1 0.381770 0.125259 0.259399
Si Si2 0.953898 0.672254 0.117147
Si Si3 0.084742 0.107536 0.486515
Si Si4 0.194009 0.902524 0.872391
Si Si5 0.383355 0.967313 0.749744
O O1 0.382333 0.255963 0.210469
O O2 0.344446 0.101601 0.394006
O O3 0.332537 0.038420 0.162215
O O4 0.507449 0.100397 0.267602
O O5 0.907148 0.540893 0.127477
O O6 0.079926 0.659213 0.140858
O O7 0.945065 0.750000 0.000000
O O8 0.051109 0.250000 0.500000
O O9 0.127947 0.059604 0.359750
O O10 0.000000 0.000000 0.500000
O O11 0.285265 0.881997 0.773535
O O12 0.250000 0.882533 0.000000
#
# Coordination Sequence:
#
# PCOD9396585 Si02
#       5
#     8   8   8   8   8
#     4  10  22  40  65  94 131 173 222 280 342 410
#     4  11  22  39  65  92 129 179 222 272 346 407
#     4  10  20  41  71  99 134 181 227 284 353 412
#     4  11  24  41  62  96 136 173 227 281 337 412
#     4  10  22  40  63  97 131 171 222 283 342 407
#
# _framework density 24.952513
#
# number of rings (size 3 to 8) (size 9 to 14) (size 15 to 20)
#    0.000    1.600    2.000    2.400    0.000    7.600 
#    0.000    3.000    0.000    0.000    0.000    0.000 
#    0.000    0.000    0.000    0.000    0.000    0.000 
#
# Total GULP energy -222678.861889 kJ/mol
# GULP energy per Si atom -5566.971547 kJ/mol
# Density = 2.489572 g / cm^3
# Si number density = 24.952513 Si / 1000 Ang^3
#
#
#
# Elastic Constant Matrix: (Units=GPa)
#
#
# Indices 1 2 3 4 5 6 
#
# 1 109.5056 21.2907 6.9316 0.0000 0.0000 0.0000
# 2 21.2907 112.6709 29.0052 0.0000 0.0000 0.0000
# 3 6.9316 29.0052 108.0866 0.0000 0.0000 0.0000
# 4 0.0000 0.0000 0.0000 8.8946 0.0000 0.0000
# 5 0.0000 0.0000 0.0000 0.0000 0.8062 0.0000
# 6 0.0000 0.0000 0.0000 0.0000 0.0000 32.4819
#
#
#
# Elastic Compliance Matrix: (Units=1/GPa)
#
#
# Indices 1 2 3 4 5 6 
#
# 1 0.009482 -0.001757 -0.000137 0.000000 0.000000 0.000000
# 2 -0.001757 0.009859 -0.002533 0.000000 0.000000 0.000000
# 3 -0.000137 -0.002533 0.009940 0.000000 0.000000 0.000000
# 4 0.000000 0.000000 0.000000 0.112427 0.000000 0.000000
# 5 0.000000 0.000000 0.000000 0.000000 1.240390 0.000000
# 6 0.000000 0.000000 0.000000 0.000000 0.000000 0.030786
#
#
# Mechanical properties :
#
#
# Convention : Reuss Voigt Hill
#
# Bulk Modulus (GPa) = 48.94981 49.41311 49.18146
# Shear Modulus (GPa) = 3.50006 26.63892 15.06949
#
# Velocity S-wave (km/s) = 1.18564 3.27094 2.46016
# Velocity P-wave (km/s) = 4.64048 5.84048 5.27472
#
# Compressibility (1/GPa) = 0.02042909
#
# Stress axis : x y z
#
# Youngs Moduli (GPa) = 105.46156 101.42552 100.59972
#
# Poissons Ratio (x) = 0.17816 0.01375
# Poissons Ratio (y) = 0.18525 0.25483
# Poissons Ratio (z) = 0.01442 0.25693
#
# Static dielectric constant tensor:
#      x y z
#    x 2.231340 0.000000 0.000000 
#    y 0.000000 2.023140 0.000000 
#    z 0.000000 0.000000 2.201880 
# 
# From -- ./inp_files/20914.got.cif
#   From: 2010.05.17/outbox.cif.g08.bks.cpg/sg50_11_cif.got.tgz:20914.got - 2010.06.03 11:33:33.
