data_PCOD9396838
_publ_section_title
;
Structure prediction by ZEFSAII (Michael W. Deem and Ramdas Pophale) SiO2 
 PCOD9396838
Probable space group: P B A N
;
_chemical_formula_sum "Si O2"
_cell_formula_units_Z 32
_cell_length_a 11.769134
_cell_length_b 8.447740
_cell_length_c 16.862399
_cell_angle_alpha 90.000000
_cell_angle_beta 90.000000
_cell_angle_gamma 90.000000
_cell_volume 1676.503282
_symmetry_space_group_name_H-M "P B A N"
_symmetry_group_IT_number 50
_space_group.IT_coordinate_system_code '2'
_symmetry_cell_setting 'orthorhombic'
loop_
_space_group_symop_operation_xyz
x,y,z
1/2-x,1/2-y,z
x,1/2-y,-z
1/2-x,y,-z
-x,-y,-z
1/2+x,1/2+y,-z
-x,1/2+y,z
1/2+x,-y,z
loop_
_atom_site_type_symbol
_atom_site_label
_atom_site_fract_x
_atom_site_fract_y
_atom_site_fract_z
Si Si1 0.656298 0.960719 0.931673
Si Si2 0.250000 0.250000 0.204229
Si Si3 0.364851 0.173662 0.641004
Si Si4 0.957761 0.250000 0.000000
Si Si5 0.437826 0.875545 0.558389
O O1 0.709291 0.893582 0.851200
O O2 0.618229 0.142042 0.942315
O O3 0.750000 0.931740 0.000000
O O4 0.542470 0.861010 0.950054
O O5 0.348847 0.304170 0.264767
O O6 0.250000 0.250000 0.605768
O O7 0.470360 0.273769 0.607912
O O8 0.369428 0.990693 0.616129
O O9 0.378696 0.750000 0.500000
O O10 0.500000 0.000000 0.500000
#
# Coordination Sequence:
#
# PCOD9396838 Si02
#       5
#     8   4   8   4   8
#     4  11  20  41  59  94 118 167 217 253 299 380
#     4  10  21  38  63  82 144 154 196 276 311 362
#     4   9  21  38  58  92 124 162 192 262 320 356
#     4  10  22  34  68  84 114 162 228 240 312 352
#     4   9  18  37  64  87 116 159 212 244 294 391
#
# _framework density 19.087349
#
# number of rings (size 3 to 8) (size 9 to 14) (size 15 to 20)
#    0.750    1.500    2.500    0.375    0.000    6.500 
#    0.000    8.750   11.000    0.000    0.000    0.000 
#    0.000    0.000    0.000    0.000    0.000    0.000 
#
# Total GULP energy -178188.012282 kJ/mol
# GULP energy per Si atom -5568.375384 kJ/mol
# Density = 1.904391 g / cm^3
# Si number density = 19.087349 Si / 1000 Ang^3
#
#
#
# Elastic Constant Matrix: (Units=GPa)
#
#
# Indices 1 2 3 4 5 6 
#
# 1 82.9962 53.8410 43.7172 0.0000 0.0000 0.0000
# 2 53.8410 148.0757 60.7934 0.0000 0.0000 0.0000
# 3 43.7172 60.7934 132.6422 0.0000 0.0000 0.0000
# 4 0.0000 0.0000 0.0000 13.9022 0.0000 0.0000
# 5 0.0000 0.0000 0.0000 0.0000 49.9735 0.0000
# 6 0.0000 0.0000 0.0000 0.0000 0.0000 29.6406
#
#
#
# Elastic Compliance Matrix: (Units=1/GPa)
#
#
# Indices 1 2 3 4 5 6 
#
# 1 0.016926 -0.004760 -0.003397 0.000000 0.000000 0.000000
# 2 -0.004760 0.009657 -0.002857 0.000000 0.000000 0.000000
# 3 -0.003397 -0.002857 0.009968 0.000000 0.000000 0.000000
# 4 0.000000 0.000000 0.000000 0.071931 0.000000 0.000000
# 5 0.000000 0.000000 0.000000 0.000000 0.020011 0.000000
# 6 0.000000 0.000000 0.000000 0.000000 0.000000 0.033738
#
#
# Mechanical properties :
#
#
# Convention : Reuss Voigt Hill
#
# Bulk Modulus (GPa) = 68.85614 75.60192 72.22903
# Shear Modulus (GPa) = 26.44115 32.39408 29.41761
#
# Velocity S-wave (km/s) = 3.72596 4.12412 3.93008
# Velocity P-wave (km/s) = 7.39344 7.89760 7.64968
#
# Compressibility (1/GPa) = 0.01452303
#
# Stress axis : x y z
#
# Youngs Moduli (GPa) = 59.08164 103.55156 100.31791
#
# Poissons Ratio (x) = 0.49286 0.34079
# Poissons Ratio (y) = 0.28120 0.28665
# Poissons Ratio (z) = 0.20070 0.29588
#
# Static dielectric constant tensor:
#      x y z
#    x 1.684330 0.000000 0.000000 
#    y 0.000000 1.706020 0.000000 
#    z 0.000000 0.000000 1.658720 
# 
# From -- ./inp_files/29048.got.cif
#   From: 2010.05.17/outbox.cif.g08.bks.cpg/sg50_15_cif.got.tgz:29048.got - 2010.06.03 11:33:33.
