data_PCOD9396398
_publ_section_title
;
Structure prediction by ZEFSAII (Michael W. Deem and Ramdas Pophale) SiO2 
 PCOD9396398
Probable space group: P B A N
;
_chemical_formula_sum "Si O2"
_cell_formula_units_Z 40
_cell_length_a 8.237458
_cell_length_b 19.926670
_cell_length_c 10.592103
_cell_angle_alpha 90.000000
_cell_angle_beta 90.000000
_cell_angle_gamma 90.000000
_cell_volume 1738.641882
_symmetry_space_group_name_H-M "P B A N"
_symmetry_group_IT_number 50
_space_group.IT_coordinate_system_code '2'
_symmetry_cell_setting 'orthorhombic'
loop_
_space_group_symop_operation_xyz
x,y,z
1/2-x,1/2-y,z
x,1/2-y,-z
1/2-x,y,-z
-x,-y,-z
1/2+x,1/2+y,-z
-x,1/2+y,z
1/2+x,-y,z
loop_
_atom_site_type_symbol
_atom_site_label
_atom_site_fract_x
_atom_site_fract_y
_atom_site_fract_z
Si Si1 0.428777 0.599556 0.029008
Si Si2 0.060849 0.432281 0.761141
Si Si3 0.820206 0.681295 0.828997
Si Si4 0.194933 0.933410 0.307986
Si Si5 0.592421 0.208760 0.373687
O O1 0.573694 0.648786 0.060662
O O2 0.388459 0.570667 0.168015
O O3 0.250000 0.629449 0.000000
O O4 0.494765 0.557340 0.908580
O O5 0.188014 0.371624 0.776759
O O6 0.150222 0.488710 0.674767
O O7 0.886725 0.421232 0.697689
O O8 0.750000 0.750000 0.872253
O O9 0.943612 0.705242 0.720005
O O10 0.129982 0.870844 0.388494
O O11 0.750000 0.250000 0.320740
O O12 0.554833 0.250000 0.500000
#
# Coordination Sequence:
#
# PCOD9396398 Si02
#       5
#     8   8   8   8   8
#     4   9  20  36  57  89 134 184 220 255 313 385
#     4  11  21  36  61  96 139 174 212 258 314 387
#     4  11  23  39  60  92 133 174 220 269 320 386
#     4  10  20  37  63  95 132 174 215 263 317 385
#     4  10  22  43  69  91 119 164 218 278 341 385
#
# _framework density 23.006464000000001
#
# number of rings (size 3 to 8) (size 9 to 14) (size 15 to 20)
#    0.000    1.800    0.000    4.800    0.000    5.200 
#    0.000    8.000    0.000   30.000    0.000    0.000 
#    0.000    0.000    0.000    0.000    0.000    0.000 
#
# Total GULP energy -222711.962930 kJ/mol
# GULP energy per Si atom -5567.799073 kJ/mol
# Density = 2.295410 g / cm^3
# Si number density = 23.006464 Si / 1000 Ang^3
#
#
#
# Elastic Constant Matrix: (Units=GPa)
#
#
# Indices 1 2 3 4 5 6 
#
# 1 92.3817 59.4861 47.1731 0.0000 0.0000 0.0000
# 2 59.4861 138.4190 36.7335 0.0000 0.0000 0.0000
# 3 47.1731 36.7335 84.9394 0.0000 0.0000 0.0000
# 4 0.0000 0.0000 0.0000 24.9599 0.0000 0.0000
# 5 0.0000 0.0000 0.0000 0.0000-3157.7005 0.0000
# 6 0.0000 0.0000 0.0000 0.0000 0.0000 -58.8267
#
#
#
# Elastic Compliance Matrix: (Units=1/GPa)
#
#
# Indices 1 2 3 4 5 6 
#
# 1 0.018617 -0.005938 -0.007771 0.000000 0.000000 0.000000
# 2 -0.005938 0.010055 -0.001051 0.000000 0.000000 0.000000
# 3 -0.007771 -0.001051 0.016543 0.000000 0.000000 0.000000
# 4 0.000000 0.000000 0.000000 0.040064 0.000000 0.000000
# 5 0.000000 0.000000 0.000000 0.000000 -0.000317 0.000000
# 6 0.000000 0.000000 0.000000 0.000000 0.000000 -0.016999
#
#
# Mechanical properties :
#
#
# Convention : Reuss Voigt Hill
#
# Bulk Modulus (GPa) = 63.71350 66.94727 65.33039
# Shear Modulus (GPa) = 48.67829 -626.82364 -289.07267
#
# Velocity S-wave (km/s) = 4.60483 -16.52413 -11.22146
# Velocity P-wave (km/s) = 7.48508 18.30027 11.80834
#
# Compressibility (1/GPa) = 0.01569526
#
# Stress axis : x y z
#
# Youngs Moduli (GPa) = 53.71562 99.45054 60.44747
#
# Poissons Ratio (x) = 0.59056 0.46974
# Poissons Ratio (y) = 0.31898 0.06351
# Poissons Ratio (z) = 0.41743 0.10448
#
# Static dielectric constant tensor:
#      x y z
#    x 1.832560 0.000000 0.000000 
#    y 0.000000 1.943570 0.000000 
#    z 0.000000 0.000000 1.953010 
# 
# From -- ./inp_files/18691.got.cif
#   From: 2010.05.17/outbox.cif.g08.bks.cpg/sg50_10_cif.got.tgz:18691.got - 2010.06.03 11:33:33.
