data_PCOD9396970
_publ_section_title
;
Structure prediction by ZEFSAII (Michael W. Deem and Ramdas Pophale) SiO2 
 PCOD9396970
Probable space group: P B A N
;
_chemical_formula_sum "Si O2"
_cell_formula_units_Z 48
_cell_length_a 12.826288
_cell_length_b 23.158919
_cell_length_c 7.955562
_cell_angle_alpha 90.000000
_cell_angle_beta 90.000000
_cell_angle_gamma 90.000000
_cell_volume 2363.143724
_symmetry_space_group_name_H-M "P B A N"
_symmetry_group_IT_number 50
_space_group.IT_coordinate_system_code '2'
_symmetry_cell_setting 'orthorhombic'
loop_
_space_group_symop_operation_xyz
x,y,z
1/2-x,1/2-y,z
x,1/2-y,-z
1/2-x,y,-z
-x,-y,-z
1/2+x,1/2+y,-z
-x,1/2+y,z
1/2+x,-y,z
loop_
_atom_site_type_symbol
_atom_site_label
_atom_site_fract_x
_atom_site_fract_y
_atom_site_fract_z
Si Si1 0.369130 0.347255 0.490944
Si Si2 0.896472 0.108273 0.854393
Si Si3 0.055341 0.778110 0.334774
Si Si4 0.969219 0.155381 0.211726
Si Si5 0.196700 0.930059 0.682167
Si Si6 0.440807 0.034969 0.353287
O O1 0.250000 0.328069 0.500000
O O2 0.445472 0.304667 0.596328
O O3 0.419484 0.351760 0.304349
O O4 0.378924 0.410947 0.569988
O O5 0.782355 0.082899 0.822757
O O6 0.890708 0.167879 0.749297
O O7 0.975531 0.063035 0.770577
O O8 0.943834 0.126258 0.033940
O O9 0.106776 0.750000 0.500000
O O10 0.046050 0.724188 0.209424
O O11 0.885937 0.122381 0.330763
O O12 0.250000 0.937724 0.500000
O O13 0.134758 0.987996 0.727514
O O14 0.500000 0.000000 0.500000
#
# Coordination Sequence:
#
# PCOD9396970 Si02
#       6
#     8   8   8   8   8   8
#     4  10  21  40  68  95 124 177 234 267 322 411
#     4  11  24  41  64  97 134 167 214 279 341 389
#     4   9  20  41  65  91 127 171 220 266 325 405
#     4  11  23  40  63  98 134 163 215 286 337 383
#     4  12  22  39  66  91 125 175 222 261 327 414
#     4  11  21  41  64  89 127 176 220 263 321 400
#
# _framework density 20.311924000000001
#
# number of rings (size 3 to 8) (size 9 to 14) (size 15 to 20)
#    0.000    1.333    3.333    3.500    0.000    4.333 
#    0.000   10.000    0.000    8.000    0.000    0.000 
#    0.000    0.000    0.000    0.000    0.000    0.000 
#
# Total GULP energy -267957.991173 kJ/mol
# GULP energy per Si atom -5582.458149 kJ/mol
# Density = 2.026569 g / cm^3
# Si number density = 20.311924 Si / 1000 Ang^3
#
#
#
# Elastic Constant Matrix: (Units=GPa)
#
#
# Indices 1 2 3 4 5 6 
#
# 1 88.0271 49.9037 43.7245 0.0000 0.0000 0.0000
# 2 49.9037 162.9149 40.5251 0.0000 0.0000 0.0000
# 3 43.7245 40.5251 103.2107 0.0000 0.0000 0.0000
# 4 0.0000 0.0000 0.0000 35.0065 0.0000 0.0000
# 5 0.0000 0.0000 0.0000 0.0000 27.0765 0.0000
# 6 0.0000 0.0000 0.0000 0.0000 0.0000 -0.2733
#
#
#
# Elastic Compliance Matrix: (Units=1/GPa)
#
#
# Indices 1 2 3 4 5 6 
#
# 1 0.016074 -0.003579 -0.005404 0.000000 0.000000 0.000000
# 2 -0.003579 0.007600 -0.001468 0.000000 0.000000 0.000000
# 3 -0.005404 -0.001468 0.012555 0.000000 0.000000 0.000000
# 4 0.000000 0.000000 0.000000 0.028566 0.000000 0.000000
# 5 0.000000 0.000000 0.000000 0.000000 0.036932 0.000000
# 6 0.000000 0.000000 0.000000 0.000000 0.000000 -3.658687
#
#
# Mechanical properties :
#
#
# Convention : Reuss Voigt Hill
#
# Bulk Modulus (GPa) = 65.24947 69.16214 67.20581
# Shear Modulus (GPa) = -1.41605 27.02856 12.80625
#
# Velocity S-wave (km/s) = -0.83586 3.65180 2.51366
# Velocity P-wave (km/s) = 5.59124 7.20450 6.44852
#
# Compressibility (1/GPa) = 0.01532579
#
# Stress axis : x y z
#
# Youngs Moduli (GPa) = 62.21375 131.58483 79.65238
#
# Poissons Ratio (x) = 0.47099 0.43045
# Poissons Ratio (y) = 0.22269 0.11690
# Poissons Ratio (z) = 0.33621 0.19311
#
# Static dielectric constant tensor:
#      x y z
#    x 1.727820 0.000000 0.000000 
#    y 0.000000 1.714460 0.000000 
#    z 0.000000 0.000000 1.770820 
# 
# From -- ./inp_files/11553.got.cif
#   From: 2010.05.17/outbox.cif.g08.bks.cpg/sg50_6_cif.got.tgz:11553.got - 2010.06.03 11:33:33.
