data_PCOD9396251
_publ_section_title
;
Structure prediction by ZEFSAII (Michael W. Deem and Ramdas Pophale) SiO2 
 PCOD9396251
Probable space group: P B A N
;
_chemical_formula_sum "Si O2"
_cell_formula_units_Z 64
_cell_length_a 9.760759
_cell_length_b 14.708838
_cell_length_c 22.117422
_cell_angle_alpha 90.000000
_cell_angle_beta 90.000000
_cell_angle_gamma 90.000000
_cell_volume 3175.385512
_symmetry_space_group_name_H-M "P B A N"
_symmetry_group_IT_number 50
_space_group.IT_coordinate_system_code '2'
_symmetry_cell_setting 'orthorhombic'
loop_
_space_group_symop_operation_xyz
x,y,z
1/2-x,1/2-y,z
x,1/2-y,-z
1/2-x,y,-z
-x,-y,-z
1/2+x,1/2+y,-z
-x,1/2+y,z
1/2+x,-y,z
loop_
_atom_site_type_symbol
_atom_site_label
_atom_site_fract_x
_atom_site_fract_y
_atom_site_fract_z
Si Si1 0.405217 0.724391 0.929434
Si Si2 0.163532 0.160818 0.745105
Si Si3 0.629505 0.323488 0.687378
Si Si4 0.734088 0.987086 0.649172
Si Si5 0.588019 0.266334 0.434514
Si Si6 0.345347 0.165901 0.113741
Si Si7 0.992561 0.968616 0.569607
Si Si8 0.124521 0.976428 0.956464
O O1 0.250000 0.750000 0.915865
O O2 0.505538 0.788570 0.892016
O O3 0.417959 0.615315 0.920601
O O4 0.432548 0.750000 0.000000
O O5 0.250000 0.250000 0.727618
O O6 0.227199 0.080819 0.705074
O O7 0.186875 0.147283 0.816386
O O8 0.999527 0.168764 0.732500
O O9 0.750000 0.250000 0.702464
O O10 0.713132 0.416071 0.674635
O O11 0.556381 0.291724 0.624449
O O12 0.840470 0.966172 0.595376
O O13 0.586976 0.978150 0.616959
O O14 0.750000 0.250000 0.440372
O O15 0.521718 0.250000 0.500000
O O16 0.558685 0.370237 0.423761
O O17 0.250000 0.250000 0.090710
O O18 0.338266 0.069450 0.078981
O O19 0.000000 0.000000 0.500000
O O20 0.250000 0.949205 0.000000
O O21 0.000000 0.000000 0.000000
#
# Coordination Sequence:
#
# PCOD9396251 Si02
#       8
#     8   8   8   8   8   8   8   8
#     4  11  21  42  67 101 143 177 225 287 348 406
#     4  11  27  49  68  97 141 187 238 291 344 413
#     4  11  22  44  72  95 126 185 231 279 354 412
#     4  12  24  46  69  98 137 178 231 288 349 423
#     4  10  20  35  63  95 128 164 216 274 342 419
#     4  11  26  46  67 102 141 189 233 286 348 421
#     4  12  24  40  68 104 135 173 224 291 359 420
#     4  12  22  39  69 103 136 181 225 278 350 413
#
# _framework density 20.155031999999999
#
# number of rings (size 3 to 8) (size 9 to 14) (size 15 to 20)
#    0.000    0.750    6.250    2.625    1.750    0.500 
#   11.250    0.000    0.000    0.000    0.000    0.000 
#    0.000    0.000    0.000    0.000    0.000    0.000 
#
# Total GULP energy -357057.577745 kJ/mol
# GULP energy per Si atom -5579.024652 kJ/mol
# Density = 2.010916 g / cm^3
# Si number density = 20.155032 Si / 1000 Ang^3
#
#
#
# Elastic Constant Matrix: (Units=GPa)
#
#
# Indices 1 2 3 4 5 6 
#
# 1 44.8085 8.1512 3.6070 0.0000 0.0000 0.0000
# 2 8.1512 155.6366 39.5859 0.0000 0.0000 0.0000
# 3 3.6070 39.5859 55.8700 0.0000 0.0000 0.0000
# 4 0.0000 0.0000 0.0000 29.2597 0.0000 0.0000
# 5 0.0000 0.0000 0.0000 0.0000 24.9134 0.0000
# 6 0.0000 0.0000 0.0000 0.0000 0.0000 20.3943
#
#
#
# Elastic Compliance Matrix: (Units=1/GPa)
#
#
# Indices 1 2 3 4 5 6 
#
# 1 0.022558 -0.000989 -0.000755 0.000000 0.000000 0.000000
# 2 -0.000989 0.007881 -0.005520 0.000000 0.000000 0.000000
# 3 -0.000755 -0.005520 0.021859 0.000000 0.000000 0.000000
# 4 0.000000 0.000000 0.000000 0.034177 0.000000 0.000000
# 5 0.000000 0.000000 0.000000 0.000000 0.040139 0.000000
# 6 0.000000 0.000000 0.000000 0.000000 0.000000 0.049033
#
#
# Mechanical properties :
#
#
# Convention : Reuss Voigt Hill
#
# Bulk Modulus (GPa) = 26.47744 39.88926 33.18335
# Shear Modulus (GPa) = 24.65899 28.57822 26.61861
#
# Velocity S-wave (km/s) = 3.50160 3.76961 3.63808
# Velocity P-wave (km/s) = 5.43265 6.22743 5.84357
#
# Compressibility (1/GPa) = 0.03776800
#
# Stress axis : x y z
#
# Youngs Moduli (GPa) = 44.33026 126.88625 45.74841
#
# Poissons Ratio (x) = 0.12553 0.03456
# Poissons Ratio (y) = 0.04386 0.25254
# Poissons Ratio (z) = 0.03349 0.70043
#
# Static dielectric constant tensor:
#      x y z
#    x 1.773590 0.000000 0.000000 
#    y 0.000000 1.769760 0.000000 
#    z 0.000000 0.000000 1.758050 
# 
# From -- ./inp_files/31624.got.cif
#   From: 2010.05.17/outbox.cif.g08.bks.cpg/sg50_16_cif.got.tgz:31624.got - 2010.06.03 11:33:33.
