data_PCOD9396092
_publ_section_title
;
Structure prediction by ZEFSAII (Michael W. Deem and Ramdas Pophale) SiO2 
 PCOD9396092
Probable space group: P B A N
;
_chemical_formula_sum "Si O2"
_cell_formula_units_Z 56
_cell_length_a 22.146295
_cell_length_b 11.691346
_cell_length_c 11.307495
_cell_angle_alpha 90.000000
_cell_angle_beta 90.000000
_cell_angle_gamma 90.000000
_cell_volume 2927.736577
_symmetry_space_group_name_H-M "P B A N"
_symmetry_group_IT_number 50
_space_group.IT_coordinate_system_code '2'
_symmetry_cell_setting 'orthorhombic'
loop_
_space_group_symop_operation_xyz
x,y,z
1/2-x,1/2-y,z
x,1/2-y,-z
1/2-x,y,-z
-x,-y,-z
1/2+x,1/2+y,-z
-x,1/2+y,z
1/2+x,-y,z
loop_
_atom_site_type_symbol
_atom_site_label
_atom_site_fract_x
_atom_site_fract_y
_atom_site_fract_z
Si Si1 0.189972 0.432493 0.153271
Si Si2 0.596196 0.417002 0.281556
Si Si3 0.610747 0.195513 0.124319
Si Si4 0.964079 0.119724 0.520298
Si Si5 0.502402 0.105395 0.222160
Si Si6 0.326224 0.477687 0.124571
Si Si7 0.901812 0.766408 0.861339
O O1 0.155409 0.511715 0.246578
O O2 0.261562 0.432986 0.167126
O O3 0.158211 0.309520 0.158734
O O4 0.175997 0.475192 0.019178
O O5 0.598867 0.299481 0.211438
O O6 0.587351 0.392048 0.420517
O O7 0.539625 0.493616 0.233225
O O8 0.548627 0.121826 0.114655
O O9 0.661430 0.106375 0.163309
O O10 0.627274 0.250000 0.000000
O O11 0.990250 0.250000 0.500000
O O12 0.956277 0.113629 0.660999
O O13 0.000000 0.000000 0.500000
O O14 0.455250 0.211172 0.214416
O O15 0.380982 0.394894 0.162316
O O16 0.917905 0.750000 0.000000
#
# Coordination Sequence:
#
# PCOD9396092 Si02
#       7
#     8   8   8   8   8   8   8
#     4   9  18  37  54  80 113 152 196 243 276 346
#     4  10  21  38  54  80 115 148 191 238 291 335
#     4  12  23  33  51  84 117 154 184 227 286 352
#     4  10  20  37  59  81 108 150 191 239 286 341
#     4  10  22  36  57  79 116 149 189 236 290 351
#     4  10  20  32  56  82 113 154 197 229 291 349
#     4   9  18  34  55  84 114 153 188 240 295 341
#
# _framework density 19.127403999999999
#
# number of rings (size 3 to 8) (size 9 to 14) (size 15 to 20)
#    0.000    2.000    2.857    0.857    2.000    2.857 
#    0.000    0.000    0.000    0.857    0.000    0.000 
#    0.000    5.714    0.000    0.000    0.000    0.000 
#
# Total GULP energy -311927.108271 kJ/mol
# GULP energy per Si atom -5570.126933 kJ/mol
# Density = 1.908387 g / cm^3
# Si number density = 19.127404 Si / 1000 Ang^3
#
#
#
# Elastic Constant Matrix: (Units=GPa)
#
#
# Indices 1 2 3 4 5 6 
#
# 1 46.8436 13.6623 15.4156 0.0000 0.0000 0.0000
# 2 13.6623 111.9748 25.5961 0.0000 0.0000 0.0000
# 3 15.4156 25.5961 58.7300 0.0000 0.0000 0.0000
# 4 0.0000 0.0000 0.0000 24.9391 0.0000 0.0000
# 5 0.0000 0.0000 0.0000 0.0000 17.5015 0.0000
# 6 0.0000 0.0000 0.0000 0.0000 0.0000 15.1220
#
#
#
# Elastic Compliance Matrix: (Units=1/GPa)
#
#
# Indices 1 2 3 4 5 6 
#
# 1 0.023630 -0.001627 -0.005493 0.000000 0.000000 0.000000
# 2 -0.001627 0.010031 -0.003945 0.000000 0.000000 0.000000
# 3 -0.005493 -0.003945 0.020188 0.000000 0.000000 0.000000
# 4 0.000000 0.000000 0.000000 0.040098 0.000000 0.000000
# 5 0.000000 0.000000 0.000000 0.000000 0.057138 0.000000
# 6 0.000000 0.000000 0.000000 0.000000 0.000000 0.066129
#
#
# Mechanical properties :
#
#
# Convention : Reuss Voigt Hill
#
# Bulk Modulus (GPa) = 31.52724 36.32181 33.92452
# Shear Modulus (GPa) = 20.00667 22.37082 21.18875
#
# Velocity S-wave (km/s) = 3.23765 3.42361 3.33193
# Velocity P-wave (km/s) = 5.52223 5.88717 5.70762
#
# Compressibility (1/GPa) = 0.03171860
#
# Stress axis : x y z
#
# Youngs Moduli (GPa) = 42.31904 99.69275 49.53424
#
# Poissons Ratio (x) = 0.16225 0.27210
# Poissons Ratio (y) = 0.06887 0.19539
# Poissons Ratio (z) = 0.23247 0.39324
#
# Static dielectric constant tensor:
#      x y z
#    x 1.676540 0.000000 0.000000 
#    y 0.000000 1.737240 0.000000 
#    z 0.000000 0.000000 1.678170 
# 
# From -- ./inp_files/20387.got.cif
#   From: 2010.05.17/outbox.cif.g08.bks.cpg/sg50_11_cif.got.tgz:20387.got - 2010.06.03 11:33:33.
