data_PCOD9396862
_publ_section_title
;
Structure prediction by ZEFSAII (Michael W. Deem and Ramdas Pophale) SiO2 
 PCOD9396862
Probable space group: P B A N
;
_chemical_formula_sum "Si O2"
_cell_formula_units_Z 64
_cell_length_a 8.553407
_cell_length_b 15.372024
_cell_length_c 21.507045
_cell_angle_alpha 90.000000
_cell_angle_beta 90.000000
_cell_angle_gamma 90.000000
_cell_volume 2827.814619
_symmetry_space_group_name_H-M "P B A N"
_symmetry_group_IT_number 50
_space_group.IT_coordinate_system_code '2'
_symmetry_cell_setting 'orthorhombic'
loop_
_space_group_symop_operation_xyz
x,y,z
1/2-x,1/2-y,z
x,1/2-y,-z
1/2-x,y,-z
-x,-y,-z
1/2+x,1/2+y,-z
-x,1/2+y,z
1/2+x,-y,z
loop_
_atom_site_type_symbol
_atom_site_label
_atom_site_fract_x
_atom_site_fract_y
_atom_site_fract_z
Si Si1 0.126804 0.071555 0.752160
Si Si2 0.383280 0.939132 0.077855
Si Si3 0.639256 0.830440 0.632324
Si Si4 0.358364 0.045768 0.560248
Si Si5 0.432249 0.278588 0.838494
Si Si6 0.485020 0.397847 0.210675
Si Si7 0.916236 0.138262 0.528160
Si Si8 0.537125 0.116480 0.056425
O O1 0.066105 0.124821 0.692433
O O2 0.052086 0.125589 0.808814
O O3 0.311918 0.085537 0.762782
O O4 0.089716 0.969158 0.753441
O O5 0.486878 0.919851 0.138127
O O6 0.201186 0.917033 0.085789
O O7 0.406345 0.041463 0.064544
O O8 0.436054 0.884569 0.017535
O O9 0.750000 0.750000 0.649851
O O10 0.759147 0.904780 0.609959
O O11 0.527106 0.804824 0.573439
O O12 0.250000 0.037138 0.500000
O O13 0.496586 0.104024 0.533482
O O14 0.403284 0.947191 0.572513
O O15 0.250000 0.250000 0.840669
O O16 0.511989 0.206294 0.793816
O O17 0.494430 0.295011 0.907966
O O18 0.750000 0.164662 0.500000
#
# Coordination Sequence:
#
# PCOD9396862 Si02
#       8
#     8   8   8   8   8   8   8   8
#     4  11  25  45  64  95 134 177 234 285 336 413
#     4  10  21  38  67  95 133 174 224 289 357 426
#     4  11  23  40  65  95 133 180 221 278 346 412
#     4   8  17  35  61  93 130 170 208 254 326 401
#     4  10  23  42  67  95 133 175 228 287 349 419
#     4  11  23  43  67  90 126 183 225 280 348 413
#     4   9  18  37  65  98 131 167 217 269 326 403
#     4  10  21  39  64 101 134 173 227 286 363 433
#
# _framework density 22.632317
#
# number of rings (size 3 to 8) (size 9 to 14) (size 15 to 20)
#    0.000    2.000    1.250    2.625    3.500    3.250 
#    0.000    4.375    0.000    0.000    0.000    0.000 
#    0.000    0.000    0.000    0.000    0.000    0.000 
#
# Total GULP energy -356784.007532 kJ/mol
# GULP energy per Si atom -5574.750118 kJ/mol
# Density = 2.258080 g / cm^3
# Si number density = 22.632317 Si / 1000 Ang^3
#
#
#
# Elastic Constant Matrix: (Units=GPa)
#
#
# Indices 1 2 3 4 5 6 
#
# 1 72.8415 23.2135 19.4788 0.0000 0.0000 0.0000
# 2 23.2135 111.0138 22.7242 0.0000 0.0000 0.0000
# 3 19.4788 22.7242 76.0054 0.0000 0.0000 0.0000
# 4 0.0000 0.0000 0.0000 12.4953 0.0000 0.0000
# 5 0.0000 0.0000 0.0000 0.0000 21.7369 0.0000
# 6 0.0000 0.0000 0.0000 0.0000 0.0000 11.0736
#
#
#
# Elastic Compliance Matrix: (Units=1/GPa)
#
#
# Indices 1 2 3 4 5 6 
#
# 1 0.015397 -0.002569 -0.003178 0.000000 0.000000 0.000000
# 2 -0.002569 0.010024 -0.002339 0.000000 0.000000 0.000000
# 3 -0.003178 -0.002339 0.014671 0.000000 0.000000 0.000000
# 4 0.000000 0.000000 0.000000 0.080030 0.000000 0.000000
# 5 0.000000 0.000000 0.000000 0.000000 0.046005 0.000000
# 6 0.000000 0.000000 0.000000 0.000000 0.000000 0.090305
#
#
# Mechanical properties :
#
#
# Convention : Reuss Voigt Hill
#
# Bulk Modulus (GPa) = 41.80531 43.41042 42.60787
# Shear Modulus (GPa) = 17.82052 22.02411 19.92231
#
# Velocity S-wave (km/s) = 2.80910 3.12288 2.97014
# Velocity P-wave (km/s) = 5.38823 5.67676 5.53437
#
# Compressibility (1/GPa) = 0.02392041
#
# Stress axis : x y z
#
# Youngs Moduli (GPa) = 64.94788 99.76274 68.16372
#
# Poissons Ratio (x) = 0.25630 0.21661
# Poissons Ratio (y) = 0.16686 0.15940
# Poissons Ratio (z) = 0.20639 0.23330
#
# Static dielectric constant tensor:
#      x y z
#    x 1.585700 0.000000 0.000000 
#    y 0.000000 1.959500 0.000000 
#    z 0.000000 0.000000 2.001710 
# 
# From -- ./inp_files/31627.got.cif
#   From: 2010.05.17/outbox.cif.g08.bks.cpg/sg50_16_cif.got.tgz:31627.got - 2010.06.03 11:33:33.
