data_PCOD9396751
_publ_section_title
;
Structure prediction by ZEFSAII (Michael W. Deem and Ramdas Pophale) SiO2 
 PCOD9396751
Probable space group: P B A N
;
_chemical_formula_sum "Si O2"
_cell_formula_units_Z 48
_cell_length_a 28.489676
_cell_length_b 5.506309
_cell_length_c 14.677226
_cell_angle_alpha 90.000000
_cell_angle_beta 90.000000
_cell_angle_gamma 90.000000
_cell_volume 2302.459878
_symmetry_space_group_name_H-M "P B A N"
_symmetry_group_IT_number 50
_space_group.IT_coordinate_system_code '2'
_symmetry_cell_setting 'orthorhombic'
loop_
_space_group_symop_operation_xyz
x,y,z
1/2-x,1/2-y,z
x,1/2-y,-z
1/2-x,y,-z
-x,-y,-z
1/2+x,1/2+y,-z
-x,1/2+y,z
1/2+x,-y,z
loop_
_atom_site_type_symbol
_atom_site_label
_atom_site_fract_x
_atom_site_fract_y
_atom_site_fract_z
Si Si1 0.250000 0.750000 0.692795
Si Si2 0.526640 0.750000 0.109540
Si Si3 0.250000 0.250000 0.330476
Si Si4 0.971026 0.750000 0.394163
Si Si5 0.377179 0.750000 0.500000
Si Si6 0.109482 0.250000 0.243958
Si Si7 0.821146 0.750000 0.500000
Si Si8 0.644171 0.250000 0.312881
O O1 0.250000 0.484127 0.732833
O O2 0.302110 0.750000 0.646989
O O3 0.500000 0.500000 0.137847
O O4 0.577978 0.750000 0.153620
O O5 0.528784 0.750000 0.000000
O O6 0.208443 0.250000 0.406117
O O7 0.955702 0.750000 0.500000
O O8 0.928007 0.750000 0.325852
O O9 0.000000 0.500000 0.380541
O O10 0.350816 0.492866 0.500000
O O11 0.394203 0.750000 0.604685
O O12 0.137519 0.502261 0.256444
O O13 0.137519 0.997739 0.256444
#
# Coordination Sequence:
#
# PCOD9396751 Si02
#       8
#     4   8   4   8   4   8   4   8
#     4  12  22  41  50  76 109 160 220 264 305 364
#     4  10  21  41  73 105 127 150 182 235 310 385
#     4  11  18  30  50  68  90 136 201 274 311 346
#     4  10  21  37  57  78 108 158 197 225 269 343
#     4  12  22  37  48  76 106 159 217 265 297 350
#     4  12  24  40  58  91 124 154 196 249 306 350
#     4  11  18  30  50  68  90 135 201 273 313 346
#     4  12  26  36  56  79 118 169 207 263 304 333
#
# _framework density 20.847268
#
# number of rings (size 3 to 8) (size 9 to 14) (size 15 to 20)
#    0.000    0.833    3.333    5.000    2.333    1.667 
#    0.000    0.000    0.000    0.000    0.000    3.500 
#    0.000    0.000    0.000    0.000    0.000    0.000 
#
# Total GULP energy -267458.406893 kJ/mol
# GULP energy per Si atom -5572.050144 kJ/mol
# Density = 2.079982 g / cm^3
# Si number density = 20.847268 Si / 1000 Ang^3
#
#
#
# Elastic Constant Matrix: (Units=GPa)
#
#
# Indices 1 2 3 4 5 6 
#
# 1 85.9147 43.0822 13.9375 0.0000 0.0000 0.0000
# 2 43.0822 228.5066 19.4762 0.0000 0.0000 0.0000
# 3 13.9375 19.4762 33.7563 0.0000 0.0000 0.0000
# 4 0.0000 0.0000 0.0000 11.0511 0.0000 0.0000
# 5 0.0000 0.0000 0.0000 0.0000 -5.5274 0.0000
# 6 0.0000 0.0000 0.0000 0.0000 0.0000 25.4531
#
#
#
# Elastic Compliance Matrix: (Units=1/GPa)
#
#
# Indices 1 2 3 4 5 6 
#
# 1 0.013421 -0.002165 -0.004293 0.000000 0.000000 0.000000
# 2 -0.002165 0.004952 -0.001963 0.000000 0.000000 0.000000
# 3 -0.004293 -0.001963 0.032529 0.000000 0.000000 0.000000
# 4 0.000000 0.000000 0.000000 0.090489 0.000000 0.000000
# 5 0.000000 0.000000 0.000000 0.000000 -0.180916 0.000000
# 6 0.000000 0.000000 0.000000 0.000000 0.000000 0.039288
#
#
# Mechanical properties :
#
#
# Convention : Reuss Voigt Hill
#
# Bulk Modulus (GPa) = 29.35877 55.68548 42.52213
# Shear Modulus (GPa) = 178.84800 24.30746 101.57773
#
# Velocity S-wave (km/s) = 9.27232 3.41835 6.98788
# Velocity P-wave (km/s) = 11.34671 6.50763 9.24925
#
# Compressibility (1/GPa) = 0.03406137
#
# Stress axis : x y z
#
# Youngs Moduli (GPa) = 74.50883 201.95196 30.74167
#
# Poissons Ratio (x) = 0.43713 0.13196
# Poissons Ratio (y) = 0.16128 0.06035
# Poissons Ratio (z) = 0.31983 0.39648
#
# Static dielectric constant tensor:
#      x y z
#    x 1.865950 0.000000 0.000000 
#    y 0.000000 1.802660 0.000000 
#    z 0.000000 0.000000 1.723090 
# 
# From -- ./inp_files/27743.got.cif
#   From: 2010.05.17/outbox.cif.g08.bks.cpg/sg50_14_cif.got.tgz:27743.got - 2010.06.03 11:33:33.
