data_PCOD9396789
_publ_section_title
;
Structure prediction by ZEFSAII (Michael W. Deem and Ramdas Pophale) SiO2 
 PCOD9396789
Probable space group: P B A N
;
_chemical_formula_sum "Si O2"
_cell_formula_units_Z 64
_cell_length_a 17.680866
_cell_length_b 14.066216
_cell_length_c 11.661378
_cell_angle_alpha 90.000000
_cell_angle_beta 90.000000
_cell_angle_gamma 90.000000
_cell_volume 2900.218296
_symmetry_space_group_name_H-M "P B A N"
_symmetry_group_IT_number 50
_space_group.IT_coordinate_system_code '2'
_symmetry_cell_setting 'orthorhombic'
loop_
_space_group_symop_operation_xyz
x,y,z
1/2-x,1/2-y,z
x,1/2-y,-z
1/2-x,y,-z
-x,-y,-z
1/2+x,1/2+y,-z
-x,1/2+y,z
1/2+x,-y,z
loop_
_atom_site_type_symbol
_atom_site_label
_atom_site_fract_x
_atom_site_fract_y
_atom_site_fract_z
Si Si1 0.195078 0.984671 0.851065
Si Si2 0.430639 0.943779 0.556504
Si Si3 0.857944 0.532970 0.081474
Si Si4 0.436936 0.660341 0.862045
Si Si5 0.975901 0.367387 0.114376
Si Si6 0.818877 0.531921 0.585953
Si Si7 0.553791 0.825471 0.656201
Si Si8 0.424920 0.383926 0.279699
O O1 0.142463 0.892311 0.866702
O O2 0.282053 0.976448 0.886193
O O3 0.198555 0.014471 0.718868
O O4 0.155155 0.053201 0.947033
O O5 0.471458 0.849589 0.601856
O O6 0.500000 0.000000 0.500000
O O7 0.362228 0.940442 0.467912
O O8 0.405263 0.019826 0.653359
O O9 0.928053 0.463804 0.110367
O O10 0.870460 0.619391 0.168616
O O11 0.428244 0.773196 0.851835
O O12 0.487740 0.615548 0.762113
O O13 0.487577 0.645990 0.977814
O O14 0.040417 0.362906 0.211940
O O15 0.750000 0.554145 0.500000
O O16 0.881398 0.615069 0.593247
O O17 0.577325 0.715864 0.654953
#
# Coordination Sequence:
#
# PCOD9396789 Si02
#       8
#     8   8   8   8   8   8   8   8
#     4  10  22  39  60  93 126 175 204 260 333 386
#     4  10  21  39  60  86 122 163 212 265 313 370
#     4  10  21  37  63  92 134 162 208 258 329 403
#     4   9  19  33  59  99 128 159 207 254 324 392
#     4   9  18  34  60  95 131 159 200 261 320 392
#     4  11  24  41  63  88 125 173 223 270 318 385
#     4  10  22  39  64  95 124 165 212 270 326 374
#     4  11  21  38  65  97 123 165 212 267 319 383
#
# _framework density 22.067304
#
# number of rings (size 3 to 8) (size 9 to 14) (size 15 to 20)
#    0.000    2.000    1.250    2.250    1.750    3.500 
#    0.000    6.875    0.000    1.500    0.000    0.000 
#    0.000    0.000    0.000    0.000    0.000    0.000 
#
# Total GULP energy -356613.176049 kJ/mol
# GULP energy per Si atom -5572.080876 kJ/mol
# Density = 2.201708 g / cm^3
# Si number density = 22.067304 Si / 1000 Ang^3
#
#
#
# Elastic Constant Matrix: (Units=GPa)
#
#
# Indices 1 2 3 4 5 6 
#
# 1 76.1907 27.4680 32.5663 0.0000 0.0000 0.0000
# 2 27.4680 67.5608 25.1714 0.0000 0.0000 0.0000
# 3 32.5663 25.1714 132.9705 0.0000 0.0000 0.0000
# 4 0.0000 0.0000 0.0000 28.6409 0.0000 0.0000
# 5 0.0000 0.0000 0.0000 0.0000 46.9219 0.0000
# 6 0.0000 0.0000 0.0000 0.0000 0.0000 16.1658
#
#
#
# Elastic Compliance Matrix: (Units=1/GPa)
#
#
# Indices 1 2 3 4 5 6 
#
# 1 0.016397 -0.005563 -0.002963 0.000000 0.000000 0.000000
# 2 -0.005563 0.017812 -0.002009 0.000000 0.000000 0.000000
# 3 -0.002963 -0.002009 0.008626 0.000000 0.000000 0.000000
# 4 0.000000 0.000000 0.000000 0.034915 0.000000 0.000000
# 5 0.000000 0.000000 0.000000 0.000000 0.021312 0.000000
# 6 0.000000 0.000000 0.000000 0.000000 0.000000 0.061859
#
#
# Mechanical properties :
#
#
# Convention : Reuss Voigt Hill
#
# Bulk Modulus (GPa) = 45.94444 49.68149 47.81296
# Shear Modulus (GPa) = 26.42068 31.11346 28.76707
#
# Velocity S-wave (km/s) = 3.46392 3.75898 3.61447
# Velocity P-wave (km/s) = 6.07155 6.43447 6.25564
#
# Compressibility (1/GPa) = 0.02176542
#
# Stress axis : x y z
#
# Youngs Moduli (GPa) = 60.98779 56.14296 115.92213
#
# Poissons Ratio (x) = 0.31230 0.34345
# Poissons Ratio (y) = 0.33924 0.23294
# Poissons Ratio (z) = 0.18069 0.11282
#
# Static dielectric constant tensor:
#      x y z
#    x 1.825730 0.000000 0.000000 
#    y 0.000000 1.817780 0.000000 
#    z 0.000000 0.000000 1.999110 
# 
# From -- ./inp_files/21940.got.cif
#   From: 2010.05.17/outbox.cif.g08.bks.cpg/sg50_11_cif.got.tgz:21940.got - 2010.06.03 11:33:33.
