data_PCOD9396937
_publ_section_title
;
Structure prediction by ZEFSAII (Michael W. Deem and Ramdas Pophale) SiO2 
 PCOD9396937
Probable space group: P B A N
;
_chemical_formula_sum "Si O2"
_cell_formula_units_Z 40
_cell_length_a 31.073969
_cell_length_b 7.191351
_cell_length_c 8.693709
_cell_angle_alpha 90.000000
_cell_angle_beta 90.000000
_cell_angle_gamma 90.000000
_cell_volume 1942.729406
_symmetry_space_group_name_H-M "P B A N"
_symmetry_group_IT_number 50
_space_group.IT_coordinate_system_code '2'
_symmetry_cell_setting 'orthorhombic'
loop_
_space_group_symop_operation_xyz
x,y,z
1/2-x,1/2-y,z
x,1/2-y,-z
1/2-x,y,-z
-x,-y,-z
1/2+x,1/2+y,-z
-x,1/2+y,z
1/2+x,-y,z
loop_
_atom_site_type_symbol
_atom_site_label
_atom_site_fract_x
_atom_site_fract_y
_atom_site_fract_z
Si Si1 0.091040 0.653781 0.151162
Si Si2 0.837085 0.650034 0.850156
Si Si3 0.374938 0.494524 0.344279
Si Si4 0.951604 0.459757 0.550579
Si Si5 0.295595 0.034983 0.447087
O O1 0.127156 0.502956 0.105692
O O2 0.059124 0.545556 0.268227
O O3 0.113195 0.825942 0.242230
O O4 0.071038 0.750000 0.000000
O O5 0.859747 0.817580 0.755025
O O6 0.804395 0.546608 0.734613
O O7 0.817910 0.750000 0.000000
O O8 0.416225 0.438410 0.446515
O O9 0.336461 0.544129 0.461844
O O10 0.944004 0.250000 0.500000
O O11 0.000000 0.500000 0.500000
O O12 0.294939 0.250000 0.500000
O O13 0.250000 0.955529 0.500000
#
# Coordination Sequence:
#
# PCOD9396937 Si02
#       5
#     8   8   8   8   8
#     4  11  22  40  62  92 129 159 209 266 318 368
#     4  11  21  37  67  91 124 169 205 258 322 369
#     4  10  21  40  62  91 122 170 214 254 310 370
#     4  10  23  39  63  92 123 164 216 259 308 382
#     4   9  19  37  63  96 123 164 219 254 304 377
#
# _framework density 20.589590000000001
#
# number of rings (size 3 to 8) (size 9 to 14) (size 15 to 20)
#    0.000    1.800    4.000    0.000    2.800    0.000 
#    0.000   15.000    0.000    1.200    0.000    0.000 
#    0.000    0.000    0.000    0.000    0.000    0.000 
#
# Total GULP energy -223061.279628 kJ/mol
# GULP energy per Si atom -5576.531991 kJ/mol
# Density = 2.054273 g / cm^3
# Si number density = 20.589590 Si / 1000 Ang^3
#
#
#
# Elastic Constant Matrix: (Units=GPa)
#
#
# Indices 1 2 3 4 5 6 
#
# 1 116.6217 -1.5097 55.4402 0.0000 0.0000 0.0000
# 2 -1.5097 80.4585 10.9475 0.0000 0.0000 0.0000
# 3 55.4402 10.9475 146.1881 0.0000 0.0000 0.0000
# 4 0.0000 0.0000 0.0000 28.5420 0.0000 0.0000
# 5 0.0000 0.0000 0.0000 0.0000 14.1891 0.0000
# 6 0.0000 0.0000 0.0000 0.0000 0.0000 -1.0681
#
#
#
# Elastic Compliance Matrix: (Units=1/GPa)
#
#
# Indices 1 2 3 4 5 6 
#
# 1 0.010505 0.000747 -0.004040 0.000000 0.000000 0.000000
# 2 0.000747 0.012610 -0.001228 0.000000 0.000000 0.000000
# 3 -0.004040 -0.001228 0.008464 0.000000 0.000000 0.000000
# 4 0.000000 0.000000 0.000000 0.035036 0.000000 0.000000
# 5 0.000000 0.000000 0.000000 0.000000 0.070477 0.000000
# 6 0.000000 0.000000 0.000000 0.000000 0.000000 -0.936258
#
#
# Mechanical properties :
#
#
# Convention : Reuss Voigt Hill
#
# Bulk Modulus (GPa) = 44.36928 52.55824 48.46376
# Shear Modulus (GPa) = -6.38886 26.89196 10.25155
#
# Velocity S-wave (km/s) = -1.76343 3.61791 2.23379
# Velocity P-wave (km/s) = 4.17731 6.56006 5.49929
#
# Compressibility (1/GPa) = 0.02253812
#
# Stress axis : x y z
#
# Youngs Moduli (GPa) = 95.19413 79.30338 118.14097
#
# Poissons Ratio (x) = -0.05922 0.47726
# Poissons Ratio (y) = -0.07109 0.14502
# Poissons Ratio (z) = 0.38456 0.09735
#
# Static dielectric constant tensor:
#      x y z
#    x 1.664570 0.000000 0.000000 
#    y 0.000000 1.784770 0.000000 
#    z 0.000000 0.000000 1.794780 
# 
# From -- ./inp_files/16798.got.cif
#   From: 2010.05.17/outbox.cif.g08.bks.cpg/sg50_9_cif.got.tgz:16798.got - 2010.06.03 11:33:33.
