data_PCOD9396763
_publ_section_title
;
Structure prediction by ZEFSAII (Michael W. Deem and Ramdas Pophale) SiO2 
 PCOD9396763
Probable space group: P B A N
;
_chemical_formula_sum "Si O2"
_cell_formula_units_Z 34
_cell_length_a 5.572940
_cell_length_b 36.574009
_cell_length_c 7.440793
_cell_angle_alpha 90.000000
_cell_angle_beta 90.000000
_cell_angle_gamma 90.000000
_cell_volume 1516.617830
_symmetry_space_group_name_H-M "P B A N"
_symmetry_group_IT_number 50
_space_group.IT_coordinate_system_code '2'
_symmetry_cell_setting 'orthorhombic'
loop_
_space_group_symop_operation_xyz
x,y,z
1/2-x,1/2-y,z
x,1/2-y,-z
1/2-x,y,-z
-x,-y,-z
1/2+x,1/2+y,-z
-x,1/2+y,z
1/2+x,-y,z
loop_
_atom_site_type_symbol
_atom_site_label
_atom_site_fract_x
_atom_site_fract_y
_atom_site_fract_z
Si Si1 0.258904 0.018758 0.217603
Si Si2 0.750000 0.750000 0.000000
Si Si3 0.139807 0.712708 0.199913
Si Si4 0.233544 0.632156 0.295673
Si Si5 0.734682 0.604035 0.289998
O O1 0.287393 0.060586 0.276095
O O2 0.499621 0.997133 0.277019
O O3 0.250000 0.017709 0.000000
O O4 0.627177 0.722608 0.857585
O O5 0.250000 0.750000 0.279664
O O6 0.189631 0.675517 0.299432
O O7 0.250000 0.708696 0.000000
O O8 0.250000 0.617507 0.500000
O O9 0.492451 0.622355 0.213763
O O10 0.993018 0.615291 0.210044
O O11 0.750000 0.615560 0.500000
#
# Coordination Sequence:
#
# PCOD9396763 Si02
#       5
#     8   2   8   8   8
#     4  10  21  37  58  83 113 143 182 229 274 327
#     4   8  18  36  56  84 112 144 190 246 278 336
#     4   9  20  35  57  81 111 146 191 234 278 337
#     4  10  22  38  57  81 116 148 186 234 278 328
#     4  10  22  38  56  83 113 147 186 227 276 332
#
# _framework density 22.418305
#
# number of rings (size 3 to 8) (size 9 to 14) (size 15 to 20)
#    0.000    2.588    0.000    1.412    6.588    3.294 
#    0.000    0.000    0.000    0.000    0.000    0.000 
#    0.000    0.000    0.000    0.000    0.000    0.000 
#
# Total GULP energy -189461.015675 kJ/mol
# GULP energy per Si atom -5572.382814 kJ/mol
# Density = 2.236728 g / cm^3
# Si number density = 22.418305 Si / 1000 Ang^3
#
#
#
# Elastic Constant Matrix: (Units=GPa)
#
#
# Indices 1 2 3 4 5 6 
#
# 1 202.2321 72.8617 7.2377 0.0000 0.0000 0.0000
# 2 72.8617 125.0483 -19.0993 0.0000 0.0000 0.0000
# 3 7.2377 -19.0993 58.4494 0.0000 0.0000 0.0000
# 4 0.0000 0.0000 0.0000 29.2291 0.0000 0.0000
# 5 0.0000 0.0000 0.0000 0.0000 -5.1429 0.0000
# 6 0.0000 0.0000 0.0000 0.0000 0.0000 63.0226
#
#
#
# Elastic Compliance Matrix: (Units=1/GPa)
#
#
# Indices 1 2 3 4 5 6 
#
# 1 0.006506 -0.004120 -0.002152 0.000000 0.000000 0.000000
# 2 -0.004120 0.011025 0.004113 0.000000 0.000000 0.000000
# 3 -0.002152 0.004113 0.018719 0.000000 0.000000 0.000000
# 4 0.000000 0.000000 0.000000 0.034212 0.000000 0.000000
# 5 0.000000 0.000000 0.000000 0.000000 -0.194442 0.000000
# 6 0.000000 0.000000 0.000000 0.000000 0.000000 0.015867
#
#
# Mechanical properties :
#
#
# Convention : Reuss Voigt Hill
#
# Bulk Modulus (GPa) = 31.31478 56.41443 43.86461
# Shear Modulus (GPa) = -53.67671 39.07040 -7.30316
#
# Velocity S-wave (km/s) = -4.89849 4.17920 -1.80686
# Velocity P-wave (km/s) = 4.24204 6.96468 3.90588
#
# Compressibility (1/GPa) = 0.03193380
#
# Stress axis : x y z
#
# Youngs Moduli (GPa) = 153.70363 90.69974 53.42108
#
# Poissons Ratio (x) = 0.37364 0.11495
# Poissons Ratio (y) = 0.63318 -0.21971
# Poissons Ratio (z) = 0.33073 -0.37303
#
# Static dielectric constant tensor:
#      x y z
#    x 1.807950 0.000000 0.000000 
#    y 0.000000 1.707000 0.000000 
#    z 0.000000 0.000000 1.822000 
# 
# From -- ./inp_files/8012.got.cif
#   From: 2010.05.17/outbox.cif.g08.bks.cpg/sg50_5_cif.got.tgz:8012.got - 2010.06.03 11:33:33.
