data_PCOD9396357
_publ_section_title
;
Structure prediction by ZEFSAII (Michael W. Deem and Ramdas Pophale) SiO2 
 PCOD9396357
Probable space group: P B A N
;
_chemical_formula_sum "Si O2"
_cell_formula_units_Z 56
_cell_length_a 14.271038
_cell_length_b 14.651972
_cell_length_c 13.715867
_cell_angle_alpha 90.000000
_cell_angle_beta 90.000000
_cell_angle_gamma 90.000000
_cell_volume 2867.972005
_symmetry_space_group_name_H-M "P B A N"
_symmetry_group_IT_number 50
_space_group.IT_coordinate_system_code '2'
_symmetry_cell_setting 'orthorhombic'
loop_
_space_group_symop_operation_xyz
x,y,z
1/2-x,1/2-y,z
x,1/2-y,-z
1/2-x,y,-z
-x,-y,-z
1/2+x,1/2+y,-z
-x,1/2+y,z
1/2+x,-y,z
loop_
_atom_site_type_symbol
_atom_site_label
_atom_site_fract_x
_atom_site_fract_y
_atom_site_fract_z
Si Si1 0.739290 0.935720 0.607897
Si Si2 0.612808 0.436586 0.689300
Si Si3 0.889017 0.502646 0.889644
Si Si4 0.262440 0.356075 0.179954
Si Si5 0.140775 0.745546 0.384053
Si Si6 0.424381 0.552293 0.683437
Si Si7 0.111795 0.990964 0.104412
O O1 0.750000 0.895090 0.500000
O O2 0.763532 0.874740 0.702923
O O3 0.808358 0.022844 0.618420
O O4 0.637367 0.978704 0.624783
O O5 0.589342 0.334717 0.658013
O O6 0.527498 0.508615 0.685961
O O7 0.648555 0.436782 0.801372
O O8 0.826642 0.590176 0.863736
O O9 0.883221 0.441842 0.793209
O O10 0.999902 0.522388 0.896234
O O11 0.858003 0.466804 0.995055
O O12 0.250000 0.250000 0.160526
O O13 0.351757 0.406259 0.129745
O O14 0.250000 0.750000 0.349703
O O15 0.143321 0.750000 0.500000
O O16 0.088126 0.652414 0.358319
#
# Coordination Sequence:
#
# PCOD9396357 Si02
#       7
#     8   8   8   8   8   8   8
#     4  10  20  37  59  81 118 161 192 240 301 344
#     4  10  21  39  61  87 120 153 195 247 290 344
#     4   9  19  38  60  83 118 157 188 233 298 349
#     4  10  21  37  61  89 116 151 202 248 284 347
#     4  11  22  38  63  86 112 158 204 238 286 351
#     4  10  21  39  61  87 120 153 195 247 290 344
#     4   9  19  38  60  83 118 157 188 233 298 349
#
# _framework density 19.525993
#
# number of rings (size 3 to 8) (size 9 to 14) (size 15 to 20)
#    0.000    2.143    1.429    1.286    0.000    3.714 
#   23.143    0.714    0.000    0.857    0.000    0.000 
#    0.000    0.000    0.000    0.000    0.000    0.000 
#
# Total GULP energy -312033.962997 kJ/mol
# GULP energy per Si atom -5572.035054 kJ/mol
# Density = 1.948155 g / cm^3
# Si number density = 19.525993 Si / 1000 Ang^3
#
#
#
# Elastic Constant Matrix: (Units=GPa)
#
#
# Indices 1 2 3 4 5 6 
#
# 1 84.6425 17.7738 14.3350 0.0000 0.0000 0.0000
# 2 17.7738 79.4264 14.4885 0.0000 0.0000 0.0000
# 3 14.3350 14.4885 123.8962 0.0000 0.0000 0.0000
# 4 0.0000 0.0000 0.0000 9.4730 0.0000 0.0000
# 5 0.0000 0.0000 0.0000 0.0000 24.8777 0.0000
# 6 0.0000 0.0000 0.0000 0.0000 0.0000 19.7127
#
#
#
# Elastic Compliance Matrix: (Units=1/GPa)
#
#
# Indices 1 2 3 4 5 6 
#
# 1 0.012555 -0.002600 -0.001149 0.000000 0.000000 0.000000
# 2 -0.002600 0.013403 -0.001267 0.000000 0.000000 0.000000
# 3 -0.001149 -0.001267 0.008352 0.000000 0.000000 0.000000
# 4 0.000000 0.000000 0.000000 0.105563 0.000000 0.000000
# 5 0.000000 0.000000 0.000000 0.000000 0.040197 0.000000
# 6 0.000000 0.000000 0.000000 0.000000 0.000000 0.050729
#
#
# Mechanical properties :
#
#
# Convention : Reuss Voigt Hill
#
# Bulk Modulus (GPa) = 41.18604 42.35108 41.76856
# Shear Modulus (GPa) = 20.08657 26.90387 23.49522
#
# Velocity S-wave (km/s) = 3.21083 3.71597 3.47259
# Velocity P-wave (km/s) = 5.90632 6.33624 6.12505
#
# Compressibility (1/GPa) = 0.02428007
#
# Stress axis : x y z
#
# Youngs Moduli (GPa) = 79.65035 74.60943 119.72789
#
# Poissons Ratio (x) = 0.19398 0.13752
# Poissons Ratio (y) = 0.20709 0.15164
# Poissons Ratio (z) = 0.09148 0.09450
#
# Static dielectric constant tensor:
#      x y z
#    x 1.719870 0.000000 0.000000 
#    y 0.000000 1.649140 0.000000 
#    z 0.000000 0.000000 1.738240 
# 
# From -- ./inp_files/26567.got.cif
#   From: 2010.05.17/outbox.cif.g08.bks.cpg/sg50_14_cif.got.tgz:26567.got - 2010.06.03 11:33:33.
