data_PCOD9396833
_publ_section_title
;
Structure prediction by ZEFSAII (Michael W. Deem and Ramdas Pophale) SiO2 
 PCOD9396833
Probable space group: P B A N
;
_chemical_formula_sum "Si O2"
_cell_formula_units_Z 48
_cell_length_a 8.263598
_cell_length_b 18.809782
_cell_length_c 14.323054
_cell_angle_alpha 90.000000
_cell_angle_beta 90.000000
_cell_angle_gamma 90.000000
_cell_volume 2226.325052
_symmetry_space_group_name_H-M "P B A N"
_symmetry_group_IT_number 50
_space_group.IT_coordinate_system_code '2'
_symmetry_cell_setting 'orthorhombic'
loop_
_space_group_symop_operation_xyz
x,y,z
1/2-x,1/2-y,z
x,1/2-y,-z
1/2-x,y,-z
-x,-y,-z
1/2+x,1/2+y,-z
-x,1/2+y,z
1/2+x,-y,z
loop_
_atom_site_type_symbol
_atom_site_label
_atom_site_fract_x
_atom_site_fract_y
_atom_site_fract_z
Si Si1 0.944219 0.829958 0.518871
Si Si2 0.964624 0.608925 0.669654
Si Si3 0.420736 0.714027 0.193679
Si Si4 0.638016 0.080386 0.090562
Si Si5 0.438730 0.977885 0.194032
Si Si6 0.608717 0.655177 0.728193
O O1 0.005962 0.750000 0.500000
O O2 0.750000 0.826860 0.500000
O O3 0.996043 0.886618 0.440478
O O4 0.976678 0.847038 0.626410
O O5 0.949483 0.532246 0.718260
O O6 0.796382 0.647740 0.700589
O O7 0.091626 0.662159 0.716917
O O8 0.250000 0.750000 0.175895
O O9 0.443583 0.656770 0.111203
O O10 0.550549 0.775193 0.216210
O O11 0.764944 0.055549 0.171472
O O12 0.496541 0.023212 0.104567
O O13 0.750000 0.082996 0.000000
O O14 0.557965 0.912902 0.212869
#
# Coordination Sequence:
#
# PCOD9396833 Si02
#       6
#     8   8   8   8   8   8
#     4   9  17  32  57  86 119 164 208 247 289 362
#     4  10  21  38  62  88 121 166 209 240 303 371
#     4  11  22  37  62  89 120 159 200 255 315 358
#     4  11  24  43  65  89 120 161 207 256 323 383
#     4  11  22  40  65  89 121 164 202 258 315 375
#     4  11  20  38  62  87 125 162 208 248 302 371
#
# _framework density 21.560193999999999
#
# number of rings (size 3 to 8) (size 9 to 14) (size 15 to 20)
#    0.000    1.500    5.000    1.000    0.000    1.000 
#    0.000    1.667    0.000    0.000    4.333    0.000 
#    0.000    0.000    0.000    0.000    0.000    0.000 
#
# Total GULP energy -267573.729986 kJ/mol
# GULP energy per Si atom -5574.452708 kJ/mol
# Density = 2.151112 g / cm^3
# Si number density = 21.560194 Si / 1000 Ang^3
#
#
#
# Elastic Constant Matrix: (Units=GPa)
#
#
# Indices 1 2 3 4 5 6 
#
# 1 32.2911 21.3756 2.8043 0.0000 0.0000 0.0000
# 2 21.3756 145.8957 53.7958 0.0000 0.0000 0.0000
# 3 2.8043 53.7958 77.5269 0.0000 0.0000 0.0000
# 4 0.0000 0.0000 0.0000 9.4173 0.0000 0.0000
# 5 0.0000 0.0000 0.0000 0.0000 18.1530 0.0000
# 6 0.0000 0.0000 0.0000 0.0000 0.0000 24.9335
#
#
#
# Elastic Compliance Matrix: (Units=1/GPa)
#
#
# Indices 1 2 3 4 5 6 
#
# 1 0.034828 -0.006233 0.003065 0.000000 0.000000 0.000000
# 2 -0.006233 0.010326 -0.006940 0.000000 0.000000 0.000000
# 3 0.003065 -0.006940 0.017604 0.000000 0.000000 0.000000
# 4 0.000000 0.000000 0.000000 0.106188 0.000000 0.000000
# 5 0.000000 0.000000 0.000000 0.000000 0.055087 0.000000
# 6 0.000000 0.000000 0.000000 0.000000 0.000000 0.040107
#
#
# Mechanical properties :
#
#
# Convention : Reuss Voigt Hill
#
# Bulk Modulus (GPa) = 23.50583 45.74054 34.62319
# Shear Modulus (GPa) = 16.74837 22.34996 19.54916
#
# Velocity S-wave (km/s) = 2.79017 3.22317 3.01445
# Velocity P-wave (km/s) = 4.61586 5.92563 5.31127
#
# Compressibility (1/GPa) = 0.04254263
#
# Stress axis : x y z
#
# Youngs Moduli (GPa) = 28.71240 96.83912 56.80675
#
# Poissons Ratio (x) = 0.60360 -0.17413
# Poissons Ratio (y) = 0.17897 0.39424
# Poissons Ratio (z) = -0.08801 0.67207
#
# Static dielectric constant tensor:
#      x y z
#    x 1.823400 0.000000 0.000000 
#    y 0.000000 1.776120 0.000000 
#    z 0.000000 0.000000 1.830580 
# 
# From -- ./inp_files/24988.got.cif
#   From: 2010.05.17/outbox.cif.g08.bks.cpg/sg50_13_cif.got.tgz:24988.got - 2010.06.03 11:33:33.
