data_PCOD9396836
_publ_section_title
;
Structure prediction by ZEFSAII (Michael W. Deem and Ramdas Pophale) SiO2 
 PCOD9396836
Probable space group: P B A N
;
_chemical_formula_sum "Si O2"
_cell_formula_units_Z 48
_cell_length_a 14.411635
_cell_length_b 28.611829
_cell_length_c 5.221488
_cell_angle_alpha 90.000000
_cell_angle_beta 90.000000
_cell_angle_gamma 90.000000
_cell_volume 2153.045260
_symmetry_space_group_name_H-M "P B A N"
_symmetry_group_IT_number 50
_space_group.IT_coordinate_system_code '2'
_symmetry_cell_setting 'orthorhombic'
loop_
_space_group_symop_operation_xyz
x,y,z
1/2-x,1/2-y,z
x,1/2-y,-z
1/2-x,y,-z
-x,-y,-z
1/2+x,1/2+y,-z
-x,1/2+y,z
1/2+x,-y,z
loop_
_atom_site_type_symbol
_atom_site_label
_atom_site_fract_x
_atom_site_fract_y
_atom_site_fract_z
Si Si1 0.250000 0.601984 0.000000
Si Si2 0.640139 0.516624 0.555867
Si Si3 0.910136 0.250000 0.500000
Si Si4 0.459596 0.391797 0.293711
Si Si5 0.548054 0.702949 0.913251
Si Si6 0.595245 0.460571 0.079509
Si Si7 0.596359 0.342776 0.690007
O O1 0.314260 0.568365 0.834927
O O2 0.176221 0.630241 0.836731
O O3 0.750000 0.515267 0.500000
O O4 0.608651 0.570258 0.588313
O O5 0.584200 0.496104 0.313233
O O6 0.616710 0.486907 0.814027
O O7 0.856141 0.204923 0.592159
O O8 0.976601 0.226255 0.287575
O O9 0.408833 0.343648 0.211305
O O10 0.512349 0.422668 0.074950
O O11 0.542800 0.374052 0.480527
O O12 0.602521 0.750000 0.000000
O O13 0.485168 0.678625 0.131688
#
# Coordination Sequence:
#
# PCOD9396836 Si02
#       7
#     4   8   4   8   8   8   8
#     4  12  22  40  63  86 134 180 225 268 322 384
#     4  12  26  45  66  99 136 174 222 291 341 396
#     4   8  18  38  57  86 125 168 220 274 321 386
#     4  11  24  39  69  95 126 180 227 273 339 420
#     4   9  18  37  61  91 125 164 217 271 332 401
#     4  12  25  43  64  93 138 180 228 269 336 400
#     4  10  21  38  62  91 127 175 224 268 337 384
#
# _framework density 22.294001999999999
#
# number of rings (size 3 to 8) (size 9 to 14) (size 15 to 20)
#    0.000    1.333    3.333    2.000    2.333    0.000 
#    0.000    4.583    0.000    0.000    0.000   26.833 
#    0.000    0.000    0.000    0.000    0.000    0.000 
#
# Total GULP energy -267690.663937 kJ/mol
# GULP energy per Si atom -5576.888832 kJ/mol
# Density = 2.224326 g / cm^3
# Si number density = 22.294002 Si / 1000 Ang^3
#
#
#
# Elastic Constant Matrix: (Units=GPa)
#
#
# Indices 1 2 3 4 5 6 
#
# 1 47.6361 40.6775 19.2089 0.0000 0.0000 0.0000
# 2 40.6775 215.7059 62.5663 0.0000 0.0000 0.0000
# 3 19.2089 62.5663 101.9849 0.0000 0.0000 0.0000
# 4 0.0000 0.0000 0.0000 51.6797 0.0000 0.0000
# 5 0.0000 0.0000 0.0000 0.0000 16.6277 0.0000
# 6 0.0000 0.0000 0.0000 0.0000 0.0000 15.5754
#
#
#
# Elastic Compliance Matrix: (Units=1/GPa)
#
#
# Indices 1 2 3 4 5 6 
#
# 1 0.025439 -0.004145 -0.002248 0.000000 0.000000 0.000000
# 2 -0.004145 0.006315 -0.003093 0.000000 0.000000 0.000000
# 3 -0.002248 -0.003093 0.012127 0.000000 0.000000 0.000000
# 4 0.000000 0.000000 0.000000 0.019350 0.000000 0.000000
# 5 0.000000 0.000000 0.000000 0.000000 0.060141 0.000000
# 6 0.000000 0.000000 0.000000 0.000000 0.000000 0.064204
#
#
# Mechanical properties :
#
#
# Convention : Reuss Voigt Hill
#
# Bulk Modulus (GPa) = 40.15027 67.80360 53.97693
# Shear Modulus (GPa) = 23.27200 32.96817 28.12009
#
# Velocity S-wave (km/s) = 3.23440 3.84968 3.55537
# Velocity P-wave (km/s) = 5.65659 7.08798 6.41235
#
# Compressibility (1/GPa) = 0.02490643
#
# Stress axis : x y z
#
# Youngs Moduli (GPa) = 39.31023 158.35713 82.46330
#
# Poissons Ratio (x) = 0.65639 0.18542
# Poissons Ratio (y) = 0.16294 0.25509
# Poissons Ratio (z) = 0.08839 0.48985
#
# Static dielectric constant tensor:
#      x y z
#    x 1.832690 0.000000 0.000000 
#    y 0.000000 1.940860 0.000000 
#    z 0.000000 0.000000 1.959700 
# 
# From -- ./inp_files/3584.got.cif
#   From: 2010.05.17/outbox.cif.g08.bks.cpg/sg50_2_cif.got.tgz:3584.got - 2010.06.03 11:33:33.
