data_PCOD9396505
_publ_section_title
;
Structure prediction by ZEFSAII (Michael W. Deem and Ramdas Pophale) SiO2 
 PCOD9396505
Probable space group: P B A N
;
_chemical_formula_sum "Si O2"
_cell_formula_units_Z 64
_cell_length_a 29.311948
_cell_length_b 9.178885
_cell_length_c 11.822387
_cell_angle_alpha 90.000000
_cell_angle_beta 90.000000
_cell_angle_gamma 90.000000
_cell_volume 3180.825043
_symmetry_space_group_name_H-M "P B A N"
_symmetry_group_IT_number 50
_space_group.IT_coordinate_system_code '2'
_symmetry_cell_setting 'orthorhombic'
loop_
_space_group_symop_operation_xyz
x,y,z
1/2-x,1/2-y,z
x,1/2-y,-z
1/2-x,y,-z
-x,-y,-z
1/2+x,1/2+y,-z
-x,1/2+y,z
1/2+x,-y,z
loop_
_atom_site_type_symbol
_atom_site_label
_atom_site_fract_x
_atom_site_fract_y
_atom_site_fract_z
Si Si1 0.147277 0.916596 0.343168
Si Si2 0.592129 0.980926 0.140707
Si Si3 0.615141 0.597526 0.458702
Si Si4 0.059799 0.302857 0.258880
Si Si5 0.103975 0.947066 0.889986
Si Si6 0.240602 0.080780 0.365365
Si Si7 0.976598 0.286085 0.118121
Si Si8 0.175578 0.903998 0.704558
O O1 0.121120 0.920024 0.225127
O O2 0.167468 0.753502 0.353639
O O3 0.113157 0.980267 0.439834
O O4 0.189245 0.028994 0.343485
O O5 0.541757 0.049438 0.124516
O O6 0.589010 0.830930 0.209166
O O7 0.611983 0.987743 0.014643
O O8 0.636093 0.750000 0.500000
O O9 0.571062 0.651525 0.387210
O O10 0.647787 0.521290 0.369164
O O11 0.075734 0.436502 0.182356
O O12 0.008091 0.263918 0.226604
O O13 0.068596 0.812622 0.890329
O O14 0.150668 0.907355 0.825971
O O15 0.250000 0.250000 0.334707
O O16 0.250000 0.065697 0.500000
O O17 0.273539 0.966652 0.300587
O O18 0.002367 0.250000 0.000000
#
# Coordination Sequence:
#
# PCOD9396505 Si02
#       8
#     8   8   8   8   8   8   8   8
#     4  12  23  40  65  93 124 167 210 255 316 387
#     4  11  22  38  65  91 125 167 209 259 324 380
#     4  11  22  39  60  87 127 168 204 256 308 373
#     4  11  22  36  63  91 126 164 216 266 311 367
#     4  10  22  39  63  94 125 163 210 267 319 375
#     4  11  24  40  67  95 122 159 211 260 307 372
#     4  10  20  39  63  91 123 163 218 271 315 373
#     4  11  23  40  66  93 127 159 210 261 313 375
#
# _framework density 20.120567000000001
#
# number of rings (size 3 to 8) (size 9 to 14) (size 15 to 20)
#    0.000    1.125    3.750    3.375    1.750    2.500 
#    0.000    1.250    2.750    2.250    0.000    0.000 
#    0.000    0.000    0.000    0.000    0.000    0.000 
#
# Total GULP energy -356958.526297 kJ/mol
# GULP energy per Si atom -5577.476973 kJ/mol
# Density = 2.007477 g / cm^3
# Si number density = 20.120567 Si / 1000 Ang^3
#
#
#
# Elastic Constant Matrix: (Units=GPa)
#
#
# Indices 1 2 3 4 5 6 
#
# 1 67.2015 19.3355 42.0868 0.0000 0.0000 0.0000
# 2 19.3355 116.1847 26.5138 0.0000 0.0000 0.0000
# 3 42.0868 26.5138 111.2325 0.0000 0.0000 0.0000
# 4 0.0000 0.0000 0.0000 14.1471 0.0000 0.0000
# 5 0.0000 0.0000 0.0000 0.0000 22.6616 0.0000
# 6 0.0000 0.0000 0.0000 0.0000 0.0000 17.2755
#
#
#
# Elastic Compliance Matrix: (Units=1/GPa)
#
#
# Indices 1 2 3 4 5 6 
#
# 1 0.019806 -0.001677 -0.007094 0.000000 0.000000 0.000000
# 2 -0.001677 0.009244 -0.001569 0.000000 0.000000 0.000000
# 3 -0.007094 -0.001569 0.012048 0.000000 0.000000 0.000000
# 4 0.000000 0.000000 0.000000 0.070686 0.000000 0.000000
# 5 0.000000 0.000000 0.000000 0.000000 0.044127 0.000000
# 6 0.000000 0.000000 0.000000 0.000000 0.000000 0.057885
#
#
# Mechanical properties :
#
#
# Convention : Reuss Voigt Hill
#
# Bulk Modulus (GPa) = 48.97632 52.27678 50.62655
# Shear Modulus (GPa) = 20.72249 24.59570 22.65910
#
# Velocity S-wave (km/s) = 3.21271 3.50010 3.35948
# Velocity P-wave (km/s) = 6.17708 6.50941 6.34542
#
# Compressibility (1/GPa) = 0.02041803
#
# Stress axis : x y z
#
# Youngs Moduli (GPa) = 50.48945 108.17681 82.99896
#
# Poissons Ratio (x) = 0.18144 0.58881
# Poissons Ratio (y) = 0.08468 0.13021
# Poissons Ratio (z) = 0.35818 0.16971
#
# Static dielectric constant tensor:
#      x y z
#    x 1.743160 0.000000 0.000000 
#    y 0.000000 1.763820 0.000000 
#    z 0.000000 0.000000 1.749600 
# 
# From -- ./inp_files/23392.got.cif
#   From: 2010.05.17/outbox.cif.g08.bks.cpg/sg50_12_cif.got.tgz:23392.got - 2010.06.03 11:33:33.
