data_PCOD9396196
_publ_section_title
;
Structure prediction by ZEFSAII (Michael W. Deem and Ramdas Pophale) SiO2 
 PCOD9396196
Probable space group: P B A N
;
_chemical_formula_sum "Si O2"
_cell_formula_units_Z 28
_cell_length_a 18.145978
_cell_length_b 15.843693
_cell_length_c 4.887466
_cell_angle_alpha 90.000000
_cell_angle_beta 90.000000
_cell_angle_gamma 90.000000
_cell_volume 1405.143076
_symmetry_space_group_name_H-M "P B A N"
_symmetry_group_IT_number 50
_space_group.IT_coordinate_system_code '2'
_symmetry_cell_setting 'orthorhombic'
loop_
_space_group_symop_operation_xyz
x,y,z
1/2-x,1/2-y,z
x,1/2-y,-z
1/2-x,y,-z
-x,-y,-z
1/2+x,1/2+y,-z
-x,1/2+y,z
1/2+x,-y,z
loop_
_atom_site_type_symbol
_atom_site_label
_atom_site_fract_x
_atom_site_fract_y
_atom_site_fract_z
Si Si1 0.098009 0.009242 0.265553
Si Si2 0.876841 0.250000 0.500000
Si Si3 0.952985 0.098714 0.226524
Si Si4 0.750000 0.130444 0.500000
Si Si5 0.250000 0.984076 0.000000
O O1 0.083323 0.969597 0.563876
O O2 0.069244 0.933759 0.070724
O O3 0.180249 0.028567 0.151321
O O4 0.041129 0.086473 0.244379
O O5 0.925390 0.191632 0.304245
O O6 0.816889 0.184855 0.624152
O O7 0.777533 0.075369 0.246749
#
# Coordination Sequence:
#
# PCOD9396196 Si02
#       5
#     8   4   8   4   4
#     4  10  20  35  50  72 106 145 185 226 274 332
#     4  11  20  36  48  80 112 151 184 230 285 350
#     4  10  21  34  50  72 108 147 180 225 278 337
#     4  11  24  28  52  80 112 143 182 233 292 338
#     4  12  18  37  50  78 106 151 186 232 274 347
#
# _framework density 19.926794999999998
#
# number of rings (size 3 to 8) (size 9 to 14) (size 15 to 20)
#    0.000    1.429    5.714    0.000    0.000    5.714 
#    0.000    0.000    0.000    0.000    0.000    0.000 
#    0.000  115.429    0.000    0.000    0.000    0.000 
#
# Total GULP energy -155935.777567 kJ/mol
# GULP energy per Si atom -5569.134913 kJ/mol
# Density = 1.988144 g / cm^3
# Si number density = 19.926795 Si / 1000 Ang^3
#
#
#
# Elastic Constant Matrix: (Units=GPa)
#
#
# Indices 1 2 3 4 5 6 
#
# 1 174.6196 53.2995 10.3426 0.0000 0.0000 0.0000
# 2 53.2995 55.4862 8.8907 0.0000 0.0000 0.0000
# 3 10.3426 8.8907 62.7770 0.0000 0.0000 0.0000
# 4 0.0000 0.0000 0.0000 19.4165 0.0000 0.0000
# 5 0.0000 0.0000 0.0000 0.0000 36.2264 0.0000
# 6 0.0000 0.0000 0.0000 0.0000 0.0000 40.4050
#
#
#
# Elastic Compliance Matrix: (Units=1/GPa)
#
#
# Indices 1 2 3 4 5 6 
#
# 1 0.008106 -0.007748 -0.000238 0.000000 0.000000 0.000000
# 2 -0.007748 0.025847 -0.002384 0.000000 0.000000 0.000000
# 3 -0.000238 -0.002384 0.016306 0.000000 0.000000 0.000000
# 4 0.000000 0.000000 0.000000 0.051503 0.000000 0.000000
# 5 0.000000 0.000000 0.000000 0.000000 0.027604 0.000000
# 6 0.000000 0.000000 0.000000 0.000000 0.000000 0.024749
#
#
# Mechanical properties :
#
#
# Convention : Reuss Voigt Hill
#
# Bulk Modulus (GPa) = 33.87691 48.66096 41.26893
# Shear Modulus (GPa) = 27.07149 33.89958 30.48554
#
# Velocity S-wave (km/s) = 3.68985 4.12904 3.91561
# Velocity P-wave (km/s) = 5.93219 6.87058 6.41856
#
# Compressibility (1/GPa) = 0.02951864
#
# Stress axis : x y z
#
# Youngs Moduli (GPa) = 123.36765 38.68862 61.32614
#
# Poissons Ratio (x) = 0.29977 0.01460
# Poissons Ratio (y) = 0.95588 0.14621
# Poissons Ratio (z) = 0.02938 0.09224
#
# Static dielectric constant tensor:
#      x y z
#    x 1.840710 0.000000 0.000000 
#    y 0.000000 1.708660 0.000000 
#    z 0.000000 0.000000 1.717350 
# 
# From -- ./inp_files/5071.got.cif
#   From: 2010.05.17/outbox.cif.g08.bks.cpg/sg50_3_cif.got.tgz:5071.got - 2010.06.03 11:33:33.
