data_PCOD9396404
_publ_section_title
;
Structure prediction by ZEFSAII (Michael W. Deem and Ramdas Pophale) SiO2 
 PCOD9396404
Probable space group: P B A N
;
_chemical_formula_sum "Si O2"
_cell_formula_units_Z 54
_cell_length_a 22.319148
_cell_length_b 5.270792
_cell_length_c 18.081257
_cell_angle_alpha 90.000000
_cell_angle_beta 90.000000
_cell_angle_gamma 90.000000
_cell_volume 2127.071601
_symmetry_space_group_name_H-M "P B A N"
_symmetry_group_IT_number 50
_space_group.IT_coordinate_system_code '2'
_symmetry_cell_setting 'orthorhombic'
loop_
_space_group_symop_operation_xyz
x,y,z
1/2-x,1/2-y,z
x,1/2-y,-z
1/2-x,y,-z
-x,-y,-z
1/2+x,1/2+y,-z
-x,1/2+y,z
1/2+x,-y,z
loop_
_atom_site_type_symbol
_atom_site_label
_atom_site_fract_x
_atom_site_fract_y
_atom_site_fract_z
Si Si1 0.250000 0.250000 0.000000
Si Si2 0.750000 0.250000 0.142747
Si Si3 0.181502 0.334142 0.600973
Si Si4 0.963092 0.368490 0.894520
Si Si5 0.816005 0.874215 0.772073
Si Si6 0.154293 0.128660 0.911114
Si Si7 0.536364 0.116534 0.718847
Si Si8 0.884899 0.169652 0.425532
O O1 0.193420 0.143189 0.051771
O O2 0.801236 0.346764 0.200296
O O3 0.709057 0.432019 0.093406
O O4 0.250000 0.250000 0.590351
O O5 0.167806 0.337811 0.688542
O O6 0.167382 0.618236 0.575815
O O7 0.140446 0.112784 0.568608
O O8 0.904671 0.482653 0.935225
O O9 0.948673 0.356003 0.806052
O O10 0.986490 0.084630 0.910492
O O11 0.750000 0.750000 0.782487
O O12 0.859442 0.744615 0.830435
O O13 0.515328 0.827755 0.707708
O O14 0.582737 0.182869 0.653814
O O15 0.920948 0.250000 0.500000
#
# Coordination Sequence:
#
# PCOD9396404 Si02
#       8
#     2   4   8   8   8   8   8   8
#     4  12  24  46  64 112 142 196 218 284 360 430
#     4  10  20  37  66 100 131 182 216 298 366 406
#     4  11  25  40  64  91 130 181 230 277 337 410
#     4  10  24  43  70 101 135 184 236 292 348 400
#     4   9  20  36  61  96 127 167 227 288 349 394
#     4  11  23  42  65 100 149 174 235 281 346 429
#     4  10  22  42  67  97 124 167 228 286 347 400
#     4  12  26  42  62  94 132 178 225 278 351 418
#
# _framework density 25.387015999999999
#
# number of rings (size 3 to 8) (size 9 to 14) (size 15 to 20)
#    0.000    1.481    2.222    2.667   10.370    3.852 
#    0.000    0.741    0.000    0.000    0.000    0.000 
#    0.000    0.000    0.000    0.000    0.000    0.000 
#
# Total GULP energy -301083.429185 kJ/mol
# GULP energy per Si atom -5575.619059 kJ/mol
# Density = 2.532923 g / cm^3
# Si number density = 25.387016 Si / 1000 Ang^3
#
#
#
# Elastic Constant Matrix: (Units=GPa)
#
#
# Indices 1 2 3 4 5 6 
#
# 1 87.7502 21.5600 36.6684 0.0000 0.0000 0.0000
# 2 21.5600 96.9783 26.8346 0.0000 0.0000 0.0000
# 3 36.6684 26.8346 107.6763 0.0000 0.0000 0.0000
# 4 0.0000 0.0000 0.0000 27.2592 0.0000 0.0000
# 5 0.0000 0.0000 0.0000 0.0000 -644.3073 0.0000
# 6 0.0000 0.0000 0.0000 0.0000 0.0000 38.3081
#
#
#
# Elastic Compliance Matrix: (Units=1/GPa)
#
#
# Indices 1 2 3 4 5 6 
#
# 1 0.013595 -0.001870 -0.004164 0.000000 0.000000 0.000000
# 2 -0.001870 0.011333 -0.002187 0.000000 0.000000 0.000000
# 3 -0.004164 -0.002187 0.011250 0.000000 0.000000 0.000000
# 4 0.000000 0.000000 0.000000 0.036685 0.000000 0.000000
# 5 0.000000 0.000000 0.000000 0.000000 -0.001552 0.000000
# 6 0.000000 0.000000 0.000000 0.000000 0.000000 0.026104
#
#
# Mechanical properties :
#
#
# Convention : Reuss Voigt Hill
#
# Bulk Modulus (GPa) = 50.67038 51.39232 51.03135
# Shear Modulus (GPa) = 41.51568 -101.92522 -30.20477
#
# Velocity S-wave (km/s) = 4.04829 -6.34316 -3.45305
# Velocity P-wave (km/s) = 6.46947 5.77582 2.06081
#
# Compressibility (1/GPa) = 0.01973540
#
# Stress axis : x y z
#
# Youngs Moduli (GPa) = 73.55419 88.24061 88.88789
#
# Poissons Ratio (x) = 0.16504 0.37010
# Poissons Ratio (y) = 0.13757 0.19443
# Poissons Ratio (z) = 0.30626 0.19301
#
# Static dielectric constant tensor:
#      x y z
#    x 1.956850 0.000000 0.000000 
#    y 0.000000 -0.617620 0.000000 
#    z 0.000000 0.000000 2.372510 
# 
# From -- ./inp_files/31246.got.cif
#   From: 2010.05.17/outbox.cif.g08.bks.cpg/sg50_16_cif.got.tgz:31246.got - 2010.06.03 11:33:33.
