data_PCOD9396384
_publ_section_title
;
Structure prediction by ZEFSAII (Michael W. Deem and Ramdas Pophale) SiO2 
 PCOD9396384
Probable space group: P B A N
;
_chemical_formula_sum "Si O2"
_cell_formula_units_Z 58
_cell_length_a 29.286497
_cell_length_b 5.304784
_cell_length_c 18.181107
_cell_angle_alpha 90.000000
_cell_angle_beta 90.000000
_cell_angle_gamma 90.000000
_cell_volume 2824.590252
_symmetry_space_group_name_H-M "P B A N"
_symmetry_group_IT_number 50
_space_group.IT_coordinate_system_code '2'
_symmetry_cell_setting 'orthorhombic'
loop_
_space_group_symop_operation_xyz
x,y,z
1/2-x,1/2-y,z
x,1/2-y,-z
1/2-x,y,-z
-x,-y,-z
1/2+x,1/2+y,-z
-x,1/2+y,z
1/2+x,-y,z
loop_
_atom_site_type_symbol
_atom_site_label
_atom_site_fract_x
_atom_site_fract_y
_atom_site_fract_z
Si Si1 0.359644 0.588141 0.194924
Si Si2 0.197056 0.259265 0.910987
Si Si3 0.526471 0.854716 0.897770
Si Si4 0.883826 0.108619 0.076557
Si Si5 0.200288 0.362413 0.419226
Si Si6 0.250000 0.750000 0.500000
Si Si7 0.026369 0.118012 0.719733
Si Si8 0.869967 0.917615 0.289812
O O1 0.322623 0.498468 0.133533
O O2 0.398805 0.695998 0.140628
O O3 0.369134 0.331517 0.238240
O O4 0.352494 0.822646 0.250848
O O5 0.250000 0.250000 0.889350
O O6 0.162357 0.028710 0.895882
O O7 0.195965 0.250000 0.000000
O O8 0.495439 0.091999 0.920352
O O9 0.577030 0.901721 0.927878
O O10 0.529353 0.869480 0.808795
O O11 0.877376 0.250000 0.000000
O O12 0.250000 0.250000 0.396641
O O13 0.188937 0.250000 0.500000
O O14 0.214077 0.640745 0.441606
O O15 0.162242 0.352086 0.358270
O O16 0.992249 0.892606 0.697839
O O17 0.076815 0.051573 0.691193
#
# Coordination Sequence:
#
# PCOD9396384 Si02
#       8
#     8   8   8   8   8   2   8   8
#     4  12  25  43  64  98 130 168 224 283 330 390
#     4  11  25  46  66  88 124 179 230 274 338 407
#     4  10  23  38  63  90 124 164 218 279 347 406
#     4  12  25  44  67  87 131 176 226 288 345 401
#     4   9  22  44  69 103 139 178 214 258 323 408
#     4   8  18  44  72  98 140 176 220 236 326 412
#     4  10  20  37  62  91 130 174 215 266 327 396
#     4  12  25  42  70 101 136 170 221 274 332 388
#
# _framework density 20.533953
#
# number of rings (size 3 to 8) (size 9 to 14) (size 15 to 20)
#    0.000    1.379    4.138    0.828    9.655    1.655 
#    2.483    0.000    0.000    0.828    0.000    0.000 
#    0.000    0.000    0.000    0.000    0.000    0.000 
#
# Total GULP energy -323367.302828 kJ/mol
# GULP energy per Si atom -5575.298325 kJ/mol
# Density = 2.048722 g / cm^3
# Si number density = 20.533953 Si / 1000 Ang^3
#
#
#
# Elastic Constant Matrix: (Units=GPa)
#
#
# Indices 1 2 3 4 5 6 
#
# 1 107.4972 35.5928 40.7841 0.0000 0.0000 0.0000
# 2 35.5928 104.9358 31.3660 0.0000 0.0000 0.0000
# 3 40.7841 31.3660 71.0863 0.0000 0.0000 0.0000
# 4 0.0000 0.0000 0.0000 61.7166 0.0000 0.0000
# 5 0.0000 0.0000 0.0000 0.0000 11.3683 0.0000
# 6 0.0000 0.0000 0.0000 0.0000 0.0000 33.5159
#
#
#
# Elastic Compliance Matrix: (Units=1/GPa)
#
#
# Indices 1 2 3 4 5 6 
#
# 1 0.012392 -0.002394 -0.006053 0.000000 0.000000 0.000000
# 2 -0.002394 0.011440 -0.003674 0.000000 0.000000 0.000000
# 3 -0.006053 -0.003674 0.019162 0.000000 0.000000 0.000000
# 4 0.000000 0.000000 0.000000 0.016203 0.000000 0.000000
# 5 0.000000 0.000000 0.000000 0.000000 0.087964 0.000000
# 6 0.000000 0.000000 0.000000 0.000000 0.000000 0.029837
#
#
# Mechanical properties :
#
#
# Convention : Reuss Voigt Hill
#
# Bulk Modulus (GPa) = 53.33199 55.44502 54.38850
# Shear Modulus (GPa) = 24.09762 33.03859 28.56811
#
# Velocity S-wave (km/s) = 3.42943 4.01555 3.73401
# Velocity P-wave (km/s) = 6.45835 6.96849 6.71826
#
# Compressibility (1/GPa) = 0.01875047
#
# Stress axis : x y z
#
# Youngs Moduli (GPa) = 80.69891 87.41373 52.18772
#
# Poissons Ratio (x) = 0.20925 0.31591
# Poissons Ratio (y) = 0.19317 0.19176
# Poissons Ratio (z) = 0.48849 0.32119
#
# Static dielectric constant tensor:
#      x y z
#    x 1.752010 0.000000 0.000000 
#    y 0.000000 1.860900 0.000000 
#    z 0.000000 0.000000 1.725080 
# 
# From -- ./inp_files/30043.got.cif
#   From: 2010.05.17/outbox.cif.g08.bks.cpg/sg50_16_cif.got.tgz:30043.got - 2010.06.03 11:33:33.
