data_PCOD9396046
_publ_section_title
;
Structure prediction by ZEFSAII (Michael W. Deem and Ramdas Pophale) SiO2 
 PCOD9396046
Probable space group: P B A N
;
_chemical_formula_sum "Si O2"
_cell_formula_units_Z 54
_cell_length_a 5.285255
_cell_length_b 30.864266
_cell_length_c 13.006066
_cell_angle_alpha 90.000000
_cell_angle_beta 90.000000
_cell_angle_gamma 90.000000
_cell_volume 2121.621230
_symmetry_space_group_name_H-M "P B A N"
_symmetry_group_IT_number 50
_space_group.IT_coordinate_system_code '2'
_symmetry_cell_setting 'orthorhombic'
loop_
_space_group_symop_operation_xyz
x,y,z
1/2-x,1/2-y,z
x,1/2-y,-z
1/2-x,y,-z
-x,-y,-z
1/2+x,1/2+y,-z
-x,1/2+y,z
1/2+x,-y,z
loop_
_atom_site_type_symbol
_atom_site_label
_atom_site_fract_x
_atom_site_fract_y
_atom_site_fract_z
Si Si1 0.858164 0.687119 0.607837
Si Si2 0.836061 0.393954 0.381345
Si Si3 0.396457 0.327926 0.890881
Si Si4 0.250000 0.250000 0.235615
Si Si5 0.865910 0.479951 0.867950
Si Si6 0.250000 0.750000 0.500000
Si Si7 0.880767 0.984411 0.366209
Si Si8 0.092703 0.619023 0.172410
O O1 0.750000 0.672370 0.500000
O O2 0.667862 0.712369 0.682987
O O3 0.989963 0.645867 0.652841
O O4 0.074714 0.720477 0.571635
O O5 0.750000 0.389449 0.500000
O O6 0.623192 0.390741 0.294317
O O7 0.993457 0.437686 0.368377
O O8 0.423422 0.280556 0.835747
O O9 0.666429 0.353672 0.876799
O O10 0.171798 0.357022 0.842982
O O11 0.250000 0.319391 0.000000
O O12 0.590499 0.490457 0.908712
O O13 0.840337 0.496343 0.748497
O O14 0.918719 0.429092 0.875552
O O15 0.598405 0.984146 0.411156
#
# Coordination Sequence:
#
# PCOD9396046 Si02
#       8
#     8   8   8   4   8   2   8   8
#     4  12  26  44  69 107 152 198 245 297 355 458
#     4  12  27  42  70 115 153 204 252 299 361 457
#     4  12  30  53  81 112 145 188 259 326 392 461
#     4  12  26  48  80 106 146 196 244 314 398 448
#     4  10  19  39  71 107 145 200 248 300 362 449
#     4  12  22  44  64  94 154 188 250 284 344 426
#     4  10  22  41  64  99 151 202 249 300 345 427
#     4  12  26  48  80 108 154 204 242 313 392 436
#
# _framework density 25.452235000000002
#
# number of rings (size 3 to 8) (size 9 to 14) (size 15 to 20)
#    0.000    0.593    6.667    1.556    6.222    2.370 
#    0.000    1.481    0.000    8.889    0.000    0.000 
#    0.000    0.000    0.000    0.000    0.000    0.000 
#
# Total GULP energy -301584.206393 kJ/mol
# GULP energy per Si atom -5584.892711 kJ/mol
# Density = 2.539430 g / cm^3
# Si number density = 25.452235 Si / 1000 Ang^3
#
#
#
# Elastic Constant Matrix: (Units=GPa)
#
#
# Indices 1 2 3 4 5 6 
#
# 1 109.7143 8.8049 3.8231 0.0000 0.0000 0.0000
# 2 8.8049 148.1441 3.4040 0.0000 0.0000 0.0000
# 3 3.8231 3.4040 97.2976 0.0000 0.0000 0.0000
# 4 0.0000 0.0000 0.0000 5.4803 0.0000 0.0000
# 5 0.0000 0.0000 0.0000 0.0000 40.7010 0.0000
# 6 0.0000 0.0000 0.0000 0.0000 0.0000 32.7241
#
#
#
# Elastic Compliance Matrix: (Units=1/GPa)
#
#
# Indices 1 2 3 4 5 6 
#
# 1 0.009170 -0.000537 -0.000342 0.000000 0.000000 0.000000
# 2 -0.000537 0.006787 -0.000216 0.000000 0.000000 0.000000
# 3 -0.000342 -0.000216 0.010299 0.000000 0.000000 0.000000
# 4 0.000000 0.000000 0.000000 0.182473 0.000000 0.000000
# 5 0.000000 0.000000 0.000000 0.000000 0.024569 0.000000
# 6 0.000000 0.000000 0.000000 0.000000 0.000000 0.030558
#
#
# Mechanical properties :
#
#
# Convention : Reuss Voigt Hill
#
# Bulk Modulus (GPa) = 41.55341 43.02444 42.28892
# Shear Modulus (GPa) = 18.24362 38.38934 28.31648
#
# Velocity S-wave (km/s) = 2.68018 3.88788 3.33909
# Velocity P-wave (km/s) = 5.09306 6.09056 5.61401
#
# Compressibility (1/GPa) = 0.02406542
#
# Stress axis : x y z
#
# Youngs Moduli (GPa) = 109.05614 147.33874 97.09933
#
# Poissons Ratio (x) = 0.07914 0.03316
# Poissons Ratio (y) = 0.05858 0.02101
# Poissons Ratio (z) = 0.03724 0.03188
#
# Static dielectric constant tensor:
#      x y z
#    x 2.039070 0.000000 0.000000 
#    y 0.000000 1.918670 0.000000 
#    z 0.000000 0.000000 2.424380 
# 
# From -- ./inp_files/24227.got.cif
#   From: 2010.05.17/outbox.cif.g08.bks.cpg/sg50_13_cif.got.tgz:24227.got - 2010.06.03 11:33:33.
