data_PCOD9396850
_publ_section_title
;
Structure prediction by ZEFSAII (Michael W. Deem and Ramdas Pophale) SiO2 
 PCOD9396850
Probable space group: P B A N
;
_chemical_formula_sum "Si O2"
_cell_formula_units_Z 40
_cell_length_a 17.477186
_cell_length_b 18.131010
_cell_length_c 5.297156
_cell_angle_alpha 90.000000
_cell_angle_beta 90.000000
_cell_angle_gamma 90.000000
_cell_volume 1678.557677
_symmetry_space_group_name_H-M "P B A N"
_symmetry_group_IT_number 50
_space_group.IT_coordinate_system_code '2'
_symmetry_cell_setting 'orthorhombic'
loop_
_space_group_symop_operation_xyz
x,y,z
1/2-x,1/2-y,z
x,1/2-y,-z
1/2-x,y,-z
-x,-y,-z
1/2+x,1/2+y,-z
-x,1/2+y,z
1/2+x,-y,z
loop_
_atom_site_type_symbol
_atom_site_label
_atom_site_fract_x
_atom_site_fract_y
_atom_site_fract_z
Si Si1 0.200337 0.575602 0.746166
Si Si2 0.057499 0.463884 0.301746
Si Si3 0.060764 0.173344 0.361016
Si Si4 0.200009 0.098149 0.252215
Si Si5 0.065656 0.895926 0.947493
O O1 0.250000 0.598225 0.500000
O O2 0.177021 0.489145 0.708644
O O3 0.250000 0.583221 0.000000
O O4 0.123749 0.621444 0.825026
O O5 0.084500 0.391272 0.441668
O O6 0.103660 0.534841 0.203849
O O7 0.000000 0.500000 0.500000
O O8 0.009298 0.430984 0.072947
O O9 0.062673 0.250000 0.500000
O O10 0.132846 0.156460 0.182901
O O11 0.976364 0.161204 0.238756
O O12 0.250000 0.118707 0.500000
O O13 0.250000 0.094792 0.000000
#
# Coordination Sequence:
#
# PCOD9396850 Si02
#       5
#     8   8   8   8   8
#     4  10  22  36  65 101 133 172 229 300 373 422
#     4   9  19  35  65  90 128 169 228 288 350 403
#     4  11  25  41  64  96 137 194 243 285 353 428
#     4  10  23  41  63  91 136 187 240 289 345 426
#     4  10  21  38  64  97 132 179 229 301 354 418
#
# _framework density 23.829981
#
# number of rings (size 3 to 8) (size 9 to 14) (size 15 to 20)
#    0.000    2.000    0.000    3.600   16.800    1.200 
#    0.000    1.000    0.000    0.000    0.000    4.200 
#    0.000    0.000    0.000    0.000    0.000    0.000 
#
# Total GULP energy -222935.048371 kJ/mol
# GULP energy per Si atom -5573.376209 kJ/mol
# Density = 2.377574 g / cm^3
# Si number density = 23.829981 Si / 1000 Ang^3
#
#
#
# Elastic Constant Matrix: (Units=GPa)
#
#
# Indices 1 2 3 4 5 6 
#
# 1 116.4084 29.7009 37.0889 0.0000 0.0000 0.0000
# 2 29.7009 50.8152 14.8307 0.0000 0.0000 0.0000
# 3 37.0889 14.8307 115.0856 0.0000 0.0000 0.0000
# 4 0.0000 0.0000 0.0000 9.4631 0.0000 0.0000
# 5 0.0000 0.0000 0.0000 0.0000 53.8862 0.0000
# 6 0.0000 0.0000 0.0000 0.0000 0.0000 8.9828
#
#
#
# Elastic Compliance Matrix: (Units=1/GPa)
#
#
# Indices 1 2 3 4 5 6 
#
# 1 0.010898 -0.005554 -0.002797 0.000000 0.000000 0.000000
# 2 -0.005554 0.023278 -0.001210 0.000000 0.000000 0.000000
# 3 -0.002797 -0.001210 0.009746 0.000000 0.000000 0.000000
# 4 0.000000 0.000000 0.000000 0.105674 0.000000 0.000000
# 5 0.000000 0.000000 0.000000 0.000000 0.018558 0.000000
# 6 0.000000 0.000000 0.000000 0.000000 0.000000 0.111324
#
#
# Mechanical properties :
#
#
# Convention : Reuss Voigt Hill
#
# Bulk Modulus (GPa) = 40.31846 49.50558 44.91202
# Shear Modulus (GPa) = 16.29370 27.84566 22.06968
#
# Velocity S-wave (km/s) = 2.61769 3.42206 3.04654
# Velocity P-wave (km/s) = 5.10807 6.03603 5.59133
#
# Compressibility (1/GPa) = 0.02480254
#
# Stress axis : x y z
#
# Youngs Moduli (GPa) = 91.75584 42.95816 102.60233
#
# Poissons Ratio (x) = 0.23858 0.28694
# Poissons Ratio (y) = 0.50960 0.12415
# Poissons Ratio (z) = 0.25660 0.05198
#
# Static dielectric constant tensor:
#      x y z
#    x 2.475760 0.000000 0.000000 
#    y 0.000000 1.903870 0.000000 
#    z 0.000000 0.000000 2.167090 
# 
# From -- ./inp_files/4190.got.cif
#   From: 2010.05.17/outbox.cif.g08.bks.cpg/sg50_3_cif.got.tgz:4190.got - 2010.06.03 11:33:33.
