data_PCOD9396245
_publ_section_title
;
Structure prediction by ZEFSAII (Michael W. Deem and Ramdas Pophale) SiO2 
 PCOD9396245
Probable space group: P B A N
;
_chemical_formula_sum "Si O2"
_cell_formula_units_Z 50
_cell_length_a 8.573556
_cell_length_b 14.801543
_cell_length_c 20.732672
_cell_angle_alpha 90.000000
_cell_angle_beta 90.000000
_cell_angle_gamma 90.000000
_cell_volume 2631.014594
_symmetry_space_group_name_H-M "P B A N"
_symmetry_group_IT_number 50
_space_group.IT_coordinate_system_code '2'
_symmetry_cell_setting 'orthorhombic'
loop_
_space_group_symop_operation_xyz
x,y,z
1/2-x,1/2-y,z
x,1/2-y,-z
1/2-x,y,-z
-x,-y,-z
1/2+x,1/2+y,-z
-x,1/2+y,z
1/2+x,-y,z
loop_
_atom_site_type_symbol
_atom_site_label
_atom_site_fract_x
_atom_site_fract_y
_atom_site_fract_z
Si Si1 0.750000 0.050458 0.500000
Si Si2 0.250000 0.499861 0.000000
Si Si3 0.064175 0.235807 0.823764
Si Si4 0.999477 0.074863 0.909950
Si Si5 0.631667 0.912483 0.722719
Si Si6 0.964623 0.567101 0.207940
Si Si7 0.947099 0.601392 0.572696
Si Si8 0.250000 0.250000 0.500000
O O1 0.626357 0.100600 0.452778
O O2 0.640144 0.986651 0.543731
O O3 0.378371 0.561112 0.033348
O O4 0.166913 0.443458 0.056873
O O5 0.250000 0.250000 0.836123
O O6 0.053601 0.171168 0.761077
O O7 0.986684 0.333308 0.815060
O O8 0.996309 0.173439 0.879632
O O9 0.960658 0.000084 0.854314
O O10 0.807583 0.914133 0.750768
O O11 0.588901 0.899887 0.648499
O O12 0.572382 0.010756 0.744304
O O13 0.859414 0.686983 0.542939
#
# Coordination Sequence:
#
# PCOD9396245 Si02
#       8
#     4   4   8   8   8   8   8   2
#     4   9  20  38  58  79 120 160 200 239 310 364
#     4  10  20  36  60  82 114 168 198 248 298 378
#     4   9  19  35  57  84 111 150 188 249 299 354
#     4  10  20  38  57  83 120 153 206 246 309 361
#     4  10  20  35  61  85 113 149 199 240 304 365
#     4  10  20  37  59  85 113 152 190 260 305 359
#     4  10  20  38  58  88 116 162 201 251 303 383
#     4  10  24  34  60  86 128 160 200 260 308 358
#
# _framework density 19.004075
#
# number of rings (size 3 to 8) (size 9 to 14) (size 15 to 20)
#    0.000    2.240    0.000    3.840    3.360    0.320 
#    0.000   15.600    3.520    0.000    0.000    0.000 
#    0.000    0.000    0.000    0.000    0.000    0.000 
#
# Total GULP energy -278546.573666 kJ/mol
# GULP energy per Si atom -5570.931473 kJ/mol
# Density = 1.896082 g / cm^3
# Si number density = 19.004075 Si / 1000 Ang^3
#
#
#
# Elastic Constant Matrix: (Units=GPa)
#
#
# Indices 1 2 3 4 5 6 
#
# 1 71.0629 28.9909 30.5094 0.0000 0.0000 0.0000
# 2 28.9909 142.7388 42.5834 0.0000 0.0000 0.0000
# 3 30.5094 42.5834 109.4142 0.0000 0.0000 0.0000
# 4 0.0000 0.0000 0.0000 43.3968 0.0000 0.0000
# 5 0.0000 0.0000 0.0000 0.0000 21.3131 0.0000
# 6 0.0000 0.0000 0.0000 0.0000 0.0000 1.7030
#
#
#
# Elastic Compliance Matrix: (Units=1/GPa)
#
#
# Indices 1 2 3 4 5 6 
#
# 1 0.016602 -0.002252 -0.003753 0.000000 0.000000 0.000000
# 2 -0.002252 0.008232 -0.002576 0.000000 0.000000 0.000000
# 3 -0.003753 -0.002576 0.011188 0.000000 0.000000 0.000000
# 4 0.000000 0.000000 0.000000 0.023043 0.000000 0.000000
# 5 0.000000 0.000000 0.000000 0.000000 0.046920 0.000000
# 6 0.000000 0.000000 0.000000 0.000000 0.000000 0.587199
#
#
# Mechanical properties :
#
#
# Convention : Reuss Voigt Hill
#
# Bulk Modulus (GPa) = 53.02063 58.59817 55.80940
# Shear Modulus (GPa) = 6.97708 28.02473 17.50091
#
# Velocity S-wave (km/s) = 1.91816 3.84431 3.03793
# Velocity P-wave (km/s) = 5.73288 7.11382 6.46035
#
# Compressibility (1/GPa) = 0.01886058
#
# Stress axis : x y z
#
# Youngs Moduli (GPa) = 60.23337 121.48199 89.37797
#
# Poissons Ratio (x) = 0.27363 0.33541
# Poissons Ratio (y) = 0.13567 0.23021
# Poissons Ratio (z) = 0.22604 0.31290
#
# Static dielectric constant tensor:
#      x y z
#    x 1.664680 0.000000 0.000000 
#    y 0.000000 1.647570 0.000000 
#    z 0.000000 0.000000 1.748990 
# 
# From -- ./inp_files/28796.got.cif
#   From: 2010.05.17/outbox.cif.g08.bks.cpg/sg50_15_cif.got.tgz:28796.got - 2010.06.03 11:33:33.
