data_PCOD9396469
_publ_section_title
;
Structure prediction by ZEFSAII (Michael W. Deem and Ramdas Pophale) SiO2 
 PCOD9396469
Probable space group: P B A N
;
_chemical_formula_sum "Si O2"
_cell_formula_units_Z 56
_cell_length_a 17.798099
_cell_length_b 11.921740
_cell_length_c 13.676247
_cell_angle_alpha 90.000000
_cell_angle_beta 90.000000
_cell_angle_gamma 90.000000
_cell_volume 2901.885016
_symmetry_space_group_name_H-M "P B A N"
_symmetry_group_IT_number 50
_space_group.IT_coordinate_system_code '2'
_symmetry_cell_setting 'orthorhombic'
loop_
_space_group_symop_operation_xyz
x,y,z
1/2-x,1/2-y,z
x,1/2-y,-z
1/2-x,y,-z
-x,-y,-z
1/2+x,1/2+y,-z
-x,1/2+y,z
1/2+x,-y,z
loop_
_atom_site_type_symbol
_atom_site_label
_atom_site_fract_x
_atom_site_fract_y
_atom_site_fract_z
Si Si1 0.064383 0.532228 0.376388
Si Si2 0.110700 0.968405 0.409034
Si Si3 0.829165 0.189140 0.093433
Si Si4 0.078017 0.733584 0.723193
Si Si5 0.805173 0.847325 0.712674
Si Si6 0.291887 0.426857 0.901534
Si Si7 0.916187 0.660246 0.776897
O O1 0.115033 0.534193 0.473857
O O2 0.056499 0.658684 0.339865
O O3 0.097914 0.443905 0.297932
O O4 0.978282 0.495091 0.394560
O O5 0.166385 0.059042 0.361821
O O6 0.119659 0.854059 0.347680
O O7 0.750000 0.250000 0.102323
O O8 0.873070 0.217288 0.190335
O O9 0.812331 0.057612 0.084593
O O10 0.866867 0.250000 0.000000
O O11 0.005184 0.676881 0.773244
O O12 0.750000 0.750000 0.672382
O O13 0.762334 0.899778 0.807904
O O14 0.878633 0.776317 0.742776
O O15 0.371191 0.368619 0.875518
O O16 0.250000 0.388681 0.000000
#
# Coordination Sequence:
#
# PCOD9396469 Si02
#       7
#     8   8   8   8   8   8   8
#     4  10  20  38  64  93 128 168 213 265 319 386
#     4  10  21  36  63  96 126 170 216 258 325 383
#     4  11  22  40  65  92 120 168 213 253 328 394
#     4  11  21  40  66  93 130 165 209 282 319 380
#     4  10  22  40  63  91 129 171 210 266 319 380
#     4  11  22  42  67  89 125 174 215 260 325 394
#     4  10  22  40  63  95 129 164 216 267 322 382
#
# _framework density 19.297802000000001
#
# number of rings (size 3 to 8) (size 9 to 14) (size 15 to 20)
#    0.000    1.571    4.286    1.286    0.000    3.143 
#    2.571    5.714    0.000    0.857    0.000    0.000 
#    0.000    0.000    0.000    0.000    0.000    0.000 
#
# Total GULP energy -312167.700849 kJ/mol
# GULP energy per Si atom -5574.423229 kJ/mol
# Density = 1.925388 g / cm^3
# Si number density = 19.297802 Si / 1000 Ang^3
#
#
#
# Elastic Constant Matrix: (Units=GPa)
#
#
# Indices 1 2 3 4 5 6 
#
# 1 37.2260 5.7209 26.9365 0.0000 0.0000 0.0000
# 2 5.7209 96.5284 26.5139 0.0000 0.0000 0.0000
# 3 26.9365 26.5139 84.7624 0.0000 0.0000 0.0000
# 4 0.0000 0.0000 0.0000 7.2828 0.0000 0.0000
# 5 0.0000 0.0000 0.0000 0.0000 20.3901 0.0000
# 6 0.0000 0.0000 0.0000 0.0000 0.0000 46.3185
#
#
#
# Elastic Compliance Matrix: (Units=1/GPa)
#
#
# Indices 1 2 3 4 5 6 
#
# 1 0.034986 0.001073 -0.011454 0.000000 0.000000 0.000000
# 2 0.001073 0.011366 -0.003896 0.000000 0.000000 0.000000
# 3 -0.011454 -0.003896 0.016656 0.000000 0.000000 0.000000
# 4 0.000000 0.000000 0.000000 0.137309 0.000000 0.000000
# 5 0.000000 0.000000 0.000000 0.000000 0.049043 0.000000
# 6 0.000000 0.000000 0.000000 0.000000 0.000000 0.021590
#
#
# Mechanical properties :
#
#
# Convention : Reuss Voigt Hill
#
# Bulk Modulus (GPa) = 29.02439 37.42882 33.22660
# Shear Modulus (GPa) = 16.07771 25.42133 20.74952
#
# Velocity S-wave (km/s) = 2.88954 3.63342 3.28262
# Velocity P-wave (km/s) = 5.11913 6.08604 5.62340
#
# Compressibility (1/GPa) = 0.03445378
#
# Stress axis : x y z
#
# Youngs Moduli (GPa) = 28.58301 87.97949 60.03753
#
# Poissons Ratio (x) = -0.09436 0.68764
# Poissons Ratio (y) = -0.03066 0.23392
# Poissons Ratio (z) = 0.32738 0.34279
#
# Static dielectric constant tensor:
#      x y z
#    x 1.670290 0.000000 0.000000 
#    y 0.000000 1.700650 0.000000 
#    z 0.000000 0.000000 1.217630 
# 
# From -- ./inp_files/22405.got.cif
#   From: 2010.05.17/outbox.cif.g08.bks.cpg/sg50_12_cif.got.tgz:22405.got - 2010.06.03 11:33:33.
