data_PCOD9396710
_publ_section_title
;
Structure prediction by ZEFSAII (Michael W. Deem and Ramdas Pophale) SiO2 
 PCOD9396710
Probable space group: P B A N
;
_chemical_formula_sum "Si O2"
_cell_formula_units_Z 48
_cell_length_a 12.974070
_cell_length_b 10.721948
_cell_length_c 14.358328
_cell_angle_alpha 90.000000
_cell_angle_beta 90.000000
_cell_angle_gamma 90.000000
_cell_volume 1997.348296
_symmetry_space_group_name_H-M "P B A N"
_symmetry_group_IT_number 50
_space_group.IT_coordinate_system_code '2'
_symmetry_cell_setting 'orthorhombic'
loop_
_space_group_symop_operation_xyz
x,y,z
1/2-x,1/2-y,z
x,1/2-y,-z
1/2-x,y,-z
-x,-y,-z
1/2+x,1/2+y,-z
-x,1/2+y,z
1/2+x,-y,z
loop_
_atom_site_type_symbol
_atom_site_label
_atom_site_fract_x
_atom_site_fract_y
_atom_site_fract_z
Si Si1 0.044376 0.870841 0.972755
Si Si2 0.336157 0.852977 0.841061
Si Si3 0.196622 0.057080 0.288145
Si Si4 0.021200 0.832402 0.758156
Si Si5 0.102448 0.455025 0.379872
Si Si6 0.385546 0.877653 0.556356
O O1 0.134106 0.646691 0.949486
O O2 0.049709 0.880652 0.861862
O O3 0.976148 0.750000 0.000000
O O4 0.000000 0.000000 0.000000
O O5 0.250000 0.750000 0.822879
O O6 0.294935 0.986442 0.810127
O O7 0.435183 0.807578 0.778701
O O8 0.177341 0.937635 0.358086
O O9 0.301404 0.110862 0.330376
O O10 0.097261 0.144905 0.272471
O O11 0.077021 0.923643 0.684555
O O12 0.125689 0.514195 0.479953
O O13 0.002638 0.371442 0.404345
O O14 0.361947 0.750000 0.500000
#
# Coordination Sequence:
#
# PCOD9396710 Si02
#       6
#     8   8   8   8   8   8
#     4  10  21  38  61  99 132 176 219 283 347 406
#     4  11  21  37  64  97 130 173 236 283 330 415
#     4  11  21  37  63  92 133 171 217 280 342 404
#     4  10  21  36  59  92 129 170 216 272 342 403
#     4  10  21  39  59  92 126 168 216 274 335 403
#     4  10  22  37  62  92 126 168 217 275 334 407
#
# _framework density 24.031863999999999
#
# number of rings (size 3 to 8) (size 9 to 14) (size 15 to 20)
#    0.000    1.667    3.333    1.500    0.000    3.667 
#    0.000    0.000    0.000   42.000    4.333    8.167 
#    0.000    0.000    0.000    0.000    0.000    0.000 
#
# Total GULP energy -267395.923652 kJ/mol
# GULP energy per Si atom -5570.748409 kJ/mol
# Density = 2.397717 g / cm^3
# Si number density = 24.031864 Si / 1000 Ang^3
#
#
#
# Elastic Constant Matrix: (Units=GPa)
#
#
# Indices 1 2 3 4 5 6 
#
# 1 154.9885 21.1190 29.4220 0.0000 0.0000 0.0000
# 2 21.1190 66.4187 12.7799 0.0000 0.0000 0.0000
# 3 29.4220 12.7799 149.9717 0.0000 0.0000 0.0000
# 4 0.0000 0.0000 0.0000 32.0663 0.0000 0.0000
# 5 0.0000 0.0000 0.0000 0.0000 32.7637 0.0000
# 6 0.0000 0.0000 0.0000 0.0000 0.0000 21.4315
#
#
#
# Elastic Compliance Matrix: (Units=1/GPa)
#
#
# Indices 1 2 3 4 5 6 
#
# 1 0.006949 -0.001980 -0.001195 0.000000 0.000000 0.000000
# 2 -0.001980 0.015871 -0.000964 0.000000 0.000000 0.000000
# 3 -0.001195 -0.000964 0.006984 0.000000 0.000000 0.000000
# 4 0.000000 0.000000 0.000000 0.031185 0.000000 0.000000
# 5 0.000000 0.000000 0.000000 0.000000 0.030522 0.000000
# 6 0.000000 0.000000 0.000000 0.000000 0.000000 0.046660
#
#
# Mechanical properties :
#
#
# Convention : Reuss Voigt Hill
#
# Bulk Modulus (GPa) = 46.45198 55.33562 50.89380
# Shear Modulus (GPa) = 32.54710 37.78950 35.16830
#
# Velocity S-wave (km/s) = 3.68412 3.96975 3.82959
# Velocity P-wave (km/s) = 6.12113 6.63986 6.38577
#
# Compressibility (1/GPa) = 0.02152761
#
# Stress axis : x y z
#
# Youngs Moduli (GPa) = 143.91407 63.00823 143.17580
#
# Poissons Ratio (x) = 0.12473 0.17102
# Poissons Ratio (y) = 0.28489 0.13803
# Poissons Ratio (z) = 0.17191 0.06075
#
# Static dielectric constant tensor:
#      x y z
#    x 2.030680 0.000000 0.000000 
#    y 0.000000 1.984420 0.000000 
#    z 0.000000 0.000000 2.254960 
# 
# From -- ./inp_files/26431.got.cif
#   From: 2010.05.17/outbox.cif.g08.bks.cpg/sg50_14_cif.got.tgz:26431.got - 2010.06.03 11:33:33.
