data_PCOD9396602
_publ_section_title
;
Structure prediction by ZEFSAII (Michael W. Deem and Ramdas Pophale) SiO2 
 PCOD9396602
Probable space group: P B A N
;
_chemical_formula_sum "Si O2"
_cell_formula_units_Z 56
_cell_length_a 14.550894
_cell_length_b 14.359355
_cell_length_c 11.470783
_cell_angle_alpha 90.000000
_cell_angle_beta 90.000000
_cell_angle_gamma 90.000000
_cell_volume 2396.722061
_symmetry_space_group_name_H-M "P B A N"
_symmetry_group_IT_number 50
_space_group.IT_coordinate_system_code '2'
_symmetry_cell_setting 'orthorhombic'
loop_
_space_group_symop_operation_xyz
x,y,z
1/2-x,1/2-y,z
x,1/2-y,-z
1/2-x,y,-z
-x,-y,-z
1/2+x,1/2+y,-z
-x,1/2+y,z
1/2+x,-y,z
loop_
_atom_site_type_symbol
_atom_site_label
_atom_site_fract_x
_atom_site_fract_y
_atom_site_fract_z
Si Si1 0.930882 0.429445 0.375824
Si Si2 0.679705 0.337371 0.824904
Si Si3 0.846034 0.775040 0.306594
Si Si4 0.482520 0.949006 0.173421
Si Si5 0.605799 0.614810 0.512408
Si Si6 0.994000 0.755617 0.127060
Si Si7 0.840139 0.988949 0.978075
O O1 0.859786 0.367317 0.301874
O O2 0.995760 0.489570 0.286569
O O3 0.879872 0.509686 0.447949
O O4 0.001620 0.377275 0.461182
O O5 0.750000 0.250000 0.826105
O O6 0.585640 0.313751 0.892797
O O7 0.707270 0.428990 0.897365
O O8 0.750000 0.750000 0.249418
O O9 0.832049 0.853732 0.404105
O O10 0.879542 0.685870 0.381802
O O11 0.923201 0.800826 0.215138
O O12 0.469688 0.838840 0.187513
O O13 0.579138 0.950802 0.103607
O O14 0.399296 0.984932 0.093068
O O15 0.950223 0.750000 0.000000
O O16 0.750000 0.926890 0.000000
#
# Coordination Sequence:
#
# PCOD9396602 Si02
#       7
#     8   8   8   8   8   8   8
#     4  10  21  40  69  99 128 176 219 280 347 391
#     4  11  23  39  66 100 136 177 227 278 338 408
#     4  11  24  44  67  97 129 174 223 274 334 404
#     4  10  21  39  59  91 134 168 222 272 329 397
#     4  10  20  42  72  93 129 169 223 280 335 397
#     4  12  23  42  64  96 136 176 219 275 332 405
#     4  10  21  39  60  91 128 179 223 272 331 398
#
# _framework density 23.365245999999999
#
# number of rings (size 3 to 8) (size 9 to 14) (size 15 to 20)
#    0.000    1.429    4.286    1.714    0.000    0.286 
#    5.143    4.286    0.000    0.857    0.000    0.000 
#    0.000    0.000    0.000    0.000    0.000    0.000 
#
# Total GULP energy -312722.403987 kJ/mol
# GULP energy per Si atom -5584.328643 kJ/mol
# Density = 2.331207 g / cm^3
# Si number density = 23.365246 Si / 1000 Ang^3
#
#
#
# Elastic Constant Matrix: (Units=GPa)
#
#
# Indices 1 2 3 4 5 6 
#
# 1 104.0130 -2.1670 24.7308 0.0000 0.0000 0.0000
# 2 -2.1670 47.3729 1.9904 0.0000 0.0000 0.0000
# 3 24.7308 1.9904 72.4699 0.0000 0.0000 0.0000
# 4 0.0000 0.0000 0.0000 29.3322 0.0000 0.0000
# 5 0.0000 0.0000 0.0000 0.0000 -0.9118 0.0000
# 6 0.0000 0.0000 0.0000 0.0000 0.0000 30.0393
#
#
#
# Elastic Compliance Matrix: (Units=1/GPa)
#
#
# Indices 1 2 3 4 5 6 
#
# 1 0.010482 0.000631 -0.003594 0.000000 0.000000 0.000000
# 2 0.000631 0.021171 -0.000797 0.000000 0.000000 0.000000
# 3 -0.003594 -0.000797 0.015047 0.000000 0.000000 0.000000
# 4 0.000000 0.000000 0.000000 0.034092 0.000000 0.000000
# 5 0.000000 0.000000 0.000000 0.000000 -1.096758 0.000000
# 6 0.000000 0.000000 0.000000 0.000000 0.000000 0.033290
#
#
# Mechanical properties :
#
#
# Convention : Reuss Voigt Hill
#
# Bulk Modulus (GPa) = 25.52342 30.32935 27.92639
# Shear Modulus (GPa) = -5.19699 24.97870 9.89086
#
# Velocity S-wave (km/s) = -1.49301 3.27319 2.05969
# Velocity P-wave (km/s) = 2.82406 5.22434 4.19935
#
# Compressibility (1/GPa) = 0.03917970
#
# Stress axis : x y z
#
# Youngs Moduli (GPa) = 95.40221 47.23345 66.45705
#
# Poissons Ratio (x) = -0.02978 0.23887
# Poissons Ratio (y) = -0.06015 0.05294
# Poissons Ratio (z) = 0.34291 0.03763
#
# Static dielectric constant tensor:
#      x y z
#    x 1.877030 0.000000 0.000000 
#    y 0.000000 1.963980 0.000000 
#    z 0.000000 0.000000 1.889890 
# 
# From -- ./inp_files/21137.got.cif
#   From: 2010.05.17/outbox.cif.g08.bks.cpg/sg50_11_cif.got.tgz:21137.got - 2010.06.03 11:33:33.
