data_PCOD9396334
_publ_section_title
;
Structure prediction by ZEFSAII (Michael W. Deem and Ramdas Pophale) SiO2 
 PCOD9396334
Probable space group: P B A N
;
_chemical_formula_sum "Si O2"
_cell_formula_units_Z 16
_cell_length_a 13.056273
_cell_length_b 4.643886
_cell_length_c 8.776820
_cell_angle_alpha 90.000000
_cell_angle_beta 90.000000
_cell_angle_gamma 90.000000
_cell_volume 532.154776
_symmetry_space_group_name_H-M "P B A N"
_symmetry_group_IT_number 50
_space_group.IT_coordinate_system_code '2'
_symmetry_cell_setting 'orthorhombic'
loop_
_space_group_symop_operation_xyz
x,y,z
1/2-x,1/2-y,z
x,1/2-y,-z
1/2-x,y,-z
-x,-y,-z
1/2+x,1/2+y,-z
-x,1/2+y,z
1/2+x,-y,z
loop_
_atom_site_type_symbol
_atom_site_label
_atom_site_fract_x
_atom_site_fract_y
_atom_site_fract_z
Si Si1 0.431448 0.031641 0.185718
Si Si2 0.121570 0.750000 0.500000
Si Si3 0.750000 0.250000 0.000000
Si Si4 0.750000 0.750000 0.500000
O O1 0.534775 0.852813 0.148219
O O2 0.424526 0.941161 0.365195
O O3 0.327310 0.934925 0.105858
O O4 0.183332 0.490425 0.586962
#
# Coordination Sequence:
#
# PCOD9396334 Si02
#       4
#     8   4   2   2
#     4  12  27  47  73 105 139 184 235 286 348 412
#     4  11  22  43  72 104 140 176 232 296 342 404
#     4  12  28  48  72 100 148 188 228 286 344 422
#     4  10  20  36  68 110 136 176 224 274 360 412
#
# _framework density 30.066444000000001
#
# number of rings (size 3 to 8) (size 9 to 14) (size 15 to 20)
#    0.000    0.500    0.000    9.000    0.000    4.000 
#    0.000    0.000    0.000    0.000    0.000    0.000 
#    0.000    0.000    0.000    0.000    0.000    0.000 
#
# Total GULP energy -89492.809749 kJ/mol
# GULP energy per Si atom -5593.300609 kJ/mol
# Density = 2.999801 g / cm^3
# Si number density = 30.066444 Si / 1000 Ang^3
#
#
#
# Elastic Constant Matrix: (Units=GPa)
#
#
# Indices 1 2 3 4 5 6 
#
# 1 161.3459 41.7725 51.1940 0.0000 0.0000 0.0000
# 2 41.7725 180.5477 -23.3878 0.0000 0.0000 0.0000
# 3 51.1940 -23.3878 142.0402 0.0000 0.0000 0.0000
# 4 0.0000 0.0000 0.0000 35.0257 0.0000 0.0000
# 5 0.0000 0.0000 0.0000 0.0000 68.0059 0.0000
# 6 0.0000 0.0000 0.0000 0.0000 0.0000 43.4311
#
#
#
# Elastic Compliance Matrix: (Units=1/GPa)
#
#
# Indices 1 2 3 4 5 6 
#
# 1 0.007774 -0.002209 -0.003166 0.000000 0.000000 0.000000
# 2 -0.002209 0.006287 0.001831 0.000000 0.000000 0.000000
# 3 -0.003166 0.001831 0.008483 0.000000 0.000000 0.000000
# 4 0.000000 0.000000 0.000000 0.028550 0.000000 0.000000
# 5 0.000000 0.000000 0.000000 0.000000 0.014705 0.000000
# 6 0.000000 0.000000 0.000000 0.000000 0.000000 0.023025
#
#
# Mechanical properties :
#
#
# Convention : Reuss Voigt Hill
#
# Bulk Modulus (GPa) = 64.69307 69.23234 66.96271
# Shear Modulus (GPa) = 49.47425 56.91621 53.19523
#
# Velocity S-wave (km/s) = 4.06087 4.35560 4.21082
# Velocity P-wave (km/s) = 6.59932 6.95496 6.77947
#
# Compressibility (1/GPa) = 0.01545761
#
# Stress axis : x y z
#
# Youngs Moduli (GPa) = 128.63155 159.05977 117.88639
#
# Poissons Ratio (x) = 0.35132 0.37319
# Poissons Ratio (y) = 0.28411 -0.21588
# Poissons Ratio (z) = 0.40720 -0.29128
#
# Static dielectric constant tensor:
#      x y z
#    x 2.716620 0.000000 0.000000 
#    y 0.000000 2.283740 0.000000 
#    z 0.000000 0.000000 2.670560 
# 
# From -- ./inp_files/7433.got.cif
#   From: 2010.05.17/outbox.cif.g08.bks.cpg/sg50_4_cif.got.tgz:7433.got - 2010.06.03 11:33:33.
