data_PCOD9396167
_publ_section_title
;
Structure prediction by ZEFSAII (Michael W. Deem and Ramdas Pophale) SiO2 
 PCOD9396167
Probable space group: P B A N
;
_chemical_formula_sum "Si O2"
_cell_formula_units_Z 40
_cell_length_a 13.254456
_cell_length_b 9.592331
_cell_length_c 14.025198
_cell_angle_alpha 90.000000
_cell_angle_beta 90.000000
_cell_angle_gamma 90.000000
_cell_volume 1783.179511
_symmetry_space_group_name_H-M "P B A N"
_symmetry_group_IT_number 50
_space_group.IT_coordinate_system_code '2'
_symmetry_cell_setting 'orthorhombic'
loop_
_space_group_symop_operation_xyz
x,y,z
1/2-x,1/2-y,z
x,1/2-y,-z
1/2-x,y,-z
-x,-y,-z
1/2+x,1/2+y,-z
-x,1/2+y,z
1/2+x,-y,z
loop_
_atom_site_type_symbol
_atom_site_label
_atom_site_fract_x
_atom_site_fract_y
_atom_site_fract_z
Si Si1 0.449787 0.624828 0.609347
Si Si2 0.343059 0.053153 0.555533
Si Si3 0.367957 0.227830 0.113251
Si Si4 0.834002 0.145384 0.721266
Si Si5 0.999607 0.012486 0.188725
O O1 0.393254 0.556105 0.520205
O O2 0.565752 0.652105 0.583686
O O3 0.396432 0.761142 0.646908
O O4 0.458450 0.528233 0.703095
O O5 0.250000 0.111434 0.500000
O O6 0.301904 0.980956 0.652497
O O7 0.250000 0.250000 0.146600
O O8 0.449065 0.341317 0.155736
O O9 0.412529 0.072583 0.133903
O O10 0.367106 0.250000 0.000000
O O11 0.750000 0.250000 0.758004
O O12 0.903857 0.088467 0.803773
#
# Coordination Sequence:
#
# PCOD9396167 Si02
#       5
#     8   8   8   8   8
#     4  10  21  35  57  93 125 168 220 272 316 387
#     4  10  20  34  57  85 126 176 221 269 320 375
#     4  11  26  47  73 102 134 171 215 276 349 421
#     4  11  21  36  64  93 129 177 225 271 328 391
#     4  11  24  44  68  97 135 171 218 277 335 404
#
# _framework density 22.431842
#
# number of rings (size 3 to 8) (size 9 to 14) (size 15 to 20)
#    0.000    1.400    4.000    1.200    2.800    0.000 
#    0.000    0.000    0.000    8.400    0.000    0.000 
#    0.000    0.000    0.000    0.000    0.000    0.000 
#
# Total GULP energy -223208.880406 kJ/mol
# GULP energy per Si atom -5580.222010 kJ/mol
# Density = 2.238079 g / cm^3
# Si number density = 22.431842 Si / 1000 Ang^3
#
#
#
# Elastic Constant Matrix: (Units=GPa)
#
#
# Indices 1 2 3 4 5 6 
#
# 1 89.3399 21.8754 2.7084 0.0000 0.0000 0.0000
# 2 21.8754 60.1462 -6.8537 0.0000 0.0000 0.0000
# 3 2.7084 -6.8537 42.0311 0.0000 0.0000 0.0000
# 4 0.0000 0.0000 0.0000 41.5842 0.0000 0.0000
# 5 0.0000 0.0000 0.0000 0.0000 28.3547 0.0000
# 6 0.0000 0.0000 0.0000 0.0000 0.0000 27.5313
#
#
#
# Elastic Compliance Matrix: (Units=1/GPa)
#
#
# Indices 1 2 3 4 5 6 
#
# 1 0.012387 -0.004683 -0.001562 0.000000 0.000000 0.000000
# 2 -0.004683 0.018712 0.003353 0.000000 0.000000 0.000000
# 3 -0.001562 0.003353 0.024439 0.000000 0.000000 0.000000
# 4 0.000000 0.000000 0.000000 0.024048 0.000000 0.000000
# 5 0.000000 0.000000 0.000000 0.000000 0.035268 0.000000
# 6 0.000000 0.000000 0.000000 0.000000 0.000000 0.036322
#
#
# Mechanical properties :
#
#
# Convention : Reuss Voigt Hill
#
# Bulk Modulus (GPa) = 20.09902 25.21970 22.65936
# Shear Modulus (GPa) = 28.81105 31.07985 29.94545
#
# Velocity S-wave (km/s) = 3.58772 3.72630 3.65766
# Velocity P-wave (km/s) = 5.11290 5.45719 5.28785
#
# Compressibility (1/GPa) = 0.04975368
#
# Stress axis : x y z
#
# Youngs Moduli (GPa) = 80.72790 53.44289 40.91775
#
# Poissons Ratio (x) = 0.25029 0.06391
# Poissons Ratio (y) = 0.37807 -0.13719
# Poissons Ratio (z) = 0.12609 -0.17919
#
# Static dielectric constant tensor:
#      x y z
#    x 1.909530 0.000000 0.000000 
#    y 0.000000 2.060590 0.000000 
#    z 0.000000 0.000000 1.794570 
# 
# From -- ./inp_files/25776.got.cif
#   From: 2010.05.17/outbox.cif.g08.bks.cpg/sg50_13_cif.got.tgz:25776.got - 2010.06.03 11:33:33.
