data_PCOD9396318
_publ_section_title
;
Structure prediction by ZEFSAII (Michael W. Deem and Ramdas Pophale) SiO2 
 PCOD9396318
Probable space group: P B A N
;
_chemical_formula_sum "Si O2"
_cell_formula_units_Z 58
_cell_length_a 8.420619
_cell_length_b 11.617014
_cell_length_c 28.061645
_cell_angle_alpha 90.000000
_cell_angle_beta 90.000000
_cell_angle_gamma 90.000000
_cell_volume 2745.058832
_symmetry_space_group_name_H-M "P B A N"
_symmetry_group_IT_number 50
_space_group.IT_coordinate_system_code '2'
_symmetry_cell_setting 'orthorhombic'
loop_
_space_group_symop_operation_xyz
x,y,z
1/2-x,1/2-y,z
x,1/2-y,-z
1/2-x,y,-z
-x,-y,-z
1/2+x,1/2+y,-z
-x,1/2+y,z
1/2+x,-y,z
loop_
_atom_site_type_symbol
_atom_site_label
_atom_site_fract_x
_atom_site_fract_y
_atom_site_fract_z
Si Si1 0.635176 0.650141 0.227301
Si Si2 0.548139 0.649453 0.584631
Si Si3 0.750052 0.053895 0.624292
Si Si4 0.573121 0.444550 0.112254
Si Si5 0.825243 0.060985 0.817553
Si Si6 0.953109 0.845688 0.335349
Si Si7 0.787395 0.883337 0.946789
Si Si8 0.250000 0.250000 0.500000
O O1 0.750000 0.750000 0.206826
O O2 0.726016 0.527989 0.216536
O O3 0.455620 0.641455 0.207299
O O4 0.604689 0.680099 0.282554
O O5 0.630910 0.528324 0.596007
O O6 0.360478 0.626825 0.588987
O O7 0.579353 0.745213 0.625946
O O8 0.629152 0.686600 0.535789
O O9 0.859375 0.127814 0.659505
O O10 0.637837 0.963910 0.651678
O O11 0.701191 0.381298 0.145738
O O12 0.440326 0.484835 0.149345
O O13 0.671551 0.549317 0.089119
O O14 0.470483 0.392337 0.069577
O O15 0.750000 0.750000 0.945369
O O16 0.750000 0.927290 0.000000
#
# Coordination Sequence:
#
# PCOD9396318 Si02
#       8
#     8   8   8   8   8   8   8   2
#     4  11  22  39  65  91 129 167 211 274 322 387
#     4  11  23  43  64  96 126 164 203 257 305 380
#     4  10  22  40  67  90 125 164 202 244 319 373
#     4   9  19  38  60  83 130 166 210 276 322 384
#     4   9  21  39  58  92 122 168 222 258 328 392
#     4  11  21  41  64  95 125 163 207 262 318 374
#     4  10  20  36  62  93 122 168 219 270 332 391
#     4  12  24  44  70  92 138 156 214 260 300 400
#
# _framework density 21.128875000000001
#
# number of rings (size 3 to 8) (size 9 to 14) (size 15 to 20)
#    0.000    1.793    1.379    2.483    0.000    6.621 
#    0.000   13.103    0.000    7.448    0.000    0.000 
#    0.000    0.000    0.000    0.000    0.000    0.000 
#
# Total GULP energy -323155.805218 kJ/mol
# GULP energy per Si atom -5571.651814 kJ/mol
# Density = 2.108078 g / cm^3
# Si number density = 21.128875 Si / 1000 Ang^3
#
#
#
# Elastic Constant Matrix: (Units=GPa)
#
#
# Indices 1 2 3 4 5 6 
#
# 1 167.1886 41.6312 59.1241 0.0000 0.0000 0.0000
# 2 41.6312 60.0052 33.8876 0.0000 0.0000 0.0000
# 3 59.1241 33.8876 114.9145 0.0000 0.0000 0.0000
# 4 0.0000 0.0000 0.0000 -6.9566 0.0000 0.0000
# 5 0.0000 0.0000 0.0000 0.0000 60.1332 0.0000
# 6 0.0000 0.0000 0.0000 0.0000 0.0000 59.1122
#
#
#
# Elastic Compliance Matrix: (Units=1/GPa)
#
#
# Indices 1 2 3 4 5 6 
#
# 1 0.007996 -0.003868 -0.002973 0.000000 0.000000 0.000000
# 2 -0.003868 0.021867 -0.004458 0.000000 0.000000 0.000000
# 3 -0.002973 -0.004458 0.011546 0.000000 0.000000 0.000000
# 4 0.000000 0.000000 0.000000 -0.143749 0.000000 0.000000
# 5 0.000000 0.000000 0.000000 0.000000 0.016630 0.000000
# 6 0.000000 0.000000 0.000000 0.000000 0.000000 0.016917
#
#
# Mechanical properties :
#
#
# Convention : Reuss Voigt Hill
#
# Bulk Modulus (GPa) = 53.16353 67.93266 60.54810
# Shear Modulus (GPa) = -125.23840 36.28882 -44.47479
#
# Velocity S-wave (km/s) = -7.70729 4.14877 -4.59293
# Velocity P-wave (km/s) = 7.34757 7.42772 0.76949
#
# Compressibility (1/GPa) = 0.01880989
#
# Stress axis : x y z
#
# Youngs Moduli (GPa) = 125.06294 45.73145 86.60650
#
# Poissons Ratio (x) = 0.17691 0.25750
# Poissons Ratio (y) = 0.48380 0.38609
# Poissons Ratio (z) = 0.37183 0.20387
#
# Static dielectric constant tensor:
#      x y z
#    x 1.838620 0.000000 0.000000 
#    y 0.000000 1.768230 0.000000 
#    z 0.000000 0.000000 1.797320 
# 
# From -- ./inp_files/32137.got.cif
#   From: 2010.05.17/outbox.cif.g08.bks.cpg/sg50_17_cif.got.tgz:32137.got - 2010.06.03 11:33:33.
