data_PCOD9396930
_publ_section_title
;
Structure prediction by ZEFSAII (Michael W. Deem and Ramdas Pophale) SiO2 
 PCOD9396930
Probable space group: P B A N
;
_chemical_formula_sum "Si O2"
_cell_formula_units_Z 26
_cell_length_a 22.184090
_cell_length_b 5.112328
_cell_length_c 10.502038
_cell_angle_alpha 90.000000
_cell_angle_beta 90.000000
_cell_angle_gamma 90.000000
_cell_volume 1191.060751
_symmetry_space_group_name_H-M "P B A N"
_symmetry_group_IT_number 50
_space_group.IT_coordinate_system_code '2'
_symmetry_cell_setting 'orthorhombic'
loop_
_space_group_symop_operation_xyz
x,y,z
1/2-x,1/2-y,z
x,1/2-y,-z
1/2-x,y,-z
-x,-y,-z
1/2+x,1/2+y,-z
-x,1/2+y,z
1/2+x,-y,z
loop_
_atom_site_type_symbol
_atom_site_label
_atom_site_fract_x
_atom_site_fract_y
_atom_site_fract_z
Si Si1 0.525131 0.417930 0.859104
Si Si2 0.320779 0.182465 0.644934
Si Si3 0.750000 0.250000 0.000000
Si Si4 0.651551 0.166646 0.797461
O O1 0.516844 0.699143 0.795226
O O2 0.591626 0.297113 0.856527
O O3 0.500000 0.500000 0.000000
O O4 0.250000 0.250000 0.657987
O O5 0.337369 0.250000 0.500000
O O6 0.356355 0.387696 0.732436
O O7 0.328515 0.885707 0.693763
O O8 0.703111 0.115694 0.903453
#
# Coordination Sequence:
#
# PCOD9396930 Si02
#       4
#     8   8   2   8
#     4  10  21  40  61  90 126 178 214 252 320 395
#     4  11  23  44  66  94 132 177 221 264 328 394
#     4  12  24  38  58 106 136 158 200 270 348 378
#     4  12  24  40  67  99 135 166 218 275 325 402
#
# _framework density 21.829281000000002
#
# number of rings (size 3 to 8) (size 9 to 14) (size 15 to 20)
#    0.000    0.923    3.077    4.615    0.000    7.385 
#    0.000    0.000    0.000   18.462    0.000    0.000 
#    0.000    0.000    0.000    0.000    0.000    0.000 
#
# Total GULP energy -144910.062383 kJ/mol
# GULP energy per Si atom -5573.463938 kJ/mol
# Density = 2.177960 g / cm^3
# Si number density = 21.829281 Si / 1000 Ang^3
#
#
#
# Elastic Constant Matrix: (Units=GPa)
#
#
# Indices 1 2 3 4 5 6 
#
# 1 135.5441 17.7236 28.9298 0.0000 0.0000 0.0000
# 2 17.7236 132.9432 11.5814 0.0000 0.0000 0.0000
# 3 28.9298 11.5814 83.2752 0.0000 0.0000 0.0000
# 4 0.0000 0.0000 0.0000 9.3153 0.0000 0.0000
# 5 0.0000 0.0000 0.0000 0.0000 16.5129 0.0000
# 6 0.0000 0.0000 0.0000 0.0000 0.0000 29.4061
#
#
#
# Elastic Compliance Matrix: (Units=1/GPa)
#
#
# Indices 1 2 3 4 5 6 
#
# 1 0.008060 -0.000841 -0.002683 0.000000 0.000000 0.000000
# 2 -0.000841 0.007702 -0.000779 0.000000 0.000000 0.000000
# 3 -0.002683 -0.000779 0.013049 0.000000 0.000000 0.000000
# 4 0.000000 0.000000 0.000000 0.107351 0.000000 0.000000
# 5 0.000000 0.000000 0.000000 0.000000 0.060559 0.000000
# 6 0.000000 0.000000 0.000000 0.000000 0.000000 0.034006
#
#
# Mechanical properties :
#
#
# Convention : Reuss Voigt Hill
#
# Bulk Modulus (GPa) = 49.49274 52.02580 50.75927
# Shear Modulus (GPa) = 20.31955 30.61536 25.46745
#
# Velocity S-wave (km/s) = 3.05428 3.74905 3.41935
# Velocity P-wave (km/s) = 5.92959 6.52880 6.23639
#
# Compressibility (1/GPa) = 0.02020498
#
# Stress axis : x y z
#
# Youngs Moduli (GPa) = 124.06465 129.83686 76.63494
#
# Poissons Ratio (x) = 0.10917 0.20563
# Poissons Ratio (y) = 0.10432 0.05970
# Poissons Ratio (z) = 0.33289 0.10115
#
# Static dielectric constant tensor:
#      x y z
#    x 1.854010 0.000000 0.000000 
#    y 0.000000 2.040360 0.000000 
#    z 0.000000 0.000000 1.944550 
# 
# From -- ./inp_files/7663.got.cif
#   From: 2010.05.17/outbox.cif.g08.bks.cpg/sg50_4_cif.got.tgz:7663.got - 2010.06.03 11:33:33.
