data_PCOD9396004
_publ_section_title
;
Structure prediction by ZEFSAII (Michael W. Deem and Ramdas Pophale) SiO2 
 PCOD9396004
Probable space group: P B A N
;
_chemical_formula_sum "Si O2"
_cell_formula_units_Z 44
_cell_length_a 5.023164
_cell_length_b 27.114493
_cell_length_c 14.292011
_cell_angle_alpha 90.000000
_cell_angle_beta 90.000000
_cell_angle_gamma 90.000000
_cell_volume 1946.579689
_symmetry_space_group_name_H-M "P B A N"
_symmetry_group_IT_number 50
_space_group.IT_coordinate_system_code '2'
_symmetry_cell_setting 'orthorhombic'
loop_
_space_group_symop_operation_xyz
x,y,z
1/2-x,1/2-y,z
x,1/2-y,-z
1/2-x,y,-z
-x,-y,-z
1/2+x,1/2+y,-z
-x,1/2+y,z
1/2+x,-y,z
loop_
_atom_site_type_symbol
_atom_site_label
_atom_site_fract_x
_atom_site_fract_y
_atom_site_fract_z
Si Si1 0.250000 0.463841 0.500000
Si Si2 0.750000 0.464012 0.000000
Si Si3 0.806234 0.963287 0.296496
Si Si4 0.250000 0.250000 0.000000
Si Si5 0.250000 0.750000 0.500000
Si Si6 0.538481 0.609718 0.133599
Si Si7 0.029439 0.830206 0.869675
Si Si8 0.509890 0.217558 0.682459
O O1 0.500000 0.500000 0.500000
O O2 0.278896 0.438715 0.600127
O O3 0.655820 0.428346 0.918002
O O4 0.500000 0.500000 0.000000
O O5 0.884888 0.919903 0.227034
O O6 0.532590 0.994145 0.285255
O O7 0.065661 0.216181 0.068360
O O8 0.407089 0.785633 0.427139
O O9 0.827832 0.626540 0.096777
O O10 0.342931 0.657244 0.129696
O O11 0.967890 0.824638 0.758269
O O12 0.250000 0.250000 0.681878
O O13 0.750000 0.250000 0.724406
#
# Coordination Sequence:
#
# PCOD9396004 Si02
#       8
#     4   4   8   2   2   8   8   8
#     4   8  16  30  56  89 116 161 216 245 288 387
#     4  12  24  43  68  91 128 177 226 265 330 414
#     4  10  19  37  63  90 125 173 211 255 322 390
#     4  12  28  48  72  88 124 186 220 272 356 392
#     4   8  22  36  74  92 130 164 238 260 326 404
#     4  12  25  42  61  99 131 163 214 287 332 382
#     4  12  26  43  67  95 133 167 225 281 334 404
#     4  10  20  41  65  98 121 172 222 272 321 407
#
# _framework density 22.603749000000001
#
# number of rings (size 3 to 8) (size 9 to 14) (size 15 to 20)
#    0.545    0.727    0.909    5.727    0.000    0.727 
#    0.000    1.818    0.000    0.000    0.000    0.000 
#    0.000    0.000    0.000    0.000    0.000    0.000 
#
# Total GULP energy -244985.936495 kJ/mol
# GULP energy per Si atom -5567.862193 kJ/mol
# Density = 2.255230 g / cm^3
# Si number density = 22.603749 Si / 1000 Ang^3
#
#
#
# Elastic Constant Matrix: (Units=GPa)
#
#
# Indices 1 2 3 4 5 6 
#
# 1 159.7630 24.7094 18.4261 0.0000 0.0000 0.0000
# 2 24.7094 62.6710 37.5763 0.0000 0.0000 0.0000
# 3 18.4261 37.5763 136.0474 0.0000 0.0000 0.0000
# 4 0.0000 0.0000 0.0000 -551.5194 0.0000 0.0000
# 5 0.0000 0.0000 0.0000 0.0000 40.8020 0.0000
# 6 0.0000 0.0000 0.0000 0.0000 0.0000 41.2764
#
#
#
# Elastic Compliance Matrix: (Units=1/GPa)
#
#
# Indices 1 2 3 4 5 6 
#
# 1 0.006671 -0.002503 -0.000212 0.000000 0.000000 0.000000
# 2 -0.002503 0.020062 -0.005202 0.000000 0.000000 0.000000
# 3 -0.000212 -0.005202 0.008816 0.000000 0.000000 0.000000
# 4 0.000000 0.000000 0.000000 -0.001813 0.000000 0.000000
# 5 0.000000 0.000000 0.000000 0.000000 0.024509 0.000000
# 6 0.000000 0.000000 0.000000 0.000000 0.000000 0.024227
#
#
# Mechanical properties :
#
#
# Convention : Reuss Voigt Hill
#
# Bulk Modulus (GPa) = 50.72405 57.76721 54.24563
# Shear Modulus (GPa) = 47.67461 -75.37022 -13.84780
#
# Velocity S-wave (km/s) = 4.59753 -5.78070 -2.47783
# Velocity P-wave (km/s) = 7.11845 4.35240 3.98302
#
# Compressibility (1/GPa) = 0.01971451
#
# Stress axis : x y z
#
# Youngs Moduli (GPa) = 149.90589 49.84469 113.43048
#
# Poissons Ratio (x) = 0.12476 0.02407
# Poissons Ratio (y) = 0.37520 0.59009
# Poissons Ratio (z) = 0.03181 0.25930
#
# Static dielectric constant tensor:
#      x y z
#    x 1.658910 0.000000 0.000000 
#    y 0.000000 1.338050 0.000000 
#    z 0.000000 0.000000 1.935330 
# 
# From -- ./inp_files/24060.got.cif
#   From: 2010.05.17/outbox.cif.g08.bks.cpg/sg50_13_cif.got.tgz:24060.got - 2010.06.03 11:33:33.
