data_PCOD9396611
_publ_section_title
;
Structure prediction by ZEFSAII (Michael W. Deem and Ramdas Pophale) SiO2 
 PCOD9396611
Probable space group: P B A N
;
_chemical_formula_sum "Si O2"
_cell_formula_units_Z 52
_cell_length_a 17.562909
_cell_length_b 18.425573
_cell_length_c 8.479292
_cell_angle_alpha 90.000000
_cell_angle_beta 90.000000
_cell_angle_gamma 90.000000
_cell_volume 2743.955379
_symmetry_space_group_name_H-M "P B A N"
_symmetry_group_IT_number 50
_space_group.IT_coordinate_system_code '2'
_symmetry_cell_setting 'orthorhombic'
loop_
_space_group_symop_operation_xyz
x,y,z
1/2-x,1/2-y,z
x,1/2-y,-z
1/2-x,y,-z
-x,-y,-z
1/2+x,1/2+y,-z
-x,1/2+y,z
1/2+x,-y,z
loop_
_atom_site_type_symbol
_atom_site_label
_atom_site_fract_x
_atom_site_fract_y
_atom_site_fract_z
Si Si1 0.993953 0.238748 0.687341
Si Si2 0.858169 0.824324 0.743930
Si Si3 0.583012 0.106108 0.187413
Si Si4 0.469512 0.039309 0.662885
Si Si5 0.250000 0.250000 0.500000
Si Si6 0.742769 0.335132 0.688634
Si Si7 0.599720 0.366576 0.180994
Si Si8 0.250000 0.250000 0.000000
O O1 0.993062 0.250000 0.500000
O O2 0.979910 0.156309 0.729993
O O3 0.926875 0.286710 0.763423
O O4 0.072000 0.268280 0.756524
O O5 0.902434 0.898552 0.686673
O O6 0.803847 0.800707 0.602711
O O7 0.804221 0.804500 0.895424
O O8 0.663533 0.129910 0.260733
O O9 0.560904 0.024623 0.226201
O O10 0.586599 0.122984 0.003153
O O11 0.544470 0.078964 0.727709
O O12 0.500000 0.000000 0.500000
O O13 0.750000 0.250000 0.733181
O O14 0.750000 0.339272 0.500000
O O15 0.813043 0.375424 0.770753
#
# Coordination Sequence:
#
# PCOD9396611 Si02
#       8
#     8   8   8   8   2   8   8   2
#     4  11  21  38  68  95 128 175 227 273 326 416
#     4  10  23  43  71  99 132 171 232 280 352 393
#     4  12  24  40  65  99 137 172 220 275 344 405
#     4  11  25  46  66  99 139 182 225 273 350 425
#     4  10  20  46  68 102 120 176 234 290 320 390
#     4  11  22  40  66  96 131 173 222 271 326 400
#     4  11  24  41  63  95 132 174 224 276 332 396
#     4  10  24  46  72  98 136 172 230 306 332 414
#
# _framework density 18.950745999999999
#
# number of rings (size 3 to 8) (size 9 to 14) (size 15 to 20)
#    0.000    1.077    2.308    5.077    4.308    0.615 
#    6.923    0.000    0.000    0.000    0.000    0.000 
#    0.000    0.000    0.000    0.000    0.000    0.000 
#
# Total GULP energy -289973.060131 kJ/mol
# GULP energy per Si atom -5576.405003 kJ/mol
# Density = 1.890761 g / cm^3
# Si number density = 18.950746 Si / 1000 Ang^3
#
#
#
# Elastic Constant Matrix: (Units=GPa)
#
#
# Indices 1 2 3 4 5 6 
#
# 1 89.5538 46.4467 21.7006 0.0000 0.0000 0.0000
# 2 46.4467 118.8822 30.0460 0.0000 0.0000 0.0000
# 3 21.7006 30.0460 105.9234 0.0000 0.0000 0.0000
# 4 0.0000 0.0000 0.0000 96.6540 0.0000 0.0000
# 5 0.0000 0.0000 0.0000 0.0000 18.3055 0.0000
# 6 0.0000 0.0000 0.0000 0.0000 0.0000 57.1964
#
#
#
# Elastic Compliance Matrix: (Units=1/GPa)
#
#
# Indices 1 2 3 4 5 6 
#
# 1 0.014205 -0.005186 -0.001439 0.000000 0.000000 0.000000
# 2 -0.005186 0.010955 -0.002045 0.000000 0.000000 0.000000
# 3 -0.001439 -0.002045 0.010316 0.000000 0.000000 0.000000
# 4 0.000000 0.000000 0.000000 0.010346 0.000000 0.000000
# 5 0.000000 0.000000 0.000000 0.000000 0.054628 0.000000
# 6 0.000000 0.000000 0.000000 0.000000 0.000000 0.017484
#
#
# Mechanical properties :
#
#
# Convention : Reuss Voigt Hill
#
# Bulk Modulus (GPa) = 55.14166 56.74956 55.94561
# Shear Modulus (GPa) = 35.38101 48.84225 42.11163
#
# Velocity S-wave (km/s) = 4.32557 5.08224 4.71910
# Velocity P-wave (km/s) = 7.35581 8.02806 7.69927
#
# Compressibility (1/GPa) = 0.01813511
#
# Stress axis : x y z
#
# Youngs Moduli (GPa) = 70.39805 91.28511 96.93992
#
# Poissons Ratio (x) = 0.47341 0.13951
# Poissons Ratio (y) = 0.36509 0.19823
# Poissons Ratio (z) = 0.10131 0.18667
#
# Static dielectric constant tensor:
#      x y z
#    x 1.581530 0.000000 0.000000 
#    y 0.000000 1.649500 0.000000 
#    z 0.000000 0.000000 1.666250 
# 
# From -- ./inp_files/14461.got.cif
#   From: 2010.05.17/outbox.cif.g08.bks.cpg/sg50_8_cif.got.tgz:14461.got - 2010.06.03 11:33:33.
