data_PCOD9396725
_publ_section_title
;
Structure prediction by ZEFSAII (Michael W. Deem and Ramdas Pophale) SiO2 
 PCOD9396725
Probable space group: P B A N
;
_chemical_formula_sum "Si O2"
_cell_formula_units_Z 34
_cell_length_a 9.165098
_cell_length_b 13.354624
_cell_length_c 12.446388
_cell_angle_alpha 90.000000
_cell_angle_beta 90.000000
_cell_angle_gamma 90.000000
_cell_volume 1523.393554
_symmetry_space_group_name_H-M "P B A N"
_symmetry_group_IT_number 50
_space_group.IT_coordinate_system_code '2'
_symmetry_cell_setting 'orthorhombic'
loop_
_space_group_symop_operation_xyz
x,y,z
1/2-x,1/2-y,z
x,1/2-y,-z
1/2-x,y,-z
-x,-y,-z
1/2+x,1/2+y,-z
-x,1/2+y,z
1/2+x,-y,z
loop_
_atom_site_type_symbol
_atom_site_label
_atom_site_fract_x
_atom_site_fract_y
_atom_site_fract_z
Si Si1 0.423330 0.893320 0.980451
Si Si2 0.024851 0.697787 0.606666
Si Si3 0.483644 0.636787 0.791790
Si Si4 0.750000 0.750000 0.500000
Si Si5 0.836986 0.446539 0.242391
O O1 0.425152 0.885664 0.851631
O O2 0.250000 0.896211 0.000000
O O3 0.483066 0.829766 0.082322
O O4 0.500000 0.000000 0.000000
O O5 0.087982 0.750000 0.500000
O O6 0.023197 0.777808 0.703006
O O7 0.108669 0.600763 0.646681
O O8 0.856835 0.682375 0.571706
O O9 0.617190 0.561383 0.771281
O O10 0.333580 0.573931 0.774984
#
# Coordination Sequence:
#
# PCOD9396725 Si02
#       5
#     8   8   8   2   8
#     4   8  16  33  53  86 117 147 183 226 278 336
#     4  10  23  41  58  79 114 148 196 241 286 329
#     4  10  21  36  62  87 118 152 188 232 283 342
#     4   8  24  44  58  78 116 150 190 256 278 336
#     4  10  21  36  62  87 118 152 188 232 283 342
#
# _framework density 22.318593
#
# number of rings (size 3 to 8) (size 9 to 14) (size 15 to 20)
#    0.706    1.882    0.000    0.706    3.294    3.765 
#    0.000    3.529    0.000    1.412    0.000    0.000 
#    0.000    0.000    0.000    0.000    0.000    0.000 
#
# Total GULP energy -189368.185909 kJ/mol
# GULP energy per Si atom -5569.652527 kJ/mol
# Density = 2.226780 g / cm^3
# Si number density = 22.318593 Si / 1000 Ang^3
#
#
#
# Elastic Constant Matrix: (Units=GPa)
#
#
# Indices 1 2 3 4 5 6 
#
# 1 60.8112 -4.3693 2.8713 0.0000 0.0000 0.0000
# 2 -4.3693 33.4388 17.9061 0.0000 0.0000 0.0000
# 3 2.8713 17.9061 121.8252 0.0000 0.0000 0.0000
# 4 0.0000 0.0000 0.0000 33.7403 0.0000 0.0000
# 5 0.0000 0.0000 0.0000 0.0000 27.6683 0.0000
# 6 0.0000 0.0000 0.0000 0.0000 0.0000 -6.5540
#
#
#
# Elastic Compliance Matrix: (Units=1/GPa)
#
#
# Indices 1 2 3 4 5 6 
#
# 1 0.016667 0.002592 -0.000774 0.000000 0.000000 0.000000
# 2 0.002592 0.032863 -0.004891 0.000000 0.000000 0.000000
# 3 -0.000774 -0.004891 0.008946 0.000000 0.000000 0.000000
# 4 0.000000 0.000000 0.000000 0.029638 0.000000 0.000000
# 5 0.000000 0.000000 0.000000 0.000000 0.036142 0.000000
# 6 0.000000 0.000000 0.000000 0.000000 0.000000 -0.152578
#
#
# Mechanical properties :
#
#
# Convention : Reuss Voigt Hill
#
# Bulk Modulus (GPa) = 19.10949 27.65462 23.38206
# Shear Modulus (GPa) = -1056.60299 24.28205 -516.16047
#
# Velocity S-wave (km/s) = -21.78178 3.30202 -15.22404
# Velocity P-wave (km/s) = 24.98027 5.19187 17.27800
#
# Compressibility (1/GPa) = 0.05233003
#
# Stress axis : x y z
#
# Youngs Moduli (GPa) = 59.99837 30.42899 111.78587
#
# Poissons Ratio (x) = -0.07888 0.08650
# Poissons Ratio (y) = -0.15553 0.54679
# Poissons Ratio (z) = 0.04643 0.14884
#
# Static dielectric constant tensor:
#      x y z
#    x 1.818940 0.000000 0.000000 
#    y 0.000000 1.818170 0.000000 
#    z 0.000000 0.000000 1.882740 
# 
# From -- ./inp_files/19961.got.cif
#   From: 2010.05.17/outbox.cif.g08.bks.cpg/sg50_10_cif.got.tgz:19961.got - 2010.06.03 11:33:33.
