data_PCOD9396434
_publ_section_title
;
Structure prediction by ZEFSAII (Michael W. Deem and Ramdas Pophale) SiO2 
 PCOD9396434
Probable space group: P B A N
;
_chemical_formula_sum "Si O2"
_cell_formula_units_Z 48
_cell_length_a 16.229176
_cell_length_b 20.108503
_cell_length_c 7.788845
_cell_angle_alpha 90.000000
_cell_angle_beta 90.000000
_cell_angle_gamma 90.000000
_cell_volume 2541.846215
_symmetry_space_group_name_H-M "P B A N"
_symmetry_group_IT_number 50
_space_group.IT_coordinate_system_code '2'
_symmetry_cell_setting 'orthorhombic'
loop_
_space_group_symop_operation_xyz
x,y,z
1/2-x,1/2-y,z
x,1/2-y,-z
1/2-x,y,-z
-x,-y,-z
1/2+x,1/2+y,-z
-x,1/2+y,z
1/2+x,-y,z
loop_
_atom_site_type_symbol
_atom_site_label
_atom_site_fract_x
_atom_site_fract_y
_atom_site_fract_z
Si Si1 0.742027 0.671154 0.693710
Si Si2 0.387083 0.088108 0.145986
Si Si3 0.046102 0.956552 0.317349
Si Si4 0.344242 0.945249 0.016865
Si Si5 0.963161 0.096207 0.320619
Si Si6 0.567774 0.816166 0.122574
O O1 0.750000 0.750000 0.680446
O O2 0.750000 0.643271 0.500000
O O3 0.816868 0.638622 0.796069
O O4 0.656514 0.667108 0.794899
O O5 0.451457 0.067668 0.292013
O O6 0.346180 0.023367 0.065758
O O7 0.445294 0.124114 0.009645
O O8 0.074121 0.921015 0.492513
O O9 0.105521 0.938396 0.160366
O O10 0.032788 0.036838 0.312541
O O11 0.394416 0.913360 0.174389
O O12 0.250000 0.922736 0.000000
O O13 0.004457 0.167960 0.278110
O O14 0.565006 0.750000 0.000000
#
# Coordination Sequence:
#
# PCOD9396434 Si02
#       6
#     8   8   8   8   8   8
#     4  11  23  34  48  80 120 161 199 232 276 349
#     4  11  20  37  55  81 118 158 192 234 287 352
#     4  10  20  38  60  81 114 153 195 247 289 347
#     4  11  21  37  60  84 114 146 192 251 301 350
#     4  10  21  38  58  83 114 153 196 241 296 346
#     4  12  21  35  57  80 116 158 198 236 290 355
#
# _framework density 18.883913
#
# number of rings (size 3 to 8) (size 9 to 14) (size 15 to 20)
#    0.000    1.167    5.000    3.500    0.000    0.667 
#    0.000    0.000    0.000    0.500    0.000    0.000 
#    5.000    0.000    0.000    0.000    0.000    0.000 
#
# Total GULP energy -267217.970501 kJ/mol
# GULP energy per Si atom -5567.041052 kJ/mol
# Density = 1.884093 g / cm^3
# Si number density = 18.883913 Si / 1000 Ang^3
#
#
#
# Elastic Constant Matrix: (Units=GPa)
#
#
# Indices 1 2 3 4 5 6 
#
# 1 108.5102 25.8750 62.3822 0.0000 0.0000 0.0000
# 2 25.8750 45.5207 20.9229 0.0000 0.0000 0.0000
# 3 62.3822 20.9229 147.8093 0.0000 0.0000 0.0000
# 4 0.0000 0.0000 0.0000 25.3215 0.0000 0.0000
# 5 0.0000 0.0000 0.0000 0.0000 33.2411 0.0000
# 6 0.0000 0.0000 0.0000 0.0000 0.0000 16.8295
#
#
#
# Elastic Compliance Matrix: (Units=1/GPa)
#
#
# Indices 1 2 3 4 5 6 
#
# 1 0.013270 -0.005315 -0.004848 0.000000 0.000000 0.000000
# 2 -0.005315 0.025625 -0.001384 0.000000 0.000000 0.000000
# 3 -0.004848 -0.001384 0.009008 0.000000 0.000000 0.000000
# 4 0.000000 0.000000 0.000000 0.039492 0.000000 0.000000
# 5 0.000000 0.000000 0.000000 0.000000 0.030083 0.000000
# 6 0.000000 0.000000 0.000000 0.000000 0.000000 0.059420
#
#
# Mechanical properties :
#
#
# Convention : Reuss Voigt Hill
#
# Bulk Modulus (GPa) = 40.30865 57.80006 49.05436
# Shear Modulus (GPa) = 24.00814 27.92240 25.96527
#
# Velocity S-wave (km/s) = 3.56947 3.84947 3.71211
# Velocity P-wave (km/s) = 6.19516 7.10158 6.66380
#
# Compressibility (1/GPa) = 0.02480857
#
# Stress axis : x y z
#
# Youngs Moduli (GPa) = 75.35585 39.02390 111.01651
#
# Poissons Ratio (x) = 0.20740 0.53825
# Poissons Ratio (y) = 0.40049 0.15368
# Poissons Ratio (z) = 0.36535 0.05402
#
# Static dielectric constant tensor:
#      x y z
#    x 1.667100 0.000000 0.000000 
#    y 0.000000 1.670740 0.000000 
#    z 0.000000 0.000000 1.780180 
# 
# From -- ./inp_files/12957.got.cif
#   From: 2010.05.17/outbox.cif.g08.bks.cpg/sg50_7_cif.got.tgz:12957.got - 2010.06.03 11:33:33.
