data_PCOD9396146
_publ_section_title
;
Structure prediction by ZEFSAII (Michael W. Deem and Ramdas Pophale) SiO2 
 PCOD9396146
Probable space group: P B A N
;
_chemical_formula_sum "Si O2"
_cell_formula_units_Z 38
_cell_length_a 8.182346
_cell_length_b 17.401853
_cell_length_c 14.298986
_cell_angle_alpha 90.000000
_cell_angle_beta 90.000000
_cell_angle_gamma 90.000000
_cell_volume 2036.003765
_symmetry_space_group_name_H-M "P B A N"
_symmetry_group_IT_number 50
_space_group.IT_coordinate_system_code '2'
_symmetry_cell_setting 'orthorhombic'
loop_
_space_group_symop_operation_xyz
x,y,z
1/2-x,1/2-y,z
x,1/2-y,-z
1/2-x,y,-z
-x,-y,-z
1/2+x,1/2+y,-z
-x,1/2+y,z
1/2+x,-y,z
loop_
_atom_site_type_symbol
_atom_site_label
_atom_site_fract_x
_atom_site_fract_y
_atom_site_fract_z
Si Si1 0.350160 0.454686 0.409422
Si Si2 0.250000 0.474989 0.000000
Si Si3 0.463747 0.091142 0.305053
Si Si4 0.750000 0.250000 0.000000
Si Si5 0.940127 0.168665 0.522057
Si Si6 0.441275 0.606238 0.091184
O O1 0.250000 0.487766 0.500000
O O2 0.448789 0.515725 0.348460
O O3 0.467938 0.394628 0.460516
O O4 0.222963 0.416005 0.338356
O O5 0.190275 0.536449 0.921336
O O6 0.403192 0.422067 0.970658
O O7 0.540953 0.157073 0.367983
O O8 0.497468 0.105068 0.197427
O O9 0.637439 0.311855 0.941399
O O10 0.016904 0.250000 0.500000
O O11 0.750000 0.168025 0.500000
#
# Coordination Sequence:
#
# PCOD9396146 Si02
#       6
#     8   4   8   2   8   8
#     4  10  20  34  54  82 114 146 182 230 271 318
#     4   9  20  40  64  85 116 146 190 243 302 348
#     4  11  20  34  58  82 107 144 192 223 268 337
#     4  10  24  42  60  86 126 148 184 250 320 350
#     4  10  21  36  52  76 116 153 181 225 278 322
#     4  10  21  40  62  88 114 152 191 244 297 360
#
# _framework density 18.664010999999999
#
# number of rings (size 3 to 8) (size 9 to 14) (size 15 to 20)
#    0.000    1.895    0.000    5.684    0.000    5.895 
#    0.000   10.526    0.000    0.000    0.000    0.000 
#    0.000    0.000    0.000    0.000    0.000    0.000 
#
# Total GULP energy -211732.755322 kJ/mol
# GULP energy per Si atom -5571.914614 kJ/mol
# Density = 1.862153 g / cm^3
# Si number density = 18.664011 Si / 1000 Ang^3
#
#
#
# Elastic Constant Matrix: (Units=GPa)
#
#
# Indices 1 2 3 4 5 6 
#
# 1 89.0564 37.8977 31.0761 0.0000 0.0000 0.0000
# 2 37.8977 116.6715 50.6707 0.0000 0.0000 0.0000
# 3 31.0761 50.6707 129.8067 0.0000 0.0000 0.0000
# 4 0.0000 0.0000 0.0000 -11.1252 0.0000 0.0000
# 5 0.0000 0.0000 0.0000 0.0000 26.9678 0.0000
# 6 0.0000 0.0000 0.0000 0.0000 0.0000 23.1530
#
#
#
# Elastic Compliance Matrix: (Units=1/GPa)
#
#
# Indices 1 2 3 4 5 6 
#
# 1 0.013375 -0.003557 -0.001814 0.000000 0.000000 0.000000
# 2 -0.003557 0.011267 -0.003546 0.000000 0.000000 0.000000
# 3 -0.001814 -0.003546 0.009522 0.000000 0.000000 0.000000
# 4 0.000000 0.000000 0.000000 -0.089886 0.000000 0.000000
# 5 0.000000 0.000000 0.000000 0.000000 0.037081 0.000000
# 6 0.000000 0.000000 0.000000 0.000000 0.000000 0.043191
#
#
# Mechanical properties :
#
#
# Convention : Reuss Voigt Hill
#
# Bulk Modulus (GPa) = 61.23596 63.86929 62.55263
# Shear Modulus (GPa) = 104.54059 22.19179 63.36619
#
# Velocity S-wave (km/s) = 7.49223 3.45195 5.83307
# Velocity P-wave (km/s) = 10.37909 7.08398 8.88561
#
# Compressibility (1/GPa) = 0.01633027
#
# Stress axis : x y z
#
# Youngs Moduli (GPa) = 74.76428 88.75710 105.01642
#
# Poissons Ratio (x) = 0.31571 0.19046
# Poissons Ratio (y) = 0.26594 0.37244
# Poissons Ratio (z) = 0.13559 0.31477
#
# Static dielectric constant tensor:
#      x y z
#    x 1.667260 0.000000 0.000000 
#    y 0.000000 1.693030 0.000000 
#    z 0.000000 0.000000 1.616970 
# 
# From -- ./inp_files/18785.got.cif
#   From: 2010.05.17/outbox.cif.g08.bks.cpg/sg50_10_cif.got.tgz:18785.got - 2010.06.03 11:33:33.
