data_PCOD9396936
_publ_section_title
;
Structure prediction by ZEFSAII (Michael W. Deem and Ramdas Pophale) SiO2 
 PCOD9396936
Probable space group: P B A N
;
_chemical_formula_sum "Si O2"
_cell_formula_units_Z 40
_cell_length_a 8.421889
_cell_length_b 25.447053
_cell_length_c 9.008512
_cell_angle_alpha 90.000000
_cell_angle_beta 90.000000
_cell_angle_gamma 90.000000
_cell_volume 1930.634528
_symmetry_space_group_name_H-M "P B A N"
_symmetry_group_IT_number 50
_space_group.IT_coordinate_system_code '2'
_symmetry_cell_setting 'orthorhombic'
loop_
_space_group_symop_operation_xyz
x,y,z
1/2-x,1/2-y,z
x,1/2-y,-z
1/2-x,y,-z
-x,-y,-z
1/2+x,1/2+y,-z
-x,1/2+y,z
1/2+x,-y,z
loop_
_atom_site_type_symbol
_atom_site_label
_atom_site_fract_x
_atom_site_fract_y
_atom_site_fract_z
Si Si1 0.940146 0.565569 0.650577
Si Si2 0.985256 0.828775 0.933485
Si Si3 0.250000 0.250000 0.500000
Si Si4 0.672838 0.675378 0.255627
Si Si5 0.750000 0.476542 0.500000
Si Si6 0.934753 0.442089 0.021634
Si Si7 0.750000 0.250000 0.000000
O O1 0.843815 0.619695 0.659880
O O2 0.818152 0.517277 0.624225
O O3 0.093082 0.556632 0.543565
O O4 0.020533 0.567462 0.809893
O O5 0.846146 0.816430 0.818038
O O6 0.135958 0.790841 0.911385
O O7 0.934820 0.819712 0.107006
O O8 0.006678 0.892093 0.926450
O O9 0.354808 0.284008 0.612724
O O10 0.750000 0.443520 0.000000
O O11 0.000000 0.500000 0.000000
#
# Coordination Sequence:
#
# PCOD9396936 Si02
#       7
#     8   8   2   8   4   8   2
#     4  10  22  40  62  94 132 175 224 261 334 403
#     4  10  23  42  68  94 132 172 218 281 340 404
#     4  12  22  42  64  90 116 162 222 270 328 396
#     4  10  23  43  64  94 124 173 219 274 336 398
#     4  10  21  40  62  90 132 188 209 264 328 406
#     4  11  23  38  62 102 132 167 219 276 332 398
#     4  12  20  42  64  98 120 170 228 268 336 406
#
# _framework density 20.718577
#
# number of rings (size 3 to 8) (size 9 to 14) (size 15 to 20)
#    0.000    1.600    1.000    3.000    8.400    1.600 
#    3.600    2.000    0.000    5.400    0.000    0.000 
#    0.000    0.000    0.000    0.000    0.000    0.000 
#
# Total GULP energy -222823.740525 kJ/mol
# GULP energy per Si atom -5570.593513 kJ/mol
# Density = 2.067142 g / cm^3
# Si number density = 20.718577 Si / 1000 Ang^3
#
#
#
# Elastic Constant Matrix: (Units=GPa)
#
#
# Indices 1 2 3 4 5 6 
#
# 1 90.1302 32.3721 27.4626 0.0000 0.0000 0.0000
# 2 32.3721 124.6424 46.6906 0.0000 0.0000 0.0000
# 3 27.4626 46.6906 73.8946 0.0000 0.0000 0.0000
# 4 0.0000 0.0000 0.0000 34.3798 0.0000 0.0000
# 5 0.0000 0.0000 0.0000 0.0000 21.8582 0.0000
# 6 0.0000 0.0000 0.0000 0.0000 0.0000 43.6958
#
#
#
# Elastic Compliance Matrix: (Units=1/GPa)
#
#
# Indices 1 2 3 4 5 6 
#
# 1 0.012894 -0.002036 -0.003506 0.000000 0.000000 0.000000
# 2 -0.002036 0.010832 -0.006088 0.000000 0.000000 0.000000
# 3 -0.003506 -0.006088 0.018682 0.000000 0.000000 0.000000
# 4 0.000000 0.000000 0.000000 0.029087 0.000000 0.000000
# 5 0.000000 0.000000 0.000000 0.000000 0.045749 0.000000
# 6 0.000000 0.000000 0.000000 0.000000 0.000000 0.022885
#
#
# Mechanical properties :
#
#
# Convention : Reuss Voigt Hill
#
# Bulk Modulus (GPa) = 52.21878 55.74643 53.98260
# Shear Modulus (GPa) = 29.45111 32.12954 30.79032
#
# Velocity S-wave (km/s) = 3.77435 3.94224 3.85921
# Velocity P-wave (km/s) = 6.65228 6.90555 6.78010
#
# Compressibility (1/GPa) = 0.01915020
#
# Stress axis : x y z
#
# Youngs Moduli (GPa) = 77.55274 92.31814 53.52643
#
# Poissons Ratio (x) = 0.18793 0.18766
# Poissons Ratio (y) = 0.15787 0.32586
# Poissons Ratio (z) = 0.27190 0.56201
#
# Static dielectric constant tensor:
#      x y z
#    x 1.773470 0.000000 0.000000 
#    y 0.000000 1.592610 0.000000 
#    z 0.000000 0.000000 1.774240 
# 
# From -- ./inp_files/9845.got.cif
#   From: 2010.05.17/outbox.cif.g08.bks.cpg/sg50_5_cif.got.tgz:9845.got - 2010.06.03 11:33:33.
