data_PCOD9396194
_publ_section_title
;
Structure prediction by ZEFSAII (Michael W. Deem and Ramdas Pophale) SiO2 
 PCOD9396194
Probable space group: P B A N
;
_chemical_formula_sum "Si O2"
_cell_formula_units_Z 34
_cell_length_a 9.009826
_cell_length_b 23.892590
_cell_length_c 7.678062
_cell_angle_alpha 90.000000
_cell_angle_beta 90.000000
_cell_angle_gamma 90.000000
_cell_volume 1652.841654
_symmetry_space_group_name_H-M "P B A N"
_symmetry_group_IT_number 50
_space_group.IT_coordinate_system_code '2'
_symmetry_cell_setting 'orthorhombic'
loop_
_space_group_symop_operation_xyz
x,y,z
1/2-x,1/2-y,z
x,1/2-y,-z
1/2-x,y,-z
-x,-y,-z
1/2+x,1/2+y,-z
-x,1/2+y,z
1/2+x,-y,z
loop_
_atom_site_type_symbol
_atom_site_label
_atom_site_fract_x
_atom_site_fract_y
_atom_site_fract_z
Si Si1 0.495429 0.827388 0.655376
Si Si2 0.508786 0.077669 0.638006
Si Si3 0.750000 0.750000 0.500000
Si Si4 0.750000 0.750000 0.000000
Si Si5 0.588989 0.856671 0.035566
Si Si6 0.750000 0.250000 0.500000
Si Si7 0.750000 0.997537 0.500000
O O1 0.487229 0.878637 0.521204
O O2 0.641189 0.790891 0.608040
O O3 0.508237 0.848900 0.852074
O O4 0.354581 0.788458 0.618801
O O5 0.360976 0.040902 0.610663
O O6 0.648422 0.036828 0.620533
O O7 0.499072 0.111747 0.816438
O O8 0.640474 0.793992 0.094531
O O9 0.750000 0.884947 0.000000
#
# Coordination Sequence:
#
# PCOD9396194 Si02
#       7
#     8   8   2   2   8   2   4
#     4  11  22  41  64  99 135 178 214 267 324 408
#     4  11  23  44  68  92 130 170 227 278 333 377
#     4  10  20  34  70  98 140 180 224 258 314 398
#     4   8  22  36  62 112 128 162 222 262 322 400
#     4  10  21  38  67 101 130 169 219 270 316 402
#     4  10  26  38  62 104 148 176 202 250 354 400
#     4  10  24  46  68  92 126 176 228 292 326 374
#
# _framework density 20.570633000000001
#
# number of rings (size 3 to 8) (size 9 to 14) (size 15 to 20)
#    0.706    0.941    0.000    4.941    6.588    0.000 
#    0.000   18.824    0.000    5.647    0.000    0.000 
#    0.000    0.000    0.000    0.000    0.000    0.000 
#
# Total GULP energy -189987.892875 kJ/mol
# GULP energy per Si atom -5587.879202 kJ/mol
# Density = 2.052381 g / cm^3
# Si number density = 20.570633 Si / 1000 Ang^3
#
#
#
# Elastic Constant Matrix: (Units=GPa)
#
#
# Indices 1 2 3 4 5 6 
#
# 1 130.5245 64.3670 69.3831 0.0000 0.0000 0.0000
# 2 64.3670 128.2959 83.1101 0.0000 0.0000 0.0000
# 3 69.3831 83.1101 183.1679 0.0000 0.0000 0.0000
# 4 0.0000 0.0000 0.0000 86.6696 0.0000 0.0000
# 5 0.0000 0.0000 0.0000 0.0000 -6.0207 0.0000
# 6 0.0000 0.0000 0.0000 0.0000 0.0000 5.6050
#
#
#
# Elastic Compliance Matrix: (Units=1/GPa)
#
#
# Indices 1 2 3 4 5 6 
#
# 1 0.010834 -0.003933 -0.002319 0.000000 0.000000 0.000000
# 2 -0.003933 0.012467 -0.004167 0.000000 0.000000 0.000000
# 3 -0.002319 -0.004167 0.008229 0.000000 0.000000 0.000000
# 4 0.000000 0.000000 0.000000 0.011538 0.000000 0.000000
# 5 0.000000 0.000000 0.000000 0.000000 -0.166095 0.000000
# 6 0.000000 0.000000 0.000000 0.000000 0.000000 0.178411
#
#
# Mechanical properties :
#
#
# Convention : Reuss Voigt Hill
#
# Bulk Modulus (GPa) = 93.53545 97.30097 95.41821
# Shear Modulus (GPa) = 62.66738 32.25934 47.46336
#
# Velocity S-wave (km/s) = 5.52545 3.96438 4.80868
# Velocity P-wave (km/s) = 9.28852 8.26793 8.79304
#
# Compressibility (1/GPa) = 0.01069113
#
# Stress axis : x y z
#
# Youngs Moduli (GPa) = 92.30416 80.21149 121.52597
#
# Poissons Ratio (x) = 0.31547 0.28185
# Poissons Ratio (y) = 0.36303 0.50640
# Poissons Ratio (z) = 0.21407 0.33424
#
# Static dielectric constant tensor:
#      x y z
#    x 1.753690 0.000000 0.000000 
#    y 0.000000 1.737990 0.000000 
#    z 0.000000 0.000000 1.751530 
# 
# From -- ./inp_files/9329.got.cif
#   From: 2010.05.17/outbox.cif.g08.bks.cpg/sg50_5_cif.got.tgz:9329.got - 2010.06.03 11:33:33.
