data_PCOD9396688
_publ_section_title
;
Structure prediction by ZEFSAII (Michael W. Deem and Ramdas Pophale) SiO2 
 PCOD9396688
Probable space group: P B A N
;
_chemical_formula_sum "Si O2"
_cell_formula_units_Z 58
_cell_length_a 30.430977
_cell_length_b 5.047665
_cell_length_c 18.407743
_cell_angle_alpha 90.000000
_cell_angle_beta 90.000000
_cell_angle_gamma 90.000000
_cell_volume 2827.528313
_symmetry_space_group_name_H-M "P B A N"
_symmetry_group_IT_number 50
_space_group.IT_coordinate_system_code '2'
_symmetry_cell_setting 'orthorhombic'
loop_
_space_group_symop_operation_xyz
x,y,z
1/2-x,1/2-y,z
x,1/2-y,-z
1/2-x,y,-z
-x,-y,-z
1/2+x,1/2+y,-z
-x,1/2+y,z
1/2+x,-y,z
loop_
_atom_site_type_symbol
_atom_site_label
_atom_site_fract_x
_atom_site_fract_y
_atom_site_fract_z
Si Si1 0.823659 0.087684 0.426102
Si Si2 0.798103 0.345394 0.118477
Si Si3 0.649384 0.830651 0.922382
Si Si4 0.887767 0.777492 0.230848
Si Si5 0.422239 0.492928 0.550844
Si Si6 0.472648 0.527588 0.700360
Si Si7 0.250000 0.250000 0.500000
Si Si8 0.834759 0.287047 0.273558
O O1 0.827960 0.250000 0.500000
O O2 0.816622 0.267980 0.355038
O O3 0.872082 0.955477 0.419311
O O4 0.782588 0.904877 0.445529
O O5 0.750000 0.250000 0.099041
O O6 0.809408 0.632495 0.087836
O O7 0.803332 0.360323 0.206340
O O8 0.833328 0.129922 0.088455
O O9 0.617657 0.756823 0.855699
O O10 0.630218 0.750000 0.000000
O O11 0.933630 0.906668 0.251884
O O12 0.874627 0.498855 0.267746
O O13 0.851522 0.992121 0.255819
O O14 0.433716 0.250000 0.500000
O O15 0.454792 0.510111 0.618239
O O16 0.423952 0.750000 0.500000
O O17 0.486497 0.829873 0.712552
#
# Coordination Sequence:
#
# PCOD9396688 Si02
#       8
#     8   8   8   8   8   8   2   8
#     4  11  25  41  62  87 120 167 215 267 311 361
#     4  10  21  36  55  91 124 157 203 256 306 351
#     4  10  21  38  62  88 119 163 202 239 299 375
#     4  10  22  42  64  90 119 157 200 247 297 373
#     4  11  24  41  64  87 122 165 201 253 317 369
#     4  12  25  40  65  95 123 157 201 253 312 371
#     4  12  26  44  56  98 116 160 236 268 318 340
#     4  10  22  40  64  81 118 166 211 246 306 366
#
# _framework density 20.512616000000001
#
# number of rings (size 3 to 8) (size 9 to 14) (size 15 to 20)
#    0.000    1.379    2.069    2.690    5.793    4.414 
#    4.966    0.000    0.000    0.828    0.000    0.000 
#    0.000    0.000    0.000    0.000    0.000    0.000 
#
# Total GULP energy -324058.994629 kJ/mol
# GULP energy per Si atom -5587.224045 kJ/mol
# Density = 2.046593 g / cm^3
# Si number density = 20.512616 Si / 1000 Ang^3
#
#
#
# Elastic Constant Matrix: (Units=GPa)
#
#
# Indices 1 2 3 4 5 6 
#
# 1 43.6251 3.0446 10.8647 0.0000 0.0000 0.0000
# 2 3.0446 71.3037 22.2707 0.0000 0.0000 0.0000
# 3 10.8647 22.2707 139.0311 0.0000 0.0000 0.0000
# 4 0.0000 0.0000 0.0000 22.9210 0.0000 0.0000
# 5 0.0000 0.0000 0.0000 0.0000 204.5970 0.0000
# 6 0.0000 0.0000 0.0000 0.0000 0.0000 149.6735
#
#
#
# Elastic Compliance Matrix: (Units=1/GPa)
#
#
# Indices 1 2 3 4 5 6 
#
# 1 0.023391 -0.000450 -0.001756 0.000000 0.000000 0.000000
# 2 -0.000450 0.014772 -0.002331 0.000000 0.000000 0.000000
# 3 -0.001756 -0.002331 0.007703 0.000000 0.000000 0.000000
# 4 0.000000 0.000000 0.000000 0.043628 0.000000 0.000000
# 5 0.000000 0.000000 0.000000 0.000000 0.004888 0.000000
# 6 0.000000 0.000000 0.000000 0.000000 0.000000 0.006681
#
#
# Mechanical properties :
#
#
# Convention : Reuss Voigt Hill
#
# Bulk Modulus (GPa) = 27.17988 36.25777 31.71883
# Shear Modulus (GPa) = 40.84911 89.95698 65.40305
#
# Velocity S-wave (km/s) = 4.46737 6.62945 5.65274
# Velocity P-wave (km/s) = 6.31577 8.73578 7.62242
#
# Compressibility (1/GPa) = 0.03679192
#
# Stress axis : x y z
#
# Youngs Moduli (GPa) = 42.75100 67.69647 129.81550
#
# Poissons Ratio (x) = 0.03049 0.22793
# Poissons Ratio (y) = 0.01925 0.30260
# Poissons Ratio (z) = 0.07506 0.15780
#
# Static dielectric constant tensor:
#      x y z
#    x 1.762880 0.000000 0.000000 
#    y 0.000000 1.716860 0.000000 
#    z 0.000000 0.000000 1.880070 
# 
# From -- ./inp_files/30044.got.cif
#   From: 2010.05.17/outbox.cif.g08.bks.cpg/sg50_16_cif.got.tgz:30044.got - 2010.06.03 11:33:33.
