data_PCOD9396978
_publ_section_title
;
Structure prediction by ZEFSAII (Michael W. Deem and Ramdas Pophale) SiO2 
 PCOD9396978
Probable space group: P B A N
;
_chemical_formula_sum "Si O2"
_cell_formula_units_Z 28
_cell_length_a 22.301026
_cell_length_b 5.614115
_cell_length_c 10.658921
_cell_angle_alpha 90.000000
_cell_angle_beta 90.000000
_cell_angle_gamma 90.000000
_cell_volume 1334.502501
_symmetry_space_group_name_H-M "P B A N"
_symmetry_group_IT_number 50
_space_group.IT_coordinate_system_code '2'
_symmetry_cell_setting 'orthorhombic'
loop_
_space_group_symop_operation_xyz
x,y,z
1/2-x,1/2-y,z
x,1/2-y,-z
1/2-x,y,-z
-x,-y,-z
1/2+x,1/2+y,-z
-x,1/2+y,z
1/2+x,-y,z
loop_
_atom_site_type_symbol
_atom_site_label
_atom_site_fract_x
_atom_site_fract_y
_atom_site_fract_z
Si Si1 0.643960 0.554994 0.890613
Si Si2 0.816496 0.642803 0.372305
Si Si3 0.250000 0.750000 0.500000
Si Si4 0.250000 0.750000 0.000000
Si Si5 0.521326 0.288425 0.857924
O O1 0.648537 0.677497 0.754920
O O2 0.705718 0.416469 0.919393
O O3 0.590239 0.365857 0.875191
O O4 0.635403 0.750000 0.000000
O O5 0.750000 0.750000 0.357453
O O6 0.843731 0.750000 0.500000
O O7 0.797037 0.377378 0.407307
O O8 0.489653 0.525214 0.800624
O O9 0.496744 0.250000 0.000000
#
# Coordination Sequence:
#
# PCOD9396978 Si02
#       5
#     8   8   2   2   8
#     4  12  23  37  58  91 128 151 198 265 313 370
#     4   9  19  36  55  79 116 164 200 240 297 388
#     4   8  16  36  56  76 110 168 214 226 278 396
#     4  12  24  32  52 100 122 156 174 268 328 368
#     4  10  21  41  63  88 121 168 216 252 306 374
#
# _framework density 20.981601999999999
#
# number of rings (size 3 to 8) (size 9 to 14) (size 15 to 20)
#    0.000    2.000    1.429    5.571    0.000    2.286 
#    0.000    0.000    0.000    1.714    0.000    0.000 
#    0.000    0.000    0.000    0.000    0.000    0.000 
#
# Total GULP energy -155921.252673 kJ/mol
# GULP energy per Si atom -5568.616167 kJ/mol
# Density = 2.093385 g / cm^3
# Si number density = 20.981602 Si / 1000 Ang^3
#
#
#
# Elastic Constant Matrix: (Units=GPa)
#
#
# Indices 1 2 3 4 5 6 
#
# 1 114.9269 42.5839 23.1515 0.0000 0.0000 0.0000
# 2 42.5839 110.6242 33.6923 0.0000 0.0000 0.0000
# 3 23.1515 33.6923 139.3722 0.0000 0.0000 0.0000
# 4 0.0000 0.0000 0.0000 52.9135 0.0000 0.0000
# 5 0.0000 0.0000 0.0000 0.0000 -7.9314 0.0000
# 6 0.0000 0.0000 0.0000 0.0000 0.0000 12.8220
#
#
#
# Elastic Compliance Matrix: (Units=1/GPa)
#
#
# Indices 1 2 3 4 5 6 
#
# 1 0.010232 -0.003693 -0.000807 0.000000 0.000000 0.000000
# 2 -0.003693 0.011091 -0.002068 0.000000 0.000000 0.000000
# 3 -0.000807 -0.002068 0.007809 0.000000 0.000000 0.000000
# 4 0.000000 0.000000 0.000000 0.018899 0.000000 0.000000
# 5 0.000000 0.000000 0.000000 0.000000 -0.126081 0.000000
# 6 0.000000 0.000000 0.000000 0.000000 0.000000 0.077991
#
#
# Mechanical properties :
#
#
# Convention : Reuss Voigt Hill
#
# Bulk Modulus (GPa) = 62.51284 62.64207 62.57745
# Shear Modulus (GPa) = 271.62265 29.26053 150.44159
#
# Velocity S-wave (km/s) = 11.39028 3.73846 8.47687
# Velocity P-wave (km/s) = 14.24232 6.96816 11.21158
#
# Compressibility (1/GPa) = 0.01599671
#
# Stress axis : x y z
#
# Youngs Moduli (GPa) = 97.73156 90.16349 128.05855
#
# Poissons Ratio (x) = 0.33297 0.10333
# Poissons Ratio (y) = 0.36092 0.26479
# Poissons Ratio (z) = 0.07886 0.18643
#
# Static dielectric constant tensor:
#      x y z
#    x 1.755940 0.000000 0.000000 
#    y 0.000000 1.381560 0.000000 
#    z 0.000000 0.000000 1.742710 
# 
# From -- ./inp_files/22079.got.cif
#   From: 2010.05.17/outbox.cif.g08.bks.cpg/sg50_12_cif.got.tgz:22079.got - 2010.06.03 11:33:33.
