data_PCOD9396327
_publ_section_title
;
Structure prediction by ZEFSAII (Michael W. Deem and Ramdas Pophale) SiO2 
 PCOD9396327
Probable space group: P B A N
;
_chemical_formula_sum "Si O2"
_cell_formula_units_Z 52
_cell_length_a 18.572538
_cell_length_b 22.575049
_cell_length_c 5.896885
_cell_angle_alpha 90.000000
_cell_angle_beta 90.000000
_cell_angle_gamma 90.000000
_cell_volume 2472.422092
_symmetry_space_group_name_H-M "P B A N"
_symmetry_group_IT_number 50
_space_group.IT_coordinate_system_code '2'
_symmetry_cell_setting 'orthorhombic'
loop_
_space_group_symop_operation_xyz
x,y,z
1/2-x,1/2-y,z
x,1/2-y,-z
1/2-x,y,-z
-x,-y,-z
1/2+x,1/2+y,-z
-x,1/2+y,z
1/2+x,-y,z
loop_
_atom_site_type_symbol
_atom_site_label
_atom_site_fract_x
_atom_site_fract_y
_atom_site_fract_z
Si Si1 0.250000 0.526447 0.000000
Si Si2 0.034568 0.592051 0.924074
Si Si3 0.432226 0.819584 0.531197
Si Si4 0.571488 0.632067 0.733897
Si Si5 0.616907 0.506350 0.704730
Si Si6 0.775511 0.681808 0.249380
Si Si7 0.847511 0.086249 0.319997
O O1 0.318724 0.491671 0.105649
O O2 0.225251 0.570690 0.196719
O O3 0.057641 0.648642 0.773945
O O4 0.046889 0.530488 0.791950
O O5 0.089856 0.584351 0.131108
O O6 0.957150 0.607544 0.024693
O O7 0.427319 0.750000 0.500000
O O8 0.503985 0.839760 0.394264
O O9 0.360964 0.850892 0.433503
O O10 0.598063 0.571391 0.619641
O O11 0.638325 0.675717 0.751728
O O12 0.641996 0.465371 0.500497
O O13 0.750000 0.750000 0.249642
O O14 0.750000 0.657184 0.500000
O O15 0.750000 0.656880 0.000000
#
# Coordination Sequence:
#
# PCOD9396327 Si02
#       7
#     4   8   8   8   8   8   8
#     4  10  20  36  64  83 127 164 200 262 336 402
#     4   9  21  40  63  91 123 160 211 277 338 395
#     4  10  23  39  64  92 125 165 218 270 329 399
#     4  11  24  37  65  90 127 173 221 276 336 400
#     4  10  21  38  61  94 127 161 217 269 339 406
#     4  10  25  44  62  87 131 181 233 284 331 402
#     4   9  20  39  61  92 123 162 205 268 329 402
#
# _framework density 21.032008999999999
#
# number of rings (size 3 to 8) (size 9 to 14) (size 15 to 20)
#    0.000    2.154    0.000    0.923    5.385   12.923 
#    0.000    0.000    0.000   26.769    0.000    0.000 
#    0.000    0.000    0.000    0.000    0.000    0.000 
#
# Total GULP energy -289786.844801 kJ/mol
# GULP energy per Si atom -5572.823938 kJ/mol
# Density = 2.098414 g / cm^3
# Si number density = 21.032009 Si / 1000 Ang^3
#
#
#
# Elastic Constant Matrix: (Units=GPa)
#
#
# Indices 1 2 3 4 5 6 
#
# 1 39.0220 4.7522 -1.7282 0.0000 0.0000 0.0000
# 2 4.7522 127.2035 -0.6584 0.0000 0.0000 0.0000
# 3 -1.7282 -0.6584 77.2540 0.0000 0.0000 0.0000
# 4 0.0000 0.0000 0.0000 7.6174 0.0000 0.0000
# 5 0.0000 0.0000 0.0000 0.0000 31.0469 0.0000
# 6 0.0000 0.0000 0.0000 0.0000 0.0000 15.5290
#
#
#
# Elastic Compliance Matrix: (Units=1/GPa)
#
#
# Indices 1 2 3 4 5 6 
#
# 1 0.025769 -0.000960 0.000568 0.000000 0.000000 0.000000
# 2 -0.000960 0.007898 0.000046 0.000000 0.000000 0.000000
# 3 0.000568 0.000046 0.012957 0.000000 0.000000 0.000000
# 4 0.000000 0.000000 0.000000 0.131279 0.000000 0.000000
# 5 0.000000 0.000000 0.000000 0.000000 0.032209 0.000000
# 6 0.000000 0.000000 0.000000 0.000000 0.000000 0.064396
#
#
# Mechanical properties :
#
#
# Convention : Reuss Voigt Hill
#
# Bulk Modulus (GPa) = 21.77120 27.57898 24.67509
# Shear Modulus (GPa) = 17.21116 26.91291 22.06204
#
# Velocity S-wave (km/s) = 2.86375 3.58105 3.24230
# Velocity P-wave (km/s) = 4.61614 5.49908 5.07684
#
# Compressibility (1/GPa) = 0.04593223
#
# Stress axis : x y z
#
# Youngs Moduli (GPa) = 38.80692 126.62219 77.17591
#
# Poissons Ratio (x) = 0.12152 -0.04386
# Poissons Ratio (y) = 0.03724 -0.00354
# Poissons Ratio (z) = -0.02205 -0.00580
#
# Static dielectric constant tensor:
#      x y z
#    x 1.770740 0.000000 0.000000 
#    y 0.000000 1.735770 0.000000 
#    z 0.000000 0.000000 1.854840 
# 
# From -- ./inp_files/5338.got.cif
#   From: 2010.05.17/outbox.cif.g08.bks.cpg/sg50_3_cif.got.tgz:5338.got - 2010.06.03 11:33:33.
