data_PCOD9396048
_publ_section_title
;
Structure prediction by ZEFSAII (Michael W. Deem and Ramdas Pophale) SiO2 
 PCOD9396048
Probable space group: P B A N
;
_chemical_formula_sum "Si O2"
_cell_formula_units_Z 46
_cell_length_a 14.254070
_cell_length_b 23.524784
_cell_length_c 5.715036
_cell_angle_alpha 90.000000
_cell_angle_beta 90.000000
_cell_angle_gamma 90.000000
_cell_volume 1916.388262
_symmetry_space_group_name_H-M "P B A N"
_symmetry_group_IT_number 50
_space_group.IT_coordinate_system_code '2'
_symmetry_cell_setting 'orthorhombic'
loop_
_space_group_symop_operation_xyz
x,y,z
1/2-x,1/2-y,z
x,1/2-y,-z
1/2-x,y,-z
-x,-y,-z
1/2+x,1/2+y,-z
-x,1/2+y,z
1/2+x,-y,z
loop_
_atom_site_type_symbol
_atom_site_label
_atom_site_fract_x
_atom_site_fract_y
_atom_site_fract_z
Si Si1 0.250000 0.750000 0.500000
Si Si2 0.250000 0.862436 0.000000
Si Si3 0.073603 0.920743 0.166870
Si Si4 0.097627 0.721221 0.220970
Si Si5 0.250000 0.150292 0.500000
Si Si6 0.750000 0.581980 0.000000
Si Si7 0.064190 0.042288 0.219248
Si Si8 0.950595 0.846711 0.473776
O O1 0.168212 0.770294 0.322656
O O2 0.180214 0.900584 0.154166
O O3 0.324924 0.826103 0.151965
O O4 0.006551 0.868937 0.246795
O O5 0.067060 0.978476 0.317381
O O6 0.030447 0.942767 0.922358
O O7 0.021361 0.691889 0.379971
O O8 0.050697 0.750000 0.000000
O O9 0.244188 0.116481 0.752614
O O10 0.150839 0.182191 0.521965
O O11 0.846625 0.547644 0.041339
O O12 0.071873 0.092991 0.402518
#
# Coordination Sequence:
#
# PCOD9396048 Si02
#       8
#     2   4   8   8   4   4   8   8
#     4  12  22  44  68  98 132 176 232 284 372 436
#     4  12  22  44  62 101 144 175 227 296 357 434
#     4  11  22  38  62  97 142 183 233 286 354 434
#     4  12  25  43  69 101 138 180 238 298 367 434
#     4  10  22  40  70  98 134 180 239 292 361 428
#     4  10  19  40  62  99 131 191 241 290 347 426
#     4  10  21  38  62  95 141 185 238 285 352 427
#     4  11  23  42  67 101 134 187 233 294 357 431
#
# _framework density 24.003484
#
# number of rings (size 3 to 8) (size 9 to 14) (size 15 to 20)
#    0.000    1.043    5.217    2.087    0.000    0.000 
#    0.000    1.739    0.000    0.522    4.522    0.000 
#    0.000    0.000    0.000    0.000    0.000    0.000 
#
# Total GULP energy -256147.966876 kJ/mol
# GULP energy per Si atom -5568.434063 kJ/mol
# Density = 2.394885 g / cm^3
# Si number density = 24.003484 Si / 1000 Ang^3
#
#
#
# Elastic Constant Matrix: (Units=GPa)
#
#
# Indices 1 2 3 4 5 6 
#
# 1 194.4786 56.9113 36.5070 0.0000 0.0000 0.0000
# 2 56.9113 107.6889 32.1935 0.0000 0.0000 0.0000
# 3 36.5070 32.1935 66.2546 0.0000 0.0000 0.0000
# 4 0.0000 0.0000 0.0000 27.2579 0.0000 0.0000
# 5 0.0000 0.0000 0.0000 0.0000 43.0649 0.0000
# 6 0.0000 0.0000 0.0000 0.0000 0.0000 40.2814
#
#
#
# Elastic Compliance Matrix: (Units=1/GPa)
#
#
# Indices 1 2 3 4 5 6 
#
# 1 0.006341 -0.002699 -0.002183 0.000000 0.000000 0.000000
# 2 -0.002699 0.012013 -0.004350 0.000000 0.000000 0.000000
# 3 -0.002183 -0.004350 0.018410 0.000000 0.000000 0.000000
# 4 0.000000 0.000000 0.000000 0.036687 0.000000 0.000000
# 5 0.000000 0.000000 0.000000 0.000000 0.023221 0.000000
# 6 0.000000 0.000000 0.000000 0.000000 0.000000 0.024825
#
#
# Mechanical properties :
#
#
# Convention : Reuss Voigt Hill
#
# Bulk Modulus (GPa) = 54.64284 68.84954 61.74619
# Shear Modulus (GPa) = 34.23248 38.30819 36.27034
#
# Velocity S-wave (km/s) = 3.78053 3.99926 3.89143
# Velocity P-wave (km/s) = 6.47074 7.07608 6.78017
#
# Compressibility (1/GPa) = 0.01830066
#
# Stress axis : x y z
#
# Youngs Moduli (GPa) = 157.69217 83.24547 54.31900
#
# Poissons Ratio (x) = 0.22466 0.11857
# Poissons Ratio (y) = 0.42557 0.23629
# Poissons Ratio (z) = 0.34422 0.36212
#
# Static dielectric constant tensor:
#      x y z
#    x 1.963020 0.000000 0.000000 
#    y 0.000000 2.004450 0.000000 
#    z 0.000000 0.000000 2.190790 
# 
# From -- ./inp_files/3538.got.cif
#   From: 2010.05.17/outbox.cif.g08.bks.cpg/sg50_2_cif.got.tgz:3538.got - 2010.06.03 11:33:33.
