data_PCOD9396691
_publ_section_title
;
Structure prediction by ZEFSAII (Michael W. Deem and Ramdas Pophale) SiO2 
 PCOD9396691
Probable space group: P B A N
;
_chemical_formula_sum "Si O2"
_cell_formula_units_Z 58
_cell_length_a 16.818450
_cell_length_b 9.829154
_cell_length_c 17.943584
_cell_angle_alpha 90.000000
_cell_angle_beta 90.000000
_cell_angle_gamma 90.000000
_cell_volume 2966.274239
_symmetry_space_group_name_H-M "P B A N"
_symmetry_group_IT_number 50
_space_group.IT_coordinate_system_code '2'
_symmetry_cell_setting 'orthorhombic'
loop_
_space_group_symop_operation_xyz
x,y,z
1/2-x,1/2-y,z
x,1/2-y,-z
1/2-x,y,-z
-x,-y,-z
1/2+x,1/2+y,-z
-x,1/2+y,z
1/2+x,-y,z
loop_
_atom_site_type_symbol
_atom_site_label
_atom_site_fract_x
_atom_site_fract_y
_atom_site_fract_z
Si Si1 0.750000 0.250000 0.000000
Si Si2 0.423753 0.408492 0.408701
Si Si3 0.370972 0.942641 0.917304
Si Si4 0.251370 0.087900 0.823752
Si Si5 0.989344 0.273137 0.911523
Si Si6 0.423315 0.410117 0.588723
Si Si7 0.750927 0.585053 0.651757
Si Si8 0.599025 0.955610 0.917693
O O1 0.695676 0.156044 0.049887
O O2 0.422124 0.412501 0.498741
O O3 0.433682 0.248556 0.387124
O O4 0.500929 0.498623 0.385737
O O5 0.336124 0.456608 0.380249
O O6 0.430232 0.838331 0.877847
O O7 0.334038 0.040428 0.857474
O O8 0.397641 0.024799 0.992232
O O9 0.250000 0.250000 0.827112
O O10 0.243068 0.045985 0.738303
O O11 0.182098 0.026735 0.876300
O O12 0.962699 0.425158 0.893040
O O13 0.973457 0.250000 0.000000
O O14 0.072230 0.197739 0.899456
O O15 0.334832 0.457583 0.614178
O O16 0.750000 0.750000 0.645359
#
# Coordination Sequence:
#
# PCOD9396691 Si02
#       8
#     2   8   8   8   8   8   8   8
#     4  12  16  36  58  72  96 136 188 250 284 332
#     4   9  17  33  63  90 117 149 194 239 283 332
#     4  11  19  36  57  74 102 138 186 239 288 336
#     4  11  24  36  55  81 110 151 190 233 285 342
#     4  10  21  36  57  79 104 131 173 242 291 336
#     4   9  17  33  62  92 114 153 194 236 283 337
#     4   9  19  38  55  81 123 155 195 230 282 351
#     4  11  22  37  56  81 105 136 184 236 285 343
#
# _framework density 19.553149000000001
#
# number of rings (size 3 to 8) (size 9 to 14) (size 15 to 20)
#    0.000    1.931    3.448    2.069    3.862    2.207 
#    2.483    2.069    6.069    3.310    0.000    0.000 
#    0.000    0.000    0.000    0.000    0.000    0.000 
#
# Total GULP energy -322980.771054 kJ/mol
# GULP energy per Si atom -5568.633984 kJ/mol
# Density = 1.950864 g / cm^3
# Si number density = 19.553149 Si / 1000 Ang^3
#
#
#
# Elastic Constant Matrix: (Units=GPa)
#
#
# Indices 1 2 3 4 5 6 
#
# 1 132.9805 49.8092 29.5286 0.0000 0.0000 0.0000
# 2 49.8092 90.5558 19.4279 0.0000 0.0000 0.0000
# 3 29.5286 19.4279 34.8494 0.0000 0.0000 0.0000
# 4 0.0000 0.0000 0.0000 11.9505 0.0000 0.0000
# 5 0.0000 0.0000 0.0000 0.0000 6.8340 0.0000
# 6 0.0000 0.0000 0.0000 0.0000 0.0000 26.8231
#
#
#
# Elastic Compliance Matrix: (Units=1/GPa)
#
#
# Indices 1 2 3 4 5 6 
#
# 1 0.010637 -0.004449 -0.006533 0.000000 0.000000 0.000000
# 2 -0.004449 0.014404 -0.004260 0.000000 0.000000 0.000000
# 3 -0.006533 -0.004260 0.036605 0.000000 0.000000 0.000000
# 4 0.000000 0.000000 0.000000 0.083678 0.000000 0.000000
# 5 0.000000 0.000000 0.000000 0.000000 0.146326 0.000000
# 6 0.000000 0.000000 0.000000 0.000000 0.000000 0.037281
#
#
# Mechanical properties :
#
#
# Convention : Reuss Voigt Hill
#
# Bulk Modulus (GPa) = 32.09007 50.65746 41.37377
# Shear Modulus (GPa) = 13.52070 19.76287 16.64179
#
# Velocity S-wave (km/s) = 2.63246 3.18264 2.92054
# Velocity P-wave (km/s) = 5.06825 6.28247 5.70774
#
# Compressibility (1/GPa) = 0.03116229
#
# Stress axis : x y z
#
# Youngs Moduli (GPa) = 94.01169 69.42447 27.31870
#
# Poissons Ratio (x) = 0.30889 0.17846
# Poissons Ratio (y) = 0.41828 0.11638
# Poissons Ratio (z) = 0.61413 0.29576
#
# Static dielectric constant tensor:
#      x y z
#    x 1.804430 0.000000 0.000000 
#    y 0.000000 1.737690 0.000000 
#    z 0.000000 0.000000 1.652780 
# 
# From -- ./inp_files/29717.got.cif
#   From: 2010.05.17/outbox.cif.g08.bks.cpg/sg50_15_cif.got.tgz:29717.got - 2010.06.03 11:33:33.
