data_PCOD9396283
_publ_section_title
;
Structure prediction by ZEFSAII (Michael W. Deem and Ramdas Pophale) SiO2 
 PCOD9396283
Probable space group: P B A N
;
_chemical_formula_sum "Si O2"
_cell_formula_units_Z 40
_cell_length_a 8.364463
_cell_length_b 15.099609
_cell_length_c 12.936065
_cell_angle_alpha 90.000000
_cell_angle_beta 90.000000
_cell_angle_gamma 90.000000
_cell_volume 1633.826572
_symmetry_space_group_name_H-M "P B A N"
_symmetry_group_IT_number 50
_space_group.IT_coordinate_system_code '2'
_symmetry_cell_setting 'orthorhombic'
loop_
_space_group_symop_operation_xyz
x,y,z
1/2-x,1/2-y,z
x,1/2-y,-z
1/2-x,y,-z
-x,-y,-z
1/2+x,1/2+y,-z
-x,1/2+y,z
1/2+x,-y,z
loop_
_atom_site_type_symbol
_atom_site_label
_atom_site_fract_x
_atom_site_fract_y
_atom_site_fract_z
Si Si1 0.527479 0.885284 0.087508
Si Si2 0.419475 0.869846 0.455256
Si Si3 0.094371 0.420360 0.125432
Si Si4 0.394179 0.183217 0.711836
Si Si5 0.379957 0.058557 0.353107
O O1 0.716825 0.902596 0.111127
O O2 0.497210 0.824252 0.186118
O O3 0.433389 0.976641 0.099930
O O4 0.514190 0.862741 0.966212
O O5 0.250000 0.847071 0.500000
O O6 0.497493 0.794254 0.385335
O O7 0.537864 0.899565 0.546877
O O8 0.382970 0.954404 0.378575
O O9 0.038791 0.414080 0.243835
O O10 0.250000 0.250000 0.732021
O O11 0.299098 0.095519 0.668527
#
# Coordination Sequence:
#
# PCOD9396283 Si02
#       5
#     8   8   8   8   8
#     4   9  18  33  55  88 118 160 199 256 313 372
#     4  11  22  36  61  88 118 165 222 265 307 374
#     4   9  17  31  56  86 121 151 207 256 304 368
#     4  11  23  40  60  87 129 169 205 262 332 388
#     4  10  20  36  58  89 124 167 209 262 313 376
#
# _framework density 24.482403000000001
#
# number of rings (size 3 to 8) (size 9 to 14) (size 15 to 20)
#    0.000    2.000    2.000    3.000    2.800    1.600 
#    0.000   10.000    0.000    0.000    0.000    0.000 
#    0.000   44.800    0.000    0.000    0.000    0.000 
#
# Total GULP energy -223196.410851 kJ/mol
# GULP energy per Si atom -5579.910271 kJ/mol
# Density = 2.442668 g / cm^3
# Si number density = 24.482403 Si / 1000 Ang^3
#
#
#
# Elastic Constant Matrix: (Units=GPa)
#
#
# Indices 1 2 3 4 5 6 
#
# 1 21.7202 -0.4089 17.8971 0.0000 0.0000 0.0000
# 2 -0.4089 65.6075 19.5361 0.0000 0.0000 0.0000
# 3 17.8971 19.5361 238.3143 0.0000 0.0000 0.0000
# 4 0.0000 0.0000 0.0000 19.0647 0.0000 0.0000
# 5 0.0000 0.0000 0.0000 0.0000 27.8571 0.0000
# 6 0.0000 0.0000 0.0000 0.0000 0.0000 26.1949
#
#
#
# Elastic Compliance Matrix: (Units=1/GPa)
#
#
# Indices 1 2 3 4 5 6 
#
# 1 0.049210 0.001442 -0.003814 0.000000 0.000000 0.000000
# 2 0.001442 0.015666 -0.001393 0.000000 0.000000 0.000000
# 3 -0.003814 -0.001393 0.004597 0.000000 0.000000 0.000000
# 4 0.000000 0.000000 0.000000 0.052453 0.000000 0.000000
# 5 0.000000 0.000000 0.000000 0.000000 0.035898 0.000000
# 6 0.000000 0.000000 0.000000 0.000000 0.000000 0.038175
#
#
# Mechanical properties :
#
#
# Convention : Reuss Voigt Hill
#
# Bulk Modulus (GPa) = 16.14354 44.41009 30.27681
# Shear Modulus (GPa) = 22.30407 33.86452 28.08430
#
# Velocity S-wave (km/s) = 3.02159 3.72320 3.39059
# Velocity P-wave (km/s) = 4.33378 6.05491 5.26515
#
# Compressibility (1/GPa) = 0.06194427
#
# Stress axis : x y z
#
# Youngs Moduli (GPa) = 20.32115 63.83330 217.54692
#
# Poissons Ratio (x) = -0.09207 0.82969
# Poissons Ratio (y) = -0.02931 0.30294
# Poissons Ratio (z) = 0.07750 0.08889
#
# Static dielectric constant tensor:
#      x y z
#    x 1.927920 0.000000 0.000000 
#    y 0.000000 2.018600 0.000000 
#    z 0.000000 0.000000 2.095350 
# 
# From -- ./inp_files/18713.got.cif
#   From: 2010.05.17/outbox.cif.g08.bks.cpg/sg50_10_cif.got.tgz:18713.got - 2010.06.03 11:33:33.
