data_PCOD9396232
_publ_section_title
;
Structure prediction by ZEFSAII (Michael W. Deem and Ramdas Pophale) SiO2 
 PCOD9396232
Probable space group: P B A N
;
_chemical_formula_sum "Si O2"
_cell_formula_units_Z 64
_cell_length_a 15.925334
_cell_length_b 8.400689
_cell_length_c 24.470730
_cell_angle_alpha 90.000000
_cell_angle_beta 90.000000
_cell_angle_gamma 90.000000
_cell_volume 3273.786714
_symmetry_space_group_name_H-M "P B A N"
_symmetry_group_IT_number 50
_space_group.IT_coordinate_system_code '2'
_symmetry_cell_setting 'orthorhombic'
loop_
_space_group_symop_operation_xyz
x,y,z
1/2-x,1/2-y,z
x,1/2-y,-z
1/2-x,y,-z
-x,-y,-z
1/2+x,1/2+y,-z
-x,1/2+y,z
1/2+x,-y,z
loop_
_atom_site_type_symbol
_atom_site_label
_atom_site_fract_x
_atom_site_fract_y
_atom_site_fract_z
Si Si1 0.590943 0.559382 0.618027
Si Si2 0.847887 0.943900 0.500000
Si Si3 0.750000 0.942910 0.809969
Si Si4 0.750000 0.439057 0.313817
Si Si5 0.847990 0.944039 0.000000
Si Si6 0.909170 0.942100 0.881945
Si Si7 0.090943 0.440618 0.381973
Si Si8 0.590830 0.557901 0.118055
O O1 0.608603 0.501815 0.555855
O O2 0.667328 0.502616 0.655506
O O3 0.500000 0.500000 0.636431
O O4 0.591215 0.750000 0.617597
O O5 0.849282 0.750000 0.500000
O O6 0.750000 0.991489 0.500000
O O7 0.891397 0.998185 0.444145
O O8 0.750000 0.750000 0.808799
O O9 0.832885 0.994066 0.843192
O O10 0.667115 0.994066 0.843192
O O11 0.750000 0.005116 0.748685
O O12 0.750000 0.250000 0.316443
O O13 0.667328 0.502616 0.344494
O O14 0.891204 0.998205 0.055965
O O15 0.849726 0.750000 0.000000
O O16 0.750000 0.989834 0.000000
O O17 0.891204 0.998206 0.944035
O O18 0.908583 0.750001 0.882644
O O19 1.000000 0.000001 0.863525
#
# Coordination Sequence:
#
# PCOD9396232 Si02
#       8
#     8   8   8   8   8   8   8   8
#     4  11  22  40  65  93 126 160 198 244 297 358
#     4   9  17  34  62  93 124 160 194 235 296 357
#     4  10  22  41  61  81 110 156 202 242 293 352
#     4  12  26  43  62  87 118 158 207 256 303 352
#     4   9  15  30  57  86 115 150 189 227 278 352
#     4  10  20  35  59  87 116 150 190 235 288 350
#     4  11  22  40  65  93 126 160 198 244 297 358
#     4  10  20  35  59  87 116 150 190 235 288 350
#
# _framework density 19.549226999999998
#
# number of rings (size 3 to 8) (size 9 to 14) (size 15 to 20)
#    0.000    1.750    2.500    2.625    0.000    2.000 
#    0.000    5.000    0.000    0.750    0.000    0.000 
#    0.000    0.000    0.000    0.000    0.000    0.000 
#
# Total GULP energy -357628.571454 kJ/mol
# GULP energy per Si atom -5587.946429 kJ/mol
# Density = 1.950473 g / cm^3
# Si number density = 19.549227 Si / 1000 Ang^3
#
#
#
# Elastic Constant Matrix: (Units=GPa)
#
#
# Indices 1 2 3 4 5 6 
#
# 1 207.7441 34.1918 95.4809 0.0000 0.0000 0.0000
# 2 34.1918 35.7270 33.6108 0.0000 0.0000 0.0000
# 3 95.4809 33.6108 159.4393 0.0000 0.0000 0.0000
# 4 0.0000 0.0000 0.0000 -3.7810 0.0000 0.0000
# 5 0.0000 0.0000 0.0000 0.0000 -0.4141 0.0000
# 6 0.0000 0.0000 0.0000 0.0000 0.0000 26.9312
#
#
#
# Elastic Compliance Matrix: (Units=1/GPa)
#
#
# Indices 1 2 3 4 5 6 
#
# 1 0.006961 -0.003418 -0.003448 0.000000 0.000000 0.000000
# 2 -0.003418 0.036592 -0.005667 0.000000 0.000000 0.000000
# 3 -0.003448 -0.005667 0.009532 0.000000 0.000000 0.000000
# 4 0.000000 0.000000 0.000000 -0.264478 0.000000 0.000000
# 5 0.000000 0.000000 0.000000 0.000000 -2.414725 0.000000
# 6 0.000000 0.000000 0.000000 0.000000 0.000000 0.037132
#
#
# Mechanical properties :
#
#
# Convention : Reuss Voigt Hill
#
# Bulk Modulus (GPa) = 35.69038 81.05304 58.37171
# Shear Modulus (GPa) = -1.95727 20.52233 9.28253
#
# Velocity S-wave (km/s) = -1.00169 3.24354 2.18142
# Velocity P-wave (km/s) = 4.11807 7.45509 6.02233
#
# Compressibility (1/GPa) = 0.02801875
#
# Stress axis : x y z
#
# Youngs Moduli (GPa) = 143.65925 27.32801 104.91520
#
# Poissons Ratio (x) = 0.09341 0.36175
# Poissons Ratio (y) = 0.49102 0.59456
# Poissons Ratio (z) = 0.49534 0.15487
#
# Static dielectric constant tensor:
#      x y z
#    x 1.656780 0.000000 0.000000 
#    y 0.000000 1.669100 0.000000 
#    z 0.000000 0.000000 1.673020 
# 
# From -- ./inp_files/31773.got.cif
#   From: 2010.05.17/outbox.cif.g08.bks.cpg/sg50_16_cif.got.tgz:31773.got - 2010.06.03 11:33:33.
