data_PCOD9396291
_publ_section_title
;
Structure prediction by ZEFSAII (Michael W. Deem and Ramdas Pophale) SiO2 
 PCOD9396291
Probable space group: P B A N
;
_chemical_formula_sum "Si O2"
_cell_formula_units_Z 52
_cell_length_a 10.448496
_cell_length_b 28.043193
_cell_length_c 8.678515
_cell_angle_alpha 90.000000
_cell_angle_beta 90.000000
_cell_angle_gamma 90.000000
_cell_volume 2542.884650
_symmetry_space_group_name_H-M "P B A N"
_symmetry_group_IT_number 50
_space_group.IT_coordinate_system_code '2'
_symmetry_cell_setting 'orthorhombic'
loop_
_space_group_symop_operation_xyz
x,y,z
1/2-x,1/2-y,z
x,1/2-y,-z
1/2-x,y,-z
-x,-y,-z
1/2+x,1/2+y,-z
-x,1/2+y,z
1/2+x,-y,z
loop_
_atom_site_type_symbol
_atom_site_label
_atom_site_fract_x
_atom_site_fract_y
_atom_site_fract_z
Si Si1 0.750000 0.061566 0.000000
Si Si2 0.499175 0.570086 0.350488
Si Si3 0.750000 0.566410 0.500000
Si Si4 0.626789 0.985394 0.224772
Si Si5 0.750000 0.382478 0.500000
Si Si6 0.030637 0.697933 0.992915
Si Si7 0.480640 0.402397 0.006036
Si Si8 0.748310 0.302859 0.750679
O O1 0.869290 0.093034 0.049807
O O2 0.697317 0.026859 0.131093
O O3 0.614288 0.589177 0.457019
O O4 0.485492 0.512903 0.317911
O O5 0.367827 0.586611 0.433153
O O6 0.525161 0.588479 0.176946
O O7 0.779793 0.536173 0.349139
O O8 0.585171 0.944200 0.104939
O O9 0.781953 0.345967 0.638292
O O10 0.109949 0.689546 0.833393
O O11 0.967486 0.750000 0.000000
O O12 0.943433 0.652345 0.030495
O O13 0.143588 0.700533 0.118721
O O14 0.750000 0.250000 0.677519
#
# Coordination Sequence:
#
# PCOD9396291 Si02
#       8
#     4   8   4   8   4   8   8   8
#     4  10  20  36  59  90 121 152 204 260 302 370
#     4  11  25  39  59  90 127 166 213 255 303 386
#     4  12  25  42  54  83 127 165 207 260 311 354
#     4  11  23  39  60  83 118 166 218 256 306 369
#     4  12  22  36  60  95 130 161 208 258 326 378
#     4   9  18  34  57  91 123 154 201 266 325 381
#     4  11  21  37  62  86 118 166 207 257 318 376
#     4   9  18  33  56  90 128 156 194 260 332 385
#
# _framework density 20.449216
#
# number of rings (size 3 to 8) (size 9 to 14) (size 15 to 20)
#    0.000    1.538    1.538    6.692    4.308    0.000 
#    0.000    0.000    0.000    0.000    0.000   12.385 
#    0.000    0.000    0.000    0.000    0.000    0.000 
#
# Total GULP energy -290006.399926 kJ/mol
# GULP energy per Si atom -5577.046152 kJ/mol
# Density = 2.040267 g / cm^3
# Si number density = 20.449216 Si / 1000 Ang^3
#
#
#
# Elastic Constant Matrix: (Units=GPa)
#
#
# Indices 1 2 3 4 5 6 
#
# 1 67.4621 23.5898 31.2364 0.0000 0.0000 0.0000
# 2 23.5898 133.0709 37.9676 0.0000 0.0000 0.0000
# 3 31.2364 37.9676 99.2928 0.0000 0.0000 0.0000
# 4 0.0000 0.0000 0.0000 24.5442 0.0000 0.0000
# 5 0.0000 0.0000 0.0000 0.0000 22.6633 0.0000
# 6 0.0000 0.0000 0.0000 0.0000 0.0000 13.3389
#
#
#
# Elastic Compliance Matrix: (Units=1/GPa)
#
#
# Indices 1 2 3 4 5 6 
#
# 1 0.017702 -0.001739 -0.004904 0.000000 0.000000 0.000000
# 2 -0.001739 0.008606 -0.002744 0.000000 0.000000 0.000000
# 3 -0.004904 -0.002744 0.012663 0.000000 0.000000 0.000000
# 4 0.000000 0.000000 0.000000 0.040743 0.000000 0.000000
# 5 0.000000 0.000000 0.000000 0.000000 0.044124 0.000000
# 6 0.000000 0.000000 0.000000 0.000000 0.000000 0.074968
#
#
# Mechanical properties :
#
#
# Convention : Reuss Voigt Hill
#
# Bulk Modulus (GPa) = 49.51022 53.93482 51.72252
# Shear Modulus (GPa) = 22.29043 25.91144 24.10093
#
# Velocity S-wave (km/s) = 3.30515 3.56351 3.43676
# Velocity P-wave (km/s) = 6.23131 6.58512 6.41066
#
# Compressibility (1/GPa) = 0.02019785
#
# Stress axis : x y z
#
# Youngs Moduli (GPa) = 56.49153 116.19981 78.96994
#
# Poissons Ratio (x) = 0.20206 0.38726
# Poissons Ratio (y) = 0.09823 0.21667
# Poissons Ratio (z) = 0.27703 0.31881
#
# Static dielectric constant tensor:
#      x y z
#    x 1.818920 0.000000 0.000000 
#    y 0.000000 1.792910 0.000000 
#    z 0.000000 0.000000 1.767930 
# 
# From -- ./inp_files/11734.got.cif
#   From: 2010.05.17/outbox.cif.g08.bks.cpg/sg50_6_cif.got.tgz:11734.got - 2010.06.03 11:33:33.
