data_PCOD9396606
_publ_section_title
;
Structure prediction by ZEFSAII (Michael W. Deem and Ramdas Pophale) SiO2 
 PCOD9396606
Probable space group: P B A N
;
_chemical_formula_sum "Si O2"
_cell_formula_units_Z 38
_cell_length_a 12.150349
_cell_length_b 26.351882
_cell_length_c 4.907317
_cell_angle_alpha 90.000000
_cell_angle_beta 90.000000
_cell_angle_gamma 90.000000
_cell_volume 1571.247150
_symmetry_space_group_name_H-M "P B A N"
_symmetry_group_IT_number 50
_space_group.IT_coordinate_system_code '2'
_symmetry_cell_setting 'orthorhombic'
loop_
_space_group_symop_operation_xyz
x,y,z
1/2-x,1/2-y,z
x,1/2-y,-z
1/2-x,y,-z
-x,-y,-z
1/2+x,1/2+y,-z
-x,1/2+y,z
1/2+x,-y,z
loop_
_atom_site_type_symbol
_atom_site_label
_atom_site_fract_x
_atom_site_fract_y
_atom_site_fract_z
Si Si1 0.750000 0.250000 0.500000
Si Si2 0.402669 0.664581 0.639003
Si Si3 0.750000 0.425033 0.500000
Si Si4 0.250000 0.084933 0.500000
Si Si5 0.026662 0.305407 0.122493
Si Si6 0.914037 0.503864 0.744490
Si Si7 0.250000 0.148808 0.000000
O O1 0.684895 0.290268 0.316668
O O2 0.348987 0.616343 0.486368
O O3 0.460288 0.655557 0.926362
O O4 0.485771 0.688696 0.426129
O O5 0.812676 0.462669 0.715537
O O6 0.343966 0.054151 0.333172
O O7 0.200264 0.116996 0.252385
O O8 0.008536 0.250000 0.000000
O O9 0.153608 0.317973 0.119184
O O10 0.000000 0.500000 0.500000
O O11 0.000000 0.500000 0.000000
#
# Coordination Sequence:
#
# PCOD9396606 Si02
#       7
#     2   8   4   4   8   8   4
#     4  10  20  44  64 104 136 182 222 298 350 436
#     4  11  25  42  74 101 145 179 239 292 363 429
#     4  10  28  47  70 115 137 190 241 294 366 440
#     4  11  26  47  69 111 135 185 243 296 365 428
#     4  12  25  46  69 105 141 193 235 295 360 425
#     4  11  26  47  77 100 146 185 235 301 368 432
#     4  12  27  44  74 102 146 188 250 293 354 438
#
# _framework density 24.184612000000001
#
# number of rings (size 3 to 8) (size 9 to 14) (size 15 to 20)
#    0.000    0.842    2.105    2.842    8.842    8.421 
#    0.000    3.158    0.000    0.000    0.000    0.000 
#    0.000    0.000    0.000    0.000    0.000    0.000 
#
# Total GULP energy -211789.782801 kJ/mol
# GULP energy per Si atom -5573.415337 kJ/mol
# Density = 2.412957 g / cm^3
# Si number density = 24.184612 Si / 1000 Ang^3
#
#
#
# Elastic Constant Matrix: (Units=GPa)
#
#
# Indices 1 2 3 4 5 6 
#
# 1 107.4046 28.8693 43.9881 0.0000 0.0000 0.0000
# 2 28.8693 69.3565 24.9354 0.0000 0.0000 0.0000
# 3 43.9881 24.9354 154.8434 0.0000 0.0000 0.0000
# 4 0.0000 0.0000 0.0000 11.4121 0.0000 0.0000
# 5 0.0000 0.0000 0.0000 0.0000 12.3701 0.0000
# 6 0.0000 0.0000 0.0000 0.0000 0.0000 -424.3152
#
#
#
# Elastic Compliance Matrix: (Units=1/GPa)
#
#
# Indices 1 2 3 4 5 6 
#
# 1 0.011410 -0.003804 -0.002629 0.000000 0.000000 0.000000
# 2 -0.003804 0.016573 -0.001588 0.000000 0.000000 0.000000
# 3 -0.002629 -0.001588 0.007461 0.000000 0.000000 0.000000
# 4 0.000000 0.000000 0.000000 0.087626 0.000000 0.000000
# 5 0.000000 0.000000 0.000000 0.000000 0.080840 0.000000
# 6 0.000000 0.000000 0.000000 0.000000 0.000000 -0.002357
#
#
# Mechanical properties :
#
#
# Convention : Reuss Voigt Hill
#
# Bulk Modulus (GPa) = 51.54337 58.57667 55.06002
# Shear Modulus (GPa) = 22.31532 -64.51915 -21.10191
#
# Velocity S-wave (km/s) = 3.04091 -5.17066 -2.95707
# Velocity P-wave (km/s) = 5.80415 3.37259 3.34020
#
# Compressibility (1/GPa) = 0.01940114
#
# Stress axis : x y z
#
# Youngs Moduli (GPa) = 87.64483 60.34019 134.03675
#
# Poissons Ratio (x) = 0.22954 0.35234
# Poissons Ratio (y) = 0.33341 0.21287
# Poissons Ratio (z) = 0.23039 0.09583
#
# Static dielectric constant tensor:
#      x y z
#    x 1.843940 0.000000 0.000000 
#    y 0.000000 2.063310 0.000000 
#    z 0.000000 0.000000 1.932980 
# 
# From -- ./inp_files/2467.got.cif
#   From: 2010.05.17/outbox.cif.g08.bks.cpg/sg50_2_cif.got.tgz:2467.got - 2010.06.03 11:33:33.
