data_PCOD9396541
_publ_section_title
;
Structure prediction by ZEFSAII (Michael W. Deem and Ramdas Pophale) SiO2 
 PCOD9396541
Probable space group: P B A N
;
_chemical_formula_sum "Si O2"
_cell_formula_units_Z 64
_cell_length_a 12.146334
_cell_length_b 29.959777
_cell_length_c 7.989679
_cell_angle_alpha 90.000000
_cell_angle_beta 90.000000
_cell_angle_gamma 90.000000
_cell_volume 2907.455837
_symmetry_space_group_name_H-M "P B A N"
_symmetry_group_IT_number 50
_space_group.IT_coordinate_system_code '2'
_symmetry_cell_setting 'orthorhombic'
loop_
_space_group_symop_operation_xyz
x,y,z
1/2-x,1/2-y,z
x,1/2-y,-z
1/2-x,y,-z
-x,-y,-z
1/2+x,1/2+y,-z
-x,1/2+y,z
1/2+x,-y,z
loop_
_atom_site_type_symbol
_atom_site_label
_atom_site_fract_x
_atom_site_fract_y
_atom_site_fract_z
Si Si1 0.155384 0.658849 0.261765
Si Si2 0.204578 0.352808 0.685484
Si Si3 0.390546 0.866687 0.643452
Si Si4 0.306722 0.542458 0.255038
Si Si5 0.471276 0.286699 0.205768
Si Si6 0.909058 0.430779 0.897701
Si Si7 0.837610 0.948476 0.847126
Si Si8 0.920865 0.811825 0.178529
O O1 0.120736 0.648977 0.453078
O O2 0.285830 0.653162 0.255472
O O3 0.101157 0.621916 0.139543
O O4 0.101646 0.705903 0.220185
O O5 0.250000 0.357555 0.500000
O O6 0.096089 0.322452 0.685577
O O7 0.185003 0.401143 0.763151
O O8 0.297406 0.327948 0.793346
O O9 0.367437 0.919997 0.636304
O O10 0.498401 0.848608 0.737878
O O11 0.175171 0.549670 0.241312
O O12 0.326527 0.490327 0.278171
O O13 0.357033 0.554854 0.073128
O O14 0.439291 0.237022 0.257403
O O15 0.441280 0.300914 0.016133
O O16 0.034448 0.446539 0.899669
O O17 0.750000 0.954923 0.000000
#
# Coordination Sequence:
#
# PCOD9396541 Si02
#       8
#     8   8   8   8   8   8   8   8
#     4  10  21  41  64  91 137 172 211 261 330 392
#     4  12  27  44  63  95 137 171 214 269 333 394
#     4  10  23  40  63  96 130 177 212 267 327 387
#     4  10  22  39  64  95 127 171 226 266 325 387
#     4  11  23  45  68  98 127 169 217 272 325 390
#     4  10  20  40  62  90 127 170 212 274 322 385
#     4  12  24  40  65  97 129 175 223 276 322 393
#     4  11  25  42  72  97 127 168 220 269 327 390
#
# _framework density 22.012373
#
# number of rings (size 3 to 8) (size 9 to 14) (size 15 to 20)
#    0.000    1.250    2.500    3.375    1.750    5.500 
#    4.500    3.125    0.000    0.000    0.000    0.000 
#    0.000    0.000    0.000    0.000    0.000    0.000 
#
# Total GULP energy -357635.819690 kJ/mol
# GULP energy per Si atom -5588.059683 kJ/mol
# Density = 2.196227 g / cm^3
# Si number density = 22.012373 Si / 1000 Ang^3
#
#
#
# Elastic Constant Matrix: (Units=GPa)
#
#
# Indices 1 2 3 4 5 6 
#
# 1 117.4390 37.6117 4.4414 0.0000 0.0000 0.0000
# 2 37.6117 126.4521 6.5534 0.0000 0.0000 0.0000
# 3 4.4414 6.5534 39.8836 0.0000 0.0000 0.0000
# 4 0.0000 0.0000 0.0000 7.6879 0.0000 0.0000
# 5 0.0000 0.0000 0.0000 0.0000 21.5144 0.0000
# 6 0.0000 0.0000 0.0000 0.0000 0.0000 33.1601
#
#
#
# Elastic Compliance Matrix: (Units=1/GPa)
#
#
# Indices 1 2 3 4 5 6 
#
# 1 0.009426 -0.002773 -0.000594 0.000000 0.000000 0.000000
# 2 -0.002773 0.008792 -0.001136 0.000000 0.000000 0.000000
# 3 -0.000594 -0.001136 0.025326 0.000000 0.000000 0.000000
# 4 0.000000 0.000000 0.000000 0.130075 0.000000 0.000000
# 5 0.000000 0.000000 0.000000 0.000000 0.046480 0.000000
# 6 0.000000 0.000000 0.000000 0.000000 0.000000 0.030157
#
#
# Mechanical properties :
#
#
# Convention : Reuss Voigt Hill
#
# Bulk Modulus (GPa) = 28.95377 42.33198 35.64287
# Shear Modulus (GPa) = 18.46568 28.15037 23.30802
#
# Velocity S-wave (km/s) = 2.89948 3.57997 3.25754
# Velocity P-wave (km/s) = 4.93875 6.03001 5.51146
#
# Compressibility (1/GPa) = 0.03453782
#
# Stress axis : x y z
#
# Youngs Moduli (GPa) = 106.09477 113.74341 39.48552
#
# Poissons Ratio (x) = 0.31538 0.02346
# Poissons Ratio (y) = 0.29417 0.04485
# Poissons Ratio (z) = 0.06302 0.12919
#
# Static dielectric constant tensor:
#      x y z
#    x 1.811430 0.000000 0.000000 
#    y 0.000000 1.845000 0.000000 
#    z 0.000000 0.000000 1.819600 
# 
# From -- ./inp_files/11857.got.cif
#   From: 2010.05.17/outbox.cif.g08.bks.cpg/sg50_6_cif.got.tgz:11857.got - 2010.06.03 11:33:33.
