data_PCOD9396391
_publ_section_title
;
Structure prediction by ZEFSAII (Michael W. Deem and Ramdas Pophale) SiO2 
 PCOD9396391
Probable space group: P B A N
;
_chemical_formula_sum "Si O2"
_cell_formula_units_Z 56
_cell_length_a 17.343610
_cell_length_b 11.462078
_cell_length_c 15.499686
_cell_angle_alpha 90.000000
_cell_angle_beta 90.000000
_cell_angle_gamma 90.000000
_cell_volume 3081.241643
_symmetry_space_group_name_H-M "P B A N"
_symmetry_group_IT_number 50
_space_group.IT_coordinate_system_code '2'
_symmetry_cell_setting 'orthorhombic'
loop_
_space_group_symop_operation_xyz
x,y,z
1/2-x,1/2-y,z
x,1/2-y,-z
1/2-x,y,-z
-x,-y,-z
1/2+x,1/2+y,-z
-x,1/2+y,z
1/2+x,-y,z
loop_
_atom_site_type_symbol
_atom_site_label
_atom_site_fract_x
_atom_site_fract_y
_atom_site_fract_z
Si Si1 0.590916 0.513166 0.163135
Si Si2 0.056707 0.112787 0.500000
Si Si3 0.337500 0.250000 0.898376
Si Si4 0.840933 0.885816 0.328368
Si Si5 0.162614 0.888365 0.000000
Si Si6 0.159067 0.114184 0.328368
Si Si7 0.909083 0.513166 0.163135
O O1 0.614260 0.637669 0.125363
O O2 0.631992 0.520901 0.256483
O O3 0.500000 0.500000 0.174700
O O4 0.621363 0.426905 0.088684
O O5 0.026063 0.250000 0.500000
O O6 0.109692 0.102099 0.584995
O O7 0.109692 0.102099 0.415005
O O8 0.000000 0.000000 0.500000
O O9 0.250000 0.250000 0.861065
O O10 0.385740 0.137669 0.874637
O O11 0.328561 0.250000 0.000000
O O12 0.853451 0.750000 0.298847
O O13 0.750000 0.898752 0.344680
O O14 0.121363 0.926905 0.088684
O O15 0.166851 0.750000 0.000000
O O16 0.250000 0.938817 0.000000
O O17 0.131992 0.020901 0.256483
#
# Coordination Sequence:
#
# PCOD9396391 Si02
#       7
#     8   8   8   8   8   8   8
#     4  12  24  36  60  88 121 154 203 260 310 359
#     4  10  21  39  63  95 129 162 200 260 321 375
#     4  11  22  38  62  85 111 155 210 256 304 361
#     4  10  20  37  63  91 120 158 209 258 307 363
#     4  11  25  41  57  81 123 169 203 243 309 385
#     4  10  20  37  63  91 120 158 209 258 307 363
#     4  12  24  36  60  88 121 154 203 260 310 359
#
# _framework density 18.174491
#
# number of rings (size 3 to 8) (size 9 to 14) (size 15 to 20)
#    0.000    1.143    2.857    4.286    2.000    1.714 
#    0.000    1.429    0.000    3.429    0.000    0.000 
#    0.000    0.000    0.000    0.000    0.000    0.000 
#
# Total GULP energy -312264.514699 kJ/mol
# GULP energy per Si atom -5576.152048 kJ/mol
# Density = 1.813313 g / cm^3
# Si number density = 18.174491 Si / 1000 Ang^3
#
#
#
# Elastic Constant Matrix: (Units=GPa)
#
#
# Indices 1 2 3 4 5 6 
#
# 1 138.6678 55.7884 45.9650 0.0000 0.0000 0.0000
# 2 55.7884 94.1588 42.0646 0.0000 0.0000 0.0000
# 3 45.9650 42.0646 128.3769 0.0000 0.0000 0.0000
# 4 0.0000 0.0000 0.0000 13.7445 0.0000 0.0000
# 5 0.0000 0.0000 0.0000 0.0000 47.9316 0.0000
# 6 0.0000 0.0000 0.0000 0.0000 0.0000 51.8406
#
#
#
# Elastic Compliance Matrix: (Units=1/GPa)
#
#
# Indices 1 2 3 4 5 6 
#
# 1 0.009845 -0.004989 -0.001890 0.000000 0.000000 0.000000
# 2 -0.004989 0.014969 -0.003119 0.000000 0.000000 0.000000
# 3 -0.001890 -0.003119 0.009488 0.000000 0.000000 0.000000
# 4 0.000000 0.000000 0.000000 0.072756 0.000000 0.000000
# 5 0.000000 0.000000 0.000000 0.000000 0.020863 0.000000
# 6 0.000000 0.000000 0.000000 0.000000 0.000000 0.019290
#
#
# Mechanical properties :
#
#
# Convention : Reuss Voigt Hill
#
# Bulk Modulus (GPa) = 69.89498 72.09327 70.99412
# Shear Modulus (GPa) = 29.07367 37.19571 33.13469
#
# Velocity S-wave (km/s) = 4.00396 4.52883 4.27446
# Velocity P-wave (km/s) = 7.74060 8.19149 7.96923
#
# Compressibility (1/GPa) = 0.01430718
#
# Stress axis : x y z
#
# Youngs Moduli (GPa) = 101.57321 66.80304 105.39254
#
# Poissons Ratio (x) = 0.33326 0.19924
# Poissons Ratio (y) = 0.50671 0.32870
# Poissons Ratio (z) = 0.19202 0.20834
#
# Static dielectric constant tensor:
#      x y z
#    x 1.600560 0.000000 0.000000 
#    y 0.000000 1.611880 0.000000 
#    z 0.000000 0.000000 1.675340 
# 
# From -- ./inp_files/26502.got.cif
#   From: 2010.05.17/outbox.cif.g08.bks.cpg/sg50_14_cif.got.tgz:26502.got - 2010.06.03 11:33:33.
