data_PCOD9396886
_publ_section_title
;
Structure prediction by ZEFSAII (Michael W. Deem and Ramdas Pophale) SiO2 
 PCOD9396886
Probable space group: P B A N
;
_chemical_formula_sum "Si O2"
_cell_formula_units_Z 30
_cell_length_a 10.931666
_cell_length_b 14.822493
_cell_length_c 7.853912
_cell_angle_alpha 90.000000
_cell_angle_beta 90.000000
_cell_angle_gamma 90.000000
_cell_volume 1272.605040
_symmetry_space_group_name_H-M "P B A N"
_symmetry_group_IT_number 50
_space_group.IT_coordinate_system_code '2'
_symmetry_cell_setting 'orthorhombic'
loop_
_space_group_symop_operation_xyz
x,y,z
1/2-x,1/2-y,z
x,1/2-y,-z
1/2-x,y,-z
-x,-y,-z
1/2+x,1/2+y,-z
-x,1/2+y,z
1/2+x,-y,z
loop_
_atom_site_type_symbol
_atom_site_label
_atom_site_fract_x
_atom_site_fract_y
_atom_site_fract_z
Si Si1 0.984317 0.639269 0.385630
Si Si2 0.250000 0.901879 0.000000
Si Si3 0.750000 0.750000 0.500000
Si Si4 0.552728 0.314306 0.757188
Si Si5 0.070149 0.018235 0.825276
O O1 0.848158 0.680516 0.413626
O O2 0.037591 0.707480 0.243526
O O3 0.063229 0.656893 0.557665
O O4 0.998656 0.538336 0.318833
O O5 0.344841 0.844177 0.889052
O O6 0.196871 0.969563 0.856364
O O7 0.432992 0.374924 0.799842
O O8 0.000000 0.000000 0.000000
#
# Coordination Sequence:
#
# PCOD9396886 Si02
#       5
#     8   4   2   8   8
#     4  10  21  39  62  90 118 156 209 250 301 374
#     4  10  22  39  60  87 128 162 190 255 314 347
#     4   8  20  40  64  84 116 158 200 262 308 340
#     4   9  21  39  61  89 119 158 206 247 297 368
#     4  10  22  37  58  90 122 158 203 246 300 370
#
# _framework density 23.573694
#
# number of rings (size 3 to 8) (size 9 to 14) (size 15 to 20)
#    0.000    2.667    0.000    0.800    0.000   16.000 
#    0.000    5.333    0.000   32.000    0.000    0.000 
#    0.000    0.000    0.000    0.000    0.000    0.000 
#
# Total GULP energy -167155.856738 kJ/mol
# GULP energy per Si atom -5571.861891 kJ/mol
# Density = 2.352004 g / cm^3
# Si number density = 23.573694 Si / 1000 Ang^3
#
#
#
# Elastic Constant Matrix: (Units=GPa)
#
#
# Indices 1 2 3 4 5 6 
#
# 1 86.5555 11.1149 34.8445 0.0000 0.0000 0.0000
# 2 11.1149 93.3924 27.6559 0.0000 0.0000 0.0000
# 3 34.8445 27.6559 103.5482 0.0000 0.0000 0.0000
# 4 0.0000 0.0000 0.0000 47.0123 0.0000 0.0000
# 5 0.0000 0.0000 0.0000 0.0000 24.5221 0.0000
# 6 0.0000 0.0000 0.0000 0.0000 0.0000 3.2917
#
#
#
# Elastic Compliance Matrix: (Units=1/GPa)
#
#
# Indices 1 2 3 4 5 6 
#
# 1 0.013370 -0.000281 -0.004424 0.000000 0.000000 0.000000
# 2 -0.000281 0.011633 -0.003012 0.000000 0.000000 0.000000
# 3 -0.004424 -0.003012 0.011951 0.000000 0.000000 0.000000
# 4 0.000000 0.000000 0.000000 0.021271 0.000000 0.000000
# 5 0.000000 0.000000 0.000000 0.000000 0.040780 0.000000
# 6 0.000000 0.000000 0.000000 0.000000 0.000000 0.303797
#
#
# Mechanical properties :
#
#
# Convention : Reuss Voigt Hill
#
# Bulk Modulus (GPa) = 46.47108 47.85853 47.16481
# Shear Modulus (GPa) = 11.75338 28.95726 20.35532
#
# Velocity S-wave (km/s) = 2.23531 3.50862 2.94168
# Velocity P-wave (km/s) = 5.13985 6.06297 5.62039
#
# Compressibility (1/GPa) = 0.02151876
#
# Stress axis : x y z
#
# Youngs Moduli (GPa) = 74.79216 85.96230 83.67769
#
# Poissons Ratio (x) = 0.02417 0.37020
# Poissons Ratio (y) = 0.02103 0.25207
# Poissons Ratio (z) = 0.33089 0.25895
#
# Static dielectric constant tensor:
#      x y z
#    x 2.002190 0.000000 0.000000 
#    y 0.000000 1.959390 0.000000 
#    z 0.000000 0.000000 1.939750 
# 
# From -- ./inp_files/10629.got.cif
#   From: 2010.05.17/outbox.cif.g08.bks.cpg/sg50_6_cif.got.tgz:10629.got - 2010.06.03 11:33:33.
