data_PCOD9396663
_publ_section_title
;
Structure prediction by ZEFSAII (Michael W. Deem and Ramdas Pophale) SiO2 
 PCOD9396663
Probable space group: P B A N
;
_chemical_formula_sum "Si O2"
_cell_formula_units_Z 26
_cell_length_a 5.211056
_cell_length_b 29.447904
_cell_length_c 7.126585
_cell_angle_alpha 90.000000
_cell_angle_beta 90.000000
_cell_angle_gamma 90.000000
_cell_volume 1093.607798
_symmetry_space_group_name_H-M "P B A N"
_symmetry_group_IT_number 50
_space_group.IT_coordinate_system_code '2'
_symmetry_cell_setting 'orthorhombic'
loop_
_space_group_symop_operation_xyz
x,y,z
1/2-x,1/2-y,z
x,1/2-y,-z
1/2-x,y,-z
-x,-y,-z
1/2+x,1/2+y,-z
-x,1/2+y,z
1/2+x,-y,z
loop_
_atom_site_type_symbol
_atom_site_label
_atom_site_fract_x
_atom_site_fract_y
_atom_site_fract_z
Si Si1 0.239087 0.118523 0.775154
Si Si2 0.234583 0.671626 0.226390
Si Si3 0.250000 0.750000 0.500000
Si Si4 0.455329 0.018830 0.290962
O O1 0.527878 0.132626 0.725635
O O2 0.143488 0.069930 0.707199
O O3 0.022125 0.155514 0.721508
O O4 0.250000 0.116272 0.000000
O O5 0.136958 0.714385 0.347662
O O6 0.250000 0.679988 0.000000
O O7 0.500000 0.000000 0.500000
O O8 0.733872 0.012183 0.202586
#
# Coordination Sequence:
#
# PCOD9396663 Si02
#       4
#     8   8   2   8
#     4  10  22  42  63  87 127 172 208 256 319 375
#     4  10  24  44  66  94 128 164 209 260 314 385
#     4  12  26  42  72 100 124 162 206 262 328 380
#     4  10  21  35  56  87 122 161 208 261 304 357
#
# _framework density 23.774519999999999
#
# number of rings (size 3 to 8) (size 9 to 14) (size 15 to 20)
#    0.000    1.846    0.000    2.308    0.000   12.308 
#    0.000    4.615    0.000    0.000    0.000    0.000 
#    0.000    0.000    0.000    0.000    0.000    0.000 
#
# Total GULP energy -145059.901210 kJ/mol
# GULP energy per Si atom -5579.226970 kJ/mol
# Density = 2.372041 g / cm^3
# Si number density = 23.774520 Si / 1000 Ang^3
#
#
#
# Elastic Constant Matrix: (Units=GPa)
#
#
# Indices 1 2 3 4 5 6 
#
# 1 158.5605 26.4449 22.0609 0.0000 0.0000 0.0000
# 2 26.4449 117.1845 28.9871 0.0000 0.0000 0.0000
# 3 22.0609 28.9871 136.7309 0.0000 0.0000 0.0000
# 4 0.0000 0.0000 0.0000 45.2910 0.0000 0.0000
# 5 0.0000 0.0000 0.0000 0.0000 -7.8100 0.0000
# 6 0.0000 0.0000 0.0000 0.0000 0.0000 27.3512
#
#
#
# Elastic Compliance Matrix: (Units=1/GPa)
#
#
# Indices 1 2 3 4 5 6 
#
# 1 0.006634 -0.001301 -0.000795 0.000000 0.000000 0.000000
# 2 -0.001301 0.009261 -0.001753 0.000000 0.000000 0.000000
# 3 -0.000795 -0.001753 0.007814 0.000000 0.000000 0.000000
# 4 0.000000 0.000000 0.000000 0.022079 0.000000 0.000000
# 5 0.000000 0.000000 0.000000 0.000000 -0.128040 0.000000
# 6 0.000000 0.000000 0.000000 0.000000 0.000000 0.036561
#
#
# Mechanical properties :
#
#
# Convention : Reuss Voigt Hill
#
# Bulk Modulus (GPa) = 62.45630 63.05130 62.75380
# Shear Modulus (GPa) = -153.10930 35.29863 -58.90534
#
# Velocity S-wave (km/s) = -8.03370 3.85739 -4.98302
# Velocity P-wave (km/s) = 7.72830 6.81303 2.57965
#
# Compressibility (1/GPa) = 0.01601120
#
# Stress axis : x y z
#
# Youngs Moduli (GPa) = 150.73377 107.98213 127.98211
#
# Poissons Ratio (x) = 0.14044 0.10170
# Poissons Ratio (y) = 0.19604 0.22441
# Poissons Ratio (z) = 0.11979 0.18934
#
# Static dielectric constant tensor:
#      x y z
#    x 1.894200 0.000000 0.000000 
#    y 0.000000 1.866140 0.000000 
#    z 0.000000 0.000000 1.785480 
# 
# From -- ./inp_files/7741.got.cif
#   From: 2010.05.17/outbox.cif.g08.bks.cpg/sg50_4_cif.got.tgz:7741.got - 2010.06.03 11:33:33.
