data_PCOD9396621
_publ_section_title
;
Structure prediction by ZEFSAII (Michael W. Deem and Ramdas Pophale) SiO2 
 PCOD9396621
Probable space group: P B A N
;
_chemical_formula_sum "Si O2"
_cell_formula_units_Z 34
_cell_length_a 4.914388
_cell_length_b 23.658831
_cell_length_c 14.320862
_cell_angle_alpha 90.000000
_cell_angle_beta 90.000000
_cell_angle_gamma 90.000000
_cell_volume 1665.067652
_symmetry_space_group_name_H-M "P B A N"
_symmetry_group_IT_number 50
_space_group.IT_coordinate_system_code '2'
_symmetry_cell_setting 'orthorhombic'
loop_
_space_group_symop_operation_xyz
x,y,z
1/2-x,1/2-y,z
x,1/2-y,-z
1/2-x,y,-z
-x,-y,-z
1/2+x,1/2+y,-z
-x,1/2+y,z
1/2+x,-y,z
loop_
_atom_site_type_symbol
_atom_site_label
_atom_site_fract_x
_atom_site_fract_y
_atom_site_fract_z
Si Si1 0.900526 0.305016 0.186149
Si Si2 0.736691 0.537230 0.612040
Si Si3 0.250000 0.750000 0.000000
Si Si4 0.174017 0.462812 0.100688
Si Si5 0.607130 0.627245 0.755123
O O1 0.750000 0.250000 0.227238
O O2 0.911096 0.289793 0.074593
O O3 0.692485 0.355295 0.211924
O O4 0.191643 0.319895 0.228079
O O5 0.750000 0.541880 0.500000
O O6 0.528871 0.487244 0.641139
O O7 0.638536 0.596212 0.655879
O O8 0.362789 0.518682 0.107016
O O9 0.269131 0.420152 0.177654
O O10 0.250000 0.437930 0.000000
#
# Coordination Sequence:
#
# PCOD9396621 Si02
#       5
#     8   8   2   8   8
#     4  10  24  37  58  81 113 144 199 246 280 335
#     4  10  21  38  62  91 121 150 190 239 287 350
#     4   8  24  42  56  82 114 150 208 250 284 330
#     4  10  21  32  46  74 109 140 175 215 268 341
#     4  12  21  36  61  81 110 154 189 237 290 341
#
# _framework density 20.419591
#
# number of rings (size 3 to 8) (size 9 to 14) (size 15 to 20)
#    0.706    0.941    0.000    4.941    3.294    0.941 
#    0.000    0.000    0.000    4.235    0.000    0.000 
#    0.000    0.000    0.000    0.000    0.000    0.000 
#
# Total GULP energy -189656.015132 kJ/mol
# GULP energy per Si atom -5578.118092 kJ/mol
# Density = 2.037312 g / cm^3
# Si number density = 20.419591 Si / 1000 Ang^3
#
#
#
# Elastic Constant Matrix: (Units=GPa)
#
#
# Indices 1 2 3 4 5 6 
#
# 1 92.8781 7.1088 12.8909 0.0000 0.0000 0.0000
# 2 7.1088 51.3560 27.2990 0.0000 0.0000 0.0000
# 3 12.8909 27.2990 60.5110 0.0000 0.0000 0.0000
# 4 0.0000 0.0000 0.0000 34.0733 0.0000 0.0000
# 5 0.0000 0.0000 0.0000 0.0000 7.8443 0.0000
# 6 0.0000 0.0000 0.0000 0.0000 0.0000 29.3062
#
#
#
# Elastic Compliance Matrix: (Units=1/GPa)
#
#
# Indices 1 2 3 4 5 6 
#
# 1 0.011100 -0.000368 -0.002199 0.000000 0.000000 0.000000
# 2 -0.000368 0.025627 -0.011483 0.000000 0.000000 0.000000
# 3 -0.002199 -0.011483 0.022175 0.000000 0.000000 0.000000
# 4 0.000000 0.000000 0.000000 0.029348 0.000000 0.000000
# 5 0.000000 0.000000 0.000000 0.000000 0.127482 0.000000
# 6 0.000000 0.000000 0.000000 0.000000 0.000000 0.034122
#
#
# Mechanical properties :
#
#
# Convention : Reuss Voigt Hill
#
# Bulk Modulus (GPa) = 32.46467 33.26029 32.86248
# Shear Modulus (GPa) = 17.34781 24.74118 21.04449
#
# Velocity S-wave (km/s) = 2.91790 3.48464 3.21378
# Velocity P-wave (km/s) = 5.22355 5.70211 5.46807
#
# Compressibility (1/GPa) = 0.03080272
#
# Stress axis : x y z
#
# Youngs Moduli (GPa) = 90.08902 39.02169 45.09624
#
# Poissons Ratio (x) = 0.01435 0.09916
# Poissons Ratio (y) = 0.03312 0.51784
# Poissons Ratio (z) = 0.19809 0.44809
#
# Static dielectric constant tensor:
#      x y z
#    x 1.751210 0.000000 0.000000 
#    y 0.000000 1.781350 0.000000 
#    z 0.000000 0.000000 1.756260 
# 
# From -- ./inp_files/23835.got.cif
#   From: 2010.05.17/outbox.cif.g08.bks.cpg/sg50_12_cif.got.tgz:23835.got - 2010.06.03 11:33:33.
