data_PCOD9396185
_publ_section_title
;
Structure prediction by ZEFSAII (Michael W. Deem and Ramdas Pophale) SiO2 
 PCOD9396185
Probable space group: P B A N
;
_chemical_formula_sum "Si O2"
_cell_formula_units_Z 58
_cell_length_a 14.111529
_cell_length_b 22.499155
_cell_length_c 8.920059
_cell_angle_alpha 90.000000
_cell_angle_beta 90.000000
_cell_angle_gamma 90.000000
_cell_volume 2832.096238
_symmetry_space_group_name_H-M "P B A N"
_symmetry_group_IT_number 50
_space_group.IT_coordinate_system_code '2'
_symmetry_cell_setting 'orthorhombic'
loop_
_space_group_symop_operation_xyz
x,y,z
1/2-x,1/2-y,z
x,1/2-y,-z
1/2-x,y,-z
-x,-y,-z
1/2+x,1/2+y,-z
-x,1/2+y,z
1/2+x,-y,z
loop_
_atom_site_type_symbol
_atom_site_label
_atom_site_fract_x
_atom_site_fract_y
_atom_site_fract_z
Si Si1 0.846460 0.109597 0.782189
Si Si2 0.454293 0.433787 0.514205
Si Si3 0.118795 0.462851 0.161226
Si Si4 0.698400 0.512364 0.659960
Si Si5 0.018954 0.915547 0.936930
Si Si6 0.750000 0.250000 0.000000
Si Si7 0.919942 0.183488 0.523866
Si Si8 0.150850 0.838781 0.783550
O O1 0.875636 0.167306 0.685602
O O2 0.734345 0.113611 0.811186
O O3 0.856974 0.048192 0.693620
O O4 0.911479 0.101625 0.925502
O O5 0.500000 0.500000 0.500000
O O6 0.414498 0.432482 0.684023
O O7 0.374324 0.435869 0.383862
O O8 0.513640 0.373913 0.499550
O O9 0.228646 0.475253 0.203763
O O10 0.059359 0.523947 0.137452
O O11 0.083182 0.426364 0.014404
O O12 0.750000 0.501260 0.500000
O O13 0.046967 0.863843 0.822020
O O14 0.818252 0.212323 0.105149
O O15 0.960713 0.250000 0.500000
O O16 0.844843 0.178940 0.389233
#
# Coordination Sequence:
#
# PCOD9396185 Si02
#       8
#     8   8   8   8   8   2   8   8
#     4  12  21  39  59  88 129 166 209 262 312 384
#     4  11  20  39  63  90 125 162 212 272 320 378
#     4  10  21  35  59  92 124 164 208 260 323 382
#     4  10  20  34  61  91 119 159 208 266 319 367
#     4  11  21  36  58  89 131 168 203 258 325 385
#     4  12  24  40  58  84 128 170 222 248 310 400
#     4  12  26  41  63  90 125 171 221 265 318 390
#     4  12  24  38  59  86 127 176 211 253 318 392
#
# _framework density 20.479531000000001
#
# number of rings (size 3 to 8) (size 9 to 14) (size 15 to 20)
#    0.000    0.828    5.517    2.897    0.000    1.655 
#    0.000    0.000    0.000    3.724    0.000    0.000 
#    0.000    1.103    0.000    0.000    0.000    0.000 
#
# Total GULP energy -323417.419006 kJ/mol
# GULP energy per Si atom -5576.162397 kJ/mol
# Density = 2.043292 g / cm^3
# Si number density = 20.479531 Si / 1000 Ang^3
#
#
#
# Elastic Constant Matrix: (Units=GPa)
#
#
# Indices 1 2 3 4 5 6 
#
# 1 59.5257 36.8161 30.6619 0.0000 0.0000 0.0000
# 2 36.8161 105.1422 33.8246 0.0000 0.0000 0.0000
# 3 30.6619 33.8246 94.7950 0.0000 0.0000 0.0000
# 4 0.0000 0.0000 0.0000 33.2810 0.0000 0.0000
# 5 0.0000 0.0000 0.0000 0.0000 45.3447 0.0000
# 6 0.0000 0.0000 0.0000 0.0000 0.0000 17.2086
#
#
#
# Elastic Compliance Matrix: (Units=1/GPa)
#
#
# Indices 1 2 3 4 5 6 
#
# 1 0.023577 -0.006555 -0.005287 0.000000 0.000000 0.000000
# 2 -0.006555 0.012567 -0.002364 0.000000 0.000000 0.000000
# 3 -0.005287 -0.002364 0.013103 0.000000 0.000000 0.000000
# 4 0.000000 0.000000 0.000000 0.030047 0.000000 0.000000
# 5 0.000000 0.000000 0.000000 0.000000 0.022053 0.000000
# 6 0.000000 0.000000 0.000000 0.000000 0.000000 0.058110
#
#
# Mechanical properties :
#
#
# Convention : Reuss Voigt Hill
#
# Bulk Modulus (GPa) = 47.99683 51.34088 49.66886
# Shear Modulus (GPa) = 25.66558 29.71088 27.68823
#
# Velocity S-wave (km/s) = 3.54394 3.81302 3.68094
# Velocity P-wave (km/s) = 6.34298 6.67153 6.50933
#
# Compressibility (1/GPa) = 0.02083471
#
# Stress axis : x y z
#
# Youngs Moduli (GPa) = 42.41434 79.57648 76.32005
#
# Poissons Ratio (x) = 0.52160 0.40352
# Poissons Ratio (y) = 0.27801 0.18041
# Poissons Ratio (z) = 0.22425 0.18810
#
# Static dielectric constant tensor:
#      x y z
#    x 1.831340 0.000000 0.000000 
#    y 0.000000 1.775230 0.000000 
#    z 0.000000 0.000000 1.796490 
# 
# From -- ./inp_files/13441.got.cif
#   From: 2010.05.17/outbox.cif.g08.bks.cpg/sg50_7_cif.got.tgz:13441.got - 2010.06.03 11:33:33.
