data_PCOD9396986
_publ_section_title
;
Structure prediction by ZEFSAII (Michael W. Deem and Ramdas Pophale) SiO2 
 PCOD9396986
Probable space group: P B A N
;
_chemical_formula_sum "Si O2"
_cell_formula_units_Z 48
_cell_length_a 17.757052
_cell_length_b 8.549605
_cell_length_c 14.742816
_cell_angle_alpha 90.000000
_cell_angle_beta 90.000000
_cell_angle_gamma 90.000000
_cell_volume 2238.192119
_symmetry_space_group_name_H-M "P B A N"
_symmetry_group_IT_number 50
_space_group.IT_coordinate_system_code '2'
_symmetry_cell_setting 'orthorhombic'
loop_
_space_group_symop_operation_xyz
x,y,z
1/2-x,1/2-y,z
x,1/2-y,-z
1/2-x,y,-z
-x,-y,-z
1/2+x,1/2+y,-z
-x,1/2+y,z
1/2+x,-y,z
loop_
_atom_site_type_symbol
_atom_site_label
_atom_site_fract_x
_atom_site_fract_y
_atom_site_fract_z
Si Si1 0.250000 0.250000 0.500000
Si Si2 0.750000 0.250000 0.500000
Si Si3 0.398984 0.836433 0.898689
Si Si4 0.235068 0.500100 0.365723
Si Si5 0.836022 0.580617 0.964987
Si Si6 0.888343 0.899201 0.241327
Si Si7 0.250000 0.750000 0.210994
Si Si8 0.987462 0.878475 0.810919
O O1 0.283101 0.379869 0.427905
O O2 0.794348 0.364642 0.566495
O O3 0.324299 0.762829 0.851994
O O4 0.469452 0.717189 0.890607
O O5 0.433146 0.983736 0.843065
O O6 0.374498 0.927810 0.990255
O O7 0.168768 0.401016 0.322745
O O8 0.261297 0.600802 0.278269
O O9 0.846652 0.589161 0.856816
O O10 0.865646 0.750000 0.000000
O O11 0.750000 0.572598 0.000000
O O12 0.937987 0.745414 0.241236
O O13 0.944832 0.045318 0.245282
#
# Coordination Sequence:
#
# PCOD9396986 Si02
#       8
#     2   2   8   8   8   8   4   8
#     4  10  24  38  72 104 122 162 208 292 344 422
#     4   8  20  42  66  96 126 154 198 282 338 424
#     4  11  23  43  62  98 134 186 229 272 325 380
#     4  10  21  41  66 100 125 159 214 268 352 393
#     4  11  24  39  61  94 137 177 233 282 323 367
#     4  11  22  42  62  92 129 177 220 277 321 408
#     4  11  22  41  70  98 134 182 215 287 319 407
#     4  10  24  40  65  94 131 186 227 270 327 390
#
# _framework density 21.445881
#
# number of rings (size 3 to 8) (size 9 to 14) (size 15 to 20)
#    0.000    1.500    3.333    1.000    2.333    6.000 
#    0.000    0.000    0.000    3.000    0.000    0.000 
#    0.000    0.000    0.000    0.000    0.000    0.000 
#
# Total GULP energy -267308.533486 kJ/mol
# GULP energy per Si atom -5568.927781 kJ/mol
# Density = 2.139707 g / cm^3
# Si number density = 21.445881 Si / 1000 Ang^3
#
#
#
# Elastic Constant Matrix: (Units=GPa)
#
#
# Indices 1 2 3 4 5 6 
#
# 1 82.4718 27.7820 33.2465 0.0000 0.0000 0.0000
# 2 27.7820 107.2933 39.3664 0.0000 0.0000 0.0000
# 3 33.2465 39.3664 103.6996 0.0000 0.0000 0.0000
# 4 0.0000 0.0000 0.0000 37.3694 0.0000 0.0000
# 5 0.0000 0.0000 0.0000 0.0000 7.6700 0.0000
# 6 0.0000 0.0000 0.0000 0.0000 0.0000 20.0422
#
#
#
# Elastic Compliance Matrix: (Units=1/GPa)
#
#
# Indices 1 2 3 4 5 6 
#
# 1 0.014425 -0.002368 -0.003726 0.000000 0.000000 0.000000
# 2 -0.002368 0.011217 -0.003499 0.000000 0.000000 0.000000
# 3 -0.003726 -0.003499 0.012166 0.000000 0.000000 0.000000
# 4 0.000000 0.000000 0.000000 0.026760 0.000000 0.000000
# 5 0.000000 0.000000 0.000000 0.000000 0.130379 0.000000
# 6 0.000000 0.000000 0.000000 0.000000 0.000000 0.049895
#
#
# Mechanical properties :
#
#
# Convention : Reuss Voigt Hill
#
# Bulk Modulus (GPa) = 53.69862 54.91718 54.30790
# Shear Modulus (GPa) = 18.50242 25.88763 22.19503
#
# Velocity S-wave (km/s) = 2.94045 3.47812 3.22053
# Velocity P-wave (km/s) = 6.05159 6.46473 6.26157
#
# Compressibility (1/GPa) = 0.01862245
#
# Stress axis : x y z
#
# Youngs Moduli (GPa) = 69.32386 89.14823 82.19606
#
# Poissons Ratio (x) = 0.21112 0.30624
# Poissons Ratio (y) = 0.16417 0.28761
# Poissons Ratio (z) = 0.25828 0.31193
#
# Static dielectric constant tensor:
#      x y z
#    x 1.754860 0.000000 0.000000 
#    y 0.000000 1.880150 0.000000 
#    z 0.000000 0.000000 1.803560 
# 
# From -- ./inp_files/26911.got.cif
#   From: 2010.05.17/outbox.cif.g08.bks.cpg/sg50_14_cif.got.tgz:26911.got - 2010.06.03 11:33:33.
