data_PCOD9396466
_publ_section_title
;
Structure prediction by ZEFSAII (Michael W. Deem and Ramdas Pophale) SiO2 
 PCOD9396466
Probable space group: P B A N
;
_chemical_formula_sum "Si O2"
_cell_formula_units_Z 48
_cell_length_a 15.233222
_cell_length_b 15.770085
_cell_length_c 9.766188
_cell_angle_alpha 90.000000
_cell_angle_beta 90.000000
_cell_angle_gamma 90.000000
_cell_volume 2346.123587
_symmetry_space_group_name_H-M "P B A N"
_symmetry_group_IT_number 50
_space_group.IT_coordinate_system_code '2'
_symmetry_cell_setting 'orthorhombic'
loop_
_space_group_symop_operation_xyz
x,y,z
1/2-x,1/2-y,z
x,1/2-y,-z
1/2-x,y,-z
-x,-y,-z
1/2+x,1/2+y,-z
-x,1/2+y,z
1/2+x,-y,z
loop_
_atom_site_type_symbol
_atom_site_label
_atom_site_fract_x
_atom_site_fract_y
_atom_site_fract_z
Si Si1 0.750000 0.586441 0.000000
Si Si2 0.250000 0.894269 0.500000
Si Si3 0.001954 0.456186 0.285004
Si Si4 0.938379 0.120436 0.426598
Si Si5 0.410914 0.185119 0.102483
Si Si6 0.117539 0.203708 0.359122
Si Si7 0.814506 0.974621 0.727433
O O1 0.664801 0.644643 0.010245
O O2 0.755776 0.533638 0.138817
O O3 0.160906 0.848124 0.549998
O O4 0.219936 0.956416 0.378183
O O5 0.978130 0.406244 0.425312
O O6 0.912517 0.497675 0.231393
O O7 0.063012 0.533952 0.335826
O O8 0.037638 0.391484 0.173570
O O9 0.012758 0.181003 0.363656
O O10 0.369418 0.236095 0.229644
O O11 0.460243 0.250000 0.000000
O O12 0.139401 0.250000 0.500000
O O13 0.171737 0.117013 0.342683
#
# Coordination Sequence:
#
# PCOD9396466 Si02
#       7
#     4   4   8   8   8   8   8
#     4  12  25  40  52  88 131 154 194 246 301 358
#     4  10  20  38  64  90 116 146 198 266 290 338
#     4   9  19  38  63  83 117 158 205 244 285 370
#     4   9  18  37  62  92 112 149 210 248 293 350
#     4  12  24  40  58  86 128 158 195 249 303 366
#     4  11  22  38  62  87 116 164 199 242 303 372
#     4  10  23  39  60  90 118 161 203 244 305 356
#
# _framework density 20.45928
#
# number of rings (size 3 to 8) (size 9 to 14) (size 15 to 20)
#    0.000    1.667    3.333    2.250    2.333    0.667 
#    3.000    0.417    0.000    0.000    0.000    0.000 
#    0.000    0.000    0.000    0.000    0.000    0.000 
#
# Total GULP energy -268149.999347 kJ/mol
# GULP energy per Si atom -5586.458320 kJ/mol
# Density = 2.041271 g / cm^3
# Si number density = 20.459280 Si / 1000 Ang^3
#
#
#
# Elastic Constant Matrix: (Units=GPa)
#
#
# Indices 1 2 3 4 5 6 
#
# 1 68.5046 4.1533 5.0034 0.0000 0.0000 0.0000
# 2 4.1533 64.1770 32.0665 0.0000 0.0000 0.0000
# 3 5.0034 32.0665 98.6204 0.0000 0.0000 0.0000
# 4 0.0000 0.0000 0.0000 23.9191 0.0000 0.0000
# 5 0.0000 0.0000 0.0000 0.0000 29.8424 0.0000
# 6 0.0000 0.0000 0.0000 0.0000 0.0000 -3.6700
#
#
#
# Elastic Compliance Matrix: (Units=1/GPa)
#
#
# Indices 1 2 3 4 5 6 
#
# 1 0.014677 -0.000690 -0.000520 0.000000 0.000000 0.000000
# 2 -0.000690 0.018637 -0.006025 0.000000 0.000000 0.000000
# 3 -0.000520 -0.006025 0.012125 0.000000 0.000000 0.000000
# 4 0.000000 0.000000 0.000000 0.041808 0.000000 0.000000
# 5 0.000000 0.000000 0.000000 0.000000 0.033509 0.000000
# 6 0.000000 0.000000 0.000000 0.000000 0.000000 -0.272479
#
#
# Mechanical properties :
#
#
# Convention : Reuss Voigt Hill
#
# Bulk Modulus (GPa) = 32.28980 34.86093 33.57537
# Shear Modulus (GPa) = -39.39209 22.69022 -8.35093
#
# Velocity S-wave (km/s) = -4.39269 3.33384 -2.02252
# Velocity P-wave (km/s) = 3.14815 5.64761 3.31547
#
# Compressibility (1/GPa) = 0.03096953
#
# Stress axis : x y z
#
# Youngs Moduli (GPa) = 68.13201 53.65708 82.47254
#
# Poissons Ratio (x) = 0.03702 0.04291
# Poissons Ratio (y) = 0.04700 0.49688
# Poissons Ratio (z) = 0.03545 0.32327
#
# Static dielectric constant tensor:
#      x y z
#    x 1.792300 0.000000 0.000000 
#    y 0.000000 1.740880 0.000000 
#    z 0.000000 0.000000 1.731170 
# 
# From -- ./inp_files/13012.got.cif
#   From: 2010.05.17/outbox.cif.g08.bks.cpg/sg50_7_cif.got.tgz:13012.got - 2010.06.03 11:33:33.
