data_PCOD9396324
_publ_section_title
;
Structure prediction by ZEFSAII (Michael W. Deem and Ramdas Pophale) SiO2 
 PCOD9396324
Probable space group: P B A N
;
_chemical_formula_sum "Si O2"
_cell_formula_units_Z 38
_cell_length_a 27.165274
_cell_length_b 8.086678
_cell_length_c 7.934504
_cell_angle_alpha 90.000000
_cell_angle_beta 90.000000
_cell_angle_gamma 90.000000
_cell_volume 1743.026636
_symmetry_space_group_name_H-M "P B A N"
_symmetry_group_IT_number 50
_space_group.IT_coordinate_system_code '2'
_symmetry_cell_setting 'orthorhombic'
loop_
_space_group_symop_operation_xyz
x,y,z
1/2-x,1/2-y,z
x,1/2-y,-z
1/2-x,y,-z
-x,-y,-z
1/2+x,1/2+y,-z
-x,1/2+y,z
1/2+x,-y,z
loop_
_atom_site_type_symbol
_atom_site_label
_atom_site_fract_x
_atom_site_fract_y
_atom_site_fract_z
Si Si1 0.946986 0.561500 0.064037
Si Si2 0.750000 0.250000 0.500000
Si Si3 0.880133 0.250000 0.000000
Si Si4 0.306687 0.251043 0.798703
Si Si5 0.340390 0.600626 0.679383
Si Si6 0.391205 0.419480 0.396985
O O1 0.911183 0.418532 0.996392
O O2 0.935349 0.557185 0.264211
O O3 0.938066 0.750000 0.000000
O O4 0.000000 0.500000 0.000000
O O5 0.712924 0.358042 0.392392
O O6 0.851803 0.234092 0.176541
O O7 0.250000 0.250000 0.738197
O O8 0.333704 0.420915 0.757699
O O9 0.340878 0.113706 0.710485
O O10 0.305704 0.250000 0.000000
O O11 0.379294 0.566569 0.528383
O O12 0.400374 0.250000 0.500000
#
# Coordination Sequence:
#
# PCOD9396324 Si02
#       6
#     8   2   4   8   8   8
#     4  12  25  48  76 103 138 185 235 301 371 444
#     4  12  24  38  58  96 144 186 236 290 344 406
#     4  12  26  47  74 102 142 192 243 296 374 430
#     4  10  20  36  64 100 138 189 240 281 342 422
#     4  11  24  40  64  99 143 190 236 294 348 421
#     4  10  21  42  69  99 140 183 234 293 358 418
#
# _framework density 21.801159999999999
#
# number of rings (size 3 to 8) (size 9 to 14) (size 15 to 20)
#    0.000    1.053    1.053    6.947    0.000    6.737 
#    0.000    4.211    0.000    0.000    0.000    0.000 
#    0.000    0.000    0.000    0.000    0.000    0.000 
#
# Total GULP energy -212241.612832 kJ/mol
# GULP energy per Si atom -5585.305601 kJ/mol
# Density = 2.175154 g / cm^3
# Si number density = 21.801160 Si / 1000 Ang^3
#
#
#
# Elastic Constant Matrix: (Units=GPa)
#
#
# Indices 1 2 3 4 5 6 
#
# 1 113.7370 42.9105 70.1530 0.0000 0.0000 0.0000
# 2 42.9105 141.3271 45.6068 0.0000 0.0000 0.0000
# 3 70.1530 45.6068 143.1595 0.0000 0.0000 0.0000
# 4 0.0000 0.0000 0.0000 37.9893 0.0000 0.0000
# 5 0.0000 0.0000 0.0000 0.0000 19.2787 0.0000
# 6 0.0000 0.0000 0.0000 0.0000 0.0000 29.7437
#
#
#
# Elastic Compliance Matrix: (Units=1/GPa)
#
#
# Indices 1 2 3 4 5 6 
#
# 1 0.013153 -0.002133 -0.005766 0.000000 0.000000 0.000000
# 2 -0.002133 0.008232 -0.001577 0.000000 0.000000 0.000000
# 3 -0.005766 -0.001577 0.010313 0.000000 0.000000 0.000000
# 4 0.000000 0.000000 0.000000 0.026323 0.000000 0.000000
# 5 0.000000 0.000000 0.000000 0.000000 0.051871 0.000000
# 6 0.000000 0.000000 0.000000 0.000000 0.000000 0.033621
#
#
# Mechanical properties :
#
#
# Convention : Reuss Voigt Hill
#
# Bulk Modulus (GPa) = 78.45463 79.50714 78.98088
# Shear Modulus (GPa) = 29.99119 33.37256 31.68188
#
# Velocity S-wave (km/s) = 3.71303 3.91675 3.81625
# Velocity P-wave (km/s) = 7.37880 7.55003 7.46491
#
# Compressibility (1/GPa) = 0.01274622
#
# Stress axis : x y z
#
# Youngs Moduli (GPa) = 76.02547 121.47056 96.96184
#
# Poissons Ratio (x) = 0.25909 0.55910
# Poissons Ratio (y) = 0.16216 0.15295
# Poissons Ratio (z) = 0.43837 0.19161
#
# Static dielectric constant tensor:
#      x y z
#    x 2.426580 0.000000 0.000000 
#    y 0.000000 -16.462790 0.000000 
#    z 0.000000 0.000000 1.867550 
# 
# From -- ./inp_files/15820.got.cif
#   From: 2010.05.17/outbox.cif.g08.bks.cpg/sg50_8_cif.got.tgz:15820.got - 2010.06.03 11:33:33.
