data_PCOD9396923
_publ_section_title
;
Structure prediction by ZEFSAII (Michael W. Deem and Ramdas Pophale) SiO2 
 PCOD9396923
Probable space group: P B A N
;
_chemical_formula_sum "Si O2"
_cell_formula_units_Z 30
_cell_length_a 10.314999
_cell_length_b 25.273267
_cell_length_c 7.007596
_cell_angle_alpha 90.000000
_cell_angle_beta 90.000000
_cell_angle_gamma 90.000000
_cell_volume 1826.836296
_symmetry_space_group_name_H-M "P B A N"
_symmetry_group_IT_number 50
_space_group.IT_coordinate_system_code '2'
_symmetry_cell_setting 'orthorhombic'
loop_
_space_group_symop_operation_xyz
x,y,z
1/2-x,1/2-y,z
x,1/2-y,-z
1/2-x,y,-z
-x,-y,-z
1/2+x,1/2+y,-z
-x,1/2+y,z
1/2+x,-y,z
loop_
_atom_site_type_symbol
_atom_site_label
_atom_site_fract_x
_atom_site_fract_y
_atom_site_fract_z
Si Si1 0.054296 0.981000 0.798868
Si Si2 0.636457 0.147460 0.355520
Si Si3 0.250000 0.750000 0.500000
Si Si4 0.102249 0.421386 0.482695
Si Si5 0.750000 0.094213 0.000000
O O1 0.949362 0.948297 0.677201
O O2 0.095324 0.031402 0.673291
O O3 0.171540 0.942893 0.855342
O O4 0.000000 0.000000 0.000000
O O5 0.750000 0.126025 0.500000
O O6 0.659670 0.210259 0.378782
O O7 0.500504 0.123739 0.424700
O O8 0.661698 0.129175 0.139625
O O9 0.250000 0.403084 0.500000
#
# Coordination Sequence:
#
# PCOD9396923 Si02
#       5
#     8   8   2   8   4
#     4  11  21  33  52  82 120 160 189 218 274 345
#     4  10  21  40  58  83 112 144 198 243 287 342
#     4   8  20  42  66  80 106 144 206 254 292 334
#     4  11  23  35  53  83 124 156 185 232 287 344
#     4  12  20  35  60  86 112 156 197 232 278 354
#
# _framework density 16.421831000000001
#
# number of rings (size 3 to 8) (size 9 to 14) (size 15 to 20)
#    0.800    0.533    5.333    1.600    3.733    0.533 
#    0.000    0.667    0.000    0.000    0.000    0.000 
#    0.000    0.000    0.000    0.000    0.000    0.000 
#
# Total GULP energy -167155.316220 kJ/mol
# GULP energy per Si atom -5571.843874 kJ/mol
# Density = 1.638445 g / cm^3
# Si number density = 16.421831 Si / 1000 Ang^3
#
#
#
# Elastic Constant Matrix: (Units=GPa)
#
#
# Indices 1 2 3 4 5 6 
#
# 1 132.0698 56.9083 35.8545 0.0000 0.0000 0.0000
# 2 56.9083 110.3373 39.5100 0.0000 0.0000 0.0000
# 3 35.8545 39.5100 99.9681 0.0000 0.0000 0.0000
# 4 0.0000 0.0000 0.0000 7.2218 0.0000 0.0000
# 5 0.0000 0.0000 0.0000 0.0000 24.5577 0.0000
# 6 0.0000 0.0000 0.0000 0.0000 0.0000 12.8720
#
#
#
# Elastic Compliance Matrix: (Units=1/GPa)
#
#
# Indices 1 2 3 4 5 6 
#
# 1 0.010007 -0.004515 -0.001805 0.000000 0.000000 0.000000
# 2 -0.004515 0.012594 -0.003358 0.000000 0.000000 0.000000
# 3 -0.001805 -0.003358 0.011978 0.000000 0.000000 0.000000
# 4 0.000000 0.000000 0.000000 0.138469 0.000000 0.000000
# 5 0.000000 0.000000 0.000000 0.000000 0.040720 0.000000
# 6 0.000000 0.000000 0.000000 0.000000 0.000000 0.077688
#
#
# Mechanical properties :
#
#
# Convention : Reuss Voigt Hill
#
# Bulk Modulus (GPa) = 65.68917 67.43566 66.56241
# Shear Modulus (GPa) = 15.82841 22.93713 19.38277
#
# Velocity S-wave (km/s) = 3.10798 3.74136 3.43928
# Velocity P-wave (km/s) = 7.27787 7.73418 7.50949
#
# Compressibility (1/GPa) = 0.01522321
#
# Stress axis : x y z
#
# Youngs Moduli (GPa) = 99.92738 79.40019 83.48838
#
# Poissons Ratio (x) = 0.35851 0.15067
# Poissons Ratio (y) = 0.45119 0.28037
# Poissons Ratio (z) = 0.18034 0.26664
#
# Static dielectric constant tensor:
#      x y z
#    x 1.539470 0.000000 0.000000 
#    y 0.000000 1.568300 0.000000 
#    z 0.000000 0.000000 1.551200 
# 
# From -- ./inp_files/1165.got.cif
#   From: 2010.05.17/outbox.cif.g08.bks.cpg/sg50_1_cif.got.tgz:1165.got - 2010.06.03 11:33:33.
