data_PCOD9396346
_publ_section_title
;
Structure prediction by ZEFSAII (Michael W. Deem and Ramdas Pophale) SiO2 
 PCOD9396346
Probable space group: P B A N
;
_chemical_formula_sum "Si O2"
_cell_formula_units_Z 48
_cell_length_a 10.842558
_cell_length_b 22.942141
_cell_length_c 9.766151
_cell_angle_alpha 90.000000
_cell_angle_beta 90.000000
_cell_angle_gamma 90.000000
_cell_volume 2429.344656
_symmetry_space_group_name_H-M "P B A N"
_symmetry_group_IT_number 50
_space_group.IT_coordinate_system_code '2'
_symmetry_cell_setting 'orthorhombic'
loop_
_space_group_symop_operation_xyz
x,y,z
1/2-x,1/2-y,z
x,1/2-y,-z
1/2-x,y,-z
-x,-y,-z
1/2+x,1/2+y,-z
-x,1/2+y,z
1/2+x,-y,z
loop_
_atom_site_type_symbol
_atom_site_label
_atom_site_fract_x
_atom_site_fract_y
_atom_site_fract_z
Si Si1 0.779634 0.181906 0.657396
Si Si2 0.000142 0.604330 0.715591
Si Si3 0.619925 0.904972 0.003187
Si Si4 0.906434 0.097526 0.202106
Si Si5 0.298953 0.995852 0.782502
Si Si6 0.421503 0.055126 0.554306
O O1 0.750000 0.250000 0.665005
O O2 0.750000 0.162561 0.500000
O O3 0.917985 0.162684 0.698138
O O4 0.688983 0.147221 0.757645
O O5 0.103422 0.554496 0.743840
O O6 0.923005 0.596310 0.576926
O O7 0.913123 0.593951 0.844460
O O8 0.494578 0.885129 0.077197
O O9 0.652413 0.963210 0.094100
O O10 0.750000 0.871015 0.000000
O O11 0.826645 0.038134 0.181627
O O12 0.994862 0.085593 0.330247
O O13 0.303216 0.033040 0.641063
O O14 0.500000 0.000000 0.500000
#
# Coordination Sequence:
#
# PCOD9396346 Si02
#       6
#     8   8   8   8   8   8
#     4  10  20  38  70  96 113 144 192 263 329 356
#     4  10  20  37  56  85 123 151 198 249 296 354
#     4  11  25  37  54  83 124 171 202 234 294 365
#     4  10  21  40  55  86 126 154 204 253 293 357
#     4   9  21  32  56  76 120 164 198 232 293 349
#     4   9  18  32  51  80 115 161 191 231 294 348
#
# _framework density 19.758414999999999
#
# number of rings (size 3 to 8) (size 9 to 14) (size 15 to 20)
#    0.000    2.167    1.667    0.500    9.333    2.000 
#    3.000    1.667    0.000    2.000    0.000    2.333 
#    0.000    0.000    0.000    0.000    0.000    0.000 
#
# Total GULP energy -267473.658922 kJ/mol
# GULP energy per Si atom -5572.367894 kJ/mol
# Density = 1.971344 g / cm^3
# Si number density = 19.758415 Si / 1000 Ang^3
#
#
#
# Elastic Constant Matrix: (Units=GPa)
#
#
# Indices 1 2 3 4 5 6 
#
# 1 99.1849 20.6806 30.0929 0.0000 0.0000 0.0000
# 2 20.6806 55.5263 19.3170 0.0000 0.0000 0.0000
# 3 30.0929 19.3170 129.7111 0.0000 0.0000 0.0000
# 4 0.0000 0.0000 0.0000 13.8602 0.0000 0.0000
# 5 0.0000 0.0000 0.0000 0.0000 36.4743 0.0000
# 6 0.0000 0.0000 0.0000 0.0000 0.0000 18.1659
#
#
#
# Elastic Compliance Matrix: (Units=1/GPa)
#
#
# Indices 1 2 3 4 5 6 
#
# 1 0.011465 -0.003528 -0.002135 0.000000 0.000000 0.000000
# 2 -0.003528 0.020079 -0.002172 0.000000 0.000000 0.000000
# 3 -0.002135 -0.002172 0.008528 0.000000 0.000000 0.000000
# 4 0.000000 0.000000 0.000000 0.072149 0.000000 0.000000
# 5 0.000000 0.000000 0.000000 0.000000 0.027417 0.000000
# 6 0.000000 0.000000 0.000000 0.000000 0.000000 0.055048
#
#
# Mechanical properties :
#
#
# Convention : Reuss Voigt Hill
#
# Bulk Modulus (GPa) = 40.97645 47.17814 44.07730
# Shear Modulus (GPa) = 22.88445 27.98887 25.43666
#
# Velocity S-wave (km/s) = 3.40694 3.76780 3.59191
# Velocity P-wave (km/s) = 6.02164 6.54658 6.28959
#
# Compressibility (1/GPa) = 0.02440426
#
# Stress axis : x y z
#
# Youngs Moduli (GPa) = 87.21928 49.80351 117.25937
#
# Poissons Ratio (x) = 0.17569 0.25030
# Poissons Ratio (y) = 0.30768 0.25467
# Poissons Ratio (z) = 0.18618 0.10816
#
# Static dielectric constant tensor:
#      x y z
#    x 2.684490 0.000000 0.000000 
#    y 0.000000 1.688710 0.000000 
#    z 0.000000 0.000000 1.780780 
# 
# From -- ./inp_files/11565.got.cif
#   From: 2010.05.17/outbox.cif.g08.bks.cpg/sg50_6_cif.got.tgz:11565.got - 2010.06.03 11:33:33.
