data_PCOD9396225
_publ_section_title
;
Structure prediction by ZEFSAII (Michael W. Deem and Ramdas Pophale) SiO2 
 PCOD9396225
Probable space group: P B A N
;
_chemical_formula_sum "Si O2"
_cell_formula_units_Z 40
_cell_length_a 12.572539
_cell_length_b 8.873378
_cell_length_c 15.654121
_cell_angle_alpha 90.000000
_cell_angle_beta 90.000000
_cell_angle_gamma 90.000000
_cell_volume 1746.387686
_symmetry_space_group_name_H-M "P B A N"
_symmetry_group_IT_number 50
_space_group.IT_coordinate_system_code '2'
_symmetry_cell_setting 'orthorhombic'
loop_
_space_group_symop_operation_xyz
x,y,z
1/2-x,1/2-y,z
x,1/2-y,-z
1/2-x,y,-z
-x,-y,-z
1/2+x,1/2+y,-z
-x,1/2+y,z
1/2+x,-y,z
loop_
_atom_site_type_symbol
_atom_site_label
_atom_site_fract_x
_atom_site_fract_y
_atom_site_fract_z
Si Si1 0.846490 0.498260 0.568244
Si Si2 0.994751 0.750000 0.500000
Si Si3 0.273856 0.505410 0.913319
Si Si4 0.427950 0.158798 0.826214
Si Si5 0.925847 0.750000 0.000000
Si Si6 0.113914 0.009123 0.755094
O O1 0.750000 0.496126 0.500000
O O2 0.926971 0.361753 0.549437
O O3 0.821221 0.490377 0.668156
O O4 0.916549 0.648686 0.556548
O O5 0.173572 0.427149 0.865884
O O6 0.329587 0.577647 0.832476
O O7 0.250000 0.592554 0.000000
O O8 0.351678 0.376337 0.954818
O O9 0.395752 0.314791 0.780680
O O10 0.495319 0.059657 0.759940
O O11 0.488133 0.190804 0.917412
#
# Coordination Sequence:
#
# PCOD9396225 Si02
#       6
#     8   4   8   8   4   8
#     4  11  24  43  67  94 127 165 209 268 329 390
#     4  10  24  44  66  94 126 160 210 262 326 400
#     4   9  18  34  56  84 121 164 203 236 281 351
#     4  10  20  35  58  87 121 155 200 248 289 355
#     4   8  15  32  56  84 121 168 205 238 288 352
#     4  11  22  37  62  90 115 154 200 246 305 362
#
# _framework density 22.904423000000001
#
# number of rings (size 3 to 8) (size 9 to 14) (size 15 to 20)
#    0.000    2.000    0.000    7.500    0.000   13.600 
#    0.000    3.000    0.000    3.600    0.000    0.000 
#    0.000    0.000    0.000    0.000    0.000    0.000 
#
# Total GULP energy -222906.158204 kJ/mol
# GULP energy per Si atom -5572.653955 kJ/mol
# Density = 2.285229 g / cm^3
# Si number density = 22.904423 Si / 1000 Ang^3
#
#
#
# Elastic Constant Matrix: (Units=GPa)
#
#
# Indices 1 2 3 4 5 6 
#
# 1 85.3750 25.6312 65.3017 0.0000 0.0000 0.0000
# 2 25.6312 58.9532 20.1871 0.0000 0.0000 0.0000
# 3 65.3017 20.1871 186.6615 0.0000 0.0000 0.0000
# 4 0.0000 0.0000 0.0000 -7.5939 0.0000 0.0000
# 5 0.0000 0.0000 0.0000 0.0000 30.3383 0.0000
# 6 0.0000 0.0000 0.0000 0.0000 0.0000 1.3447
#
#
#
# Elastic Compliance Matrix: (Units=1/GPa)
#
#
# Indices 1 2 3 4 5 6 
#
# 1 0.017713 -0.005794 -0.005570 0.000000 0.000000 0.000000
# 2 -0.005794 0.019510 -0.000083 0.000000 0.000000 0.000000
# 3 -0.005570 -0.000083 0.007315 0.000000 0.000000 0.000000
# 4 0.000000 0.000000 0.000000 -0.131685 0.000000 0.000000
# 5 0.000000 0.000000 0.000000 0.000000 0.032962 0.000000
# 6 0.000000 0.000000 0.000000 0.000000 0.000000 0.743671
#
#
# Mechanical properties :
#
#
# Convention : Reuss Voigt Hill
#
# Bulk Modulus (GPa) = 46.20221 61.46998 53.83609
# Shear Modulus (GPa) = 6.94836 19.47579 13.21207
#
# Velocity S-wave (km/s) = 1.74362 2.91917 2.40434
# Velocity P-wave (km/s) = 4.92637 6.18530 5.59138
#
# Compressibility (1/GPa) = 0.02164399
#
# Stress axis : x y z
#
# Youngs Moduli (GPa) = 56.45603 51.25569 136.70683
#
# Poissons Ratio (x) = 0.29696 0.76147
# Poissons Ratio (y) = 0.32709 0.01136
# Poissons Ratio (z) = 0.31447 0.00426
#
# Static dielectric constant tensor:
#      x y z
#    x 1.968510 0.000000 0.000000 
#    y 0.000000 1.926470 0.000000 
#    z 0.000000 0.000000 1.921930 
# 
# From -- ./inp_files/26329.got.cif
#   From: 2010.05.17/outbox.cif.g08.bks.cpg/sg50_14_cif.got.tgz:26329.got - 2010.06.03 11:33:33.
