data_PCOD9396891
_publ_section_title
;
Structure prediction by ZEFSAII (Michael W. Deem and Ramdas Pophale) SiO2 
 PCOD9396891
Probable space group: P B A N
;
_chemical_formula_sum "Si O2"
_cell_formula_units_Z 40
_cell_length_a 22.927933
_cell_length_b 13.555107
_cell_length_c 5.838479
_cell_angle_alpha 90.000000
_cell_angle_beta 90.000000
_cell_angle_gamma 90.000000
_cell_volume 1814.544305
_symmetry_space_group_name_H-M "P B A N"
_symmetry_group_IT_number 50
_space_group.IT_coordinate_system_code '2'
_symmetry_cell_setting 'orthorhombic'
loop_
_space_group_symop_operation_xyz
x,y,z
1/2-x,1/2-y,z
x,1/2-y,-z
1/2-x,y,-z
-x,-y,-z
1/2+x,1/2+y,-z
-x,1/2+y,z
1/2+x,-y,z
loop_
_atom_site_type_symbol
_atom_site_label
_atom_site_fract_x
_atom_site_fract_y
_atom_site_fract_z
Si Si1 0.184613 0.012424 0.077268
Si Si2 0.888344 0.652573 0.380496
Si Si3 0.489410 0.698923 0.759183
Si Si4 0.591043 0.018111 0.695194
Si Si5 0.312921 0.862546 0.577019
O O1 0.162854 0.087872 0.271386
O O2 0.183699 0.898072 0.162245
O O3 0.250000 0.035419 0.000000
O O4 0.133633 0.018344 0.893747
O O5 0.864106 0.750000 0.500000
O O6 0.922943 0.579368 0.552978
O O7 0.940822 0.688991 0.221046
O O8 0.478118 0.750000 0.500000
O O9 0.461208 0.589644 0.762452
O O10 0.468352 0.750000 0.000000
O O11 0.632885 0.087043 0.543070
O O12 0.313562 0.750000 0.500000
O O13 0.250000 0.904296 0.500000
#
# Coordination Sequence:
#
# PCOD9396891 Si02
#       5
#     8   8   8   8   8
#     4  11  24  43  71 102 140 186 242 297 362 435
#     4  10  26  48  72  97 141 188 246 308 366 428
#     4  11  27  47  76 111 149 187 244 300 373 445
#     4  11  24  42  72 102 144 181 239 293 367 429
#     4  10  21  39  62  98 147 183 225 279 354 434
#
# _framework density 22.044104000000001
#
# number of rings (size 3 to 8) (size 9 to 14) (size 15 to 20)
#    0.000    1.400    2.000    1.200   14.000    0.800 
#    0.000    3.000    0.000    0.000    0.000    0.000 
#    0.000    0.000    0.000    0.000    0.000    0.000 
#
# Total GULP energy -222963.644866 kJ/mol
# GULP energy per Si atom -5574.091122 kJ/mol
# Density = 2.199393 g / cm^3
# Si number density = 22.044104 Si / 1000 Ang^3
#
#
#
# Elastic Constant Matrix: (Units=GPa)
#
#
# Indices 1 2 3 4 5 6 
#
# 1 68.9773 36.9850 25.3374 0.0000 0.0000 0.0000
# 2 36.9850 131.6234 52.5906 0.0000 0.0000 0.0000
# 3 25.3374 52.5906 88.2863 0.0000 0.0000 0.0000
# 4 0.0000 0.0000 0.0000 -27.3815 0.0000 0.0000
# 5 0.0000 0.0000 0.0000 0.0000 -3.3367 0.0000
# 6 0.0000 0.0000 0.0000 0.0000 0.0000 4.1466
#
#
#
# Elastic Compliance Matrix: (Units=1/GPa)
#
#
# Indices 1 2 3 4 5 6 
#
# 1 0.017566 -0.003834 -0.002757 0.000000 0.000000 0.000000
# 2 -0.003834 0.010807 -0.005337 0.000000 0.000000 0.000000
# 3 -0.002757 -0.005337 0.015298 0.000000 0.000000 0.000000
# 4 0.000000 0.000000 0.000000 -0.036521 0.000000 0.000000
# 5 0.000000 0.000000 0.000000 0.000000 -0.299699 0.000000
# 6 0.000000 0.000000 0.000000 0.000000 0.000000 0.241160
#
#
# Mechanical properties :
#
#
# Convention : Reuss Voigt Hill
#
# Bulk Modulus (GPa) = 50.47147 57.63477 54.05312
# Shear Modulus (GPa) = -238.92433 6.28396 -116.32018
#
# Velocity S-wave (km/s) = -10.42209 1.69021 -7.27197
# Velocity P-wave (km/s) = 11.03998 5.47824 6.77754
#
# Compressibility (1/GPa) = 0.01981317
#
# Stress axis : x y z
#
# Youngs Moduli (GPa) = 56.92727 92.52929 65.37011
#
# Poissons Ratio (x) = 0.35478 0.18025
# Poissons Ratio (y) = 0.21827 0.34890
# Poissons Ratio (z) = 0.15697 0.49386
#
# Static dielectric constant tensor:
#      x y z
#    x 1.762180 0.000000 0.000000 
#    y 0.000000 1.829100 0.000000 
#    z 0.000000 0.000000 1.918140 
# 
# From -- ./inp_files/3375.got.cif
#   From: 2010.05.17/outbox.cif.g08.bks.cpg/sg50_2_cif.got.tgz:3375.got - 2010.06.03 11:33:33.
