data_PCOD9396507
_publ_section_title
;
Structure prediction by ZEFSAII (Michael W. Deem and Ramdas Pophale) SiO2 
 PCOD9396507
Probable space group: P B A N
;
_chemical_formula_sum "Si O2"
_cell_formula_units_Z 56
_cell_length_a 21.817586
_cell_length_b 8.151703
_cell_length_c 14.477386
_cell_angle_alpha 90.000000
_cell_angle_beta 90.000000
_cell_angle_gamma 90.000000
_cell_volume 2574.810067
_symmetry_space_group_name_H-M "P B A N"
_symmetry_group_IT_number 50
_space_group.IT_coordinate_system_code '2'
_symmetry_cell_setting 'orthorhombic'
loop_
_space_group_symop_operation_xyz
x,y,z
1/2-x,1/2-y,z
x,1/2-y,-z
1/2-x,y,-z
-x,-y,-z
1/2+x,1/2+y,-z
-x,1/2+y,z
1/2+x,-y,z
loop_
_atom_site_type_symbol
_atom_site_label
_atom_site_fract_x
_atom_site_fract_y
_atom_site_fract_z
Si Si1 0.739408 0.052613 0.689068
Si Si2 0.821633 0.553382 0.001144
Si Si3 0.421129 0.096474 0.627984
Si Si4 0.623741 0.429366 0.188380
Si Si5 0.661598 0.433357 0.474535
Si Si6 0.138431 0.960529 0.202960
Si Si7 0.446173 0.026905 0.354518
O O1 0.750000 0.250000 0.684041
O O2 0.683473 0.009333 0.756086
O O3 0.716363 0.993823 0.588677
O O4 0.799678 0.994697 0.740820
O O5 0.851918 0.506453 0.097746
O O6 0.820118 0.750000 0.000000
O O7 0.750000 0.494248 0.000000
O O8 0.861430 0.481299 0.916314
O O9 0.427851 0.289904 0.617386
O O10 0.367225 0.027064 0.562092
O O11 0.410241 0.055319 0.735492
O O12 0.486508 0.012858 0.609818
O O13 0.624270 0.233223 0.202129
O O14 0.565816 0.500643 0.244914
O O15 0.679901 0.250000 0.500000
O O16 0.603712 0.413173 0.405035
#
# Coordination Sequence:
#
# PCOD9396507 Si02
#       7
#     8   8   8   8   8   8   8
#     4   9  19  35  59  90 123 160 205 253 305 369
#     4  11  22  37  61  95 131 168 207 256 309 369
#     4  12  24  41  63  91 123 166 210 264 319 376
#     4  10  20  39  63  92 124 162 209 262 305 373
#     4  11  22  39  63  90 122 165 212 258 309 369
#     4  11  22  38  64  94 125 168 211 254 315 375
#     4  11  24  43  64  90 123 162 213 267 316 371
#
# _framework density 21.749175999999999
#
# number of rings (size 3 to 8) (size 9 to 14) (size 15 to 20)
#    0.000    1.286    1.429    6.429    0.000    2.571 
#    0.000    0.714    0.000   10.286    0.000    0.000 
#    0.000    0.000    0.000    0.000    0.000    0.000 
#
# Total GULP energy -312846.460770 kJ/mol
# GULP energy per Si atom -5586.543942 kJ/mol
# Density = 2.169967 g / cm^3
# Si number density = 21.749176 Si / 1000 Ang^3
#
#
#
# Elastic Constant Matrix: (Units=GPa)
#
#
# Indices 1 2 3 4 5 6 
#
# 1 64.6216 19.7898 40.9699 0.0000 0.0000 0.0000
# 2 19.7898 68.9550 22.4079 0.0000 0.0000 0.0000
# 3 40.9699 22.4079 181.9521 0.0000 0.0000 0.0000
# 4 0.0000 0.0000 0.0000 32.2086 0.0000 0.0000
# 5 0.0000 0.0000 0.0000 0.0000 153.2735 0.0000
# 6 0.0000 0.0000 0.0000 0.0000 0.0000 15.8166
#
#
#
# Elastic Compliance Matrix: (Units=1/GPa)
#
#
# Indices 1 2 3 4 5 6 
#
# 1 0.019189 -0.004274 -0.003794 0.000000 0.000000 0.000000
# 2 -0.004274 0.016059 -0.001015 0.000000 0.000000 0.000000
# 3 -0.003794 -0.001015 0.006475 0.000000 0.000000 0.000000
# 4 0.000000 0.000000 0.000000 0.031048 0.000000 0.000000
# 5 0.000000 0.000000 0.000000 0.000000 0.006524 0.000000
# 6 0.000000 0.000000 0.000000 0.000000 0.000000 0.063225
#
#
# Mechanical properties :
#
#
# Convention : Reuss Voigt Hill
#
# Bulk Modulus (GPa) = 42.45263 53.54043 47.99653
# Shear Modulus (GPa) = 29.66657 55.75048 42.70852
#
# Velocity S-wave (km/s) = 3.69729 5.06843 4.43616
# Velocity P-wave (km/s) = 6.14721 7.67611 6.95381
#
# Compressibility (1/GPa) = 0.02355567
#
# Stress axis : x y z
#
# Youngs Moduli (GPa) = 52.11228 62.27106 154.43109
#
# Poissons Ratio (x) = 0.26616 0.58598
# Poissons Ratio (y) = 0.22274 0.15679
# Poissons Ratio (z) = 0.19774 0.06322
#
# Static dielectric constant tensor:
#      x y z
#    x 1.816050 0.000000 0.000000 
#    y 0.000000 1.777560 0.000000 
#    z 0.000000 0.000000 1.824240 
# 
# From -- ./inp_files/27236.got.cif
#   From: 2010.05.17/outbox.cif.g08.bks.cpg/sg50_14_cif.got.tgz:27236.got - 2010.06.03 11:33:33.
