data_PCOD9396328
_publ_section_title
;
Structure prediction by ZEFSAII (Michael W. Deem and Ramdas Pophale) SiO2 
 PCOD9396328
Probable space group: P B A N
;
_chemical_formula_sum "Si O2"
_cell_formula_units_Z 40
_cell_length_a 8.222181
_cell_length_b 13.946151
_cell_length_c 15.974222
_cell_angle_alpha 90.000000
_cell_angle_beta 90.000000
_cell_angle_gamma 90.000000
_cell_volume 1831.728538
_symmetry_space_group_name_H-M "P B A N"
_symmetry_group_IT_number 50
_space_group.IT_coordinate_system_code '2'
_symmetry_cell_setting 'orthorhombic'
loop_
_space_group_symop_operation_xyz
x,y,z
1/2-x,1/2-y,z
x,1/2-y,-z
1/2-x,y,-z
-x,-y,-z
1/2+x,1/2+y,-z
-x,1/2+y,z
1/2+x,-y,z
loop_
_atom_site_type_symbol
_atom_site_label
_atom_site_fract_x
_atom_site_fract_y
_atom_site_fract_z
Si Si1 0.432341 0.129883 0.792813
Si Si2 0.750000 0.445701 0.500000
Si Si3 0.957429 0.600754 0.399700
Si Si4 0.742772 0.367505 0.096553
Si Si5 0.250000 0.250000 0.500000
Si Si6 0.750000 0.750000 0.000000
Si Si7 0.416513 0.152849 0.152167
O O1 0.465197 0.095822 0.699500
O O2 0.575704 0.103709 0.857688
O O3 0.432900 0.247362 0.796222
O O4 0.247151 0.101715 0.816496
O O5 0.866097 0.509588 0.440451
O O6 0.635039 0.389072 0.438320
O O7 0.855856 0.687383 0.437251
O O8 0.750000 0.250000 0.095822
O O9 0.908266 0.396043 0.145511
O O10 0.750000 0.400217 0.000000
O O11 0.634716 0.812730 0.941112
#
# Coordination Sequence:
#
# PCOD9396328 Si02
#       7
#     8   4   8   8   2   2   8
#     4   9  17  28  46  72 106 136 187 227 276 328
#     4   9  22  42  62  75 114 154 202 217 294 370
#     4  10  20  41  58  87 109 155 186 245 285 359
#     4   9  15  25  40  69 113 152 178 216 285 350
#     4  10  20  36  64  86 124 138 180 250 310 326
#     4   8  12  22  42  56 112 160 180 192 292 350
#     4   9  15  25  40  75 110 150 172 233 282 337
#
# _framework density 21.837295999999998
#
# number of rings (size 3 to 8) (size 9 to 14) (size 15 to 20)
#    0.000    3.000    0.000    4.800    0.000    0.400 
#   21.600    0.000    0.000    0.000    0.000    1.400 
#    0.000    0.000    0.000    0.000    0.000    0.000 
#
# Total GULP energy -223338.085574 kJ/mol
# GULP energy per Si atom -5583.452139 kJ/mol
# Density = 2.178759 g / cm^3
# Si number density = 21.837296 Si / 1000 Ang^3
#
#
#
# Elastic Constant Matrix: (Units=GPa)
#
#
# Indices 1 2 3 4 5 6 
#
# 1 201.2186 23.6126 71.0267 0.0000 0.0000 0.0000
# 2 23.6126 29.5988 5.1615 0.0000 0.0000 0.0000
# 3 71.0267 5.1615 162.5691 0.0000 0.0000 0.0000
# 4 0.0000 0.0000 0.0000 22.5561 0.0000 0.0000
# 5 0.0000 0.0000 0.0000 0.0000 -31.3179 0.0000
# 6 0.0000 0.0000 0.0000 0.0000 0.0000 34.1249
#
#
#
# Elastic Compliance Matrix: (Units=1/GPa)
#
#
# Indices 1 2 3 4 5 6 
#
# 1 0.006465 -0.004691 -0.002675 0.000000 0.000000 0.000000
# 2 -0.004691 0.037377 0.000863 0.000000 0.000000 0.000000
# 3 -0.002675 0.000863 0.007293 0.000000 0.000000 0.000000
# 4 0.000000 0.000000 0.000000 0.044334 0.000000 0.000000
# 5 0.000000 0.000000 0.000000 0.000000 -0.031931 0.000000
# 6 0.000000 0.000000 0.000000 0.000000 0.000000 0.029304
#
#
# Mechanical properties :
#
#
# Convention : Reuss Voigt Hill
#
# Bulk Modulus (GPa) = 26.22805 65.88758 46.05782
# Shear Modulus (GPa) = 42.17381 24.64501 33.40941
#
# Velocity S-wave (km/s) = 4.39939 3.36307 3.91567
# Velocity P-wave (km/s) = 6.15166 6.73185 6.44829
#
# Compressibility (1/GPa) = 0.03812712
#
# Stress axis : x y z
#
# Youngs Moduli (GPa) = 154.69030 26.75471 137.12252
#
# Poissons Ratio (x) = 0.12549 0.36686
# Poissons Ratio (y) = 0.72558 -0.11828
# Poissons Ratio (z) = 0.41386 -0.02308
#
# Static dielectric constant tensor:
#      x y z
#    x 1.839660 0.000000 0.000000 
#    y 0.000000 1.861970 0.000000 
#    z 0.000000 0.000000 1.733170 
# 
# From -- ./inp_files/24762.got.cif
#   From: 2010.05.17/outbox.cif.g08.bks.cpg/sg50_13_cif.got.tgz:24762.got - 2010.06.03 11:33:33.
