data_PCOD9396269
_publ_section_title
;
Structure prediction by ZEFSAII (Michael W. Deem and Ramdas Pophale) SiO2 
 PCOD9396269
Probable space group: P B A N
;
_chemical_formula_sum "Si O2"
_cell_formula_units_Z 48
_cell_length_a 7.239821
_cell_length_b 25.596449
_cell_length_c 13.996973
_cell_angle_alpha 90.000000
_cell_angle_beta 90.000000
_cell_angle_gamma 90.000000
_cell_volume 2593.830981
_symmetry_space_group_name_H-M "P B A N"
_symmetry_group_IT_number 50
_space_group.IT_coordinate_system_code '2'
_symmetry_cell_setting 'orthorhombic'
loop_
_space_group_symop_operation_xyz
x,y,z
1/2-x,1/2-y,z
x,1/2-y,-z
1/2-x,y,-z
-x,-y,-z
1/2+x,1/2+y,-z
-x,1/2+y,z
1/2+x,-y,z
loop_
_atom_site_type_symbol
_atom_site_label
_atom_site_fract_x
_atom_site_fract_y
_atom_site_fract_z
Si Si1 0.995768 0.341897 0.770980
Si Si2 0.432179 0.053761 0.120003
Si Si3 0.496754 0.565398 0.908425
Si Si4 0.272485 0.687196 0.388637
Si Si5 0.972003 0.741836 0.892338
Si Si6 0.561807 0.852118 0.757121
O O1 0.931356 0.387436 0.842796
O O2 0.956568 0.287325 0.824065
O O3 0.215772 0.346665 0.751784
O O4 0.885743 0.340710 0.673031
O O5 0.219092 0.067697 0.100670
O O6 0.488072 0.089323 0.209287
O O7 0.440381 0.991447 0.130223
O O8 0.541576 0.067173 0.022078
O O9 0.250000 0.750000 0.379050
O O10 0.250000 0.674702 0.500000
O O11 0.461338 0.668079 0.337986
O O12 0.750000 0.750000 0.895351
O O13 0.001965 0.686035 0.843694
O O14 0.038584 0.750000 0.000000
#
# Coordination Sequence:
#
# PCOD9396269 Si02
#       6
#     8   8   8   8   8   8
#     4  10  20  36  56  80 110 147 183 220 276 332
#     4   9  18  32  52  82 116 150 183 217 261 322
#     4   9  18  32  52  82 116 150 183 217 261 322
#     4  11  24  40  58  82 108 136 186 245 288 331
#     4   9  16  29  51  78 111 145 174 210 258 324
#     4  10  20  36  56  80 110 147 183 220 276 332
#
# _framework density 18.505445999999999
#
# number of rings (size 3 to 8) (size 9 to 14) (size 15 to 20)
#    0.000    2.333    1.667    1.000    2.333    4.667 
#    0.000    5.000    0.000    1.000    0.000    0.000 
#    0.000    0.000    0.000    0.000    0.000    0.000 
#
# Total GULP energy -267896.702379 kJ/mol
# GULP energy per Si atom -5581.181300 kJ/mol
# Density = 1.846333 g / cm^3
# Si number density = 18.505446 Si / 1000 Ang^3
#
#
#
# Elastic Constant Matrix: (Units=GPa)
#
#
# Indices 1 2 3 4 5 6 
#
# 1 53.2777 -6.9929 1.9267 0.0000 0.0000 0.0000
# 2 -6.9929 78.1712 26.9600 0.0000 0.0000 0.0000
# 3 1.9267 26.9600 90.1991 0.0000 0.0000 0.0000
# 4 0.0000 0.0000 0.0000 24.7810 0.0000 0.0000
# 5 0.0000 0.0000 0.0000 0.0000 23.7501 0.0000
# 6 0.0000 0.0000 0.0000 0.0000 0.0000 23.9244
#
#
#
# Elastic Compliance Matrix: (Units=1/GPa)
#
#
# Indices 1 2 3 4 5 6 
#
# 1 0.019077 0.002059 -0.001023 0.000000 0.000000 0.000000
# 2 0.002059 0.014485 -0.004373 0.000000 0.000000 0.000000
# 3 -0.001023 -0.004373 0.012416 0.000000 0.000000 0.000000
# 4 0.000000 0.000000 0.000000 0.040353 0.000000 0.000000
# 5 0.000000 0.000000 0.000000 0.000000 0.042105 0.000000
# 6 0.000000 0.000000 0.000000 0.000000 0.000000 0.041798
#
#
# Mechanical properties :
#
#
# Convention : Reuss Voigt Hill
#
# Bulk Modulus (GPa) = 25.44320 29.49285 27.46803
# Shear Modulus (GPa) = 26.31446 27.80807 27.06126
#
# Velocity S-wave (km/s) = 3.77501 3.88067 3.82820
# Velocity P-wave (km/s) = 5.72537 6.00429 5.86648
#
# Compressibility (1/GPa) = 0.03930324
#
# Stress axis : x y z
#
# Youngs Moduli (GPa) = 52.41952 69.03700 80.54361
#
# Poissons Ratio (x) = -0.14217 0.08240
# Poissons Ratio (y) = -0.10795 0.35225
# Poissons Ratio (z) = 0.05363 0.30193
#
# Static dielectric constant tensor:
#      x y z
#    x 1.717260 0.000000 0.000000 
#    y 0.000000 1.636400 0.000000 
#    z 0.000000 0.000000 1.612830 
# 
# From -- ./inp_files/19201.got.cif
#   From: 2010.05.17/outbox.cif.g08.bks.cpg/sg50_10_cif.got.tgz:19201.got - 2010.06.03 11:33:33.
