data_PCOD9396379
_publ_section_title
;
Structure prediction by ZEFSAII (Michael W. Deem and Ramdas Pophale) SiO2 
 PCOD9396379
Probable space group: P B A N
;
_chemical_formula_sum "Si O2"
_cell_formula_units_Z 32
_cell_length_a 13.846512
_cell_length_b 11.526123
_cell_length_c 8.728908
_cell_angle_alpha 90.000000
_cell_angle_beta 90.000000
_cell_angle_gamma 90.000000
_cell_volume 1393.104042
_symmetry_space_group_name_H-M "P B A N"
_symmetry_group_IT_number 50
_space_group.IT_coordinate_system_code '2'
_symmetry_cell_setting 'orthorhombic'
loop_
_space_group_symop_operation_xyz
x,y,z
1/2-x,1/2-y,z
x,1/2-y,-z
1/2-x,y,-z
-x,-y,-z
1/2+x,1/2+y,-z
-x,1/2+y,z
1/2+x,-y,z
loop_
_atom_site_type_symbol
_atom_site_label
_atom_site_fract_x
_atom_site_fract_y
_atom_site_fract_z
Si Si1 0.890334 0.132857 0.408273
Si Si2 0.099611 0.372698 0.459110
Si Si3 0.557560 0.853582 0.895911
Si Si4 0.356924 0.901019 0.056208
O O1 0.860869 0.250000 0.500000
O O2 0.868614 0.145393 0.229063
O O3 0.005959 0.121809 0.431311
O O4 0.855456 0.003069 0.461336
O O5 0.149803 0.250000 0.500000
O O6 0.062803 0.350460 0.286344
O O7 0.623634 0.962456 0.936005
O O8 0.595464 0.750000 0.000000
O O9 0.445704 0.865677 0.946708
O O10 0.250000 0.875755 0.000000
#
# Coordination Sequence:
#
# PCOD9396379 Si02
#       4
#     8   8   8   8
#     4   9  17  33  58  86 120 162 205 255 313 373
#     4   9  17  31  56  90 121 158 211 260 314 380
#     4  10  20  37  62  87 121 169 210 259 322 380
#     4  10  22  39  59  90 126 163 213 264 316 383
#
# _framework density 22.970286999999999
#
# number of rings (size 3 to 8) (size 9 to 14) (size 15 to 20)
#    0.000    2.500    0.000    3.000    0.000    3.000 
#    0.000    2.500    0.000    0.000    0.000   70.000 
#    0.000    0.000    0.000    0.000    0.000    0.000 
#
# Total GULP energy -178448.721511 kJ/mol
# GULP energy per Si atom -5576.522547 kJ/mol
# Density = 2.291801 g / cm^3
# Si number density = 22.970287 Si / 1000 Ang^3
#
#
#
# Elastic Constant Matrix: (Units=GPa)
#
#
# Indices 1 2 3 4 5 6 
#
# 1 122.0386 47.6769 73.1611 0.0000 0.0000 0.0000
# 2 47.6769 226.7194 95.1083 0.0000 0.0000 0.0000
# 3 73.1611 95.1083 151.6467 0.0000 0.0000 0.0000
# 4 0.0000 0.0000 0.0000 48.2949 0.0000 0.0000
# 5 0.0000 0.0000 0.0000 0.0000 -18.7716 0.0000
# 6 0.0000 0.0000 0.0000 0.0000 0.0000 -184.3713
#
#
#
# Elastic Compliance Matrix: (Units=1/GPa)
#
#
# Indices 1 2 3 4 5 6 
#
# 1 0.011531 -0.000124 -0.005485 0.000000 0.000000 0.000000
# 2 -0.000124 0.005987 -0.003695 0.000000 0.000000 0.000000
# 3 -0.005485 -0.003695 0.011558 0.000000 0.000000 0.000000
# 4 0.000000 0.000000 0.000000 0.020706 0.000000 0.000000
# 5 0.000000 0.000000 0.000000 0.000000 -0.053272 0.000000
# 6 0.000000 0.000000 0.000000 0.000000 0.000000 -0.005424
#
#
# Mechanical properties :
#
#
# Convention : Reuss Voigt Hill
#
# Bulk Modulus (GPa) = 95.53439 103.58860 99.56149
# Shear Modulus (GPa) = 379.24934 -12.00572 183.62181
#
# Velocity S-wave (km/s) = 12.86323 -2.28866 8.95055
# Velocity P-wave (km/s) = 16.19561 6.18148 12.25782
#
# Compressibility (1/GPa) = 0.01046743
#
# Stress axis : x y z
#
# Youngs Moduli (GPa) = 86.72316 167.03328 86.51910
#
# Poissons Ratio (x) = 0.02066 0.47460
# Poissons Ratio (y) = 0.01073 0.31969
# Poissons Ratio (z) = 0.47572 0.61720
#
# Static dielectric constant tensor:
#      x y z
#    x 1.817950 0.000000 0.000000 
#    y 0.000000 1.972670 0.000000 
#    z 0.000000 0.000000 1.854500 
# 
# From -- ./inp_files/12197.got.cif
#   From: 2010.05.17/outbox.cif.g08.bks.cpg/sg50_7_cif.got.tgz:12197.got - 2010.06.03 11:33:33.
