data_PCOD9396895
_publ_section_title
;
Structure prediction by ZEFSAII (Michael W. Deem and Ramdas Pophale) SiO2 
 PCOD9396895
Probable space group: P B A N
;
_chemical_formula_sum "Si O2"
_cell_formula_units_Z 32
_cell_length_a 7.299905
_cell_length_b 36.549796
_cell_length_c 5.245164
_cell_angle_alpha 90.000000
_cell_angle_beta 90.000000
_cell_angle_gamma 90.000000
_cell_volume 1399.462409
_symmetry_space_group_name_H-M "P B A N"
_symmetry_group_IT_number 50
_space_group.IT_coordinate_system_code '2'
_symmetry_cell_setting 'orthorhombic'
loop_
_space_group_symop_operation_xyz
x,y,z
1/2-x,1/2-y,z
x,1/2-y,-z
1/2-x,y,-z
-x,-y,-z
1/2+x,1/2+y,-z
-x,1/2+y,z
1/2+x,-y,z
loop_
_atom_site_type_symbol
_atom_site_label
_atom_site_fract_x
_atom_site_fract_y
_atom_site_fract_z
Si Si1 0.955897 0.766529 0.746264
Si Si2 0.527668 0.915085 0.003721
Si Si3 0.467653 0.456797 0.494313
Si Si4 0.131467 0.840062 0.763463
O O1 0.750000 0.750000 0.746043
O O2 0.049354 0.750000 0.500000
O O3 0.972024 0.810103 0.723925
O O4 0.038451 0.750000 0.000000
O O5 0.467895 0.943622 0.219443
O O6 0.449140 0.877168 0.113235
O O7 0.750000 0.912206 0.000000
O O8 0.466045 0.931218 0.729290
O O9 0.250000 0.451625 0.500000
O O10 0.500000 0.500000 0.500000
O O11 0.250000 0.844735 0.500000
O O12 0.250000 0.824971 0.000000
#
# Coordination Sequence:
#
# PCOD9396895 Si02
#       4
#     8   8   8   8
#     4  10  23  43  67  96 126 176 232 261 345 411
#     4  10  23  42  64  93 132 177 223 262 336 414
#     4  10  21  39  63  96 128 172 221 272 323 398
#     4  12  26  43  67 101 137 170 224 294 345 391
#
# _framework density 22.865922999999999
#
# number of rings (size 3 to 8) (size 9 to 14) (size 15 to 20)
#    0.000    1.500    0.000    3.750    3.500    6.000 
#    9.000    0.000    0.000    0.000    0.000    0.000 
#    0.000    0.000    0.000    0.000    0.000    0.000 
#
# Total GULP energy -178530.574162 kJ/mol
# GULP energy per Si atom -5579.080443 kJ/mol
# Density = 2.281388 g / cm^3
# Si number density = 22.865923 Si / 1000 Ang^3
#
#
#
# Elastic Constant Matrix: (Units=GPa)
#
#
# Indices 1 2 3 4 5 6 
#
# 1 107.0091 31.8453 29.6890 0.0000 0.0000 0.0000
# 2 31.8453 181.4920 51.6286 0.0000 0.0000 0.0000
# 3 29.6890 51.6286 205.5731 0.0000 0.0000 0.0000
# 4 0.0000 0.0000 0.0000 34.9144 0.0000 0.0000
# 5 0.0000 0.0000 0.0000 0.0000 -6.5997 0.0000
# 6 0.0000 0.0000 0.0000 0.0000 0.0000 38.7779
#
#
#
# Elastic Compliance Matrix: (Units=1/GPa)
#
#
# Indices 1 2 3 4 5 6 
#
# 1 0.010081 -0.001459 -0.001090 0.000000 0.000000 0.000000
# 2 -0.001459 0.006145 -0.001333 0.000000 0.000000 0.000000
# 3 -0.001090 -0.001333 0.005356 0.000000 0.000000 0.000000
# 4 0.000000 0.000000 0.000000 0.028641 0.000000 0.000000
# 5 0.000000 0.000000 0.000000 0.000000 -0.151523 0.000000
# 6 0.000000 0.000000 0.000000 0.000000 0.000000 0.025788
#
#
# Mechanical properties :
#
#
# Convention : Reuss Voigt Hill
#
# Bulk Modulus (GPa) = 72.35532 80.04444 76.19988
# Shear Modulus (GPa) = -79.18749 38.81260 -20.18744
#
# Velocity S-wave (km/s) = -5.89121 4.12442 -2.97452
# Velocity P-wave (km/s) = 3.81618 7.60020 4.64757
#
# Compressibility (1/GPa) = 0.01382068
#
# Stress axis : x y z
#
# Youngs Moduli (GPa) = 99.19178 162.73503 186.69010
#
# Poissons Ratio (x) = 0.23743 0.20341
# Poissons Ratio (y) = 0.14472 0.24878
# Poissons Ratio (z) = 0.10807 0.21686
#
# Static dielectric constant tensor:
#      x y z
#    x 1.890380 0.000000 0.000000 
#    y 0.000000 1.873190 0.000000 
#    z 0.000000 0.000000 1.856070 
# 
# From -- ./inp_files/1221.got.cif
#   From: 2010.05.17/outbox.cif.g08.bks.cpg/sg50_1_cif.got.tgz:1221.got - 2010.06.03 11:33:33.
