data_PCOD9396487
_publ_section_title
;
Structure prediction by ZEFSAII (Michael W. Deem and Ramdas Pophale) SiO2 
 PCOD9396487
Probable space group: P B A N
;
_chemical_formula_sum "Si O2"
_cell_formula_units_Z 40
_cell_length_a 15.184388
_cell_length_b 12.967245
_cell_length_c 9.825075
_cell_angle_alpha 90.000000
_cell_angle_beta 90.000000
_cell_angle_gamma 90.000000
_cell_volume 1934.554117
_symmetry_space_group_name_H-M "P B A N"
_symmetry_group_IT_number 50
_space_group.IT_coordinate_system_code '2'
_symmetry_cell_setting 'orthorhombic'
loop_
_space_group_symop_operation_xyz
x,y,z
1/2-x,1/2-y,z
x,1/2-y,-z
1/2-x,y,-z
-x,-y,-z
1/2+x,1/2+y,-z
-x,1/2+y,z
1/2+x,-y,z
loop_
_atom_site_type_symbol
_atom_site_label
_atom_site_fract_x
_atom_site_fract_y
_atom_site_fract_z
Si Si1 0.512389 0.149631 0.250247
Si Si2 0.390258 0.750000 0.500000
Si Si3 0.353397 0.250394 0.837346
Si Si4 0.352016 0.473367 0.250172
Si Si5 0.750000 0.425120 0.500000
Si Si6 0.250000 0.924650 0.000000
Si Si7 0.112897 0.750000 0.000000
O O1 0.548491 0.208268 0.381127
O O2 0.408233 0.157078 0.229422
O O3 0.558628 0.039527 0.252527
O O4 0.554092 0.208245 0.121318
O O5 0.326727 0.655360 0.546500
O O6 0.250000 0.250000 0.813297
O O7 0.381320 0.143709 0.767865
O O8 0.366966 0.250000 0.000000
O O9 0.293607 0.506332 0.380820
O O10 0.293746 0.507344 0.118460
O O11 0.174605 0.844633 0.950696
#
# Coordination Sequence:
#
# PCOD9396487 Si02
#       7
#     8   4   8   8   4   4   4
#     4  10  20  39  59  91 120 162 210 255 308 372
#     4   9  18  36  65  92 134 158 199 264 314 361
#     4  11  24  44  61  85 125 166 209 261 316 371
#     4  10  21  39  64  91 122 164 208 250 318 373
#     4   9  18  38  63  98 126 164 201 252 317 384
#     4   9  16  30  57  94 116 152 201 258 315 366
#     4   9  16  30  57  88 122 146 201 266 306 365
#
# _framework density 20.676597999999998
#
# number of rings (size 3 to 8) (size 9 to 14) (size 15 to 20)
#    0.000    2.200    1.000    2.400    0.000    5.600 
#   10.800    2.000    0.000    0.000    0.000    0.000 
#    0.000    0.000    0.000    0.000    0.000    0.000 
#
# Total GULP energy -223314.193582 kJ/mol
# GULP energy per Si atom -5582.854840 kJ/mol
# Density = 2.062954 g / cm^3
# Si number density = 20.676598 Si / 1000 Ang^3
#
#
#
# Elastic Constant Matrix: (Units=GPa)
#
#
# Indices 1 2 3 4 5 6 
#
# 1 120.0384 17.0972 27.6855 0.0000 0.0000 0.0000
# 2 17.0972 66.0581 29.7703 0.0000 0.0000 0.0000
# 3 27.6855 29.7703 57.0318 0.0000 0.0000 0.0000
# 4 0.0000 0.0000 0.0000 21.0501 0.0000 0.0000
# 5 0.0000 0.0000 0.0000 0.0000 5.3383 0.0000
# 6 0.0000 0.0000 0.0000 0.0000 0.0000 -22.4728
#
#
#
# Elastic Compliance Matrix: (Units=1/GPa)
#
#
# Indices 1 2 3 4 5 6 
#
# 1 0.009393 -0.000492 -0.004303 0.000000 0.000000 0.000000
# 2 -0.000492 0.019821 -0.010107 0.000000 0.000000 0.000000
# 3 -0.004303 -0.010107 0.024899 0.000000 0.000000 0.000000
# 4 0.000000 0.000000 0.000000 0.047506 0.000000 0.000000
# 5 0.000000 0.000000 0.000000 0.000000 0.187324 0.000000
# 6 0.000000 0.000000 0.000000 0.000000 0.000000 -0.044498
#
#
# Mechanical properties :
#
#
# Convention : Reuss Voigt Hill
#
# Bulk Modulus (GPa) = 41.13881 43.58160 42.36021
# Shear Modulus (GPa) = 17.70841 12.02149 14.86495
#
# Velocity S-wave (km/s) = 2.92969 2.41385 2.68419
# Velocity P-wave (km/s) = 5.60211 5.37517 5.48981
#
# Compressibility (1/GPa) = 0.02430794
#
# Stress axis : x y z
#
# Youngs Moduli (GPa) = 106.46022 50.45247 40.16224
#
# Poissons Ratio (x) = 0.02482 0.17282
# Poissons Ratio (y) = 0.05237 0.40594
# Poissons Ratio (z) = 0.45810 0.50995
#
# Static dielectric constant tensor:
#      x y z
#    x 1.784330 0.000000 0.000000 
#    y 0.000000 1.610710 0.000000 
#    z 0.000000 0.000000 1.857920 
# 
# From -- ./inp_files/12651.got.cif
#   From: 2010.05.17/outbox.cif.g08.bks.cpg/sg50_7_cif.got.tgz:12651.got - 2010.06.03 11:33:33.
