data_PCOD9396658
_publ_section_title
;
Structure prediction by ZEFSAII (Michael W. Deem and Ramdas Pophale) SiO2 
 PCOD9396658
Probable space group: P B A N
;
_chemical_formula_sum "Si O2"
_cell_formula_units_Z 64
_cell_length_a 7.366764
_cell_length_b 15.064385
_cell_length_c 25.650389
_cell_angle_alpha 90.000000
_cell_angle_beta 90.000000
_cell_angle_gamma 90.000000
_cell_volume 2846.571647
_symmetry_space_group_name_H-M "P B A N"
_symmetry_group_IT_number 50
_space_group.IT_coordinate_system_code '2'
_symmetry_cell_setting 'orthorhombic'
loop_
_space_group_symop_operation_xyz
x,y,z
1/2-x,1/2-y,z
x,1/2-y,-z
1/2-x,y,-z
-x,-y,-z
1/2+x,1/2+y,-z
-x,1/2+y,z
1/2+x,-y,z
loop_
_atom_site_type_symbol
_atom_site_label
_atom_site_fract_x
_atom_site_fract_y
_atom_site_fract_z
Si Si1 0.467716 0.251464 0.081162
Si Si2 0.379289 0.577754 0.727756
Si Si3 0.466684 0.105121 0.001887
Si Si4 0.407305 0.595914 0.615791
Si Si5 0.453979 0.373008 0.719108
Si Si6 0.522184 0.610914 0.393702
Si Si7 0.538993 0.272209 0.202771
Si Si8 0.952898 0.145975 0.494459
O O1 0.250000 0.250000 0.077595
O O2 0.534130 0.335704 0.047046
O O3 0.509985 0.261204 0.141615
O O4 0.529987 0.160095 0.053047
O O5 0.469392 0.615830 0.674359
O O6 0.375581 0.471089 0.730734
O O7 0.170202 0.605994 0.721036
O O8 0.476434 0.627835 0.775188
O O9 0.250000 0.112639 0.000000
O O10 0.500000 0.000000 0.000000
O O11 0.197385 0.625031 0.608453
O O12 0.422207 0.490270 0.615180
O O13 0.513027 0.627901 0.564661
O O14 0.409548 0.343192 0.659542
O O15 0.426841 0.298576 0.762835
O O16 0.568819 0.624015 0.454488
O O17 0.750000 0.250000 0.211974
O O18 0.931423 0.250000 0.500000
O O19 0.750000 0.102578 0.500000
#
# Coordination Sequence:
#
# PCOD9396658 Si02
#       8
#     8   8   8   8   8   8   8   8
#     4   9  20  38  56  80 113 145 176 210 254 305
#     4   9  19  34  51  72 100 134 172 214 260 309
#     4   9  19  37  60  84 112 145 177 211 254 300
#     4   9  17  30  48  67  90 121 157 201 251 304
#     4   9  19  34  51  72 100 134 172 214 260 309
#     4   9  17  30  48  67  90 121 157 201 251 304
#     4  10  21  35  53  77 106 140 177 218 256 296
#     4   9  17  26  43  71  92 113 154 202 248 303
#
# _framework density 22.483187000000001
#
# number of rings (size 3 to 8) (size 9 to 14) (size 15 to 20)
#    0.000    2.875    0.000    1.125    1.750    3.000 
#    0.000    6.250    0.000    1.500    0.000    0.000 
#    0.000    0.000    0.000    0.000    0.000    0.000 
#
# Total GULP energy -356611.618664 kJ/mol
# GULP energy per Si atom -5572.056542 kJ/mol
# Density = 2.243201 g / cm^3
# Si number density = 22.483187 Si / 1000 Ang^3
#
#
#
# Elastic Constant Matrix: (Units=GPa)
#
#
# Indices 1 2 3 4 5 6 
#
# 1 63.0807 6.5958 7.5226 0.0000 0.0000 0.0000
# 2 6.5958 93.3604 55.7391 0.0000 0.0000 0.0000
# 3 7.5226 55.7391 174.6529 0.0000 0.0000 0.0000
# 4 0.0000 0.0000 0.0000 -0.1290 0.0000 0.0000
# 5 0.0000 0.0000 0.0000 0.0000 28.3998 0.0000
# 6 0.0000 0.0000 0.0000 0.0000 0.0000 23.2825
#
#
#
# Elastic Compliance Matrix: (Units=1/GPa)
#
#
# Indices 1 2 3 4 5 6 
#
# 1 0.015994 -0.000888 -0.000406 0.000000 0.000000 0.000000
# 2 -0.000888 0.013282 -0.004201 0.000000 0.000000 0.000000
# 3 -0.000406 -0.004201 0.007084 0.000000 0.000000 0.000000
# 4 0.000000 0.000000 0.000000 -7.752903 0.000000 0.000000
# 5 0.000000 0.000000 0.000000 0.000000 0.035211 0.000000
# 6 0.000000 0.000000 0.000000 0.000000 0.000000 0.042951
#
#
# Mechanical properties :
#
#
# Convention : Reuss Voigt Hill
#
# Bulk Modulus (GPa) = 39.41424 52.31212 45.86318
# Shear Modulus (GPa) = -0.65626 27.72642 13.53508
#
# Velocity S-wave (km/s) = -0.54085 3.51551 2.45625
# Velocity P-wave (km/s) = 4.14470 6.30842 5.33736
#
# Compressibility (1/GPa) = 0.02537154
#
# Stress axis : x y z
#
# Youngs Moduli (GPa) = 62.52378 75.29125 141.16960
#
# Poissons Ratio (x) = 0.06685 0.05725
# Poissons Ratio (y) = 0.05551 0.59299
# Poissons Ratio (z) = 0.02536 0.31626
#
# Static dielectric constant tensor:
#      x y z
#    x 2.008910 0.000000 0.000000 
#    y 0.000000 1.810000 0.000000 
#    z 0.000000 0.000000 1.868890 
# 
# From -- ./inp_files/31620.got.cif
#   From: 2010.05.17/outbox.cif.g08.bks.cpg/sg50_16_cif.got.tgz:31620.got - 2010.06.03 11:33:33.
