data_PCOD9396799
_publ_section_title
;
Structure prediction by ZEFSAII (Michael W. Deem and Ramdas Pophale) SiO2 
 PCOD9396799
Probable space group: P B A N
;
_chemical_formula_sum "Si O2"
_cell_formula_units_Z 38
_cell_length_a 9.211862
_cell_length_b 14.022577
_cell_length_c 13.381883
_cell_angle_alpha 90.000000
_cell_angle_beta 90.000000
_cell_angle_gamma 90.000000
_cell_volume 1728.591946
_symmetry_space_group_name_H-M "P B A N"
_symmetry_group_IT_number 50
_space_group.IT_coordinate_system_code '2'
_symmetry_cell_setting 'orthorhombic'
loop_
_space_group_symop_operation_xyz
x,y,z
1/2-x,1/2-y,z
x,1/2-y,-z
1/2-x,y,-z
-x,-y,-z
1/2+x,1/2+y,-z
-x,1/2+y,z
1/2+x,-y,z
loop_
_atom_site_type_symbol
_atom_site_label
_atom_site_fract_x
_atom_site_fract_y
_atom_site_fract_z
Si Si1 0.800754 0.548531 0.109818
Si Si2 0.750000 0.750000 0.820904
Si Si3 0.750000 0.250000 0.000000
Si Si4 0.426613 0.102288 0.486289
Si Si5 0.120555 0.617942 0.168550
Si Si6 0.008838 0.741044 0.333784
O O1 0.729967 0.652971 0.119523
O O2 0.735672 0.467251 0.180492
O O3 0.968229 0.566138 0.138985
O O4 0.750000 0.515447 0.000000
O O5 0.884190 0.761534 0.748498
O O6 0.844351 0.315050 0.926091
O O7 0.250000 0.098139 0.500000
O O8 0.477304 0.169734 0.576068
O O9 0.489848 0.155078 0.386317
O O10 0.500000 0.000000 0.500000
O O11 0.127428 0.685095 0.266673
#
# Coordination Sequence:
#
# PCOD9396799 Si02
#       6
#     8   4   2   8   8   8
#     4  11  24  42  69 102 141 188 243 303 370 444
#     4  10  21  37  70  96 136 184 244 284 364 440
#     4  12  28  52  66 108 152 200 234 332 372 448
#     4  11  23  45  76 102 150 188 244 305 376 441
#     4  11  27  44  73  99 146 187 248 302 375 445
#     4  10  22  45  68 104 138 193 239 298 361 450
#
# _framework density 21.983208000000001
#
# number of rings (size 3 to 8) (size 9 to 14) (size 15 to 20)
#    0.000    1.263    3.158    1.579    8.842    0.000 
#    7.579    1.053    0.000    0.000    0.000    0.000 
#    0.000    0.000    0.000    0.000    0.000    0.000 
#
# Total GULP energy -211771.996543 kJ/mol
# GULP energy per Si atom -5572.947277 kJ/mol
# Density = 2.193317 g / cm^3
# Si number density = 21.983208 Si / 1000 Ang^3
#
#
#
# Elastic Constant Matrix: (Units=GPa)
#
#
# Indices 1 2 3 4 5 6 
#
# 1 96.1482 65.7083 36.2860 0.0000 0.0000 0.0000
# 2 65.7083 184.0815 53.3152 0.0000 0.0000 0.0000
# 3 36.2860 53.3152 101.2051 0.0000 0.0000 0.0000
# 4 0.0000 0.0000 0.0000 35.9276 0.0000 0.0000
# 5 0.0000 0.0000 0.0000 0.0000 23.9101 0.0000
# 6 0.0000 0.0000 0.0000 0.0000 0.0000 -264.5417
#
#
#
# Elastic Compliance Matrix: (Units=1/GPa)
#
#
# Indices 1 2 3 4 5 6 
#
# 1 0.014446 -0.004315 -0.002906 0.000000 0.000000 0.000000
# 2 -0.004315 0.007699 -0.002509 0.000000 0.000000 0.000000
# 3 -0.002906 -0.002509 0.012245 0.000000 0.000000 0.000000
# 4 0.000000 0.000000 0.000000 0.027834 0.000000 0.000000
# 5 0.000000 0.000000 0.000000 0.000000 0.041823 0.000000
# 6 0.000000 0.000000 0.000000 0.000000 0.000000 -0.003780
#
#
# Mechanical properties :
#
#
# Convention : Reuss Voigt Hill
#
# Bulk Modulus (GPa) = 66.98049 76.89486 71.93768
# Shear Modulus (GPa) = 40.09482 -25.86579 7.11452
#
# Velocity S-wave (km/s) = 4.27533 -3.43390 1.80094
# Velocity P-wave (km/s) = 7.40988 4.39688 6.09257
#
# Compressibility (1/GPa) = 0.01492972
#
# Stress axis : x y z
#
# Youngs Moduli (GPa) = 69.22186 129.88316 81.66774
#
# Poissons Ratio (x) = 0.56042 0.23737
# Poissons Ratio (y) = 0.29868 0.20490
# Poissons Ratio (z) = 0.20119 0.32587
#
# Static dielectric constant tensor:
#      x y z
#    x 2.650730 0.000000 0.000000 
#    y 0.000000 1.878000 0.000000 
#    z 0.000000 0.000000 1.806070 
# 
# From -- ./inp_files/24587.got.cif
#   From: 2010.05.17/outbox.cif.g08.bks.cpg/sg50_13_cif.got.tgz:24587.got - 2010.06.03 11:33:33.
