data_PCOD9396992
_publ_section_title
;
Structure prediction by ZEFSAII (Michael W. Deem and Ramdas Pophale) SiO2 
 PCOD9396992
Probable space group: P B A N
;
_chemical_formula_sum "Si O2"
_cell_formula_units_Z 48
_cell_length_a 8.669565
_cell_length_b 26.404167
_cell_length_c 9.237210
_cell_angle_alpha 90.000000
_cell_angle_beta 90.000000
_cell_angle_gamma 90.000000
_cell_volume 2114.514147
_symmetry_space_group_name_H-M "P B A N"
_symmetry_group_IT_number 50
_space_group.IT_coordinate_system_code '2'
_symmetry_cell_setting 'orthorhombic'
loop_
_space_group_symop_operation_xyz
x,y,z
1/2-x,1/2-y,z
x,1/2-y,-z
1/2-x,y,-z
-x,-y,-z
1/2+x,1/2+y,-z
-x,1/2+y,z
1/2+x,-y,z
loop_
_atom_site_type_symbol
_atom_site_label
_atom_site_fract_x
_atom_site_fract_y
_atom_site_fract_z
Si Si1 0.610481 0.376901 0.829281
Si Si2 0.139773 0.700774 0.297201
Si Si3 0.070844 0.305951 0.956114
Si Si4 0.267183 0.514717 0.842597
Si Si5 0.427015 0.624628 0.485040
Si Si6 0.955796 0.533926 0.358765
O O1 0.755005 0.341992 0.781807
O O2 0.519759 0.349494 0.956832
O O3 0.668638 0.433399 0.858137
O O4 0.517365 0.378560 0.678597
O O5 0.250000 0.750000 0.292847
O O6 0.094433 0.681170 0.456304
O O7 0.979387 0.697100 0.210296
O O8 0.012751 0.250000 0.000000
O O9 0.250000 0.309697 0.000000
O O10 0.435223 0.528100 0.783010
O O11 0.204451 0.482757 0.707717
O O12 0.250000 0.489309 0.000000
O O13 0.250000 0.602286 0.500000
O O14 0.530892 0.590990 0.587508
O O15 0.000000 0.500000 0.500000
#
# Coordination Sequence:
#
# PCOD9396992 Si02
#       6
#     8   8   8   8   8   8
#     4  11  22  42  70  96 135 174 232 278 337 415
#     4  11  21  40  70 101 131 174 227 278 337 406
#     4  11  24  43  64  97 139 178 217 276 346 410
#     4  12  25  43  68 101 136 179 230 295 344 417
#     4  10  21  41  67 100 130 170 230 288 329 407
#     4  12  22  45  68  94 134 183 227 282 354 410
#
# _framework density 22.700248999999999
#
# number of rings (size 3 to 8) (size 9 to 14) (size 15 to 20)
#    0.000    0.833    6.667    2.500    0.000    3.000 
#    3.000    0.833    0.000    2.000    0.000    0.000 
#    0.000    0.000    0.000    0.000    0.000    0.000 
#
# Total GULP energy -267910.078921 kJ/mol
# GULP energy per Si atom -5581.459978 kJ/mol
# Density = 2.264858 g / cm^3
# Si number density = 22.700249 Si / 1000 Ang^3
#
#
#
# Elastic Constant Matrix: (Units=GPa)
#
#
# Indices 1 2 3 4 5 6 
#
# 1 32.0864 14.6670 6.5652 0.0000 0.0000 0.0000
# 2 14.6670 78.8429 4.6673 0.0000 0.0000 0.0000
# 3 6.5652 4.6673 110.0637 0.0000 0.0000 0.0000
# 4 0.0000 0.0000 0.0000 29.3048 0.0000 0.0000
# 5 0.0000 0.0000 0.0000 0.0000 28.3172 0.0000
# 6 0.0000 0.0000 0.0000 0.0000 0.0000 17.7859
#
#
#
# Elastic Compliance Matrix: (Units=1/GPa)
#
#
# Indices 1 2 3 4 5 6 
#
# 1 0.034409 -0.006295 -0.001785 0.000000 0.000000 0.000000
# 2 -0.006295 0.013867 -0.000213 0.000000 0.000000 0.000000
# 3 -0.001785 -0.000213 0.009201 0.000000 0.000000 0.000000
# 4 0.000000 0.000000 0.000000 0.034124 0.000000 0.000000
# 5 0.000000 0.000000 0.000000 0.000000 0.035314 0.000000
# 6 0.000000 0.000000 0.000000 0.000000 0.000000 0.056224
#
#
# Mechanical properties :
#
#
# Convention : Reuss Voigt Hill
#
# Bulk Modulus (GPa) = 24.45561 30.31024 27.38292
# Shear Modulus (GPa) = 23.43493 28.08781 25.76137
#
# Velocity S-wave (km/s) = 3.21653 3.52139 3.37241
# Velocity P-wave (km/s) = 4.95897 5.46946 5.22046
#
# Compressibility (1/GPa) = 0.04089042
#
# Stress axis : x y z
#
# Youngs Moduli (GPa) = 29.06231 72.11285 108.68196
#
# Poissons Ratio (x) = 0.45397 0.19405
# Poissons Ratio (y) = 0.18296 0.02310
# Poissons Ratio (z) = 0.05189 0.01533
#
# Static dielectric constant tensor:
#      x y z
#    x 1.945120 0.000000 0.000000 
#    y 0.000000 1.871930 0.000000 
#    z 0.000000 0.000000 2.033180 
# 
# From -- ./inp_files/10054.got.cif
#   From: 2010.05.17/outbox.cif.g08.bks.cpg/sg50_6_cif.got.tgz:10054.got - 2010.06.03 11:33:33.
