data_PCOD9396530
_publ_section_title
;
Structure prediction by ZEFSAII (Michael W. Deem and Ramdas Pophale) SiO2 
 PCOD9396530
Probable space group: P B A N
;
_chemical_formula_sum "Si O2"
_cell_formula_units_Z 28
_cell_length_a 18.826643
_cell_length_b 4.967476
_cell_length_c 12.998998
_cell_angle_alpha 90.000000
_cell_angle_beta 90.000000
_cell_angle_gamma 90.000000
_cell_volume 1215.677956
_symmetry_space_group_name_H-M "P B A N"
_symmetry_group_IT_number 50
_space_group.IT_coordinate_system_code '2'
_symmetry_cell_setting 'orthorhombic'
loop_
_space_group_symop_operation_xyz
x,y,z
1/2-x,1/2-y,z
x,1/2-y,-z
1/2-x,y,-z
-x,-y,-z
1/2+x,1/2+y,-z
-x,1/2+y,z
1/2+x,-y,z
loop_
_atom_site_type_symbol
_atom_site_label
_atom_site_fract_x
_atom_site_fract_y
_atom_site_fract_z
Si Si1 0.682257 0.560506 0.682418
Si Si2 0.449134 0.200165 0.224782
Si Si3 0.750000 0.750000 0.000000
Si Si4 0.250000 0.750000 0.500000
Si Si5 0.250000 0.750000 0.850979
Si Si6 0.948325 0.750000 0.000000
O O1 0.750000 0.750000 0.700203
O O2 0.609894 0.724313 0.692317
O O3 0.699297 0.422298 0.574241
O O4 0.686997 0.340529 0.773994
O O5 0.515002 0.409066 0.231524
O O6 0.412900 0.244751 0.111470
O O7 0.727536 0.510880 0.082026
O O8 0.000000 0.500000 0.000000
#
# Coordination Sequence:
#
# PCOD9396530 Si02
#       6
#     8   8   2   2   4   4
#     4  11  24  46  73 102 138 190 238 299 366 429
#     4  10  23  41  69 102 142 185 236 286 343 422
#     4  10  20  40  56 104 148 174 214 306 338 402
#     4  10  26  46  76 100 140 176 242 304 392 420
#     4  10  22  38  66  96 142 180 230 270 362 420
#     4   8  16  37  59  90 135 184 215 258 330 405
#
# _framework density 23.032416000000001
#
# number of rings (size 3 to 8) (size 9 to 14) (size 15 to 20)
#    0.000    2.000    1.429    0.429    8.000    1.143 
#    0.000    4.286    0.000    0.000    0.000    0.000 
#    0.000    0.000    0.000    0.000    0.000    0.000 
#
# Total GULP energy -156121.437269 kJ/mol
# GULP energy per Si atom -5575.765617 kJ/mol
# Density = 2.297999 g / cm^3
# Si number density = 23.032416 Si / 1000 Ang^3
#
#
#
# Elastic Constant Matrix: (Units=GPa)
#
#
# Indices 1 2 3 4 5 6 
#
# 1 91.9213 18.8417 38.2726 0.0000 0.0000 0.0000
# 2 18.8417 137.6952 32.3722 0.0000 0.0000 0.0000
# 3 38.2726 32.3722 133.6250 0.0000 0.0000 0.0000
# 4 0.0000 0.0000 0.0000 48.6647 0.0000 0.0000
# 5 0.0000 0.0000 0.0000 0.0000 8.2531 0.0000
# 6 0.0000 0.0000 0.0000 0.0000 0.0000 27.5923
#
#
#
# Elastic Compliance Matrix: (Units=1/GPa)
#
#
# Indices 1 2 3 4 5 6 
#
# 1 0.012460 -0.000918 -0.003346 0.000000 0.000000 0.000000
# 2 -0.000918 0.007769 -0.001619 0.000000 0.000000 0.000000
# 3 -0.003346 -0.001619 0.008834 0.000000 0.000000 0.000000
# 4 0.000000 0.000000 0.000000 0.020549 0.000000 0.000000
# 5 0.000000 0.000000 0.000000 0.000000 0.121167 0.000000
# 6 0.000000 0.000000 0.000000 0.000000 0.000000 0.036242
#
#
# Mechanical properties :
#
#
# Convention : Reuss Voigt Hill
#
# Bulk Modulus (GPa) = 57.81700 60.24605 59.03153
# Shear Modulus (GPa) = 22.26634 35.15234 28.70934
#
# Velocity S-wave (km/s) = 3.11262 3.91091 3.53438
# Velocity P-wave (km/s) = 6.17048 6.82697 6.50701
#
# Compressibility (1/GPa) = 0.01729595
#
# Stress axis : x y z
#
# Youngs Moduli (GPa) = 80.25405 128.72152 113.19465
#
# Poissons Ratio (x) = 0.11820 0.37880
# Poissons Ratio (y) = 0.07370 0.18327
# Poissons Ratio (z) = 0.26856 0.20841
#
# Static dielectric constant tensor:
#      x y z
#    x 1.849810 0.000000 0.000000 
#    y 0.000000 1.867690 0.000000 
#    z 0.000000 0.000000 1.924940 
# 
# From -- ./inp_files/22098.got.cif
#   From: 2010.05.17/outbox.cif.g08.bks.cpg/sg50_12_cif.got.tgz:22098.got - 2010.06.03 11:33:33.
