data_PCOD9396653
_publ_section_title
;
Structure prediction by ZEFSAII (Michael W. Deem and Ramdas Pophale) SiO2 
 PCOD9396653
Probable space group: P B A N
;
_chemical_formula_sum "Si O2"
_cell_formula_units_Z 26
_cell_length_a 14.503518
_cell_length_b 16.113279
_cell_length_c 5.200316
_cell_angle_alpha 90.000000
_cell_angle_beta 90.000000
_cell_angle_gamma 90.000000
_cell_volume 1215.309855
_symmetry_space_group_name_H-M "P B A N"
_symmetry_group_IT_number 50
_space_group.IT_coordinate_system_code '2'
_symmetry_cell_setting 'orthorhombic'
loop_
_space_group_symop_operation_xyz
x,y,z
1/2-x,1/2-y,z
x,1/2-y,-z
1/2-x,y,-z
-x,-y,-z
1/2+x,1/2+y,-z
-x,1/2+y,z
1/2+x,-y,z
loop_
_atom_site_type_symbol
_atom_site_label
_atom_site_fract_x
_atom_site_fract_y
_atom_site_fract_z
Si Si1 0.837439 0.892601 0.179372
Si Si2 0.250000 0.250000 0.500000
Si Si3 0.968118 0.094349 0.956749
Si Si4 0.355371 0.571504 0.562574
O O1 0.809120 0.811977 0.331842
O O2 0.931172 0.865707 0.036315
O O3 0.855876 0.972221 0.366099
O O4 0.750000 0.916911 0.000000
O O5 0.917685 0.094359 0.682308
O O6 0.898092 0.115133 0.185439
O O7 0.000000 0.000000 0.000000
O O8 0.250000 0.592949 0.500000
#
# Coordination Sequence:
#
# PCOD9396653 Si02
#       4
#     8   2   8   8
#     4  11  23  38  54  86 127 164 202 239 304 374
#     4  12  26  36  60  78 134 172 206 238 302 384
#     4  10  21  34  59  84 119 158 193 247 306 357
#     4  11  20  36  61  87 120 153 196 255 308 355
#
# _framework density 21.393719999999998
#
# number of rings (size 3 to 8) (size 9 to 14) (size 15 to 20)
#    0.000    1.231    1.538    8.769    4.308    0.000 
#    0.000    0.000    0.000    0.000    0.000    1.077 
#    0.000    0.000    0.000    0.000    0.000    0.000 
#
# Total GULP energy -145122.224852 kJ/mol
# GULP energy per Si atom -5581.624033 kJ/mol
# Density = 2.134503 g / cm^3
# Si number density = 21.393720 Si / 1000 Ang^3
#
#
#
# Elastic Constant Matrix: (Units=GPa)
#
#
# Indices 1 2 3 4 5 6 
#
# 1 195.8638 17.1733 84.5278 0.0000 0.0000 0.0000
# 2 17.1733 25.7370 16.0345 0.0000 0.0000 0.0000
# 3 84.5278 16.0345 156.9307 0.0000 0.0000 0.0000
# 4 0.0000 0.0000 0.0000 -27.0429 0.0000 0.0000
# 5 0.0000 0.0000 0.0000 0.0000 59.9063 0.0000
# 6 0.0000 0.0000 0.0000 0.0000 0.0000 -19.4819
#
#
#
# Elastic Compliance Matrix: (Units=1/GPa)
#
#
# Indices 1 2 3 4 5 6 
#
# 1 0.006788 -0.002405 -0.003411 0.000000 0.000000 0.000000
# 2 -0.002405 0.042348 -0.003032 0.000000 0.000000 0.000000
# 3 -0.003411 -0.003032 0.008519 0.000000 0.000000 0.000000
# 4 0.000000 0.000000 0.000000 -0.036978 0.000000 0.000000
# 5 0.000000 0.000000 0.000000 0.000000 0.016693 0.000000
# 6 0.000000 0.000000 0.000000 0.000000 0.000000 -0.051330
#
#
# Mechanical properties :
#
#
# Convention : Reuss Voigt Hill
#
# Bulk Modulus (GPa) = 25.02430 68.22251 46.62341
# Shear Modulus (GPa) = 293.17319 20.06268 156.61793
#
# Velocity S-wave (km/s) = 11.71898 3.06565 8.56542
# Velocity P-wave (km/s) = 13.95834 6.67002 10.93902
#
# Compressibility (1/GPa) = 0.03996116
#
# Stress axis : x y z
#
# Youngs Moduli (GPa) = 147.31056 23.61395 117.38285
#
# Poissons Ratio (x) = 0.05678 0.40036
# Poissons Ratio (y) = 0.35423 0.35587
# Poissons Ratio (z) = 0.50244 0.07159
#
# Static dielectric constant tensor:
#      x y z
#    x 1.108570 0.000000 0.000000 
#    y 0.000000 1.522060 0.000000 
#    z 0.000000 0.000000 1.826990 
# 
# From -- ./inp_files/2845.got.cif
#   From: 2010.05.17/outbox.cif.g08.bks.cpg/sg50_2_cif.got.tgz:2845.got - 2010.06.03 11:33:33.
