data_PCOD9396005
_publ_section_title
;
Structure prediction by ZEFSAII (Michael W. Deem and Ramdas Pophale) SiO2 
 PCOD9396005
Probable space group: P B A N
;
_chemical_formula_sum "Si O2"
_cell_formula_units_Z 48
_cell_length_a 14.708278
_cell_length_b 8.265675
_cell_length_c 18.452584
_cell_angle_alpha 90.000000
_cell_angle_beta 90.000000
_cell_angle_gamma 90.000000
_cell_volume 2243.351601
_symmetry_space_group_name_H-M "P B A N"
_symmetry_group_IT_number 50
_space_group.IT_coordinate_system_code '2'
_symmetry_cell_setting 'orthorhombic'
loop_
_space_group_symop_operation_xyz
x,y,z
1/2-x,1/2-y,z
x,1/2-y,-z
1/2-x,y,-z
-x,-y,-z
1/2+x,1/2+y,-z
-x,1/2+y,z
1/2+x,-y,z
loop_
_atom_site_type_symbol
_atom_site_label
_atom_site_fract_x
_atom_site_fract_y
_atom_site_fract_z
Si Si1 0.738075 0.557042 0.583242
Si Si2 0.625913 0.930449 0.150010
Si Si3 0.883386 0.426078 0.695187
Si Si4 0.471968 0.745126 0.084841
Si Si5 0.086761 0.956506 0.309905
Si Si6 0.194456 0.921316 0.850562
O O1 0.750000 0.750000 0.586784
O O2 0.750000 0.506078 0.500000
O O3 0.814098 0.472717 0.632425
O O4 0.642263 0.514514 0.620210
O O5 0.564751 0.779366 0.127915
O O6 0.571506 0.079073 0.112833
O O7 0.622319 0.956539 0.236683
O O8 0.729704 0.950814 0.124441
O O9 0.897013 0.233719 0.699203
O O10 0.841319 0.473955 0.772231
O O11 0.980490 0.507763 0.683771
O O12 0.393173 0.878198 0.101683
O O13 0.490422 0.750000 0.000000
O O14 0.250000 0.750000 0.842909
#
# Coordination Sequence:
#
# PCOD9396005 Si02
#       6
#     8   8   8   8   8   8
#     4  11  26  46  68 100 138 176 225 285 345 407
#     4  11  21  40  65  94 130 177 226 272 336 406
#     4  12  22  41  68  99 136 173 232 278 339 414
#     4  11  23  40  64  95 134 174 220 280 339 400
#     4  12  22  40  70  99 133 181 229 279 341 410
#     4  10  19  37  63  92 126 175 224 271 333 405
#
# _framework density 21.396557000000001
#
# number of rings (size 3 to 8) (size 9 to 14) (size 15 to 20)
#    0.000    0.833    6.667    2.000    0.000    5.000 
#    0.000    0.833    0.000    1.000    0.000    0.000 
#    0.000    0.000    0.000    0.000    0.000    0.000 
#
# Total GULP energy -268705.475810 kJ/mol
# GULP energy per Si atom -5598.030746 kJ/mol
# Density = 2.134786 g / cm^3
# Si number density = 21.396557 Si / 1000 Ang^3
#
#
#
# Elastic Constant Matrix: (Units=GPa)
#
#
# Indices 1 2 3 4 5 6 
#
# 1 143.3268 20.0094 33.3875 0.0000 0.0000 0.0000
# 2 20.0094 39.6446 21.2864 0.0000 0.0000 0.0000
# 3 33.3875 21.2864 123.4685 0.0000 0.0000 0.0000
# 4 0.0000 0.0000 0.0000 14.1404 0.0000 0.0000
# 5 0.0000 0.0000 0.0000 0.0000 30.9758 0.0000
# 6 0.0000 0.0000 0.0000 0.0000 0.0000 25.1201
#
#
#
# Elastic Compliance Matrix: (Units=1/GPa)
#
#
# Indices 1 2 3 4 5 6 
#
# 1 0.007773 -0.003080 -0.001571 0.000000 0.000000 0.000000
# 2 -0.003080 0.029017 -0.004170 0.000000 0.000000 0.000000
# 3 -0.001571 -0.004170 0.009243 0.000000 0.000000 0.000000
# 4 0.000000 0.000000 0.000000 0.070719 0.000000 0.000000
# 5 0.000000 0.000000 0.000000 0.000000 0.032283 0.000000
# 6 0.000000 0.000000 0.000000 0.000000 0.000000 0.039809
#
#
# Mechanical properties :
#
#
# Convention : Reuss Voigt Hill
#
# Bulk Modulus (GPa) = 35.22087 50.64516 42.93301
# Shear Modulus (GPa) = 23.15353 29.49771 26.32562
#
# Velocity S-wave (km/s) = 3.29312 3.71700 3.51146
# Velocity P-wave (km/s) = 5.56383 6.49174 6.04561
#
# Compressibility (1/GPa) = 0.02839226
#
# Stress axis : x y z
#
# Youngs Moduli (GPa) = 128.65116 34.46198 108.19060
#
# Poissons Ratio (x) = 0.10613 0.16996
# Poissons Ratio (y) = 0.39620 0.45115
# Poissons Ratio (z) = 0.20211 0.14370
#
# Static dielectric constant tensor:
#      x y z
#    x 1.772050 0.000000 0.000000 
#    y 0.000000 1.830270 0.000000 
#    z 0.000000 0.000000 1.724720 
# 
# From -- ./inp_files/28708.got.cif
#   From: 2010.05.17/outbox.cif.g08.bks.cpg/sg50_15_cif.got.tgz:28708.got - 2010.06.03 11:33:33.
