data_PCOD9396331
_publ_section_title
;
Structure prediction by ZEFSAII (Michael W. Deem and Ramdas Pophale) SiO2 
 PCOD9396331
Probable space group: P B A N
;
_chemical_formula_sum "Si O2"
_cell_formula_units_Z 44
_cell_length_a 14.860101
_cell_length_b 17.523710
_cell_length_c 8.077612
_cell_angle_alpha 90.000000
_cell_angle_beta 90.000000
_cell_angle_gamma 90.000000
_cell_volume 2103.443287
_symmetry_space_group_name_H-M "P B A N"
_symmetry_group_IT_number 50
_space_group.IT_coordinate_system_code '2'
_symmetry_cell_setting 'orthorhombic'
loop_
_space_group_symop_operation_xyz
x,y,z
1/2-x,1/2-y,z
x,1/2-y,-z
1/2-x,y,-z
-x,-y,-z
1/2+x,1/2+y,-z
-x,1/2+y,z
1/2+x,-y,z
loop_
_atom_site_type_symbol
_atom_site_label
_atom_site_fract_x
_atom_site_fract_y
_atom_site_fract_z
Si Si1 0.401337 0.329870 0.207056
Si Si2 0.534274 0.750000 0.500000
Si Si3 0.315154 0.477746 0.347002
Si Si4 0.750000 0.450038 0.000000
Si Si5 0.750000 0.750000 0.000000
Si Si6 0.250000 0.750000 0.500000
Si Si7 0.415125 0.837372 0.997805
Si Si8 0.101686 0.638092 0.623890
O O1 0.410484 0.259895 0.335023
O O2 0.377741 0.406788 0.303723
O O3 0.494309 0.339471 0.106196
O O4 0.317346 0.306078 0.096201
O O5 0.470109 0.823783 0.503600
O O6 0.250000 0.457532 0.500000
O O7 0.271152 0.503315 0.169272
O O8 0.368804 0.552537 0.408722
O O9 0.835641 0.395945 0.957494
O O10 0.187962 0.694135 0.608895
O O11 0.381800 0.750000 0.000000
O O12 0.437083 0.856953 0.807988
#
# Coordination Sequence:
#
# PCOD9396331 Si02
#       8
#     8   4   8   4   2   2   8   8
#     4  12  27  46  71 101 143 187 253 293 368 433
#     4  11  24  42  68 107 128 186 238 300 350 446
#     4  11  26  46  67 106 146 195 236 307 368 436
#     4  10  26  42  74 108 148 182 236 288 387 445
#     4  12  26  50  76  92 140 196 244 316 332 450
#     4  10  20  36  66 106 144 182 236 286 360 456
#     4  11  22  43  69 108 137 187 233 296 359 435
#     4  10  22  39  69 100 145 178 232 295 367 434
#
# _framework density 20.918082999999999
#
# number of rings (size 3 to 8) (size 9 to 14) (size 15 to 20)
#    0.000    1.091    3.636    0.818   10.182    3.636 
#    3.273    0.000    0.000    0.000    0.000    0.000 
#    0.000    0.000    0.000    0.000    0.000    0.000 
#
# Total GULP energy -245754.260327 kJ/mol
# GULP energy per Si atom -5585.324098 kJ/mol
# Density = 2.087047 g / cm^3
# Si number density = 20.918083 Si / 1000 Ang^3
#
#
#
# Elastic Constant Matrix: (Units=GPa)
#
#
# Indices 1 2 3 4 5 6 
#
# 1 114.8602 42.8552 63.8855 0.0000 0.0000 0.0000
# 2 42.8552 99.2023 14.9375 0.0000 0.0000 0.0000
# 3 63.8855 14.9375 91.4935 0.0000 0.0000 0.0000
# 4 0.0000 0.0000 0.0000 33.2228 0.0000 0.0000
# 5 0.0000 0.0000 0.0000 0.0000 21.4093 0.0000
# 6 0.0000 0.0000 0.0000 0.0000 0.0000 29.6555
#
#
#
# Elastic Compliance Matrix: (Units=1/GPa)
#
#
# Indices 1 2 3 4 5 6 
#
# 1 0.016839 -0.005643 -0.010837 0.000000 0.000000 0.000000
# 2 -0.005643 0.012225 0.001944 0.000000 0.000000 0.000000
# 3 -0.010837 0.001944 0.018179 0.000000 0.000000 0.000000
# 4 0.000000 0.000000 0.000000 0.030100 0.000000 0.000000
# 5 0.000000 0.000000 0.000000 0.000000 0.046709 0.000000
# 6 0.000000 0.000000 0.000000 0.000000 0.000000 0.033721
#
#
# Mechanical properties :
#
#
# Convention : Reuss Voigt Hill
#
# Bulk Modulus (GPa) = 55.02705 60.99026 58.00866
# Shear Modulus (GPa) = 25.92018 29.11604 27.51811
#
# Velocity S-wave (km/s) = 3.52394 3.73488 3.63094
# Velocity P-wave (km/s) = 6.55139 6.91513 6.73572
#
# Compressibility (1/GPa) = 0.01817288
#
# Stress axis : x y z
#
# Youngs Moduli (GPa) = 59.38658 81.79766 55.00866
#
# Poissons Ratio (x) = 0.46155 0.59610
# Poissons Ratio (y) = 0.33510 -0.10694
# Poissons Ratio (z) = 0.64354 -0.15902
#
# Static dielectric constant tensor:
#      x y z
#    x 1.828330 0.000000 0.000000 
#    y 0.000000 1.755340 0.000000 
#    z 0.000000 0.000000 1.787340 
# 
# From -- ./inp_files/12928.got.cif
#   From: 2010.05.17/outbox.cif.g08.bks.cpg/sg50_7_cif.got.tgz:12928.got - 2010.06.03 11:33:33.
