data_PCOD9396738
_publ_section_title
;
Structure prediction by ZEFSAII (Michael W. Deem and Ramdas Pophale) SiO2 
 PCOD9396738
Probable space group: P B A N
;
_chemical_formula_sum "Si O2"
_cell_formula_units_Z 32
_cell_length_a 5.358405
_cell_length_b 16.147974
_cell_length_c 16.758895
_cell_angle_alpha 90.000000
_cell_angle_beta 90.000000
_cell_angle_gamma 90.000000
_cell_volume 1450.103353
_symmetry_space_group_name_H-M "P B A N"
_symmetry_group_IT_number 50
_space_group.IT_coordinate_system_code '2'
_symmetry_cell_setting 'orthorhombic'
loop_
_space_group_symop_operation_xyz
x,y,z
1/2-x,1/2-y,z
x,1/2-y,-z
1/2-x,y,-z
-x,-y,-z
1/2+x,1/2+y,-z
-x,1/2+y,z
1/2+x,-y,z
loop_
_atom_site_type_symbol
_atom_site_label
_atom_site_fract_x
_atom_site_fract_y
_atom_site_fract_z
Si Si1 0.503343 0.196848 0.818193
Si Si2 0.499629 0.094697 0.965412
Si Si3 0.675223 0.974602 0.410422
Si Si4 0.003046 0.800094 0.629269
O O1 0.750000 0.250000 0.839278
O O2 0.497321 0.113544 0.871486
O O3 0.521870 0.180190 0.723802
O O4 0.250000 0.250000 0.831126
O O5 0.250000 0.134002 0.000000
O O6 0.750000 0.133241 0.000000
O O7 0.500000 0.000000 0.000000
O O8 0.750000 0.000040 0.500000
O O9 0.543226 0.886082 0.413664
O O10 0.453153 0.029502 0.371430
O O11 0.250000 0.750000 0.605414
O O12 0.750000 0.750000 0.616236
#
# Coordination Sequence:
#
# PCOD9396738 Si02
#       4
#     8   8   8   8
#     4  10  21  37  58  83 113 152 193 243 299 352
#     4  10  21  37  53  79 114 145 190 248 289 352
#     4  10  21  39  60  89 125 160 198 243 298 357
#     4  10  21  39  61  89 123 156 204 251 299 364
#
# _framework density 22.067392999999999
#
# number of rings (size 3 to 8) (size 9 to 14) (size 15 to 20)
#    0.000    2.000    0.000    3.000    0.000    3.500 
#    9.000    1.250    0.000    0.000    0.000    0.000 
#    0.000    0.000    0.000    0.000    0.000    0.000 
#
# Total GULP energy -178315.667030 kJ/mol
# GULP energy per Si atom -5572.364595 kJ/mol
# Density = 2.201717 g / cm^3
# Si number density = 22.067393 Si / 1000 Ang^3
#
#
#
# Elastic Constant Matrix: (Units=GPa)
#
#
# Indices 1 2 3 4 5 6 
#
# 1 241.8945 41.9349 32.7103 0.0000 0.0000 0.0000
# 2 41.9349 95.3696 47.5920 0.0000 0.0000 0.0000
# 3 32.7103 47.5920 45.9411 0.0000 0.0000 0.0000
# 4 0.0000 0.0000 0.0000 173.7913 0.0000 0.0000
# 5 0.0000 0.0000 0.0000 0.0000 -399.4520 0.0000
# 6 0.0000 0.0000 0.0000 0.0000 0.0000 13.3286
#
#
#
# Elastic Compliance Matrix: (Units=1/GPa)
#
#
# Indices 1 2 3 4 5 6 
#
# 1 0.004604 -0.000804 -0.002445 0.000000 0.000000 0.000000
# 2 -0.000804 0.021848 -0.022060 0.000000 0.000000 0.000000
# 3 -0.002445 -0.022060 0.046361 0.000000 0.000000 0.000000
# 4 0.000000 0.000000 0.000000 0.005754 0.000000 0.000000
# 5 0.000000 0.000000 0.000000 0.000000 -0.002503 0.000000
# 6 0.000000 0.000000 0.000000 0.000000 0.000000 0.075027
#
#
# Mechanical properties :
#
#
# Convention : Reuss Voigt Hill
#
# Bulk Modulus (GPa) = 45.05776 69.74218 57.39997
# Shear Modulus (GPa) = 23.91118 -25.06857 -0.57869
#
# Velocity S-wave (km/s) = 3.29531 -3.37412 -0.51265
# Velocity P-wave (km/s) = 5.91112 4.06119 5.07122
#
# Compressibility (1/GPa) = 0.02219373
#
# Stress axis : x y z
#
# Youngs Moduli (GPa) = 217.19824 45.77087 21.56997
#
# Poissons Ratio (x) = 0.03682 0.05273
# Poissons Ratio (y) = 0.17473 0.47584
# Poissons Ratio (z) = 0.53100 1.00972
#
# Static dielectric constant tensor:
#      x y z
#    x 1.957990 0.000000 0.000000 
#    y 0.000000 1.362980 0.000000 
#    z 0.000000 0.000000 1.819890 
# 
# From -- ./inp_files/27902.got.cif
#   From: 2010.05.17/outbox.cif.g08.bks.cpg/sg50_14_cif.got.tgz:27902.got - 2010.06.03 11:33:33.
