data_PCOD9396564
_publ_section_title
;
Structure prediction by ZEFSAII (Michael W. Deem and Ramdas Pophale) SiO2 
 PCOD9396564
Probable space group: P B A N
;
_chemical_formula_sum "Si O2"
_cell_formula_units_Z 40
_cell_length_a 9.360751
_cell_length_b 24.916575
_cell_length_c 7.941519
_cell_angle_alpha 90.000000
_cell_angle_beta 90.000000
_cell_angle_gamma 90.000000
_cell_volume 1852.262852
_symmetry_space_group_name_H-M "P B A N"
_symmetry_group_IT_number 50
_space_group.IT_coordinate_system_code '2'
_symmetry_cell_setting 'orthorhombic'
loop_
_space_group_symop_operation_xyz
x,y,z
1/2-x,1/2-y,z
x,1/2-y,-z
1/2-x,y,-z
-x,-y,-z
1/2+x,1/2+y,-z
-x,1/2+y,z
1/2+x,-y,z
loop_
_atom_site_type_symbol
_atom_site_label
_atom_site_fract_x
_atom_site_fract_y
_atom_site_fract_z
Si Si1 0.875050 0.483275 0.868662
Si Si2 0.471343 0.880265 0.316804
Si Si3 0.087296 0.767494 0.809766
Si Si4 0.282242 0.095213 0.197026
Si Si5 0.404488 0.186337 0.399850
O O1 0.890581 0.433668 0.740907
O O2 0.848608 0.537613 0.763775
O O3 0.750000 0.470441 0.000000
O O4 0.000000 0.500000 0.000000
O O5 0.427905 0.831501 0.195647
O O6 0.634143 0.898361 0.292188
O O7 0.479301 0.848204 0.493252
O O8 0.250000 0.750000 0.767984
O O9 0.975705 0.739665 0.679634
O O10 0.055913 0.750000 0.000000
O O11 0.372063 0.146866 0.244739
O O12 0.250000 0.094592 0.000000
O O13 0.250000 0.192480 0.500000
#
# Coordination Sequence:
#
# PCOD9396564 Si02
#       5
#     8   8   8   8   8
#     4  11  22  39  69  97 136 183 239 290 340 417
#     4  11  23  41  65 101 137 183 225 295 357 410
#     4  11  26  45  71 102 138 185 241 292 359 433
#     4  10  20  40  67  97 134 181 238 282 342 421
#     4  10  24  44  71 102 145 180 234 295 364 434
#
# _framework density 21.595206999999998
#
# number of rings (size 3 to 8) (size 9 to 14) (size 15 to 20)
#    0.000    1.400    4.000    1.800    2.800    8.000 
#    0.000    5.000    0.000    0.000    0.000    0.000 
#    0.000    0.000    0.000    0.000    0.000    0.000 
#
# Total GULP energy -223022.160268 kJ/mol
# GULP energy per Si atom -5575.554007 kJ/mol
# Density = 2.154606 g / cm^3
# Si number density = 21.595207 Si / 1000 Ang^3
#
#
#
# Elastic Constant Matrix: (Units=GPa)
#
#
# Indices 1 2 3 4 5 6 
#
# 1 78.6003 38.1555 18.9213 0.0000 0.0000 0.0000
# 2 38.1555 185.2243 28.5280 0.0000 0.0000 0.0000
# 3 18.9213 28.5280 60.7207 0.0000 0.0000 0.0000
# 4 0.0000 0.0000 0.0000 39.2694 0.0000 0.0000
# 5 0.0000 0.0000 0.0000 0.0000 18.5954 0.0000
# 6 0.0000 0.0000 0.0000 0.0000 0.0000 46.8302
#
#
#
# Elastic Compliance Matrix: (Units=1/GPa)
#
#
# Indices 1 2 3 4 5 6 
#
# 1 0.014767 -0.002515 -0.003420 0.000000 0.000000 0.000000
# 2 -0.002515 0.006248 -0.002152 0.000000 0.000000 0.000000
# 3 -0.003420 -0.002152 0.018545 0.000000 0.000000 0.000000
# 4 0.000000 0.000000 0.000000 0.025465 0.000000 0.000000
# 5 0.000000 0.000000 0.000000 0.000000 0.053777 0.000000
# 6 0.000000 0.000000 0.000000 0.000000 0.000000 0.021354
#
#
# Mechanical properties :
#
#
# Convention : Reuss Voigt Hill
#
# Bulk Modulus (GPa) = 42.75890 55.08385 48.92137
# Shear Modulus (GPa) = 30.46447 36.86837 33.66642
#
# Velocity S-wave (km/s) = 3.76001 4.13637 3.95267
# Velocity P-wave (km/s) = 6.22040 6.95525 6.59807
#
# Compressibility (1/GPa) = 0.02338695
#
# Stress axis : x y z
#
# Youngs Moduli (GPa) = 67.71944 160.04073 53.92147
#
# Poissons Ratio (x) = 0.40253 0.18440
# Poissons Ratio (y) = 0.17033 0.11603
# Poissons Ratio (z) = 0.23159 0.34439
#
# Static dielectric constant tensor:
#      x y z
#    x 1.792220 0.000000 0.000000 
#    y 0.000000 1.842890 0.000000 
#    z 0.000000 0.000000 1.846850 
# 
# From -- ./inp_files/9510.got.cif
#   From: 2010.05.17/outbox.cif.g08.bks.cpg/sg50_5_cif.got.tgz:9510.got - 2010.06.03 11:33:33.
