data_PCOD9396369
_publ_section_title
;
Structure prediction by ZEFSAII (Michael W. Deem and Ramdas Pophale) SiO2 
 PCOD9396369
Probable space group: P B A N
;
_chemical_formula_sum "Si O2"
_cell_formula_units_Z 28
_cell_length_a 9.801712
_cell_length_b 25.934721
_cell_length_c 5.768472
_cell_angle_alpha 90.000000
_cell_angle_beta 90.000000
_cell_angle_gamma 90.000000
_cell_volume 1466.372498
_symmetry_space_group_name_H-M "P B A N"
_symmetry_group_IT_number 50
_space_group.IT_coordinate_system_code '2'
_symmetry_cell_setting 'orthorhombic'
loop_
_space_group_symop_operation_xyz
x,y,z
1/2-x,1/2-y,z
x,1/2-y,-z
1/2-x,y,-z
-x,-y,-z
1/2+x,1/2+y,-z
-x,1/2+y,z
1/2+x,-y,z
loop_
_atom_site_type_symbol
_atom_site_label
_atom_site_fract_x
_atom_site_fract_y
_atom_site_fract_z
Si Si1 0.876219 0.388593 0.678520
Si Si2 0.250000 0.976693 0.000000
Si Si3 0.104129 0.038988 0.378367
Si Si4 0.906185 0.230402 0.245270
O O1 0.750000 0.385372 0.500000
O O2 0.831956 0.436254 0.840924
O O3 0.896208 0.331375 0.773034
O O4 0.025317 0.407202 0.599477
O O5 0.144842 0.013726 0.133078
O O6 0.250000 0.041236 0.500000
O O7 0.000000 0.000000 0.500000
O O8 0.750000 0.250000 0.246592
O O9 0.961503 0.250000 0.500000
O O10 0.969096 0.250000 0.000000
#
# Coordination Sequence:
#
# PCOD9396369 Si02
#       4
#     8   4   8   8
#     4  12  23  38  65  94 125 167 209 265 327 378
#     4  12  22  38  63  88 131 170 208 254 324 388
#     4  12  24  41  58  91 131 169 214 259 313 392
#     4  10  20  37  60  96 121 157 213 275 318 376
#
# _framework density 19.094738
#
# number of rings (size 3 to 8) (size 9 to 14) (size 15 to 20)
#    0.000    0.571    8.571    2.571    0.000    0.000 
#    0.000    0.000    0.000    0.857    0.000    0.000 
#    0.000    0.000    0.000    0.000    0.000    0.000 
#
# Total GULP energy -155898.973611 kJ/mol
# GULP energy per Si atom -5567.820486 kJ/mol
# Density = 1.905128 g / cm^3
# Si number density = 19.094738 Si / 1000 Ang^3
#
#
#
# Elastic Constant Matrix: (Units=GPa)
#
#
# Indices 1 2 3 4 5 6 
#
# 1 114.4256 45.6039 29.6787 0.0000 0.0000 0.0000
# 2 45.6039 148.9892 36.2307 0.0000 0.0000 0.0000
# 3 29.6787 36.2307 116.2897 0.0000 0.0000 0.0000
# 4 0.0000 0.0000 0.0000 17.1871 0.0000 0.0000
# 5 0.0000 0.0000 0.0000 0.0000 28.7086 0.0000
# 6 0.0000 0.0000 0.0000 0.0000 0.0000 10.0887
#
#
#
# Elastic Compliance Matrix: (Units=1/GPa)
#
#
# Indices 1 2 3 4 5 6 
#
# 1 0.010283 -0.002715 -0.001778 0.000000 0.000000 0.000000
# 2 -0.002715 0.007979 -0.001793 0.000000 0.000000 0.000000
# 3 -0.001778 -0.001793 0.009612 0.000000 0.000000 0.000000
# 4 0.000000 0.000000 0.000000 0.058183 0.000000 0.000000
# 5 0.000000 0.000000 0.000000 0.000000 0.034833 0.000000
# 6 0.000000 0.000000 0.000000 0.000000 0.000000 0.099120
#
#
# Mechanical properties :
#
#
# Convention : Reuss Voigt Hill
#
# Bulk Modulus (GPa) = 65.35701 66.97012 66.16356
# Shear Modulus (GPa) = 21.03647 29.07628 25.05637
#
# Velocity S-wave (km/s) = 3.32277 3.90646 3.62638
# Velocity P-wave (km/s) = 7.00165 7.44956 7.22908
#
# Compressibility (1/GPa) = 0.01530058
#
# Stress axis : x y z
#
# Youngs Moduli (GPa) = 97.25171 125.33034 104.03979
#
# Poissons Ratio (x) = 0.34026 0.18503
# Poissons Ratio (y) = 0.26403 0.18654
# Poissons Ratio (z) = 0.17295 0.22472
#
# Static dielectric constant tensor:
#      x y z
#    x 1.835980 0.000000 0.000000 
#    y 0.000000 1.825040 0.000000 
#    z 0.000000 0.000000 1.825390 
# 
# From -- ./inp_files/1000.got.cif
#   From: 2010.05.17/outbox.cif.g08.bks.cpg/sg50_1_cif.got.tgz:1000.got - 2010.06.03 11:33:33.
