data_PCOD9396719
_publ_section_title
;
Structure prediction by ZEFSAII (Michael W. Deem and Ramdas Pophale) SiO2 
 PCOD9396719
Probable space group: P B A N
;
_chemical_formula_sum "Si O2"
_cell_formula_units_Z 64
_cell_length_a 12.465480
_cell_length_b 29.998480
_cell_length_c 8.287640
_cell_angle_alpha 90.000000
_cell_angle_beta 90.000000
_cell_angle_gamma 90.000000
_cell_volume 3099.125290
_symmetry_space_group_name_H-M "P B A N"
_symmetry_group_IT_number 50
_space_group.IT_coordinate_system_code '2'
_symmetry_cell_setting 'orthorhombic'
loop_
_space_group_symop_operation_xyz
x,y,z
1/2-x,1/2-y,z
x,1/2-y,-z
1/2-x,y,-z
-x,-y,-z
1/2+x,1/2+y,-z
-x,1/2+y,z
1/2+x,-y,z
loop_
_atom_site_type_symbol
_atom_site_label
_atom_site_fract_x
_atom_site_fract_y
_atom_site_fract_z
Si Si1 0.251723 0.302082 0.696180
Si Si2 0.033818 0.581265 0.712354
Si Si3 0.873054 0.241780 0.190763
Si Si4 0.010175 0.177041 0.677507
Si Si5 0.020443 0.162724 0.290353
Si Si6 0.917595 0.509431 0.855200
Si Si7 0.209924 0.505943 0.684709
Si Si8 0.966751 0.936484 0.653493
O O1 0.250000 0.250000 0.738923
O O2 0.250000 0.305165 0.500000
O O3 0.367371 0.322072 0.741833
O O4 0.141300 0.323221 0.759077
O O5 0.050975 0.633191 0.741300
O O6 0.939623 0.561031 0.820495
O O7 0.991349 0.574200 0.531107
O O8 0.134151 0.547953 0.727815
O O9 0.750000 0.250000 0.246679
O O10 0.949864 0.277885 0.276079
O O11 0.926344 0.193441 0.219621
O O12 0.874706 0.250000 0.000000
O O13 0.014507 0.172062 0.483524
O O14 0.010393 0.109992 0.257805
O O15 0.793776 0.499176 0.830361
O O16 0.960663 0.477181 0.712507
O O17 0.000000 0.500000 0.000000
O O18 0.250000 0.513839 0.500000
O O19 0.149331 0.458349 0.674815
#
# Coordination Sequence:
#
# PCOD9396719 Si02
#       8
#     8   8   8   8   8   8   8   8
#     4   9  16  31  59  90 123 151 188 252 315 357
#     4  10  21  37  58  93 120 159 212 257 318 382
#     4  11  25  44  61  82 123 171 204 252 318 381
#     4  10  21  38  63  93 121 155 211 261 310 371
#     4  10  21  37  64  95 121 153 209 263 311 371
#     4  11  23  38  58  85 125 165 205 261 309 380
#     4  11  19  37  66  85 126 170 208 259 324 382
#     4  10  21  36  60  94 116 156 210 260 315 377
#
# _framework density 20.650988000000002
#
# number of rings (size 3 to 8) (size 9 to 14) (size 15 to 20)
#    0.000    1.750    3.750    1.125    1.750    5.500 
#    0.000    2.500    2.750    0.000    0.000    0.000 
#    0.000    0.000    0.000    0.000    0.000    0.000 
#
# Total GULP energy -356641.633950 kJ/mol
# GULP energy per Si atom -5572.525530 kJ/mol
# Density = 2.060398 g / cm^3
# Si number density = 20.650988 Si / 1000 Ang^3
#
#
#
# Elastic Constant Matrix: (Units=GPa)
#
#
# Indices 1 2 3 4 5 6 
#
# 1 114.4657 21.7566 13.4620 0.0000 0.0000 0.0000
# 2 21.7566 93.1140 -4.9210 0.0000 0.0000 0.0000
# 3 13.4620 -4.9210 29.7310 0.0000 0.0000 0.0000
# 4 0.0000 0.0000 0.0000 8.1769 0.0000 0.0000
# 5 0.0000 0.0000 0.0000 0.0000 19.3115 0.0000
# 6 0.0000 0.0000 0.0000 0.0000 0.0000 18.4334
#
#
#
# Elastic Compliance Matrix: (Units=1/GPa)
#
#
# Indices 1 2 3 4 5 6 
#
# 1 0.009791 -0.002544 -0.004854 0.000000 0.000000 0.000000
# 2 -0.002544 0.011495 0.003055 0.000000 0.000000 0.000000
# 3 -0.004854 0.003055 0.036339 0.000000 0.000000 0.000000
# 4 0.000000 0.000000 0.000000 0.122296 0.000000 0.000000
# 5 0.000000 0.000000 0.000000 0.000000 0.051783 0.000000
# 6 0.000000 0.000000 0.000000 0.000000 0.000000 0.054249
#
#
# Mechanical properties :
#
#
# Convention : Reuss Voigt Hill
#
# Bulk Modulus (GPa) = 20.43443 33.10067 26.76755
# Shear Modulus (GPa) = 16.07965 22.98524 19.53244
#
# Velocity S-wave (km/s) = 2.79344 3.33984 3.07878
# Velocity P-wave (km/s) = 4.50788 5.56202 5.06246
#
# Compressibility (1/GPa) = 0.04893702
#
# Stress axis : x y z
#
# Youngs Moduli (GPa) = 102.13757 86.99116 27.51902
#
# Poissons Ratio (x) = 0.22132 0.13359
# Poissons Ratio (y) = 0.25986 -0.08406
# Poissons Ratio (z) = 0.49580 -0.26573
#
# Static dielectric constant tensor:
#      x y z
#    x 1.746360 0.000000 0.000000 
#    y 0.000000 1.716660 0.000000 
#    z 0.000000 0.000000 1.773200 
# 
# From -- ./inp_files/11837.got.cif
#   From: 2010.05.17/outbox.cif.g08.bks.cpg/sg50_6_cif.got.tgz:11837.got - 2010.06.03 11:33:33.
