data_PCOD9396290
_publ_section_title
;
Structure prediction by ZEFSAII (Michael W. Deem and Ramdas Pophale) SiO2 
 PCOD9396290
Probable space group: P B A N
;
_chemical_formula_sum "Si O2"
_cell_formula_units_Z 58
_cell_length_a 12.637295
_cell_length_b 8.663624
_cell_length_c 26.811513
_cell_angle_alpha 90.000000
_cell_angle_beta 90.000000
_cell_angle_gamma 90.000000
_cell_volume 2935.452395
_symmetry_space_group_name_H-M "P B A N"
_symmetry_group_IT_number 50
_space_group.IT_coordinate_system_code '2'
_symmetry_cell_setting 'orthorhombic'
loop_
_space_group_symop_operation_xyz
x,y,z
1/2-x,1/2-y,z
x,1/2-y,-z
1/2-x,y,-z
-x,-y,-z
1/2+x,1/2+y,-z
-x,1/2+y,z
1/2+x,-y,z
loop_
_atom_site_type_symbol
_atom_site_label
_atom_site_fract_x
_atom_site_fract_y
_atom_site_fract_z
Si Si1 0.750000 0.750000 0.000000
Si Si2 0.443600 0.121894 0.463924
Si Si3 0.912742 0.890085 0.079274
Si Si4 0.635127 0.179900 0.585792
Si Si5 0.370753 0.754158 0.296643
Si Si6 0.869915 0.236077 0.060017
Si Si7 0.009553 0.506049 0.759518
Si Si8 0.129627 0.258010 0.815800
O O1 0.831494 0.846165 0.034516
O O2 0.388339 0.250000 0.500000
O O3 0.537306 0.218655 0.436374
O O4 0.500000 0.000000 0.500000
O O5 0.376949 0.002099 0.429395
O O6 0.876244 0.791911 0.126776
O O7 0.036538 0.853341 0.072541
O O8 0.906096 0.073051 0.081873
O O9 0.750000 0.250000 0.569664
O O10 0.627643 0.202375 0.645231
O O11 0.250000 0.750000 0.279701
O O12 0.422081 0.589991 0.283089
O O13 0.435492 0.880483 0.266152
O O14 0.750000 0.250000 0.078776
O O15 0.864995 0.250000 0.000000
O O16 0.081624 0.422732 0.800956
O O17 0.938671 0.632789 0.786315
O O18 0.250000 0.250000 0.798914
#
# Coordination Sequence:
#
# PCOD9396290 Si02
#       8
#     2   8   8   8   8   8   8   8
#     4  12  24  40  68  88 124 164 206 254 304 368
#     4   9  19  35  54  82 121 162 206 256 303 362
#     4  12  25  42  65  91 123 162 203 252 308 364
#     4  10  20  36  59  86 118 160 211 261 318 368
#     4  10  20  37  62  89 118 156 199 256 311 369
#     4  11  25  42  63  89 120 154 200 246 300 360
#     4  10  22  39  61  88 121 155 196 246 312 374
#     4  11  23  41  61  89 121 157 196 243 300 374
#
# _framework density 19.758454
#
# number of rings (size 3 to 8) (size 9 to 14) (size 15 to 20)
#    0.000    1.517    1.379    3.724    1.931    3.586 
#    0.000    8.276    0.000   11.586    0.000    0.000 
#    0.000    0.000    0.000    0.000    0.000    0.000 
#
# Total GULP energy -323519.533205 kJ/mol
# GULP energy per Si atom -5577.922986 kJ/mol
# Density = 1.971348 g / cm^3
# Si number density = 19.758454 Si / 1000 Ang^3
#
#
#
# Elastic Constant Matrix: (Units=GPa)
#
#
# Indices 1 2 3 4 5 6 
#
# 1 162.0589 68.8602 26.6243 0.0000 0.0000 0.0000
# 2 68.8602 124.8309 32.1437 0.0000 0.0000 0.0000
# 3 26.6243 32.1437 71.2873 0.0000 0.0000 0.0000
# 4 0.0000 0.0000 0.0000 49.4123 0.0000 0.0000
# 5 0.0000 0.0000 0.0000 0.0000 20.5361 0.0000
# 6 0.0000 0.0000 0.0000 0.0000 0.0000 69.3626
#
#
#
# Elastic Compliance Matrix: (Units=1/GPa)
#
#
# Indices 1 2 3 4 5 6 
#
# 1 0.008142 -0.004195 -0.001149 0.000000 0.000000 0.000000
# 2 -0.004195 0.011225 -0.003494 0.000000 0.000000 0.000000
# 3 -0.001149 -0.003494 0.016033 0.000000 0.000000 0.000000
# 4 0.000000 0.000000 0.000000 0.020238 0.000000 0.000000
# 5 0.000000 0.000000 0.000000 0.000000 0.048695 0.000000
# 6 0.000000 0.000000 0.000000 0.000000 0.000000 0.014417
#
#
# Mechanical properties :
#
#
# Convention : Reuss Voigt Hill
#
# Bulk Modulus (GPa) = 56.42869 68.15928 62.29398
# Shear Modulus (GPa) = 35.12849 43.23213 39.18031
#
# Velocity S-wave (km/s) = 4.22109 4.68271 4.45788
# Velocity P-wave (km/s) = 7.23727 7.98801 7.62188
#
# Compressibility (1/GPa) = 0.01772148
#
# Stress axis : x y z
#
# Youngs Moduli (GPa) = 122.81866 89.08685 62.37301
#
# Poissons Ratio (x) = 0.37376 0.07167
# Poissons Ratio (y) = 0.51529 0.21796
# Poissons Ratio (z) = 0.14113 0.31131
#
# Static dielectric constant tensor:
#      x y z
#    x 1.712250 0.000000 0.000000 
#    y 0.000000 1.267160 0.000000 
#    z 0.000000 0.000000 1.674730 
# 
# From -- ./inp_files/32471.got.cif
#   From: 2010.05.17/outbox.cif.g08.bks.cpg/sg50_17_cif.got.tgz:32471.got - 2010.06.03 11:33:33.
