data_PCOD9396596
_publ_section_title
;
Structure prediction by ZEFSAII (Michael W. Deem and Ramdas Pophale) SiO2 
 PCOD9396596
Probable space group: P B A N
;
_chemical_formula_sum "Si O2"
_cell_formula_units_Z 54
_cell_length_a 14.098698
_cell_length_b 11.971284
_cell_length_c 13.579631
_cell_angle_alpha 90.000000
_cell_angle_beta 90.000000
_cell_angle_gamma 90.000000
_cell_volume 2291.963572
_symmetry_space_group_name_H-M "P B A N"
_symmetry_group_IT_number 50
_space_group.IT_coordinate_system_code '2'
_symmetry_cell_setting 'orthorhombic'
loop_
_space_group_symop_operation_xyz
x,y,z
1/2-x,1/2-y,z
x,1/2-y,-z
1/2-x,y,-z
-x,-y,-z
1/2+x,1/2+y,-z
-x,1/2+y,z
1/2+x,-y,z
loop_
_atom_site_type_symbol
_atom_site_label
_atom_site_fract_x
_atom_site_fract_y
_atom_site_fract_z
Si Si1 0.359688 0.725293 0.257202
Si Si2 0.124969 0.160415 0.414272
Si Si3 0.750000 0.750000 0.000000
Si Si4 0.609361 0.132770 0.042297
Si Si5 0.584467 0.085210 0.621178
Si Si6 0.441709 0.144576 0.301294
Si Si7 0.250000 0.528843 0.500000
Si Si8 0.104126 0.083239 0.918480
O O1 0.250000 0.750000 0.280261
O O2 0.362378 0.651357 0.156703
O O3 0.401614 0.851583 0.273583
O O4 0.445071 0.664340 0.317157
O O5 0.144325 0.250000 0.500000
O O6 0.117253 0.241408 0.318109
O O7 0.017084 0.117648 0.420790
O O8 0.195896 0.055889 0.423608
O O9 0.815828 0.826522 0.065668
O O10 0.495106 0.122312 0.033349
O O11 0.641347 0.250000 0.000000
O O12 0.639070 0.028840 0.974105
O O13 0.672683 0.108133 0.550851
O O14 0.589835 0.952038 0.626519
O O15 0.422646 0.089223 0.195738
#
# Coordination Sequence:
#
# PCOD9396596 Si02
#       8
#     8   8   2   8   8   8   4   8
#     4  10  24  42  65 103 132 179 234 289 348 423
#     4  11  24  43  66  96 138 182 234 293 350 422
#     4  12  24  44  66 104 136 176 240 278 340 436
#     4  10  20  42  68  91 138 179 226 281 359 421
#     4  11  25  41  69  97 138 180 234 293 357 415
#     4  10  23  44  65  97 142 178 230 291 355 414
#     4  12  25  40  69  98 134 194 243 291 358 434
#     4  10  23  40  67 101 135 185 221 293 349 420
#
# _framework density 23.560583999999999
#
# number of rings (size 3 to 8) (size 9 to 14) (size 15 to 20)
#    0.000    1.481    2.222    1.556    2.074    5.037 
#    2.667    0.000    0.000    0.000    0.000    0.000 
#    0.000    0.000    0.000    0.000    0.000    0.000 
#
# Total GULP energy -300791.581363 kJ/mol
# GULP energy per Si atom -5570.214470 kJ/mol
# Density = 2.350696 g / cm^3
# Si number density = 23.560584 Si / 1000 Ang^3
#
#
#
# Elastic Constant Matrix: (Units=GPa)
#
#
# Indices 1 2 3 4 5 6 
#
# 1 150.8131 38.5655 27.4082 0.0000 0.0000 0.0000
# 2 38.5655 118.5575 35.6139 0.0000 0.0000 0.0000
# 3 27.4082 35.6139 54.0971 0.0000 0.0000 0.0000
# 4 0.0000 0.0000 0.0000 30.1652 0.0000 0.0000
# 5 0.0000 0.0000 0.0000 0.0000 7.1188 0.0000
# 6 0.0000 0.0000 0.0000 0.0000 0.0000 27.6228
#
#
#
# Elastic Compliance Matrix: (Units=1/GPa)
#
#
# Indices 1 2 3 4 5 6 
#
# 1 0.007547 -0.001628 -0.002752 0.000000 0.000000 0.000000
# 2 -0.001628 0.010865 -0.006328 0.000000 0.000000 0.000000
# 3 -0.002752 -0.006328 0.024045 0.000000 0.000000 0.000000
# 4 0.000000 0.000000 0.000000 0.033151 0.000000 0.000000
# 5 0.000000 0.000000 0.000000 0.000000 0.140473 0.000000
# 6 0.000000 0.000000 0.000000 0.000000 0.000000 0.036202
#
#
# Mechanical properties :
#
#
# Convention : Reuss Voigt Hill
#
# Bulk Modulus (GPa) = 47.52480 58.51586 53.02033
# Shear Modulus (GPa) = 17.81174 27.77339 22.79256
#
# Velocity S-wave (km/s) = 2.75252 3.43710 3.11368
# Velocity P-wave (km/s) = 5.50608 6.37509 5.95646
#
# Compressibility (1/GPa) = 0.02104164
#
# Stress axis : x y z
#
# Youngs Moduli (GPa) = 132.49895 92.03602 41.58809
#
# Poissons Ratio (x) = 0.14987 0.11444
# Poissons Ratio (y) = 0.21576 0.26317
# Poissons Ratio (z) = 0.36460 0.58240
#
# Static dielectric constant tensor:
#      x y z
#    x 1.917110 0.000000 0.000000 
#    y 0.000000 1.970010 0.000000 
#    z 0.000000 0.000000 2.112460 
# 
# From -- ./inp_files/26517.got.cif
#   From: 2010.05.17/outbox.cif.g08.bks.cpg/sg50_14_cif.got.tgz:26517.got - 2010.06.03 11:33:33.
