data_PCOD9396150
_publ_section_title
;
Structure prediction by ZEFSAII (Michael W. Deem and Ramdas Pophale) SiO2 
 PCOD9396150
Probable space group: P B A N
;
_chemical_formula_sum "Si O2"
_cell_formula_units_Z 64
_cell_length_a 8.214701
_cell_length_b 29.627856
_cell_length_c 11.763198
_cell_angle_alpha 90.000000
_cell_angle_beta 90.000000
_cell_angle_gamma 90.000000
_cell_volume 2862.973927
_symmetry_space_group_name_H-M "P B A N"
_symmetry_group_IT_number 50
_space_group.IT_coordinate_system_code '2'
_symmetry_cell_setting 'orthorhombic'
loop_
_space_group_symop_operation_xyz
x,y,z
1/2-x,1/2-y,z
x,1/2-y,-z
1/2-x,y,-z
-x,-y,-z
1/2+x,1/2+y,-z
-x,1/2+y,z
1/2+x,-y,z
loop_
_atom_site_type_symbol
_atom_site_label
_atom_site_fract_x
_atom_site_fract_y
_atom_site_fract_z
Si Si1 0.872748 0.608734 0.297297
Si Si2 0.867655 0.981853 0.589093
Si Si3 0.256505 0.700308 0.204612
Si Si4 0.585052 0.327159 0.431408
Si Si5 0.467594 0.156475 0.342865
Si Si6 0.604303 0.113519 0.890177
Si Si7 0.368611 0.566540 0.264936
Si Si8 0.064809 0.452466 0.049541
O O1 0.882757 0.555396 0.314253
O O2 0.710129 0.636819 0.319327
O O3 0.008860 0.627548 0.382705
O O4 0.933295 0.620093 0.172736
O O5 0.750000 0.957263 0.500000
O O6 0.811841 0.026779 0.652969
O O7 0.000000 0.000000 0.500000
O O8 0.250000 0.750000 0.155625
O O9 0.138442 0.700138 0.318395
O O10 0.435972 0.686406 0.250084
O O11 0.193028 0.661450 0.120821
O O12 0.750000 0.332779 0.500000
O O13 0.468347 0.315961 0.538126
O O14 0.574143 0.109940 0.336996
O O15 0.718127 0.080805 0.814333
O O16 0.551012 0.087951 0.002993
O O17 0.521218 0.550138 0.184744
O O18 0.250000 0.447793 0.000000
O O19 0.000000 0.500000 0.000000
#
# Coordination Sequence:
#
# PCOD9396150 Si02
#       8
#     8   8   8   8   8   8   8   8
#     4  11  20  34  53  82 121 166 218 270 324 386
#     4  12  24  34  52  81 122 172 221 262 311 383
#     4   9  20  39  64  91 118 158 210 267 334 410
#     4   9  18  32  52  78 115 160 205 254 316 387
#     4  10  20  34  55  82 117 159 203 264 329 392
#     4  10  22  40  64  89 123 166 215 272 340 405
#     4  11  23  40  59  87 125 167 217 268 324 393
#     4  12  25  42  66  96 130 173 225 282 341 406
#
# _framework density 22.354378000000001
#
# number of rings (size 3 to 8) (size 9 to 14) (size 15 to 20)
#    0.000    1.500    0.000    6.750    0.000    7.250 
#    0.000    2.500    0.000   12.000    0.000    3.500 
#    0.000    0.000    0.000    0.000    0.000    0.000 
#
# Total GULP energy -356734.676069 kJ/mol
# GULP energy per Si atom -5573.979314 kJ/mol
# Density = 2.230350 g / cm^3
# Si number density = 22.354378 Si / 1000 Ang^3
#
#
#
# Elastic Constant Matrix: (Units=GPa)
#
#
# Indices 1 2 3 4 5 6 
#
# 1 78.1666 16.0059 19.1359 0.0000 0.0000 0.0000
# 2 16.0059 117.0890 16.9001 0.0000 0.0000 0.0000
# 3 19.1359 16.9001 74.0098 0.0000 0.0000 0.0000
# 4 0.0000 0.0000 0.0000 3.7649 0.0000 0.0000
# 5 0.0000 0.0000 0.0000 0.0000 26.3947 0.0000
# 6 0.0000 0.0000 0.0000 0.0000 0.0000 14.4648
#
#
#
# Elastic Compliance Matrix: (Units=1/GPa)
#
#
# Indices 1 2 3 4 5 6 
#
# 1 0.013884 -0.001427 -0.003264 0.000000 0.000000 0.000000
# 2 -0.001427 0.008978 -0.001681 0.000000 0.000000 0.000000
# 3 -0.003264 -0.001681 0.014740 0.000000 0.000000 0.000000
# 4 0.000000 0.000000 0.000000 0.265612 0.000000 0.000000
# 5 0.000000 0.000000 0.000000 0.000000 0.037886 0.000000
# 6 0.000000 0.000000 0.000000 0.000000 0.000000 0.069133
#
#
# Mechanical properties :
#
#
# Convention : Reuss Voigt Hill
#
# Bulk Modulus (GPa) = 40.22881 41.48326 40.85603
# Shear Modulus (GPa) = 11.59383 23.40646 17.50014
#
# Velocity S-wave (km/s) = 2.27983 3.23935 2.80098
# Velocity P-wave (km/s) = 4.99652 5.70864 5.36441
#
# Compressibility (1/GPa) = 0.02485781
#
# Stress axis : x y z
#
# Youngs Moduli (GPa) = 72.02306 111.38067 67.84444
#
# Poissons Ratio (x) = 0.15892 0.22145
# Poissons Ratio (y) = 0.10277 0.11406
# Poissons Ratio (z) = 0.23509 0.18726
#
# Static dielectric constant tensor:
#      x y z
#    x 2.025920 0.000000 0.000000 
#    y 0.000000 1.787410 0.000000 
#    z 0.000000 0.000000 1.921800 
# 
# From -- ./inp_files/19519.got.cif
#   From: 2010.05.17/outbox.cif.g08.bks.cpg/sg50_10_cif.got.tgz:19519.got - 2010.06.03 11:33:33.
