data_PCOD9396875
_publ_section_title
;
Structure prediction by ZEFSAII (Michael W. Deem and Ramdas Pophale) SiO2 
 PCOD9396875
Probable space group: P B A N
;
_chemical_formula_sum "Si O2"
_cell_formula_units_Z 58
_cell_length_a 17.941447
_cell_length_b 18.485265
_cell_length_c 8.913430
_cell_angle_alpha 90.000000
_cell_angle_beta 90.000000
_cell_angle_gamma 90.000000
_cell_volume 2956.160472
_symmetry_space_group_name_H-M "P B A N"
_symmetry_group_IT_number 50
_space_group.IT_coordinate_system_code '2'
_symmetry_cell_setting 'orthorhombic'
loop_
_space_group_symop_operation_xyz
x,y,z
1/2-x,1/2-y,z
x,1/2-y,-z
1/2-x,y,-z
-x,-y,-z
1/2+x,1/2+y,-z
-x,1/2+y,z
1/2+x,-y,z
loop_
_atom_site_type_symbol
_atom_site_label
_atom_site_fract_x
_atom_site_fract_y
_atom_site_fract_z
Si Si1 0.651221 0.622746 0.370990
Si Si2 0.518857 0.841636 0.843337
Si Si3 0.250000 0.250000 0.500000
Si Si4 0.599199 0.460687 0.820731
Si Si5 0.028219 0.820118 0.822878
Si Si6 0.469683 0.065822 0.606770
Si Si7 0.257340 0.976646 0.334132
Si Si8 0.827649 0.384561 0.914584
O O1 0.595485 0.633123 0.231423
O O2 0.697209 0.695544 0.405895
O O3 0.599182 0.599981 0.513235
O O4 0.707764 0.556738 0.340071
O O5 0.451901 0.891801 0.782825
O O6 0.501439 0.760001 0.794850
O O7 0.515941 0.845104 0.025009
O O8 0.552013 0.527908 0.764261
O O9 0.675580 0.472264 0.733517
O O10 0.626543 0.443924 0.988017
O O11 0.114169 0.821444 0.878652
O O12 0.019785 0.869240 0.673785
O O13 0.500000 0.000000 0.500000
O O14 0.250000 0.948382 0.500000
O O15 0.307708 0.924699 0.236817
O O16 0.750000 0.365973 0.000000
#
# Coordination Sequence:
#
# PCOD9396875 Si02
#       8
#     8   8   2   8   8   8   8   8
#     4  12  23  40  63  91 128 171 213 264 325 393
#     4  10  23  42  64  92 127 163 215 270 325 388
#     4  12  24  40  60  90 132 180 212 250 336 412
#     4  10  21  39  60  91 124 163 215 267 319 385
#     4  10  23  41  63  94 128 167 215 270 325 394
#     4  12  22  37  63  99 123 167 216 276 324 377
#     4  11  21  38  60  91 125 161 213 268 321 383
#     4   9  21  38  62  89 122 167 206 266 330 387
#
# _framework density 19.620045000000001
#
# number of rings (size 3 to 8) (size 9 to 14) (size 15 to 20)
#    0.000    1.379    3.448    1.655    1.931    1.103 
#    0.000   11.724    0.000    1.655    0.000    0.000 
#    0.000    0.000    0.000    0.000    0.000    0.000 
#
# Total GULP energy -323267.618991 kJ/mol
# GULP energy per Si atom -5573.579638 kJ/mol
# Density = 1.957539 g / cm^3
# Si number density = 19.620045 Si / 1000 Ang^3
#
#
#
# Elastic Constant Matrix: (Units=GPa)
#
#
# Indices 1 2 3 4 5 6 
#
# 1 98.3373 47.9062 46.0839 0.0000 0.0000 0.0000
# 2 47.9062 60.3030 37.3417 0.0000 0.0000 0.0000
# 3 46.0839 37.3417 72.2389 0.0000 0.0000 0.0000
# 4 0.0000 0.0000 0.0000 28.8347 0.0000 0.0000
# 5 0.0000 0.0000 0.0000 0.0000 24.9870 0.0000
# 6 0.0000 0.0000 0.0000 0.0000 0.0000 39.1121
#
#
#
# Elastic Compliance Matrix: (Units=1/GPa)
#
#
# Indices 1 2 3 4 5 6 
#
# 1 0.018251 -0.010721 -0.006101 0.000000 0.000000 0.000000
# 2 -0.010721 0.030688 -0.009024 0.000000 0.000000 0.000000
# 3 -0.006101 -0.009024 0.022400 0.000000 0.000000 0.000000
# 4 0.000000 0.000000 0.000000 0.034680 0.000000 0.000000
# 5 0.000000 0.000000 0.000000 0.000000 0.040021 0.000000
# 6 0.000000 0.000000 0.000000 0.000000 0.000000 0.025568
#
#
# Mechanical properties :
#
#
# Convention : Reuss Voigt Hill
#
# Bulk Modulus (GPa) = 50.89928 54.83808 52.86868
# Shear Modulus (GPa) = 21.75346 25.22325 23.48835
#
# Velocity S-wave (km/s) = 3.33338 3.58940 3.46376
# Velocity P-wave (km/s) = 6.38859 6.72228 6.55756
#
# Compressibility (1/GPa) = 0.01964664
#
# Stress axis : x y z
#
# Youngs Moduli (GPa) = 54.79088 32.58619 44.64348
#
# Poissons Ratio (x) = 0.34936 0.27238
# Poissons Ratio (y) = 0.58742 0.40285
# Poissons Ratio (z) = 0.33429 0.29405
#
# Static dielectric constant tensor:
#      x y z
#    x 1.726120 0.000000 0.000000 
#    y 0.000000 1.700910 0.000000 
#    z 0.000000 0.000000 1.694340 
# 
# From -- ./inp_files/14502.got.cif
#   From: 2010.05.17/outbox.cif.g08.bks.cpg/sg50_8_cif.got.tgz:14502.got - 2010.06.03 11:33:33.
