data_PCOD9396672
_publ_section_title
;
Structure prediction by ZEFSAII (Michael W. Deem and Ramdas Pophale) SiO2 
 PCOD9396672
Probable space group: P B A N
;
_chemical_formula_sum "Si O2"
_cell_formula_units_Z 64
_cell_length_a 29.913127
_cell_length_b 8.261215
_cell_length_c 12.231887
_cell_angle_alpha 90.000000
_cell_angle_beta 90.000000
_cell_angle_gamma 90.000000
_cell_volume 3022.728913
_symmetry_space_group_name_H-M "P B A N"
_symmetry_group_IT_number 50
_space_group.IT_coordinate_system_code '2'
_symmetry_cell_setting 'orthorhombic'
loop_
_space_group_symop_operation_xyz
x,y,z
1/2-x,1/2-y,z
x,1/2-y,-z
1/2-x,y,-z
-x,-y,-z
1/2+x,1/2+y,-z
-x,1/2+y,z
1/2+x,-y,z
loop_
_atom_site_type_symbol
_atom_site_label
_atom_site_fract_x
_atom_site_fract_y
_atom_site_fract_z
Si Si1 0.035302 0.603626 0.569332
Si Si2 0.156792 0.650883 0.110688
Si Si3 0.241887 0.440696 0.129558
Si Si4 0.985263 0.939859 0.883215
Si Si5 0.605575 0.567017 0.961890
Si Si6 0.891379 0.833028 0.618614
Si Si7 0.535744 0.847719 0.747736
Si Si8 0.331709 0.526291 0.220056
O O1 0.055584 0.750000 0.500000
O O2 0.072138 0.476847 0.607773
O O3 0.000000 0.500000 0.500000
O O4 0.003214 0.681310 0.659903
O O5 0.193344 0.519440 0.147782
O O6 0.114541 0.550418 0.064467
O O7 0.150512 0.789765 0.201912
O O8 0.171981 0.750000 0.000000
O O9 0.250000 0.250000 0.150991
O O10 0.278665 0.530655 0.203567
O O11 0.250000 0.465191 0.000000
O O12 0.933712 0.002404 0.883780
O O13 0.975501 0.755288 0.855259
O O14 0.022715 0.979119 0.793587
O O15 0.649498 0.567015 0.887125
O O16 0.597974 0.750000 0.000000
O O17 0.500000 0.500000 0.000000
O O18 0.883237 0.750000 0.500000
O O19 0.917119 0.701542 0.696011
O O20 0.849989 0.921251 0.678582
#
# Coordination Sequence:
#
# PCOD9396672 Si02
#       8
#     8   8   8   8   8   8   8   8
#     4  12  20  38  67  95 113 164 233 301 348 389
#     4  10  21  35  62  97 139 185 219 265 328 413
#     4  11  20  36  64 104 141 178 215 253 321 417
#     4  12  26  38  55  85 131 183 224 265 337 412
#     4  11  21  38  58  89 136 184 226 269 329 412
#     4  12  25  44  67  94 126 173 239 310 355 400
#     4  12  21  40  60  84 122 170 233 279 344 400
#     4  11  23  38  64  97 137 173 221 282 347 398
#
# _framework density 21.172920999999999
#
# number of rings (size 3 to 8) (size 9 to 14) (size 15 to 20)
#    0.000    0.625    7.500    2.250    0.000    4.000 
#    0.000    3.750    0.000    0.375    0.000    0.000 
#    0.000    0.000    0.000    0.000    0.000    0.000 
#
# Total GULP energy -356668.770650 kJ/mol
# GULP energy per Si atom -5572.949541 kJ/mol
# Density = 2.112473 g / cm^3
# Si number density = 21.172921 Si / 1000 Ang^3
#
#
#
# Elastic Constant Matrix: (Units=GPa)
#
#
# Indices 1 2 3 4 5 6 
#
# 1 67.4601 23.3299 19.5027 0.0000 0.0000 0.0000
# 2 23.3299 103.4214 38.2452 0.0000 0.0000 0.0000
# 3 19.5027 38.2452 84.9680 0.0000 0.0000 0.0000
# 4 0.0000 0.0000 0.0000 41.2477 0.0000 0.0000
# 5 0.0000 0.0000 0.0000 0.0000 18.8436 0.0000
# 6 0.0000 0.0000 0.0000 0.0000 0.0000 19.2296
#
#
#
# Elastic Compliance Matrix: (Units=1/GPa)
#
#
# Indices 1 2 3 4 5 6 
#
# 1 0.016521 -0.002789 -0.002537 0.000000 0.000000 0.000000
# 2 -0.002789 0.012071 -0.004793 0.000000 0.000000 0.000000
# 3 -0.002537 -0.004793 0.014509 0.000000 0.000000 0.000000
# 4 0.000000 0.000000 0.000000 0.024244 0.000000 0.000000
# 5 0.000000 0.000000 0.000000 0.000000 0.053068 0.000000
# 6 0.000000 0.000000 0.000000 0.000000 0.000000 0.052003
#
#
# Mechanical properties :
#
#
# Convention : Reuss Voigt Hill
#
# Bulk Modulus (GPa) = 43.73780 46.44502 45.09141
# Shear Modulus (GPa) = 24.96567 27.51564 26.24066
#
# Velocity S-wave (km/s) = 3.43757 3.60886 3.52426
# Velocity P-wave (km/s) = 6.03806 6.27287 6.15658
#
# Compressibility (1/GPa) = 0.02286352
#
# Stress axis : x y z
#
# Youngs Moduli (GPa) = 60.52740 82.84482 68.92335
#
# Poissons Ratio (x) = 0.23104 0.17485
# Poissons Ratio (y) = 0.16880 0.33036
# Poissons Ratio (z) = 0.15355 0.39708
#
# Static dielectric constant tensor:
#      x y z
#    x 1.884530 0.000000 0.000000 
#    y 0.000000 2.053320 0.000000 
#    z 0.000000 0.000000 1.973540 
# 
# From -- ./inp_files/27488.got.cif
#   From: 2010.05.17/outbox.cif.g08.bks.cpg/sg50_14_cif.got.tgz:27488.got - 2010.06.03 11:33:33.
