data_PCOD9396854
_publ_section_title
;
Structure prediction by ZEFSAII (Michael W. Deem and Ramdas Pophale) SiO2 
 PCOD9396854
Probable space group: P B A N
;
_chemical_formula_sum "Si O2"
_cell_formula_units_Z 40
_cell_length_a 9.098551
_cell_length_b 14.993050
_cell_length_c 13.345640
_cell_angle_alpha 90.000000
_cell_angle_beta 90.000000
_cell_angle_gamma 90.000000
_cell_volume 1820.545882
_symmetry_space_group_name_H-M "P B A N"
_symmetry_group_IT_number 50
_space_group.IT_coordinate_system_code '2'
_symmetry_cell_setting 'orthorhombic'
loop_
_space_group_symop_operation_xyz
x,y,z
1/2-x,1/2-y,z
x,1/2-y,-z
1/2-x,y,-z
-x,-y,-z
1/2+x,1/2+y,-z
-x,1/2+y,z
1/2+x,-y,z
loop_
_atom_site_type_symbol
_atom_site_label
_atom_site_fract_x
_atom_site_fract_y
_atom_site_fract_z
Si Si1 0.363740 0.122149 0.708375
Si Si2 0.575126 0.111723 0.105601
Si Si3 0.962141 0.694449 0.707138
Si Si4 0.616616 0.451969 0.571031
Si Si5 0.910423 0.427216 0.881396
O O1 0.200016 0.155863 0.728770
O O2 0.442481 0.208286 0.658180
O O3 0.472220 0.106467 0.801160
O O4 0.343560 0.031822 0.646919
O O5 0.537142 0.189866 0.183111
O O6 0.736805 0.078084 0.140108
O O7 0.457261 0.031015 0.111163
O O8 0.576828 0.126376 0.986342
O O9 0.048062 0.628270 0.634053
O O10 0.750000 0.423824 0.500000
O O11 0.500000 0.500000 0.500000
#
# Coordination Sequence:
#
# PCOD9396854 Si02
#       5
#     8   8   8   8   8
#     4  11  25  45  70 101 139 175 225 282 342 410
#     4  10  21  38  65  99 138 182 227 271 339 405
#     4  11  25  45  70 103 136 178 224 280 344 407
#     4  12  26  48  73  96 131 178 227 283 346 402
#     4  10  21  38  65  99 138 183 225 275 333 410
#
# _framework density 21.971432
#
# number of rings (size 3 to 8) (size 9 to 14) (size 15 to 20)
#    0.000    1.200    4.000    1.200    2.800    4.800 
#    0.000    5.000    0.000    0.000    0.000    0.000 
#    0.000    0.000    0.000    0.000    0.000    0.000 
#
# Total GULP energy -223271.457517 kJ/mol
# GULP energy per Si atom -5581.786438 kJ/mol
# Density = 2.192142 g / cm^3
# Si number density = 21.971432 Si / 1000 Ang^3
#
#
#
# Elastic Constant Matrix: (Units=GPa)
#
#
# Indices 1 2 3 4 5 6 
#
# 1 107.1105 8.1302 28.3370 0.0000 0.0000 0.0000
# 2 8.1302 80.2717 21.3694 0.0000 0.0000 0.0000
# 3 28.3370 21.3694 80.9086 0.0000 0.0000 0.0000
# 4 0.0000 0.0000 0.0000 8.9887 0.0000 0.0000
# 5 0.0000 0.0000 0.0000 0.0000 41.2949 0.0000
# 6 0.0000 0.0000 0.0000 0.0000 0.0000 29.1452
#
#
#
# Elastic Compliance Matrix: (Units=1/GPa)
#
#
# Indices 1 2 3 4 5 6 
#
# 1 0.010290 -0.000089 -0.003580 0.000000 0.000000 0.000000
# 2 -0.000089 0.013401 -0.003508 0.000000 0.000000 0.000000
# 3 -0.003580 -0.003508 0.014540 0.000000 0.000000 0.000000
# 4 0.000000 0.000000 0.000000 0.111250 0.000000 0.000000
# 5 0.000000 0.000000 0.000000 0.000000 0.024216 0.000000
# 6 0.000000 0.000000 0.000000 0.000000 0.000000 0.034311
#
#
# Mechanical properties :
#
#
# Convention : Reuss Voigt Hill
#
# Bulk Modulus (GPa) = 41.88368 42.66267 42.27317
# Shear Modulus (GPa) = 21.70871 29.91605 25.81238
#
# Velocity S-wave (km/s) = 3.14672 3.69397 3.43128
# Velocity P-wave (km/s) = 5.68390 6.13624 5.91439
#
# Compressibility (1/GPa) = 0.02387565
#
# Stress axis : x y z
#
# Youngs Moduli (GPa) = 97.18029 74.62339 68.77493
#
# Poissons Ratio (x) = 0.00665 0.24625
# Poissons Ratio (y) = 0.00866 0.24127
# Poissons Ratio (z) = 0.34795 0.26179
#
# Static dielectric constant tensor:
#      x y z
#    x 1.802030 0.000000 0.000000 
#    y 0.000000 1.846920 0.000000 
#    z 0.000000 0.000000 1.787110 
# 
# From -- ./inp_files/24659.got.cif
#   From: 2010.05.17/outbox.cif.g08.bks.cpg/sg50_13_cif.got.tgz:24659.got - 2010.06.03 11:33:33.
