data_PCOD9396796
_publ_section_title
;
Structure prediction by ZEFSAII (Michael W. Deem and Ramdas Pophale) SiO2 
 PCOD9396796
Probable space group: P B A N
;
_chemical_formula_sum "Si O2"
_cell_formula_units_Z 64
_cell_length_a 18.039720
_cell_length_b 13.661344
_cell_length_c 12.149413
_cell_angle_alpha 90.000000
_cell_angle_beta 90.000000
_cell_angle_gamma 90.000000
_cell_volume 2994.184206
_symmetry_space_group_name_H-M "P B A N"
_symmetry_group_IT_number 50
_space_group.IT_coordinate_system_code '2'
_symmetry_cell_setting 'orthorhombic'
loop_
_space_group_symop_operation_xyz
x,y,z
1/2-x,1/2-y,z
x,1/2-y,-z
1/2-x,y,-z
-x,-y,-z
1/2+x,1/2+y,-z
-x,1/2+y,z
1/2+x,-y,z
loop_
_atom_site_type_symbol
_atom_site_label
_atom_site_fract_x
_atom_site_fract_y
_atom_site_fract_z
Si Si1 0.862464 0.006543 0.233398
Si Si2 0.241896 0.866806 0.624582
Si Si3 0.827944 0.790852 0.297298
Si Si4 0.494358 0.265694 0.626221
Si Si5 0.833253 0.047199 0.984925
Si Si6 0.984027 0.574470 0.236804
Si Si7 0.121765 0.335727 0.911135
Si Si8 0.110779 0.903660 0.245043
O O1 0.829482 0.085975 0.317627
O O2 0.950408 0.996893 0.245046
O O3 0.822173 0.902741 0.252410
O O4 0.860375 0.047431 0.109623
O O5 0.250000 0.750000 0.618993
O O6 0.250000 0.904802 0.500000
O O7 0.309162 0.893352 0.703555
O O8 0.750000 0.750000 0.346731
O O9 0.906007 0.792382 0.365352
O O10 0.844530 0.717123 0.195960
O O11 0.516499 0.250000 0.500000
O O12 0.501175 0.161424 0.683300
O O13 0.551559 0.333769 0.694627
O O14 0.879484 0.101387 0.888302
O O15 0.833778 0.931908 0.949470
O O16 0.750000 0.085328 0.000000
O O17 0.959807 0.622467 0.120904
O O18 0.912454 0.514379 0.270979
O O19 0.118115 0.250000 0.000000
#
# Coordination Sequence:
#
# PCOD9396796 Si02
#       8
#     8   8   8   8   8   8   8   8
#     4  12  23  44  71 104 137 182 232 284 357 412
#     4  11  27  47  70  97 132 182 239 294 341 414
#     4  11  24  42  66 105 143 175 234 283 351 429
#     4  11  26  46  71  96 136 187 234 296 351 413
#     4  11  22  40  67 102 145 181 222 289 348 421
#     4  10  25  42  66 100 134 177 230 284 343 411
#     4  10  21  37  65  99 139 186 224 271 343 421
#     4  11  24  46  69 102 138 177 235 285 347 419
#
# _framework density 21.374770000000002
#
# number of rings (size 3 to 8) (size 9 to 14) (size 15 to 20)
#    0.000    1.125    3.750    1.500    7.000    5.750 
#    0.000    2.500    0.000    0.000    0.000    0.000 
#    0.000    0.000    0.000    0.000    0.000    0.000 
#
# Total GULP energy -356762.451883 kJ/mol
# GULP energy per Si atom -5574.413311 kJ/mol
# Density = 2.132612 g / cm^3
# Si number density = 21.374770 Si / 1000 Ang^3
#
#
#
# Elastic Constant Matrix: (Units=GPa)
#
#
# Indices 1 2 3 4 5 6 
#
# 1 82.9369 11.3619 11.6491 0.0000 0.0000 0.0000
# 2 11.3619 39.8391 24.8733 0.0000 0.0000 0.0000
# 3 11.6491 24.8733 111.8456 0.0000 0.0000 0.0000
# 4 0.0000 0.0000 0.0000 25.8445 0.0000 0.0000
# 5 0.0000 0.0000 0.0000 0.0000 43.1847 0.0000
# 6 0.0000 0.0000 0.0000 0.0000 0.0000 18.3338
#
#
#
# Elastic Compliance Matrix: (Units=1/GPa)
#
#
# Indices 1 2 3 4 5 6 
#
# 1 0.012582 -0.003217 -0.000595 0.000000 0.000000 0.000000
# 2 -0.003217 0.029970 -0.006330 0.000000 0.000000 0.000000
# 3 -0.000595 -0.006330 0.010411 0.000000 0.000000 0.000000
# 4 0.000000 0.000000 0.000000 0.038693 0.000000 0.000000
# 5 0.000000 0.000000 0.000000 0.000000 0.023156 0.000000
# 6 0.000000 0.000000 0.000000 0.000000 0.000000 0.054544
#
#
# Mechanical properties :
#
#
# Convention : Reuss Voigt Hill
#
# Bulk Modulus (GPa) = 30.60066 36.71003 33.65535
# Shear Modulus (GPa) = 24.93358 29.92175 27.42767
#
# Velocity S-wave (km/s) = 3.41911 3.74553 3.58604
# Velocity P-wave (km/s) = 5.47123 5.99309 5.73810
#
# Compressibility (1/GPa) = 0.03267903
#
# Stress axis : x y z
#
# Youngs Moduli (GPa) = 79.48107 33.36615 96.05567
#
# Poissons Ratio (x) = 0.10733 0.05716
# Poissons Ratio (y) = 0.25567 0.60804
# Poissons Ratio (z) = 0.04730 0.21121
#
# Static dielectric constant tensor:
#      x y z
#    x 1.889140 0.000000 0.000000 
#    y 0.000000 1.736600 0.000000 
#    z 0.000000 0.000000 1.712040 
# 
# From -- ./inp_files/21931.got.cif
#   From: 2010.05.17/outbox.cif.g08.bks.cpg/sg50_11_cif.got.tgz:21931.got - 2010.06.03 11:33:33.
