data_PCOD9396971
_publ_section_title
;
Structure prediction by ZEFSAII (Michael W. Deem and Ramdas Pophale) SiO2 
 PCOD9396971
Probable space group: P B A N
;
_chemical_formula_sum "Si O2"
_cell_formula_units_Z 48
_cell_length_a 14.476015
_cell_length_b 18.824908
_cell_length_c 8.892039
_cell_angle_alpha 90.000000
_cell_angle_beta 90.000000
_cell_angle_gamma 90.000000
_cell_volume 2423.166441
_symmetry_space_group_name_H-M "P B A N"
_symmetry_group_IT_number 50
_space_group.IT_coordinate_system_code '2'
_symmetry_cell_setting 'orthorhombic'
loop_
_space_group_symop_operation_xyz
x,y,z
1/2-x,1/2-y,z
x,1/2-y,-z
1/2-x,y,-z
-x,-y,-z
1/2+x,1/2+y,-z
-x,1/2+y,z
1/2+x,-y,z
loop_
_atom_site_type_symbol
_atom_site_label
_atom_site_fract_x
_atom_site_fract_y
_atom_site_fract_z
Si Si1 0.750000 0.250000 0.210887
Si Si2 0.548070 0.233651 0.674938
Si Si3 0.937375 0.634057 0.692325
Si Si4 0.068686 0.530871 0.873423
Si Si5 0.250000 0.613305 0.000000
Si Si6 0.746362 0.835049 0.174385
Si Si7 0.067740 0.393990 0.665363
O O1 0.651285 0.242555 0.288942
O O2 0.734276 0.326560 0.129029
O O3 0.537814 0.250000 0.500000
O O4 0.469346 0.285944 0.735356
O O5 0.521587 0.152978 0.714618
O O6 0.833607 0.628035 0.748525
O O7 0.937180 0.610646 0.516451
O O8 0.011611 0.590086 0.785113
O O9 0.078223 0.469466 0.746704
O O10 0.162781 0.564135 0.946948
O O11 0.000000 0.500000 0.000000
O O12 0.750000 0.750000 0.176057
O O13 0.656748 0.854228 0.269959
O O14 0.750000 0.858153 0.000000
#
# Coordination Sequence:
#
# PCOD9396971 Si02
#       7
#     4   8   8   8   4   8   8
#     4  11  21  44  66  96 125 171 234 278 339 392
#     4  10  21  40  68  97 128 169 221 282 334 398
#     4  11  23  44  68  96 133 176 220 279 338 407
#     4  12  26  45  65  96 138 179 226 275 342 405
#     4  11  26  42  66  94 133 176 224 288 333 412
#     4  11  23  40  66 101 131 167 217 274 336 404
#     4  11  24  42  69  99 135 174 224 277 346 406
#
# _framework density 19.808793000000001
#
# number of rings (size 3 to 8) (size 9 to 14) (size 15 to 20)
#    0.000    1.000    3.333    3.250    3.500    0.667 
#    0.000    0.000    0.000    0.000    0.000    0.000 
#    0.000    0.000    0.000    0.000    0.000    0.000 
#
# Total GULP energy -267203.239081 kJ/mol
# GULP energy per Si atom -5566.734148 kJ/mol
# Density = 1.976371 g / cm^3
# Si number density = 19.808793 Si / 1000 Ang^3
#
#
#
# Elastic Constant Matrix: (Units=GPa)
#
#
# Indices 1 2 3 4 5 6 
#
# 1 138.9607 47.9991 46.3193 0.0000 0.0000 0.0000
# 2 47.9991 103.4187 50.8964 0.0000 0.0000 0.0000
# 3 46.3193 50.8964 74.2855 0.0000 0.0000 0.0000
# 4 0.0000 0.0000 0.0000 34.0723 0.0000 0.0000
# 5 0.0000 0.0000 0.0000 0.0000 33.7281 0.0000
# 6 0.0000 0.0000 0.0000 0.0000 0.0000 29.5008
#
#
#
# Elastic Compliance Matrix: (Units=1/GPa)
#
#
# Indices 1 2 3 4 5 6 
#
# 1 0.009414 -0.002234 -0.004340 0.000000 0.000000 0.000000
# 2 -0.002234 0.015118 -0.008966 0.000000 0.000000 0.000000
# 3 -0.004340 -0.008966 0.022310 0.000000 0.000000 0.000000
# 4 0.000000 0.000000 0.000000 0.029349 0.000000 0.000000
# 5 0.000000 0.000000 0.000000 0.000000 0.029649 0.000000
# 6 0.000000 0.000000 0.000000 0.000000 0.000000 0.033897
#
#
# Mechanical properties :
#
#
# Convention : Reuss Voigt Hill
#
# Bulk Modulus (GPa) = 63.43134 67.45496 65.44315
# Shear Modulus (GPa) = 28.39753 30.89026 29.64390
#
# Velocity S-wave (km/s) = 3.79037 3.95324 3.87266
# Velocity P-wave (km/s) = 7.15872 7.41380 7.28737
#
# Compressibility (1/GPa) = 0.01576508
#
# Stress axis : x y z
#
# Youngs Moduli (GPa) = 106.22044 66.14445 44.82239
#
# Poissons Ratio (x) = 0.14774 0.19452
# Poissons Ratio (y) = 0.23726 0.40186
# Poissons Ratio (z) = 0.46097 0.59302
#
# Static dielectric constant tensor:
#      x y z
#    x 1.662660 0.000000 0.000000 
#    y 0.000000 1.841370 0.000000 
#    z 0.000000 0.000000 1.715970 
# 
# From -- ./inp_files/13002.got.cif
#   From: 2010.05.17/outbox.cif.g08.bks.cpg/sg50_7_cif.got.tgz:13002.got - 2010.06.03 11:33:33.
