data_PCOD9396228
_publ_section_title
;
Structure prediction by ZEFSAII (Michael W. Deem and Ramdas Pophale) SiO2 
 PCOD9396228
Probable space group: P B A N
;
_chemical_formula_sum "Si O2"
_cell_formula_units_Z 40
_cell_length_a 13.426283
_cell_length_b 11.528349
_cell_length_c 12.145208
_cell_angle_alpha 90.000000
_cell_angle_beta 90.000000
_cell_angle_gamma 90.000000
_cell_volume 1879.870226
_symmetry_space_group_name_H-M "P B A N"
_symmetry_group_IT_number 50
_space_group.IT_coordinate_system_code '2'
_symmetry_cell_setting 'orthorhombic'
loop_
_space_group_symop_operation_xyz
x,y,z
1/2-x,1/2-y,z
x,1/2-y,-z
1/2-x,y,-z
-x,-y,-z
1/2+x,1/2+y,-z
-x,1/2+y,z
1/2+x,-y,z
loop_
_atom_site_type_symbol
_atom_site_label
_atom_site_fract_x
_atom_site_fract_y
_atom_site_fract_z
Si Si1 0.862641 0.585771 0.496233
Si Si2 0.646748 0.501475 0.739248
Si Si3 0.004116 0.300454 0.313437
Si Si4 0.821963 0.361624 0.632990
Si Si5 0.136223 0.211361 0.118040
O O1 0.750000 0.630515 0.500000
O O2 0.881323 0.581816 0.366365
O O3 0.853474 0.450771 0.535981
O O4 0.937023 0.652333 0.578085
O O5 0.566045 0.402066 0.731859
O O6 0.755649 0.444191 0.713908
O O7 0.638176 0.575807 0.849503
O O8 0.925396 0.196099 0.331041
O O9 0.080449 0.273692 0.217039
O O10 0.750000 0.250000 0.611652
O O11 0.250000 0.250000 0.120275
O O12 0.094151 0.250000 0.000000
#
# Coordination Sequence:
#
# PCOD9396228 Si02
#       5
#     8   8   8   8   8
#     4  10  20  35  58  93 132 167 207 251 304 380
#     4  10  22  39  61  94 128 163 212 261 313 384
#     4  11  22  39  65  93 128 168 209 259 318 376
#     4   9  20  37  61  94 135 175 206 253 319 384
#     4  11  25  43  61  83 115 162 215 266 321 374
#
# _framework density 21.278065000000002
#
# number of rings (size 3 to 8) (size 9 to 14) (size 15 to 20)
#    0.000    1.800    0.000    4.200    0.000   12.400 
#    0.000    6.000    0.000    4.200    0.000    0.000 
#    0.000    0.000    0.000    0.000    0.000    0.000 
#
# Total GULP energy -223382.650055 kJ/mol
# GULP energy per Si atom -5584.566251 kJ/mol
# Density = 2.122964 g / cm^3
# Si number density = 21.278065 Si / 1000 Ang^3
#
#
#
# Elastic Constant Matrix: (Units=GPa)
#
#
# Indices 1 2 3 4 5 6 
#
# 1 121.8299 39.5912 45.1699 0.0000 0.0000 0.0000
# 2 39.5912 113.2899 72.6481 0.0000 0.0000 0.0000
# 3 45.1699 72.6481 122.1707 0.0000 0.0000 0.0000
# 4 0.0000 0.0000 0.0000 17.9347 0.0000 0.0000
# 5 0.0000 0.0000 0.0000 0.0000 20.5448 0.0000
# 6 0.0000 0.0000 0.0000 0.0000 0.0000 29.2841
#
#
#
# Elastic Compliance Matrix: (Units=1/GPa)
#
#
# Indices 1 2 3 4 5 6 
#
# 1 0.009726 -0.001767 -0.002545 0.000000 0.000000 0.000000
# 2 -0.001767 0.014588 -0.008022 0.000000 0.000000 0.000000
# 3 -0.002545 -0.008022 0.013896 0.000000 0.000000 0.000000
# 4 0.000000 0.000000 0.000000 0.055758 0.000000 0.000000
# 5 0.000000 0.000000 0.000000 0.000000 0.048674 0.000000
# 6 0.000000 0.000000 0.000000 0.000000 0.000000 0.034148
#
#
# Mechanical properties :
#
#
# Convention : Reuss Voigt Hill
#
# Bulk Modulus (GPa) = 73.83772 74.67875 74.25823
# Shear Modulus (GPa) = 24.27507 26.87815 25.57661
#
# Velocity S-wave (km/s) = 3.38131 3.55799 3.47077
# Velocity P-wave (km/s) = 7.07255 7.21469 7.14398
#
# Compressibility (1/GPa) = 0.01354321
#
# Stress axis : x y z
#
# Youngs Moduli (GPa) = 102.81681 68.54838 71.96100
#
# Poissons Ratio (x) = 0.12110 0.18317
# Poissons Ratio (y) = 0.18164 0.57724
# Poissons Ratio (z) = 0.26172 0.54987
#
# Static dielectric constant tensor:
#      x y z
#    x 1.792900 0.000000 0.000000 
#    y 0.000000 1.862330 0.000000 
#    z 0.000000 0.000000 1.778280 
# 
# From -- ./inp_files/20908.got.cif
#   From: 2010.05.17/outbox.cif.g08.bks.cpg/sg50_11_cif.got.tgz:20908.got - 2010.06.03 11:33:33.
