data_PCOD9396579
_publ_section_title
;
Structure prediction by ZEFSAII (Michael W. Deem and Ramdas Pophale) SiO2 
 PCOD9396579
Probable space group: P B A N
;
_chemical_formula_sum "Si O2"
_cell_formula_units_Z 64
_cell_length_a 15.464356
_cell_length_b 15.139829
_cell_length_c 11.919758
_cell_angle_alpha 90.000000
_cell_angle_beta 90.000000
_cell_angle_gamma 90.000000
_cell_volume 2790.745590
_symmetry_space_group_name_H-M "P B A N"
_symmetry_group_IT_number 50
_space_group.IT_coordinate_system_code '2'
_symmetry_cell_setting 'orthorhombic'
loop_
_space_group_symop_operation_xyz
x,y,z
1/2-x,1/2-y,z
x,1/2-y,-z
1/2-x,y,-z
-x,-y,-z
1/2+x,1/2+y,-z
-x,1/2+y,z
1/2+x,-y,z
loop_
_atom_site_type_symbol
_atom_site_label
_atom_site_fract_x
_atom_site_fract_y
_atom_site_fract_z
Si Si1 0.077428 0.248544 0.132630
Si Si2 0.954340 0.089098 0.862724
Si Si3 0.865944 0.059792 0.337527
Si Si4 0.941045 0.343445 0.485238
Si Si5 0.550786 0.091520 0.876723
Si Si6 0.372840 0.360972 0.574650
Si Si7 0.675858 0.059476 0.319415
Si Si8 0.192683 0.150516 0.318891
O O1 0.146785 0.202504 0.216286
O O2 0.036692 0.345635 0.157179
O O3 0.995137 0.184220 0.143303
O O4 0.105446 0.250000 0.000000
O O5 0.872096 0.105892 0.784476
O O6 0.928588 0.092626 0.992501
O O7 0.985697 0.988525 0.846834
O O8 0.943940 0.116610 0.390177
O O9 0.870952 0.069384 0.204290
O O10 0.769100 0.091673 0.361537
O O11 0.877522 0.962637 0.387628
O O12 0.894998 0.250000 0.500000
O O13 0.889932 0.418213 0.418836
O O14 0.029887 0.325680 0.419798
O O15 0.349619 0.345081 0.443835
O O16 0.293450 0.328442 0.651166
O O17 0.687588 0.955322 0.294274
#
# Coordination Sequence:
#
# PCOD9396579 Si02
#       8
#     8   8   8   8   8   8   8   8
#     4  10  21  39  69 104 141 189 238 296 366 428
#     4  10  22  39  67 104 135 185 243 292 353 431
#     4  11  23  42  67  97 139 185 237 290 355 427
#     4  12  26  41  66 102 139 183 237 289 359 439
#     4  10  21  41  67  97 139 189 235 292 353 428
#     4  10  22  40  68  98 132 188 234 289 364 430
#     4  11  23  40  67  98 138 186 237 292 351 423
#     4  10  20  41  68  99 142 179 237 301 352 428
#
# _framework density 22.932939999999999
#
# number of rings (size 3 to 8) (size 9 to 14) (size 15 to 20)
#    0.000    1.500    2.500    2.250    3.500    1.500 
#    0.000    1.250    2.750    2.250    9.750    0.000 
#    0.000    0.000    0.000    0.000    0.000    0.000 
#
# Total GULP energy -357179.252781 kJ/mol
# GULP energy per Si atom -5580.925825 kJ/mol
# Density = 2.288074 g / cm^3
# Si number density = 22.932940 Si / 1000 Ang^3
#
#
#
# Elastic Constant Matrix: (Units=GPa)
#
#
# Indices 1 2 3 4 5 6 
#
# 1 89.3979 20.2192 46.5051 0.0000 0.0000 0.0000
# 2 20.2192 87.5002 29.5404 0.0000 0.0000 0.0000
# 3 46.5051 29.5404 98.5223 0.0000 0.0000 0.0000
# 4 0.0000 0.0000 0.0000 34.2849 0.0000 0.0000
# 5 0.0000 0.0000 0.0000 0.0000 25.5984 0.0000
# 6 0.0000 0.0000 0.0000 0.0000 0.0000 26.0914
#
#
#
# Elastic Compliance Matrix: (Units=1/GPa)
#
#
# Indices 1 2 3 4 5 6 
#
# 1 0.014938 -0.001192 -0.006694 0.000000 0.000000 0.000000
# 2 -0.001192 0.012811 -0.003278 0.000000 0.000000 0.000000
# 3 -0.006694 -0.003278 0.014293 0.000000 0.000000 0.000000
# 4 0.000000 0.000000 0.000000 0.029167 0.000000 0.000000
# 5 0.000000 0.000000 0.000000 0.000000 0.039065 0.000000
# 6 0.000000 0.000000 0.000000 0.000000 0.000000 0.038327
#
#
# Mechanical properties :
#
#
# Convention : Reuss Voigt Hill
#
# Bulk Modulus (GPa) = 50.72815 51.99443 51.36129
# Shear Modulus (GPa) = 28.16921 29.13866 28.65393
#
# Velocity S-wave (km/s) = 3.50856 3.56842 3.53861
# Velocity P-wave (km/s) = 6.21140 6.30077 6.25625
#
# Compressibility (1/GPa) = 0.01971292
#
# Stress axis : x y z
#
# Youngs Moduli (GPa) = 66.94551 78.05908 69.96673
#
# Poissons Ratio (x) = 0.09304 0.46832
# Poissons Ratio (y) = 0.07980 0.22939
# Poissons Ratio (z) = 0.44810 0.25592
#
# Static dielectric constant tensor:
#      x y z
#    x 1.879900 0.000000 0.000000 
#    y 0.000000 1.917710 0.000000 
#    z 0.000000 0.000000 1.898120 
# 
# From -- ./inp_files/21955.got.cif
#   From: 2010.05.17/outbox.cif.g08.bks.cpg/sg50_11_cif.got.tgz:21955.got - 2010.06.03 11:33:33.
