data_PCOD9396500
_publ_section_title
;
Structure prediction by ZEFSAII (Michael W. Deem and Ramdas Pophale) SiO2 
 PCOD9396500
Probable space group: P B A N
;
_chemical_formula_sum "Si O2"
_cell_formula_units_Z 48
_cell_length_a 9.392986
_cell_length_b 19.670749
_cell_length_c 13.197224
_cell_angle_alpha 90.000000
_cell_angle_beta 90.000000
_cell_angle_gamma 90.000000
_cell_volume 2438.412410
_symmetry_space_group_name_H-M "P B A N"
_symmetry_group_IT_number 50
_space_group.IT_coordinate_system_code '2'
_symmetry_cell_setting 'orthorhombic'
loop_
_space_group_symop_operation_xyz
x,y,z
1/2-x,1/2-y,z
x,1/2-y,-z
1/2-x,y,-z
-x,-y,-z
1/2+x,1/2+y,-z
-x,1/2+y,z
1/2+x,-y,z
loop_
_atom_site_type_symbol
_atom_site_label
_atom_site_fract_x
_atom_site_fract_y
_atom_site_fract_z
Si Si1 0.084267 0.401348 0.888808
Si Si2 0.579011 0.744497 0.807098
Si Si3 0.593964 0.219211 0.608948
Si Si4 0.553964 0.481164 0.724573
Si Si5 0.425735 0.113395 0.109644
Si Si6 0.168778 0.940739 0.605992
O O1 0.035020 0.326852 0.855595
O O2 0.052923 0.456088 0.803186
O O3 0.255638 0.395866 0.892462
O O4 0.024487 0.415472 0.001189
O O5 0.750000 0.750000 0.797606
O O6 0.509930 0.744812 0.696474
O O7 0.537624 0.807465 0.877898
O O8 0.750000 0.250000 0.629177
O O9 0.550101 0.250000 0.500000
O O10 0.610957 0.137083 0.608043
O O11 0.483234 0.421951 0.789997
O O12 0.458687 0.507031 0.630610
O O13 0.709378 0.456936 0.689481
O O14 0.250000 0.950598 0.500000
#
# Coordination Sequence:
#
# PCOD9396500 Si02
#       6
#     8   8   8   8   8   8
#     4  10  20  39  62  93 128 168 211 261 314 380
#     4  10  21  39  64  94 124 164 214 264 310 375
#     4  11  22  41  66  87 126 170 212 259 328 383
#     4  12  23  42  65  94 130 166 216 266 321 391
#     4  10  21  37  64  93 127 169 211 258 320 374
#     4  12  25  44  66  93 126 171 214 269 326 384
#
# _framework density 19.684939
#
# number of rings (size 3 to 8) (size 9 to 14) (size 15 to 20)
#    0.000    1.167    5.000    2.500    0.000    2.333 
#    0.000    0.000    0.000    1.000    0.000    0.000 
#    0.000    0.000    0.000    0.000    0.000    0.000 
#
# Total GULP energy -267925.607857 kJ/mol
# GULP energy per Si atom -5581.783497 kJ/mol
# Density = 1.964014 g / cm^3
# Si number density = 19.684939 Si / 1000 Ang^3
#
#
#
# Elastic Constant Matrix: (Units=GPa)
#
#
# Indices 1 2 3 4 5 6 
#
# 1 20.6335 2.1613 11.6751 0.0000 0.0000 0.0000
# 2 2.1613 75.6247 23.3667 0.0000 0.0000 0.0000
# 3 11.6751 23.3667 94.7205 0.0000 0.0000 0.0000
# 4 0.0000 0.0000 0.0000 11.9841 0.0000 0.0000
# 5 0.0000 0.0000 0.0000 0.0000 -72.1126 0.0000
# 6 0.0000 0.0000 0.0000 0.0000 0.0000 18.4930
#
#
#
# Elastic Compliance Matrix: (Units=1/GPa)
#
#
# Indices 1 2 3 4 5 6 
#
# 1 0.052118 0.000536 -0.006556 0.000000 0.000000 0.000000
# 2 0.000536 0.014320 -0.003599 0.000000 0.000000 0.000000
# 3 -0.006556 -0.003599 0.012253 0.000000 0.000000 0.000000
# 4 0.000000 0.000000 0.000000 0.083444 0.000000 0.000000
# 5 0.000000 0.000000 0.000000 0.000000 -0.013867 0.000000
# 6 0.000000 0.000000 0.000000 0.000000 0.000000 0.054074
#
#
# Mechanical properties :
#
#
# Convention : Reuss Voigt Hill
#
# Bulk Modulus (GPa) = 16.81971 29.48722 23.15347
# Shear Modulus (GPa) = 20.71271 1.92463 11.31867
#
# Velocity S-wave (km/s) = 3.24730 0.98987 2.40050
# Velocity P-wave (km/s) = 4.75636 4.03962 4.41257
#
# Compressibility (1/GPa) = 0.05945406
#
# Stress axis : x y z
#
# Youngs Moduli (GPa) = 19.18707 69.83338 81.61098
#
# Poissons Ratio (x) = -0.03745 0.53507
# Poissons Ratio (y) = -0.01029 0.29369
# Poissons Ratio (z) = 0.12580 0.25131
#
# Static dielectric constant tensor:
#      x y z
#    x 1.659710 0.000000 0.000000 
#    y 0.000000 1.700730 0.000000 
#    z 0.000000 0.000000 1.712370 
# 
# From -- ./inp_files/21771.got.cif
#   From: 2010.05.17/outbox.cif.g08.bks.cpg/sg50_11_cif.got.tgz:21771.got - 2010.06.03 11:33:33.
