data_PCOD9396172
_publ_section_title
;
Structure prediction by ZEFSAII (Michael W. Deem and Ramdas Pophale) SiO2 
 PCOD9396172
Probable space group: P B A N
;
_chemical_formula_sum "Si O2"
_cell_formula_units_Z 40
_cell_length_a 18.181667
_cell_length_b 9.675883
_cell_length_c 12.035011
_cell_angle_alpha 90.000000
_cell_angle_beta 90.000000
_cell_angle_gamma 90.000000
_cell_volume 2117.243456
_symmetry_space_group_name_H-M "P B A N"
_symmetry_group_IT_number 50
_space_group.IT_coordinate_system_code '2'
_symmetry_cell_setting 'orthorhombic'
loop_
_space_group_symop_operation_xyz
x,y,z
1/2-x,1/2-y,z
x,1/2-y,-z
1/2-x,y,-z
-x,-y,-z
1/2+x,1/2+y,-z
-x,1/2+y,z
1/2+x,-y,z
loop_
_atom_site_type_symbol
_atom_site_label
_atom_site_fract_x
_atom_site_fract_y
_atom_site_fract_z
Si Si1 0.540365 0.125593 0.063048
Si Si2 0.530920 0.382266 0.578336
Si Si3 0.418509 0.312222 0.775013
Si Si4 0.638319 0.506807 0.745566
Si Si5 0.227961 0.413119 0.126569
O O1 0.476391 0.210074 0.126558
O O2 0.593902 0.055184 0.150710
O O3 0.581099 0.250000 0.000000
O O4 0.500000 0.000000 0.000000
O O5 0.540067 0.250000 0.500000
O O6 0.500000 0.500000 0.500000
O O7 0.468618 0.365521 0.673967
O O8 0.606460 0.427228 0.639211
O O9 0.383593 0.168143 0.736443
O O10 0.356029 0.410545 0.829701
O O11 0.722799 0.506843 0.783178
O O12 0.250000 0.250000 0.127875
O O13 0.250000 0.457837 0.000000
#
# Coordination Sequence:
#
# PCOD9396172 Si02
#       5
#     8   8   8   8   8
#     4  11  20  31  54  86 123 155 199 244 295 356
#     4  11  22  39  62  85 116 155 207 267 308 342
#     4  10  20  34  58  89 115 158 202 251 297 362
#     4  10  20  35  57  89 117 155 206 245 303 362
#     4   9  18  33  57  88 128 155 188 242 301 366
#
# _framework density 18.892488
#
# number of rings (size 3 to 8) (size 9 to 14) (size 15 to 20)
#    0.000    1.800    4.000    1.200    2.800    0.000 
#    0.000    1.000    0.000   12.600    0.000    0.000 
#    0.000    0.000    0.000    0.000    0.000    0.000 
#
# Total GULP energy -222771.382582 kJ/mol
# GULP energy per Si atom -5569.284565 kJ/mol
# Density = 1.884949 g / cm^3
# Si number density = 18.892488 Si / 1000 Ang^3
#
#
#
# Elastic Constant Matrix: (Units=GPa)
#
#
# Indices 1 2 3 4 5 6 
#
# 1 88.7985 4.8739 28.4593 0.0000 0.0000 0.0000
# 2 4.8739 69.8452 37.5403 0.0000 0.0000 0.0000
# 3 28.4593 37.5403 104.4272 0.0000 0.0000 0.0000
# 4 0.0000 0.0000 0.0000 20.8639 0.0000 0.0000
# 5 0.0000 0.0000 0.0000 0.0000 20.2604 0.0000
# 6 0.0000 0.0000 0.0000 0.0000 0.0000 13.2153
#
#
#
# Elastic Compliance Matrix: (Units=1/GPa)
#
#
# Indices 1 2 3 4 5 6 
#
# 1 0.012417 0.001180 -0.003808 0.000000 0.000000 0.000000
# 2 0.001180 0.017858 -0.006742 0.000000 0.000000 0.000000
# 3 -0.003808 -0.006742 0.013037 0.000000 0.000000 0.000000
# 4 0.000000 0.000000 0.000000 0.047930 0.000000 0.000000
# 5 0.000000 0.000000 0.000000 0.000000 0.049357 0.000000
# 6 0.000000 0.000000 0.000000 0.000000 0.000000 0.075670
#
#
# Mechanical properties :
#
#
# Convention : Reuss Voigt Hill
#
# Bulk Modulus (GPa) = 40.69333 44.97976 42.83654
# Shear Modulus (GPa) = 20.55917 23.68109 22.12013
#
# Velocity S-wave (km/s) = 3.30240 3.54427 3.42547
# Velocity P-wave (km/s) = 6.01060 6.37253 6.19421
#
# Compressibility (1/GPa) = 0.02457405
#
# Stress axis : x y z
#
# Youngs Moduli (GPa) = 80.53327 55.99583 76.70198
#
# Poissons Ratio (x) = -0.06610 0.29211
# Poissons Ratio (y) = -0.09507 0.51709
# Poissons Ratio (z) = 0.30670 0.37750
#
# Static dielectric constant tensor:
#      x y z
#    x 1.672840 0.000000 0.000000 
#    y 0.000000 1.661480 0.000000 
#    z 0.000000 0.000000 1.694950 
# 
# From -- ./inp_files/18744.got.cif
#   From: 2010.05.17/outbox.cif.g08.bks.cpg/sg50_10_cif.got.tgz:18744.got - 2010.06.03 11:33:33.
