data_PCOD9396889
_publ_section_title
;
Structure prediction by ZEFSAII (Michael W. Deem and Ramdas Pophale) SiO2 
 PCOD9396889
Probable space group: P B A N
;
_chemical_formula_sum "Si O2"
_cell_formula_units_Z 32
_cell_length_a 10.246082
_cell_length_b 25.767897
_cell_length_c 5.166481
_cell_angle_alpha 90.000000
_cell_angle_beta 90.000000
_cell_angle_gamma 90.000000
_cell_volume 1364.054239
_symmetry_space_group_name_H-M "P B A N"
_symmetry_group_IT_number 50
_space_group.IT_coordinate_system_code '2'
_symmetry_cell_setting 'orthorhombic'
loop_
_space_group_symop_operation_xyz
x,y,z
1/2-x,1/2-y,z
x,1/2-y,-z
1/2-x,y,-z
-x,-y,-z
1/2+x,1/2+y,-z
-x,1/2+y,z
1/2+x,-y,z
loop_
_atom_site_type_symbol
_atom_site_label
_atom_site_fract_x
_atom_site_fract_y
_atom_site_fract_z
Si Si1 0.971418 0.614012 0.180142
Si Si2 0.370979 0.486563 0.332431
Si Si3 0.895157 0.726523 0.244665
Si Si4 0.864927 0.395997 0.313479
O O1 0.020039 0.607061 0.475244
O O2 0.907240 0.557674 0.124120
O O3 0.885170 0.665292 0.203478
O O4 0.081663 0.624546 0.961129
O O5 0.250000 0.465718 0.500000
O O6 0.500000 0.500000 0.500000
O O7 0.328078 0.544204 0.248050
O O8 0.750000 0.750000 0.248178
O O9 0.959865 0.750000 0.500000
O O10 0.967737 0.750000 0.000000
O O11 0.750000 0.374016 0.500000
#
# Coordination Sequence:
#
# PCOD9396889 Si02
#       4
#     8   8   8   8
#     4  11  21  38  64  90 126 177 219 269 352 400
#     4   9  20  37  60  95 135 175 226 277 335 417
#     4  10  22  39  59  87 128 160 216 275 337 392
#     4  10  21  39  62  93 130 167 220 276 334 415
#
# _framework density 23.459477
#
# number of rings (size 3 to 8) (size 9 to 14) (size 15 to 20)
#    0.000    2.000    0.000    3.000    3.500    0.000 
#    4.500    7.500    0.000   11.250    0.000    0.000 
#    0.000    0.000    0.000    0.000    0.000    0.000 
#
# Total GULP energy -178189.507446 kJ/mol
# GULP energy per Si atom -5568.422108 kJ/mol
# Density = 2.340608 g / cm^3
# Si number density = 23.459477 Si / 1000 Ang^3
#
#
#
# Elastic Constant Matrix: (Units=GPa)
#
#
# Indices 1 2 3 4 5 6 
#
# 1 78.0907 26.5309 22.8236 0.0000 0.0000 0.0000
# 2 26.5309 123.1052 36.1200 0.0000 0.0000 0.0000
# 3 22.8236 36.1200 166.0894 0.0000 0.0000 0.0000
# 4 0.0000 0.0000 0.0000 24.5453 0.0000 0.0000
# 5 0.0000 0.0000 0.0000 0.0000 22.1559 0.0000
# 6 0.0000 0.0000 0.0000 0.0000 0.0000 30.6659
#
#
#
# Elastic Compliance Matrix: (Units=1/GPa)
#
#
# Indices 1 2 3 4 5 6 
#
# 1 0.014101 -0.002639 -0.001364 0.000000 0.000000 0.000000
# 2 -0.002639 0.009171 -0.001632 0.000000 0.000000 0.000000
# 3 -0.001364 -0.001632 0.006563 0.000000 0.000000 0.000000
# 4 0.000000 0.000000 0.000000 0.040741 0.000000 0.000000
# 5 0.000000 0.000000 0.000000 0.000000 0.045135 0.000000
# 6 0.000000 0.000000 0.000000 0.000000 0.000000 0.032610
#
#
# Mechanical properties :
#
#
# Convention : Reuss Voigt Hill
#
# Bulk Modulus (GPa) = 53.86248 59.80381 56.83314
# Shear Modulus (GPa) = 30.16101 34.26080 32.21090
#
# Velocity S-wave (km/s) = 3.58951 3.82570 3.70948
# Velocity P-wave (km/s) = 6.33948 6.71285 6.52883
#
# Compressibility (1/GPa) = 0.01856580
#
# Stress axis : x y z
#
# Youngs Moduli (GPa) = 70.91830 109.04422 152.36634
#
# Poissons Ratio (x) = 0.28774 0.20780
# Poissons Ratio (y) = 0.18714 0.24862
# Poissons Ratio (z) = 0.09672 0.17793
#
# Static dielectric constant tensor:
#      x y z
#    x 1.957000 0.000000 0.000000 
#    y 0.000000 1.954960 0.000000 
#    z 0.000000 0.000000 1.984920 
# 
# From -- ./inp_files/1986.got.cif
#   From: 2010.05.17/outbox.cif.g08.bks.cpg/sg50_1_cif.got.tgz:1986.got - 2010.06.03 11:33:33.
