data_PCOD9396340
_publ_section_title
;
Structure prediction by ZEFSAII (Michael W. Deem and Ramdas Pophale) SiO2 
 PCOD9396340
Probable space group: P B A N
;
_chemical_formula_sum "Si O2"
_cell_formula_units_Z 36
_cell_length_a 22.516120
_cell_length_b 15.485106
_cell_length_c 5.023900
_cell_angle_alpha 90.000000
_cell_angle_beta 90.000000
_cell_angle_gamma 90.000000
_cell_volume 1751.655606
_symmetry_space_group_name_H-M "P B A N"
_symmetry_group_IT_number 50
_space_group.IT_coordinate_system_code '2'
_symmetry_cell_setting 'orthorhombic'
loop_
_space_group_symop_operation_xyz
x,y,z
1/2-x,1/2-y,z
x,1/2-y,-z
1/2-x,y,-z
-x,-y,-z
1/2+x,1/2+y,-z
-x,1/2+y,z
1/2+x,-y,z
loop_
_atom_site_type_symbol
_atom_site_label
_atom_site_fract_x
_atom_site_fract_y
_atom_site_fract_z
Si Si1 0.713092 0.904785 0.261759
Si Si2 0.968647 0.680073 0.173078
Si Si3 0.100144 0.006654 0.005109
Si Si4 0.137722 0.250000 0.500000
Si Si5 0.051171 0.928760 0.496248
O O1 0.750000 0.950340 0.500000
O O2 0.662641 0.961771 0.120277
O O3 0.680873 0.829918 0.437078
O O4 0.750000 0.872193 0.000000
O O5 0.943027 0.591637 0.037234
O O6 0.910749 0.733955 0.269647
O O7 0.014292 0.652072 0.401237
O O8 0.002128 0.750000 0.000000
O O9 0.077052 0.932346 0.203061
O O10 0.097726 0.967608 0.710881
O O11 0.000000 0.000000 0.500000
#
# Coordination Sequence:
#
# PCOD9396340 Si02
#       5
#     8   8   8   4   8
#     4  11  24  40  57  78 110 157 202 241 277 325
#     4  10  22  32  56  79 116 149 188 224 285 349
#     4  10  22  38  56  75 112 149 199 235 278 328
#     4  10  25  34  52  78 124 150 191 222 286 334
#     4  10  20  37  55  78 106 154 188 232 282 344
#
# _framework density 20.551985999999999
#
# number of rings (size 3 to 8) (size 9 to 14) (size 15 to 20)
#    0.000    1.778    0.000    4.333   18.667    0.889 
#    0.000    0.000    0.000    0.000    0.000    0.000 
#    0.000   13.333    0.000    0.000    0.000    0.000 
#
# Total GULP energy -200465.554730 kJ/mol
# GULP energy per Si atom -5568.487631 kJ/mol
# Density = 2.050521 g / cm^3
# Si number density = 20.551986 Si / 1000 Ang^3
#
#
#
# Elastic Constant Matrix: (Units=GPa)
#
#
# Indices 1 2 3 4 5 6 
#
# 1 73.4569 28.6966 14.5025 0.0000 0.0000 0.0000
# 2 28.6966 65.1830 33.6069 0.0000 0.0000 0.0000
# 3 14.5025 33.6069 88.4624 0.0000 0.0000 0.0000
# 4 0.0000 0.0000 0.0000 39.9357 0.0000 0.0000
# 5 0.0000 0.0000 0.0000 0.0000 81.5488 0.0000
# 6 0.0000 0.0000 0.0000 0.0000 0.0000 30.3128
#
#
#
# Elastic Compliance Matrix: (Units=1/GPa)
#
#
# Indices 1 2 3 4 5 6 
#
# 1 0.016441 -0.007273 0.000068 0.000000 0.000000 0.000000
# 2 -0.007273 0.022296 -0.007278 0.000000 0.000000 0.000000
# 3 0.000068 -0.007278 0.014058 0.000000 0.000000 0.000000
# 4 0.000000 0.000000 0.000000 0.025040 0.000000 0.000000
# 5 0.000000 0.000000 0.000000 0.000000 0.012263 0.000000
# 6 0.000000 0.000000 0.000000 0.000000 0.000000 0.032989
#
#
# Mechanical properties :
#
#
# Convention : Reuss Voigt Hill
#
# Bulk Modulus (GPa) = 41.96651 42.30158 42.13404
# Shear Modulus (GPa) = 31.25068 40.37922 35.81495
#
# Velocity S-wave (km/s) = 3.90368 4.43734 4.17904
# Velocity P-wave (km/s) = 6.38610 6.84695 6.62054
#
# Compressibility (1/GPa) = 0.02382852
#
# Stress axis : x y z
#
# Youngs Moduli (GPa) = 60.82213 44.85175 71.13404
#
# Poissons Ratio (x) = 0.32621 -0.00481
# Poissons Ratio (y) = 0.44237 0.51770
# Poissons Ratio (z) = -0.00412 0.32642
#
# Static dielectric constant tensor:
#      x y z
#    x 1.845680 0.000000 0.000000 
#    y 0.000000 1.669570 0.000000 
#    z 0.000000 0.000000 1.852180 
# 
# From -- ./inp_files/5873.got.cif
#   From: 2010.05.17/outbox.cif.g08.bks.cpg/sg50_3_cif.got.tgz:5873.got - 2010.06.03 11:33:33.
