data_PCOD9396112
_publ_section_title
;
Structure prediction by ZEFSAII (Michael W. Deem and Ramdas Pophale) SiO2 
 PCOD9396112
Probable space group: P B A N
;
_chemical_formula_sum "Si O2"
_cell_formula_units_Z 56
_cell_length_a 9.457650
_cell_length_b 22.837347
_cell_length_c 14.151183
_cell_angle_alpha 90.000000
_cell_angle_beta 90.000000
_cell_angle_gamma 90.000000
_cell_volume 3056.480547
_symmetry_space_group_name_H-M "P B A N"
_symmetry_group_IT_number 50
_space_group.IT_coordinate_system_code '2'
_symmetry_cell_setting 'orthorhombic'
loop_
_space_group_symop_operation_xyz
x,y,z
1/2-x,1/2-y,z
x,1/2-y,-z
1/2-x,y,-z
-x,-y,-z
1/2+x,1/2+y,-z
-x,1/2+y,z
1/2+x,-y,z
loop_
_atom_site_type_symbol
_atom_site_label
_atom_site_fract_x
_atom_site_fract_y
_atom_site_fract_z
Si Si1 0.976102 0.127188 0.129441
Si Si2 0.672006 0.935227 0.588388
Si Si3 0.333531 0.560793 0.411704
Si Si4 0.587816 0.254409 0.885725
Si Si5 0.462626 0.379238 0.908059
Si Si6 0.732379 0.571688 0.791180
Si Si7 0.205610 0.934251 0.197900
O O1 0.990382 0.196243 0.149705
O O2 0.815806 0.106523 0.143625
O O3 0.068676 0.088271 0.200245
O O4 0.014865 0.117772 0.019833
O O5 0.750000 0.904435 0.500000
O O6 0.503377 0.942976 0.572612
O O7 0.700072 0.909010 0.691732
O O8 0.758164 0.996915 0.594691
O O9 0.250000 0.589613 0.500000
O O10 0.309508 0.585758 0.306847
O O11 0.750000 0.250000 0.852391
O O12 0.514438 0.316412 0.868733
O O13 0.591970 0.250000 0.000000
O O14 0.305481 0.393025 0.875611
O O15 0.557812 0.427550 0.855585
O O16 0.750649 0.502160 0.803995
#
# Coordination Sequence:
#
# PCOD9396112 Si02
#       7
#     8   8   8   8   8   8   8
#     4  11  23  35  58  80 109 154 190 228 273 322
#     4  10  20  34  54  77 110 146 184 229 273 326
#     4  10  20  33  54  79 108 146 185 230 272 325
#     4   9  18  36  58  77  99 140 200 244 267 304
#     4  11  21  39  55  79 114 148 189 234 270 319
#     4  11  24  35  51  85 120 146 181 222 280 344
#     4  11  22  35  55  82 117 150 184 219 275 343
#
# _framework density 18.321726000000002
#
# number of rings (size 3 to 8) (size 9 to 14) (size 15 to 20)
#    0.000    1.571    2.857    3.429    8.000    4.000 
#    0.000    2.143    0.000    0.000    0.000    6.000 
#    0.000    0.000    0.000    0.000    0.000    0.000 
#
# Total GULP energy -312110.271520 kJ/mol
# GULP energy per Si atom -5573.397706 kJ/mol
# Density = 1.828003 g / cm^3
# Si number density = 18.321726 Si / 1000 Ang^3
#
#
#
# Elastic Constant Matrix: (Units=GPa)
#
#
# Indices 1 2 3 4 5 6 
#
# 1 69.3094 3.1743 21.0544 0.0000 0.0000 0.0000
# 2 3.1743 60.9505 15.0543 0.0000 0.0000 0.0000
# 3 21.0544 15.0543 92.6524 0.0000 0.0000 0.0000
# 4 0.0000 0.0000 0.0000 -4.5331 0.0000 0.0000
# 5 0.0000 0.0000 0.0000 0.0000 30.2443 0.0000
# 6 0.0000 0.0000 0.0000 0.0000 0.0000 5.4065
#
#
#
# Elastic Compliance Matrix: (Units=1/GPa)
#
#
# Indices 1 2 3 4 5 6 
#
# 1 0.015498 0.000065 -0.003532 0.000000 0.000000 0.000000
# 2 0.000065 0.017093 -0.002792 0.000000 0.000000 0.000000
# 3 -0.003532 -0.002792 0.012049 0.000000 0.000000 0.000000
# 4 0.000000 0.000000 0.000000 -0.220598 0.000000 0.000000
# 5 0.000000 0.000000 0.000000 0.000000 0.033064 0.000000
# 6 0.000000 0.000000 0.000000 0.000000 0.000000 0.184964
#
#
# Mechanical properties :
#
#
# Convention : Reuss Voigt Hill
#
# Bulk Modulus (GPa) = 31.13123 33.49758 32.31441
# Shear Modulus (GPa) = 76.57414 18.46548 47.51981
#
# Velocity S-wave (km/s) = 6.47185 3.17810 5.09830
# Velocity P-wave (km/s) = 8.53668 5.63824 7.23411
#
# Compressibility (1/GPa) = 0.03212208
#
# Stress axis : x y z
#
# Youngs Moduli (GPa) = 64.52393 58.50349 82.99160
#
# Poissons Ratio (x) = -0.00382 0.29316
# Poissons Ratio (y) = -0.00422 0.23172
# Poissons Ratio (z) = 0.22793 0.16335
#
# Static dielectric constant tensor:
#      x y z
#    x 1.628060 0.000000 0.000000 
#    y 0.000000 1.616040 0.000000 
#    z 0.000000 0.000000 1.679900 
# 
# From -- ./inp_files/25234.got.cif
#   From: 2010.05.17/outbox.cif.g08.bks.cpg/sg50_13_cif.got.tgz:25234.got - 2010.06.03 11:33:33.
