data_PCOD9396024
_publ_section_title
;
Structure prediction by ZEFSAII (Michael W. Deem and Ramdas Pophale) SiO2 
 PCOD9396024
Probable space group: P B A N
;
_chemical_formula_sum "Si O2"
_cell_formula_units_Z 64
_cell_length_a 14.301339
_cell_length_b 10.936898
_cell_length_c 17.999956
_cell_angle_alpha 90.000000
_cell_angle_beta 90.000000
_cell_angle_gamma 90.000000
_cell_volume 2815.414264
_symmetry_space_group_name_H-M "P B A N"
_symmetry_group_IT_number 50
_space_group.IT_coordinate_system_code '2'
_symmetry_cell_setting 'orthorhombic'
loop_
_space_group_symop_operation_xyz
x,y,z
1/2-x,1/2-y,z
x,1/2-y,-z
1/2-x,y,-z
-x,-y,-z
1/2+x,1/2+y,-z
-x,1/2+y,z
1/2+x,-y,z
loop_
_atom_site_type_symbol
_atom_site_label
_atom_site_fract_x
_atom_site_fract_y
_atom_site_fract_z
Si Si1 0.643854 0.720959 0.743938
Si Si2 0.805969 0.043361 0.732636
Si Si3 0.536610 0.120433 0.908381
Si Si4 0.544899 0.051261 0.382270
Si Si5 0.912307 0.977086 0.239898
Si Si6 0.572584 0.717382 0.576494
Si Si7 0.349670 0.052346 0.977364
Si Si8 0.162397 0.829753 0.125404
O O1 0.750000 0.750000 0.761432
O O2 0.639610 0.578255 0.760987
O O3 0.587344 0.831829 0.780692
O O4 0.626691 0.729904 0.654822
O O5 0.835773 0.152395 0.786579
O O6 0.850807 0.066417 0.652132
O O7 0.694848 0.017818 0.740030
O O8 0.574678 0.257237 0.904122
O O9 0.549951 0.060076 0.826877
O O10 0.433452 0.128655 0.942055
O O11 0.601373 0.031749 0.959307
O O12 0.475024 0.019435 0.313605
O O13 0.508620 0.178825 0.416523
O O14 0.543797 0.925110 0.428204
O O15 0.624542 0.750000 0.500000
O O16 0.324366 0.958638 0.912002
O O17 0.250000 0.108236 0.000000
O O18 0.250000 0.750000 0.102768
#
# Coordination Sequence:
#
# PCOD9396024 Si02
#       8
#     8   8   8   8   8   8   8   8
#     4   8  18  36  60  88 125 165 205 268 328 393
#     4  10  20  37  61  92 126 166 208 263 331 389
#     4  11  24  38  66  97 122 164 219 266 332 391
#     4  10  22  36  59  89 124 166 216 272 334 404
#     4  10  19  38  60  92 127 159 212 268 329 393
#     4  10  20  36  57  84 122 170 219 271 329 395
#     4  11  23  43  63  91 130 170 216 269 326 395
#     4  12  22  39  68  94 125 169 215 270 327 403
#
# _framework density 22.732001
#
# number of rings (size 3 to 8) (size 9 to 14) (size 15 to 20)
#    0.000    1.750    2.500    1.500    1.750    0.250 
#    6.750    0.000    0.000    8.250    0.000    0.000 
#    0.000    0.000    0.000    0.000    0.000    0.000 
#
# Total GULP energy -357272.222847 kJ/mol
# GULP energy per Si atom -5582.378482 kJ/mol
# Density = 2.268026 g / cm^3
# Si number density = 22.732001 Si / 1000 Ang^3
#
#
#
# Elastic Constant Matrix: (Units=GPa)
#
#
# Indices 1 2 3 4 5 6 
#
# 1 140.9609 26.8515 26.1146 0.0000 0.0000 0.0000
# 2 26.8515 67.5498 6.4137 0.0000 0.0000 0.0000
# 3 26.1146 6.4137 70.6898 0.0000 0.0000 0.0000
# 4 0.0000 0.0000 0.0000 30.1443 0.0000 0.0000
# 5 0.0000 0.0000 0.0000 0.0000 9.6853 0.0000
# 6 0.0000 0.0000 0.0000 0.0000 0.0000 29.6326
#
#
#
# Elastic Compliance Matrix: (Units=1/GPa)
#
#
# Indices 1 2 3 4 5 6 
#
# 1 0.008172 -0.002988 -0.002748 0.000000 0.000000 0.000000
# 2 -0.002988 0.016025 -0.000350 0.000000 0.000000 0.000000
# 3 -0.002748 -0.000350 0.015193 0.000000 0.000000 0.000000
# 4 0.000000 0.000000 0.000000 0.033174 0.000000 0.000000
# 5 0.000000 0.000000 0.000000 0.000000 0.103249 0.000000
# 6 0.000000 0.000000 0.000000 0.000000 0.000000 0.033747
#
#
# Mechanical properties :
#
#
# Convention : Reuss Voigt Hill
#
# Bulk Modulus (GPa) = 36.73953 44.21780 40.47866
# Shear Modulus (GPa) = 21.66337 28.54716 25.10527
#
# Velocity S-wave (km/s) = 3.09040 3.54759 3.32686
# Velocity P-wave (km/s) = 5.37878 6.02284 5.70989
#
# Compressibility (1/GPa) = 0.02721864
#
# Stress axis : x y z
#
# Youngs Moduli (GPa) = 122.36339 62.40339 65.81865
#
# Poissons Ratio (x) = 0.18644 0.18087
# Poissons Ratio (y) = 0.36558 0.02305
# Poissons Ratio (z) = 0.33626 0.02185
#
# Static dielectric constant tensor:
#      x y z
#    x 1.759910 0.000000 0.000000 
#    y 0.000000 1.860320 0.000000 
#    z 0.000000 0.000000 1.864140 
# 
# From -- ./inp_files/29554.got.cif
#   From: 2010.05.17/outbox.cif.g08.bks.cpg/sg50_15_cif.got.tgz:29554.got - 2010.06.03 11:33:33.
