data_PCOD9396675
_publ_section_title
;
Structure prediction by ZEFSAII (Michael W. Deem and Ramdas Pophale) SiO2 
 PCOD9396675
Probable space group: P B A N
;
_chemical_formula_sum "Si O2"
_cell_formula_units_Z 32
_cell_length_a 5.263044
_cell_length_b 31.403544
_cell_length_c 8.971602
_cell_angle_alpha 90.000000
_cell_angle_beta 90.000000
_cell_angle_gamma 90.000000
_cell_volume 1482.810533
_symmetry_space_group_name_H-M "P B A N"
_symmetry_group_IT_number 50
_space_group.IT_coordinate_system_code '2'
_symmetry_cell_setting 'orthorhombic'
loop_
_space_group_symop_operation_xyz
x,y,z
1/2-x,1/2-y,z
x,1/2-y,-z
1/2-x,y,-z
-x,-y,-z
1/2+x,1/2+y,-z
-x,1/2+y,z
1/2+x,-y,z
loop_
_atom_site_type_symbol
_atom_site_label
_atom_site_fract_x
_atom_site_fract_y
_atom_site_fract_z
Si Si1 0.000106 0.914371 0.905499
Si Si2 0.999725 0.702221 0.434680
Si Si3 0.002690 0.812148 0.908085
Si Si4 0.787704 0.523440 0.321789
O O1 0.015204 0.863407 0.889788
O O2 0.928757 0.935759 0.748137
O O3 0.750000 0.925110 0.000000
O O4 0.250000 0.927752 0.000000
O O5 0.999878 0.750000 0.500000
O O6 0.250000 0.680510 0.500000
O O7 0.750000 0.680387 0.500000
O O8 0.998385 0.705731 0.257957
O O9 0.750000 0.801649 0.000000
O O10 0.250000 0.798938 0.000000
O O11 0.750000 0.526249 0.500000
O O12 0.497593 0.512535 0.274741
#
# Coordination Sequence:
#
# PCOD9396675 Si02
#       4
#     8   8   8   8
#     4  10  21  36  56  82 109 144 191 234 280 336
#     4  10  21  39  59  86 117 146 187 234 281 342
#     4  10  21  39  60  84 116 152 191 237 287 340
#     4  10  21  36  53  78 112 147 186 231 282 337
#
# _framework density 21.580641
#
# number of rings (size 3 to 8) (size 9 to 14) (size 15 to 20)
#    0.000    2.000    0.000    3.000    0.000    4.000 
#    0.000   18.750    0.000    0.000    0.000    0.000 
#    0.000    0.000    0.000    0.000    0.000    0.000 
#
# Total GULP energy -178485.782074 kJ/mol
# GULP energy per Si atom -5577.680690 kJ/mol
# Density = 2.153152 g / cm^3
# Si number density = 21.580641 Si / 1000 Ang^3
#
#
#
# Elastic Constant Matrix: (Units=GPa)
#
#
# Indices 1 2 3 4 5 6 
#
# 1 227.7397 35.9348 96.6328 0.0000 0.0000 0.0000
# 2 35.9348 43.3000 40.0266 0.0000 0.0000 0.0000
# 3 96.6328 40.0266 175.7126 0.0000 0.0000 0.0000
# 4 0.0000 0.0000 0.0000 74.1340 0.0000 0.0000
# 5 0.0000 0.0000 0.0000 0.0000 36.2881 0.0000
# 6 0.0000 0.0000 0.0000 0.0000 0.0000 33.9462
#
#
#
# Elastic Compliance Matrix: (Units=1/GPa)
#
#
# Indices 1 2 3 4 5 6 
#
# 1 0.005920 -0.002411 -0.002706 0.000000 0.000000 0.000000
# 2 -0.002411 0.030237 -0.005562 0.000000 0.000000 0.000000
# 3 -0.002706 -0.005562 0.008446 0.000000 0.000000 0.000000
# 4 0.000000 0.000000 0.000000 0.013489 0.000000 0.000000
# 5 0.000000 0.000000 0.000000 0.000000 0.027557 0.000000
# 6 0.000000 0.000000 0.000000 0.000000 0.000000 0.029458
#
#
# Mechanical properties :
#
#
# Convention : Reuss Voigt Hill
#
# Bulk Modulus (GPa) = 43.02064 87.99339 65.50701
# Shear Modulus (GPa) = 34.67050 47.15088 40.91069
#
# Velocity S-wave (km/s) = 4.01253 4.67933 4.35870
# Velocity P-wave (km/s) = 6.43781 8.37004 7.46669
#
# Compressibility (1/GPa) = 0.02324466
#
# Stress axis : x y z
#
# Youngs Moduli (GPa) = 168.92621 33.07191 118.39330
#
# Poissons Ratio (x) = 0.07974 0.32041
# Poissons Ratio (y) = 0.40730 0.65849
# Poissons Ratio (z) = 0.45717 0.18394
#
# Static dielectric constant tensor:
#      x y z
#    x 1.711210 0.000000 0.000000 
#    y 0.000000 1.771840 0.000000 
#    z 0.000000 0.000000 1.764610 
# 
# From -- ./inp_files/8008.got.cif
#   From: 2010.05.17/outbox.cif.g08.bks.cpg/sg50_5_cif.got.tgz:8008.got - 2010.06.03 11:33:33.
