data_PCOD9396816
_publ_section_title
;
Structure prediction by ZEFSAII (Michael W. Deem and Ramdas Pophale) SiO2 
 PCOD9396816
Probable space group: P B A N
;
_chemical_formula_sum "Si O2"
_cell_formula_units_Z 28
_cell_length_a 5.216287
_cell_length_b 24.209624
_cell_length_c 10.565130
_cell_angle_alpha 90.000000
_cell_angle_beta 90.000000
_cell_angle_gamma 90.000000
_cell_volume 1334.210542
_symmetry_space_group_name_H-M "P B A N"
_symmetry_group_IT_number 50
_space_group.IT_coordinate_system_code '2'
_symmetry_cell_setting 'orthorhombic'
loop_
_space_group_symop_operation_xyz
x,y,z
1/2-x,1/2-y,z
x,1/2-y,-z
1/2-x,y,-z
-x,-y,-z
1/2+x,1/2+y,-z
-x,1/2+y,z
1/2+x,-y,z
loop_
_atom_site_type_symbol
_atom_site_label
_atom_site_fract_x
_atom_site_fract_y
_atom_site_fract_z
Si Si1 0.765585 0.683983 0.849573
Si Si2 0.566102 0.477464 0.640323
Si Si3 0.250000 0.962312 0.000000
Si Si4 0.264472 0.877677 0.232541
O O1 0.750000 0.750000 0.840182
O O2 0.534558 0.653547 0.775738
O O3 0.036238 0.664598 0.795029
O O4 0.750000 0.669468 0.000000
O O5 0.500000 0.500000 0.500000
O O6 0.282338 0.482265 0.700436
O O7 0.685389 0.416630 0.649563
O O8 0.243646 0.922120 0.880136
O O9 0.500000 0.000000 0.000000
#
# Coordination Sequence:
#
# PCOD9396816 Si02
#       4
#     8   8   4   8
#     4  11  22  38  57  84 121 164 210 251 301 367
#     4  10  21  38  59  86 117 154 203 248 303 370
#     4  12  22  32  49  80 121 156 192 242 294 368
#     4  12  21  37  57  85 120 164 203 248 311 361
#
# _framework density 20.986194000000001
#
# number of rings (size 3 to 8) (size 9 to 14) (size 15 to 20)
#    0.000    0.857    2.857    6.000    0.000    2.286 
#    0.000    0.000    0.000    0.000    0.000   60.000 
#    0.000    0.000    0.000    0.000    0.000    0.000 
#
# Total GULP energy -156414.131553 kJ/mol
# GULP energy per Si atom -5586.218984 kJ/mol
# Density = 2.093843 g / cm^3
# Si number density = 20.986194 Si / 1000 Ang^3
#
#
#
# Elastic Constant Matrix: (Units=GPa)
#
#
# Indices 1 2 3 4 5 6 
#
# 1 174.4499 42.0808 2.6994 0.0000 0.0000 0.0000
# 2 42.0808 104.2269 26.8299 0.0000 0.0000 0.0000
# 3 2.6994 26.8299 69.0554 0.0000 0.0000 0.0000
# 4 0.0000 0.0000 0.0000 26.2554 0.0000 0.0000
# 5 0.0000 0.0000 0.0000 0.0000 20.1173 0.0000
# 6 0.0000 0.0000 0.0000 0.0000 0.0000 53.5283
#
#
#
# Elastic Compliance Matrix: (Units=1/GPa)
#
#
# Indices 1 2 3 4 5 6 
#
# 1 0.006394 -0.002797 0.000837 0.000000 0.000000 0.000000
# 2 -0.002797 0.011884 -0.004508 0.000000 0.000000 0.000000
# 3 0.000837 -0.004508 0.016200 0.000000 0.000000 0.000000
# 4 0.000000 0.000000 0.000000 0.038087 0.000000 0.000000
# 5 0.000000 0.000000 0.000000 0.000000 0.049708 0.000000
# 6 0.000000 0.000000 0.000000 0.000000 0.000000 0.018682
#
#
# Mechanical properties :
#
#
# Convention : Reuss Voigt Hill
#
# Bulk Modulus (GPa) = 46.42155 54.55026 50.48591
# Shear Modulus (GPa) = 31.04191 38.38834 34.71512
#
# Velocity S-wave (km/s) = 3.85016 4.28158 4.07158
# Velocity P-wave (km/s) = 6.47557 7.10580 6.79799
#
# Compressibility (1/GPa) = 0.02154172
#
# Stress axis : x y z
#
# Youngs Moduli (GPa) = 156.39586 84.14587 61.72882
#
# Poissons Ratio (x) = 0.23535 -0.05165
# Poissons Ratio (y) = 0.43743 0.27827
# Poissons Ratio (z) = -0.13086 0.37933
#
# Static dielectric constant tensor:
#      x y z
#    x 1.831180 0.000000 0.000000 
#    y 0.000000 1.736880 0.000000 
#    z 0.000000 0.000000 1.967950 
# 
# From -- ./inp_files/17472.got.cif
#   From: 2010.05.17/outbox.cif.g08.bks.cpg/sg50_9_cif.got.tgz:17472.got - 2010.06.03 11:33:33.
