data_PCOD9396405
_publ_section_title
;
Structure prediction by ZEFSAII (Michael W. Deem and Ramdas Pophale) SiO2 
 PCOD9396405
Probable space group: P B A N
;
_chemical_formula_sum "Si O2"
_cell_formula_units_Z 58
_cell_length_a 11.282807
_cell_length_b 9.064289
_cell_length_c 27.421871
_cell_angle_alpha 90.000000
_cell_angle_beta 90.000000
_cell_angle_gamma 90.000000
_cell_volume 2804.451841
_symmetry_space_group_name_H-M "P B A N"
_symmetry_group_IT_number 50
_space_group.IT_coordinate_system_code '2'
_symmetry_cell_setting 'orthorhombic'
loop_
_space_group_symop_operation_xyz
x,y,z
1/2-x,1/2-y,z
x,1/2-y,-z
1/2-x,y,-z
-x,-y,-z
1/2+x,1/2+y,-z
-x,1/2+y,z
1/2+x,-y,z
loop_
_atom_site_type_symbol
_atom_site_label
_atom_site_fract_x
_atom_site_fract_y
_atom_site_fract_z
Si Si1 0.958646 0.383788 0.855488
Si Si2 0.136867 0.837107 0.375943
Si Si3 0.363324 0.169958 0.094957
Si Si4 0.388252 0.616489 0.207293
Si Si5 0.764048 0.977900 0.713035
Si Si6 0.250000 0.250000 0.000000
Si Si7 0.618193 0.419859 0.518343
Si Si8 0.547116 0.718168 0.298407
O O1 0.885452 0.511864 0.881826
O O2 0.885843 0.254825 0.828778
O O3 0.033763 0.287197 0.894182
O O4 0.044306 0.479613 0.819237
O O5 0.250000 0.750000 0.396181
O O6 0.103272 0.929674 0.423034
O O7 0.026209 0.759348 0.348463
O O8 0.194196 0.921378 0.330752
O O9 0.250000 0.250000 0.118910
O O10 0.330762 0.159266 0.037830
O O11 0.271373 0.555744 0.234418
O O12 0.463634 0.680632 0.252946
O O13 0.635289 0.920712 0.699102
O O14 0.863739 0.850439 0.713934
O O15 0.610993 0.250000 0.500000
O O16 0.750000 0.473360 0.500000
O O17 0.500000 0.500000 0.500000
#
# Coordination Sequence:
#
# PCOD9396405 Si02
#       8
#     8   8   8   8   8   2   8   8
#     4  10  20  37  66  94 136 169 221 271 344 391
#     4  11  25  41  69  91 133 164 229 268 335 409
#     4   9  21  41  63  97 125 173 217 282 338 402
#     4  10  20  38  60  93 131 171 218 264 324 413
#     4  10  23  39  64  92 130 180 216 268 328 393
#     4   8  20  44  68  86 130 172 228 278 348 404
#     4  11  26  48  72 102 136 174 224 292 363 424
#     4  10  23  40  61  94 131 178 217 267 329 392
#
# _framework density 20.681401999999999
#
# number of rings (size 3 to 8) (size 9 to 14) (size 15 to 20)
#    0.414    1.517    2.759    0.000    7.724    3.034 
#    0.000    8.276    0.000    3.310    0.000    0.000 
#    0.000    0.000    0.000    0.000    0.000    0.000 
#
# Total GULP energy -323269.686392 kJ/mol
# GULP energy per Si atom -5573.615283 kJ/mol
# Density = 2.063433 g / cm^3
# Si number density = 20.681402 Si / 1000 Ang^3
#
#
#
# Elastic Constant Matrix: (Units=GPa)
#
#
# Indices 1 2 3 4 5 6 
#
# 1 111.3283 36.3918 39.0111 0.0000 0.0000 0.0000
# 2 36.3918 85.6683 28.1362 0.0000 0.0000 0.0000
# 3 39.0111 28.1362 116.2153 0.0000 0.0000 0.0000
# 4 0.0000 0.0000 0.0000 19.7306 0.0000 0.0000
# 5 0.0000 0.0000 0.0000 0.0000 -8.3129 0.0000
# 6 0.0000 0.0000 0.0000 0.0000 0.0000 17.8245
#
#
#
# Elastic Compliance Matrix: (Units=1/GPa)
#
#
# Indices 1 2 3 4 5 6 
#
# 1 0.011233 -0.003839 -0.002841 0.000000 0.000000 0.000000
# 2 -0.003839 0.013993 -0.002099 0.000000 0.000000 0.000000
# 3 -0.002841 -0.002099 0.010067 0.000000 0.000000 0.000000
# 4 0.000000 0.000000 0.000000 0.050683 0.000000 0.000000
# 5 0.000000 0.000000 0.000000 0.000000 -0.120294 0.000000
# 6 0.000000 0.000000 0.000000 0.000000 0.000000 0.056103
#
#
# Mechanical properties :
#
#
# Convention : Reuss Voigt Hill
#
# Bulk Modulus (GPa) = 56.38760 57.81001 57.09880
# Shear Modulus (GPa) = 110.48987 19.82662 65.15824
#
# Velocity S-wave (km/s) = 7.31715 3.09960 5.61908
# Velocity P-wave (km/s) = 9.93538 6.38931 8.35270
#
# Compressibility (1/GPa) = 0.01773440
#
# Stress axis : x y z
#
# Youngs Moduli (GPa) = 89.02463 71.46442 99.33717
#
# Poissons Ratio (x) = 0.27432 0.28225
# Poissons Ratio (y) = 0.34172 0.20853
# Poissons Ratio (z) = 0.25295 0.15002
#
# Static dielectric constant tensor:
#      x y z
#    x 1.852340 0.000000 0.000000 
#    y 0.000000 1.673940 0.000000 
#    z 0.000000 0.000000 1.797020 
# 
# From -- ./inp_files/32196.got.cif
#   From: 2010.05.17/outbox.cif.g08.bks.cpg/sg50_17_cif.got.tgz:32196.got - 2010.06.03 11:33:33.
