data_PCOD9396305
_publ_section_title
;
Structure prediction by ZEFSAII (Michael W. Deem and Ramdas Pophale) SiO2 
 PCOD9396305
Probable space group: P B A N
;
_chemical_formula_sum "Si O2"
_cell_formula_units_Z 60
_cell_length_a 19.349243
_cell_length_b 12.688680
_cell_length_c 11.993270
_cell_angle_alpha 90.000000
_cell_angle_beta 90.000000
_cell_angle_gamma 90.000000
_cell_volume 2944.543907
_symmetry_space_group_name_H-M "P B A N"
_symmetry_group_IT_number 50
_space_group.IT_coordinate_system_code '2'
_symmetry_cell_setting 'orthorhombic'
loop_
_space_group_symop_operation_xyz
x,y,z
1/2-x,1/2-y,z
x,1/2-y,-z
1/2-x,y,-z
-x,-y,-z
1/2+x,1/2+y,-z
-x,1/2+y,z
1/2+x,-y,z
loop_
_atom_site_type_symbol
_atom_site_label
_atom_site_fract_x
_atom_site_fract_y
_atom_site_fract_z
Si Si1 0.022476 0.652761 0.574446
Si Si2 0.685763 0.925533 0.945193
Si Si3 0.923147 0.750000 0.000000
Si Si4 0.006272 0.599780 0.149900
Si Si5 0.902691 0.428637 0.067536
Si Si6 0.078777 0.978602 0.629705
Si Si7 0.646928 0.303656 0.742793
Si Si8 0.285694 0.572698 0.733131
O O1 0.996803 0.750000 0.500000
O O2 0.057708 0.573497 0.486452
O O3 0.084218 0.688751 0.655700
O O4 0.959262 0.591911 0.633149
O O5 0.701870 0.988864 0.832694
O O6 0.750000 0.867146 0.000000
O O7 0.621883 0.844918 0.947788
O O8 0.667651 0.013592 0.037172
O O9 0.966541 0.702647 0.103790
O O10 0.950648 0.504970 0.141415
O O11 0.043968 0.587637 0.267880
O O12 0.060654 0.582466 0.050726
O O13 0.885629 0.326241 0.136531
O O14 0.161812 0.975070 0.640613
O O15 0.681935 0.189695 0.748954
O O16 0.705113 0.394446 0.716619
#
# Coordination Sequence:
#
# PCOD9396305 Si02
#       8
#     8   8   4   8   8   8   8   8
#     4  11  24  43  67  91 129 167 219 279 329 384
#     4  11  21  40  57  89 130 172 214 253 314 396
#     4  10  25  36  62  92 133 182 208 264 320 392
#     4  10  21  36  59  95 125 167 211 265 322 379
#     4  10  20  36  61  89 131 160 206 262 317 388
#     4  11  23  41  64  97 126 166 219 276 322 386
#     4  11  23  42  63  96 128 174 209 267 335 393
#     4  11  24  39  65  94 130 168 215 267 332 390
#
# _framework density 20.376670000000001
#
# number of rings (size 3 to 8) (size 9 to 14) (size 15 to 20)
#    0.000    1.333    5.333    0.200    1.867    2.133 
#    0.000    0.000    0.000    0.000    0.000    3.733 
#    0.000    0.000    0.000    0.000    0.000    0.000 
#
# Total GULP energy -334540.340666 kJ/mol
# GULP energy per Si atom -5575.672344 kJ/mol
# Density = 2.033029 g / cm^3
# Si number density = 20.376670 Si / 1000 Ang^3
#
#
#
# Elastic Constant Matrix: (Units=GPa)
#
#
# Indices 1 2 3 4 5 6 
#
# 1 75.2779 31.9293 5.9723 0.0000 0.0000 0.0000
# 2 31.9293 88.6258 20.8507 0.0000 0.0000 0.0000
# 3 5.9723 20.8507 47.7223 0.0000 0.0000 0.0000
# 4 0.0000 0.0000 0.0000 29.6158 0.0000 0.0000
# 5 0.0000 0.0000 0.0000 0.0000 22.0048 0.0000
# 6 0.0000 0.0000 0.0000 0.0000 0.0000 25.9414
#
#
#
# Elastic Compliance Matrix: (Units=1/GPa)
#
#
# Indices 1 2 3 4 5 6 
#
# 1 0.015694 -0.005787 0.000564 0.000000 0.000000 0.000000
# 2 -0.005787 0.014710 -0.005703 0.000000 0.000000 0.000000
# 3 0.000564 -0.005703 0.023376 0.000000 0.000000 0.000000
# 4 0.000000 0.000000 0.000000 0.033766 0.000000 0.000000
# 5 0.000000 0.000000 0.000000 0.000000 0.045445 0.000000
# 6 0.000000 0.000000 0.000000 0.000000 0.000000 0.038548
#
#
# Mechanical properties :
#
#
# Convention : Reuss Voigt Hill
#
# Bulk Modulus (GPa) = 31.31977 36.57010 33.94493
# Shear Modulus (GPa) = 24.50600 25.70397 25.10499
#
# Velocity S-wave (km/s) = 3.47169 3.55553 3.51386
# Velocity P-wave (km/s) = 5.61016 5.90269 5.75828
#
# Compressibility (1/GPa) = 0.03192872
#
# Stress axis : x y z
#
# Youngs Moduli (GPa) = 63.71938 67.98150 42.77965
#
# Poissons Ratio (x) = 0.39339 -0.02414
# Poissons Ratio (y) = 0.36873 0.24396
# Poissons Ratio (z) = -0.03596 0.38769
#
# Static dielectric constant tensor:
#      x y z
#    x 1.803050 0.000000 0.000000 
#    y 0.000000 1.766840 0.000000 
#    z 0.000000 0.000000 1.711810 
# 
# From -- ./inp_files/22432.got.cif
#   From: 2010.05.17/outbox.cif.g08.bks.cpg/sg50_12_cif.got.tgz:22432.got - 2010.06.03 11:33:33.
