data_PCOD9396333
_publ_section_title
;
Structure prediction by ZEFSAII (Michael W. Deem and Ramdas Pophale) SiO2 
 PCOD9396333
Probable space group: P B A N
;
_chemical_formula_sum "Si O2"
_cell_formula_units_Z 64
_cell_length_a 12.071354
_cell_length_b 30.030340
_cell_length_c 7.740537
_cell_angle_alpha 90.000000
_cell_angle_beta 90.000000
_cell_angle_gamma 90.000000
_cell_volume 2805.997800
_symmetry_space_group_name_H-M "P B A N"
_symmetry_group_IT_number 50
_space_group.IT_coordinate_system_code '2'
_symmetry_cell_setting 'orthorhombic'
loop_
_space_group_symop_operation_xyz
x,y,z
1/2-x,1/2-y,z
x,1/2-y,-z
1/2-x,y,-z
-x,-y,-z
1/2+x,1/2+y,-z
-x,1/2+y,z
1/2+x,-y,z
loop_
_atom_site_type_symbol
_atom_site_label
_atom_site_fract_x
_atom_site_fract_y
_atom_site_fract_z
Si Si1 0.531147 0.592442 0.947891
Si Si2 0.688659 0.419127 0.680499
Si Si3 0.957296 0.945528 0.302988
Si Si4 0.846933 0.023014 0.119993
Si Si5 0.653146 0.317577 0.742125
Si Si6 0.520508 0.795067 0.447056
Si Si7 0.902886 0.184386 0.119510
Si Si8 0.133387 0.109745 0.405878
O O1 0.462216 0.545995 0.938732
O O2 0.449826 0.634017 0.905233
O O3 0.622199 0.597909 0.796766
O O4 0.570791 0.589535 0.146917
O O5 0.750000 0.417028 0.500000
O O6 0.589044 0.453931 0.698700
O O7 0.780881 0.434434 0.811488
O O8 0.640822 0.370831 0.723400
O O9 0.942293 0.924809 0.490671
O O10 0.882160 0.987878 0.264736
O O11 0.750000 0.001580 0.000000
O O12 0.586690 0.298879 0.577013
O O13 0.785128 0.312927 0.778916
O O14 0.605742 0.299649 0.923038
O O15 0.581589 0.750000 0.500000
O O16 0.483983 0.791063 0.248750
O O17 0.587365 0.841037 0.449474
O O18 0.250000 0.104983 0.500000
#
# Coordination Sequence:
#
# PCOD9396333 Si02
#       8
#     8   8   8   8   8   8   8   8
#     4  11  22  43  67  93 133 180 227 269 337 402
#     4  12  23  40  66  94 135 183 230 278 339 400
#     4  12  26  43  65  94 134 177 227 284 333 400
#     4  12  25  40  64  99 134 179 229 281 331 397
#     4  11  20  38  65  97 135 177 217 261 337 412
#     4  11  24  43  67  99 133 169 220 279 338 415
#     4  10  20  36  66  97 134 180 212 263 332 411
#     4  11  27  46  70  96 126 173 226 282 347 410
#
# _framework density 22.808285000000001
#
# number of rings (size 3 to 8) (size 9 to 14) (size 15 to 20)
#    0.000    0.750    5.000    2.250    1.750    4.250 
#    0.000    1.250    0.000    0.000    0.000    3.500 
#    0.000    0.000    0.000    0.000    0.000    0.000 
#
# Total GULP energy -357132.363891 kJ/mol
# GULP energy per Si atom -5580.193186 kJ/mol
# Density = 2.275637 g / cm^3
# Si number density = 22.808285 Si / 1000 Ang^3
#
#
#
# Elastic Constant Matrix: (Units=GPa)
#
#
# Indices 1 2 3 4 5 6 
#
# 1 50.3673 -6.4350 12.5818 0.0000 0.0000 0.0000
# 2 -6.4350 76.8838 -2.0814 0.0000 0.0000 0.0000
# 3 12.5818 -2.0814 105.3685 0.0000 0.0000 0.0000
# 4 0.0000 0.0000 0.0000 23.8013 0.0000 0.0000
# 5 0.0000 0.0000 0.0000 0.0000 27.6702 0.0000
# 6 0.0000 0.0000 0.0000 0.0000 0.0000 -5.4136
#
#
#
# Elastic Compliance Matrix: (Units=1/GPa)
#
#
# Indices 1 2 3 4 5 6 
#
# 1 0.020675 0.001665 -0.002436 0.000000 0.000000 0.000000
# 2 0.001665 0.013148 0.000061 0.000000 0.000000 0.000000
# 3 -0.002436 0.000061 0.009783 0.000000 0.000000 0.000000
# 4 0.000000 0.000000 0.000000 0.042015 0.000000 0.000000
# 5 0.000000 0.000000 0.000000 0.000000 0.036140 0.000000
# 6 0.000000 0.000000 0.000000 0.000000 0.000000 -0.184720
#
#
# Mechanical properties :
#
#
# Convention : Reuss Voigt Hill
#
# Bulk Modulus (GPa) = 23.70531 26.75004 25.22767
# Shear Modulus (GPa) = -105.31241 24.44852 -40.43195
#
# Velocity S-wave (km/s) = -6.80243 3.27756 -4.21490
# Velocity P-wave (km/s) = 7.16112 5.10655 3.54998
#
# Compressibility (1/GPa) = 0.04218465
#
# Stress axis : x y z
#
# Youngs Moduli (GPa) = 48.36691 76.05944 102.22262
#
# Poissons Ratio (x) = -0.12660 0.24901
# Poissons Ratio (y) = -0.08051 -0.00623
# Poissons Ratio (z) = 0.11782 -0.00464
#
# Static dielectric constant tensor:
#      x y z
#    x 1.687400 0.000000 0.000000 
#    y 0.000000 1.859720 0.000000 
#    z 0.000000 0.000000 1.886820 
# 
# From -- ./inp_files/11841.got.cif
#   From: 2010.05.17/outbox.cif.g08.bks.cpg/sg50_6_cif.got.tgz:11841.got - 2010.06.03 11:33:33.
