data_PCOD9396999
_publ_section_title
;
Structure prediction by ZEFSAII (Michael W. Deem and Ramdas Pophale) SiO2 
 PCOD9396999
Probable space group: P B A N
;
_chemical_formula_sum "Si O2"
_cell_formula_units_Z 32
_cell_length_a 8.419884
_cell_length_b 25.277582
_cell_length_c 6.759108
_cell_angle_alpha 90.000000
_cell_angle_beta 90.000000
_cell_angle_gamma 90.000000
_cell_volume 1438.570076
_symmetry_space_group_name_H-M "P B A N"
_symmetry_group_IT_number 50
_space_group.IT_coordinate_system_code '2'
_symmetry_cell_setting 'orthorhombic'
loop_
_space_group_symop_operation_xyz
x,y,z
1/2-x,1/2-y,z
x,1/2-y,-z
1/2-x,y,-z
-x,-y,-z
1/2+x,1/2+y,-z
-x,1/2+y,z
1/2+x,-y,z
loop_
_atom_site_type_symbol
_atom_site_label
_atom_site_fract_x
_atom_site_fract_y
_atom_site_fract_z
Si Si1 0.437778 0.689294 0.443285
Si Si2 0.106824 0.610156 0.852354
Si Si3 0.250000 0.377263 0.500000
Si Si4 0.250000 0.543931 0.500000
Si Si5 0.658323 0.536615 0.183776
O O1 0.465751 0.750000 0.500000
O O2 0.250000 0.680289 0.500000
O O3 0.446586 0.668494 0.216088
O O4 0.588497 0.656624 0.530244
O O5 0.149872 0.580361 0.646276
O O6 0.978907 0.568745 0.929618
O O7 0.250000 0.615230 0.000000
O O8 0.264640 0.415721 0.689388
O O9 0.357245 0.508058 0.647119
O O10 0.750000 0.511733 0.000000
#
# Coordination Sequence:
#
# PCOD9396999 Si02
#       5
#     8   8   4   4   8
#     4  10  21  41  68  92 122 166 212 260 320 378
#     4  11  24  39  65  93 125 167 210 262 317 377
#     4   9  21  40  67  92 129 164 207 267 314 374
#     4  11  22  40  62  90 130 168 214 255 314 378
#     4  10  23  39  62  93 125 167 209 256 316 380
#
# _framework density 22.244309999999999
#
# number of rings (size 3 to 8) (size 9 to 14) (size 15 to 20)
#    0.000    1.750    1.250    1.875    3.500    6.000 
#    0.000    2.500    0.000    1.500    0.000    0.000 
#    0.000    0.000    0.000    0.000    0.000    0.000 
#
# Total GULP energy -178170.248446 kJ/mol
# GULP energy per Si atom -5567.820264 kJ/mol
# Density = 2.219368 g / cm^3
# Si number density = 22.244310 Si / 1000 Ang^3
#
#
#
# Elastic Constant Matrix: (Units=GPa)
#
#
# Indices 1 2 3 4 5 6 
#
# 1 77.2029 35.6277 17.6817 0.0000 0.0000 0.0000
# 2 35.6277 135.9630 35.3176 0.0000 0.0000 0.0000
# 3 17.6817 35.3176 82.3284 0.0000 0.0000 0.0000
# 4 0.0000 0.0000 0.0000 59.0673 0.0000 0.0000
# 5 0.0000 0.0000 0.0000 0.0000 41.9445 0.0000
# 6 0.0000 0.0000 0.0000 0.0000 0.0000 35.3343
#
#
#
# Elastic Compliance Matrix: (Units=1/GPa)
#
#
# Indices 1 2 3 4 5 6 
#
# 1 0.014949 -0.003470 -0.001722 0.000000 0.000000 0.000000
# 2 -0.003470 0.009083 -0.003151 0.000000 0.000000 0.000000
# 3 -0.001722 -0.003151 0.013868 0.000000 0.000000 0.000000
# 4 0.000000 0.000000 0.000000 0.016930 0.000000 0.000000
# 5 0.000000 0.000000 0.000000 0.000000 0.023841 0.000000
# 6 0.000000 0.000000 0.000000 0.000000 0.000000 0.028301
#
#
# Mechanical properties :
#
#
# Convention : Reuss Voigt Hill
#
# Bulk Modulus (GPa) = 47.13992 52.52759 49.83376
# Shear Modulus (GPa) = 38.24726 41.06037 39.65381
#
# Velocity S-wave (km/s) = 4.15108 4.30103 4.22672
# Velocity P-wave (km/s) = 6.64930 6.95201 6.80234
#
# Compressibility (1/GPa) = 0.02121344
#
# Stress axis : x y z
#
# Youngs Moduli (GPa) = 66.89630 110.09951 72.10795
#
# Poissons Ratio (x) = 0.38202 0.12417
# Poissons Ratio (y) = 0.23212 0.22722
# Poissons Ratio (z) = 0.11520 0.34694
#
# Static dielectric constant tensor:
#      x y z
#    x 2.069230 0.000000 0.000000 
#    y 0.000000 1.847740 0.000000 
#    z 0.000000 0.000000 1.804960 
# 
# From -- ./inp_files/1246.got.cif
#   From: 2010.05.17/outbox.cif.g08.bks.cpg/sg50_1_cif.got.tgz:1246.got - 2010.06.03 11:33:33.
