data_PCOD9396293
_publ_section_title
;
Structure prediction by ZEFSAII (Michael W. Deem and Ramdas Pophale) SiO2 
 PCOD9396293
Probable space group: P B A N
;
_chemical_formula_sum "Si O2"
_cell_formula_units_Z 46
_cell_length_a 5.063518
_cell_length_b 18.529076
_cell_length_c 25.272193
_cell_angle_alpha 90.000000
_cell_angle_beta 90.000000
_cell_angle_gamma 90.000000
_cell_volume 2371.095522
_symmetry_space_group_name_H-M "P B A N"
_symmetry_group_IT_number 50
_space_group.IT_coordinate_system_code '2'
_symmetry_cell_setting 'orthorhombic'
loop_
_space_group_symop_operation_xyz
x,y,z
1/2-x,1/2-y,z
x,1/2-y,-z
1/2-x,y,-z
-x,-y,-z
1/2+x,1/2+y,-z
-x,1/2+y,z
1/2+x,-y,z
loop_
_atom_site_type_symbol
_atom_site_label
_atom_site_fract_x
_atom_site_fract_y
_atom_site_fract_z
Si Si1 0.982210 0.298720 0.287369
Si Si2 0.421232 0.951936 0.894043
Si Si3 0.084236 0.551284 0.772319
Si Si4 0.250000 0.750000 0.500000
Si Si5 0.183380 0.456947 0.561485
Si Si6 0.446936 0.316658 0.595337
Si Si7 0.250000 0.553769 0.000000
O O1 0.750000 0.250000 0.263579
O O2 0.986547 0.376879 0.260068
O O3 0.250000 0.250000 0.285359
O O4 0.907247 0.314382 0.348891
O O5 0.723955 0.978508 0.897649
O O6 0.398046 0.925073 0.834221
O O7 0.310650 0.906477 0.944272
O O8 0.359501 0.509503 0.762489
O O9 0.394838 0.696478 0.458893
O O10 0.250000 0.441164 0.500000
O O11 0.381061 0.523736 0.572049
O O12 0.279725 0.389137 0.593614
O O13 0.250000 0.250000 0.595378
O O14 0.500000 0.500000 0.000000
#
# Coordination Sequence:
#
# PCOD9396293 Si02
#       7
#     8   8   8   2   8   8   4
#     4  11  24  42  59  84 115 147 188 238 288 343
#     4   8  14  24  42  72 106 143 181 225 273 319
#     4  10  20  36  60  85 114 151 194 236 283 338
#     4  12  22  40  64  82 104 136 188 222 274 332
#     4  10  23  38  57  82 112 137 166 210 267 328
#     4  11  25  40  62  84 108 141 184 222 276 337
#     4   8  12  20  36  64 107 142 173 222 276 314
#
# _framework density 19.400314000000002
#
# number of rings (size 3 to 8) (size 9 to 14) (size 15 to 20)
#    0.000    2.087    0.870    2.348    6.087    1.391 
#    0.000    0.000    0.000    0.000    0.000    0.609 
#    0.000    1.391    0.000    0.000    0.000    0.000 
#
# Total GULP energy -256073.189762 kJ/mol
# GULP energy per Si atom -5566.808473 kJ/mol
# Density = 1.935616 g / cm^3
# Si number density = 19.400314 Si / 1000 Ang^3
#
#
#
# Elastic Constant Matrix: (Units=GPa)
#
#
# Indices 1 2 3 4 5 6 
#
# 1 81.3777 5.8854 15.9155 0.0000 0.0000 0.0000
# 2 5.8854 71.8137 40.8428 0.0000 0.0000 0.0000
# 3 15.9155 40.8428 120.7646 0.0000 0.0000 0.0000
# 4 0.0000 0.0000 0.0000 6.7261 0.0000 0.0000
# 5 0.0000 0.0000 0.0000 0.0000 12.9385 0.0000
# 6 0.0000 0.0000 0.0000 0.0000 0.0000 23.9709
#
#
#
# Elastic Compliance Matrix: (Units=1/GPa)
#
#
# Indices 1 2 3 4 5 6 
#
# 1 0.012614 -0.000109 -0.001625 0.000000 0.000000 0.000000
# 2 -0.000109 0.017242 -0.005817 0.000000 0.000000 0.000000
# 3 -0.001625 -0.005817 0.010462 0.000000 0.000000 0.000000
# 4 0.000000 0.000000 0.000000 0.148674 0.000000 0.000000
# 5 0.000000 0.000000 0.000000 0.000000 0.077289 0.000000
# 6 0.000000 0.000000 0.000000 0.000000 0.000000 0.041717
#
#
# Mechanical properties :
#
#
# Convention : Reuss Voigt Hill
#
# Bulk Modulus (GPa) = 39.65892 44.36039 42.00965
# Shear Modulus (GPa) = 15.08267 22.81460 18.94863
#
# Velocity S-wave (km/s) = 2.79129 3.43299 3.12864
# Velocity P-wave (km/s) = 5.55655 6.21525 5.89511
#
# Compressibility (1/GPa) = 0.02521501
#
# Stress axis : x y z
#
# Youngs Moduli (GPa) = 79.27585 57.99745 95.58331
#
# Poissons Ratio (x) = 0.00634 0.15536
# Poissons Ratio (y) = 0.00867 0.55600
# Poissons Ratio (z) = 0.12886 0.33737
#
# Static dielectric constant tensor:
#      x y z
#    x 1.666280 0.000000 0.000000 
#    y 0.000000 1.586990 0.000000 
#    z 0.000000 0.000000 1.816790 
# 
# From -- ./inp_files/31481.got.cif
#   From: 2010.05.17/outbox.cif.g08.bks.cpg/sg50_16_cif.got.tgz:31481.got - 2010.06.03 11:33:33.
