data_PCOD9396076
_publ_section_title
;
Structure prediction by ZEFSAII (Michael W. Deem and Ramdas Pophale) SiO2 
 PCOD9396076
Probable space group: P B A N
;
_chemical_formula_sum "Si O2"
_cell_formula_units_Z 52
_cell_length_a 8.733763
_cell_length_b 30.655667
_cell_length_c 11.188075
_cell_angle_alpha 90.000000
_cell_angle_beta 90.000000
_cell_angle_gamma 90.000000
_cell_volume 2995.487707
_symmetry_space_group_name_H-M "P B A N"
_symmetry_group_IT_number 50
_space_group.IT_coordinate_system_code '2'
_symmetry_cell_setting 'orthorhombic'
loop_
_space_group_symop_operation_xyz
x,y,z
1/2-x,1/2-y,z
x,1/2-y,-z
1/2-x,y,-z
-x,-y,-z
1/2+x,1/2+y,-z
-x,1/2+y,z
1/2+x,-y,z
loop_
_atom_site_type_symbol
_atom_site_label
_atom_site_fract_x
_atom_site_fract_y
_atom_site_fract_z
Si Si1 0.750000 0.750000 0.000000
Si Si2 0.437998 0.458343 0.351916
Si Si3 0.494991 0.706737 0.837728
Si Si4 0.574497 0.734002 0.370623
Si Si5 0.412369 0.048333 0.358133
Si Si6 0.951881 0.359252 0.384378
Si Si7 0.750000 0.250000 0.000000
Si Si8 0.404620 0.631442 0.666805
O O1 0.644946 0.780639 0.084688
O O2 0.262411 0.451867 0.315047
O O3 0.425664 0.456591 0.497111
O O4 0.499741 0.505495 0.313017
O O5 0.550974 0.419248 0.314078
O O6 0.484283 0.741558 0.731385
O O7 0.484764 0.660942 0.767937
O O8 0.354765 0.717785 0.922944
O O9 0.750000 0.750000 0.362876
O O10 0.517551 0.750000 0.500000
O O11 0.551606 0.682807 0.351947
O O12 0.483576 0.095451 0.334460
O O13 0.776089 0.357459 0.340329
O O14 0.958194 0.359773 0.529862
#
# Coordination Sequence:
#
# PCOD9396076 Si02
#       8
#     2   8   8   8   8   8   2   8
#     4  10  24  38  58  70 104 144 204 240 288 302
#     4   9  17  28  46  72 102 151 179 222 255 319
#     4  11  21  40  54  78 104 147 186 246 269 343
#     4  11  22  33  55  81 114 145 184 224 282 341
#     4   9  17  28  46  68 111 146 187 206 258 326
#     4  10  20  32  48  79 111 152 176 217 269 343
#     4  10  24  38  58  70 104 148 204 236 296 298
#     4  10  20  33  52  75 112 140 188 223 276 330
#
# _framework density 17.359442000000001
#
# number of rings (size 3 to 8) (size 9 to 14) (size 15 to 20)
#    0.000    2.000    2.308    1.846    2.154    4.923 
#    0.000    0.000    0.000    0.000    0.000    0.000 
#    0.000   41.846    0.000    0.000    0.000    0.000 
#
# Total GULP energy -289753.867746 kJ/mol
# GULP energy per Si atom -5572.189764 kJ/mol
# Density = 1.731993 g / cm^3
# Si number density = 17.359442 Si / 1000 Ang^3
#
#
#
# Elastic Constant Matrix: (Units=GPa)
#
#
# Indices 1 2 3 4 5 6 
#
# 1 89.8828 56.4929 32.0926 0.0000 0.0000 0.0000
# 2 56.4929 161.6348 28.7721 0.0000 0.0000 0.0000
# 3 32.0926 28.7721 66.4267 0.0000 0.0000 0.0000
# 4 0.0000 0.0000 0.0000 12.6266 0.0000 0.0000
# 5 0.0000 0.0000 0.0000 0.0000 0.9593 0.0000
# 6 0.0000 0.0000 0.0000 0.0000 0.0000 25.0339
#
#
#
# Elastic Compliance Matrix: (Units=1/GPa)
#
#
# Indices 1 2 3 4 5 6 
#
# 1 0.016073 -0.004589 -0.005777 0.000000 0.000000 0.000000
# 2 -0.004589 0.008014 -0.001254 0.000000 0.000000 0.000000
# 3 -0.005777 -0.001254 0.018389 0.000000 0.000000 0.000000
# 4 0.000000 0.000000 0.000000 0.079198 0.000000 0.000000
# 5 0.000000 0.000000 0.000000 0.000000 1.042388 0.000000
# 6 0.000000 0.000000 0.000000 0.000000 0.000000 0.039946
#
#
# Mechanical properties :
#
#
# Convention : Reuss Voigt Hill
#
# Bulk Modulus (GPa) = 51.99108 61.40662 56.69885
# Shear Modulus (GPa) = 4.05298 21.09639 12.57469
#
# Velocity S-wave (km/s) = 1.52964 3.48985 2.69434
# Velocity P-wave (km/s) = 5.75626 7.18952 6.51244
#
# Compressibility (1/GPa) = 0.01923407
#
# Stress axis : x y z
#
# Youngs Moduli (GPa) = 62.21680 124.78211 54.38146
#
# Poissons Ratio (x) = 0.57265 0.31419
# Poissons Ratio (y) = 0.28552 0.06820
# Poissons Ratio (z) = 0.35946 0.15648
#
# Static dielectric constant tensor:
#      x y z
#    x 1.594000 0.000000 0.000000 
#    y 0.000000 1.600390 0.000000 
#    z 0.000000 0.000000 1.552250 
# 
# From -- ./inp_files/19482.got.cif
#   From: 2010.05.17/outbox.cif.g08.bks.cpg/sg50_10_cif.got.tgz:19482.got - 2010.06.03 11:33:33.
