data_PCOD9396867
_publ_section_title
;
Structure prediction by ZEFSAII (Michael W. Deem and Ramdas Pophale) SiO2 
 PCOD9396867
Probable space group: P B A N
;
_chemical_formula_sum "Si O2"
_cell_formula_units_Z 54
_cell_length_a 18.567283
_cell_length_b 24.907295
_cell_length_c 6.628874
_cell_angle_alpha 90.000000
_cell_angle_beta 90.000000
_cell_angle_gamma 90.000000
_cell_volume 3065.594340
_symmetry_space_group_name_H-M "P B A N"
_symmetry_group_IT_number 50
_space_group.IT_coordinate_system_code '2'
_symmetry_cell_setting 'orthorhombic'
loop_
_space_group_symop_operation_xyz
x,y,z
1/2-x,1/2-y,z
x,1/2-y,-z
1/2-x,y,-z
-x,-y,-z
1/2+x,1/2+y,-z
-x,1/2+y,z
1/2+x,-y,z
loop_
_atom_site_type_symbol
_atom_site_label
_atom_site_fract_x
_atom_site_fract_y
_atom_site_fract_z
Si Si1 0.940988 0.575712 0.371247
Si Si2 0.012481 0.303017 0.612593
Si Si3 0.078484 0.509751 0.286874
Si Si4 0.822281 0.070800 0.609226
Si Si5 0.877700 0.316731 0.325149
Si Si6 0.463095 0.750000 0.000000
Si Si7 0.250000 0.750000 0.500000
Si Si8 0.824841 0.525617 0.090080
O O1 0.939777 0.543783 0.584170
O O2 0.869670 0.563830 0.240481
O O3 0.951799 0.638824 0.406605
O O4 0.007541 0.546282 0.254973
O O5 0.043677 0.250000 0.500000
O O6 0.932469 0.310010 0.514503
O O7 0.007428 0.286242 0.845003
O O8 0.128384 0.543953 0.438319
O O9 0.122085 0.493533 0.088433
O O10 0.750000 0.089905 0.500000
O O11 0.863194 0.120792 0.705077
O O12 0.804797 0.026191 0.775115
O O13 0.915355 0.288899 0.137086
O O14 0.803195 0.286949 0.370556
O O15 0.750000 0.547745 0.000000
#
# Coordination Sequence:
#
# PCOD9396867 Si02
#       8
#     8   8   8   8   8   4   2   8
#     4  10  22  37  62  85 118 156 191 248 300 351
#     4  10  21  40  57  83 110 147 195 249 293 344
#     4  10  21  39  57  87 117 153 198 240 291 358
#     4  11  21  35  57  77 116 161 195 240 290 344
#     4  11  22  36  51  75 112 155 203 247 278 331
#     4  10  22  37  56  78 111 152 204 252 282 336
#     4  12  20  38  48  72 114 164 204 232 282 324
#     4  11  23  37  57  90 119 152 197 240 303 370
#
# _framework density 17.614856
#
# number of rings (size 3 to 8) (size 9 to 14) (size 15 to 20)
#    0.000    1.481    5.926    0.444    2.074    2.667 
#    2.667    0.000    0.000    0.000    0.000    7.778 
#    0.000    0.000    0.000    0.000    0.000    0.000 
#
# Total GULP energy -301273.869395 kJ/mol
# GULP energy per Si atom -5579.145730 kJ/mol
# Density = 1.757476 g / cm^3
# Si number density = 17.614856 Si / 1000 Ang^3
#
#
#
# Elastic Constant Matrix: (Units=GPa)
#
#
# Indices 1 2 3 4 5 6 
#
# 1 56.1616 26.2231 12.7283 0.0000 0.0000 0.0000
# 2 26.2231 132.0288 18.7472 0.0000 0.0000 0.0000
# 3 12.7283 18.7472 58.3933 0.0000 0.0000 0.0000
# 4 0.0000 0.0000 0.0000 8.9616 0.0000 0.0000
# 5 0.0000 0.0000 0.0000 0.0000 18.0877 0.0000
# 6 0.0000 0.0000 0.0000 0.0000 0.0000 23.1721
#
#
#
# Elastic Compliance Matrix: (Units=1/GPa)
#
#
# Indices 1 2 3 4 5 6 
#
# 1 0.020203 -0.003549 -0.003264 0.000000 0.000000 0.000000
# 2 -0.003549 0.008559 -0.001974 0.000000 0.000000 0.000000
# 3 -0.003264 -0.001974 0.018471 0.000000 0.000000 0.000000
# 4 0.000000 0.000000 0.000000 0.111588 0.000000 0.000000
# 5 0.000000 0.000000 0.000000 0.000000 0.055286 0.000000
# 6 0.000000 0.000000 0.000000 0.000000 0.000000 0.043155
#
#
# Mechanical properties :
#
#
# Convention : Reuss Voigt Hill
#
# Bulk Modulus (GPa) = 33.71852 40.22009 36.96930
# Shear Modulus (GPa) = 17.56093 22.63663 20.09878
#
# Velocity S-wave (km/s) = 3.16086 3.58870 3.38155
# Velocity P-wave (km/s) = 5.70132 6.32885 6.02326
#
# Compressibility (1/GPa) = 0.02965729
#
# Stress axis : x y z
#
# Youngs Moduli (GPa) = 49.49834 116.83117 54.14001
#
# Poissons Ratio (x) = 0.41464 0.17673
# Poissons Ratio (y) = 0.17567 0.10689
# Poissons Ratio (z) = 0.16157 0.23067
#
# Static dielectric constant tensor:
#      x y z
#    x 1.613070 0.000000 0.000000 
#    y 0.000000 1.605670 0.000000 
#    z 0.000000 0.000000 1.599430 
# 
# From -- ./inp_files/5454.got.cif
#   From: 2010.05.17/outbox.cif.g08.bks.cpg/sg50_3_cif.got.tgz:5454.got - 2010.06.03 11:33:33.
