data_PCOD9396170
_publ_section_title
;
Structure prediction by ZEFSAII (Michael W. Deem and Ramdas Pophale) SiO2 
 PCOD9396170
Probable space group: P B A N
;
_chemical_formula_sum "Si O2"
_cell_formula_units_Z 44
_cell_length_a 17.400968
_cell_length_b 20.361000
_cell_length_c 5.124500
_cell_angle_alpha 90.000000
_cell_angle_beta 90.000000
_cell_angle_gamma 90.000000
_cell_volume 1815.616035
_symmetry_space_group_name_H-M "P B A N"
_symmetry_group_IT_number 50
_space_group.IT_coordinate_system_code '2'
_symmetry_cell_setting 'orthorhombic'
loop_
_space_group_symop_operation_xyz
x,y,z
1/2-x,1/2-y,z
x,1/2-y,-z
1/2-x,y,-z
-x,-y,-z
1/2+x,1/2+y,-z
-x,1/2+y,z
1/2+x,-y,z
loop_
_atom_site_type_symbol
_atom_site_label
_atom_site_fract_x
_atom_site_fract_y
_atom_site_fract_z
Si Si1 0.467565 0.051149 0.803408
Si Si2 0.839643 0.171471 0.039678
Si Si3 0.060577 0.637865 0.549425
Si Si4 0.250000 0.339502 0.000000
Si Si5 0.592318 0.652891 0.200555
Si Si6 0.678104 0.942030 0.410726
O O1 0.523094 0.071172 0.568025
O O2 0.384794 0.020642 0.744545
O O3 0.446074 0.120751 0.944316
O O4 0.500000 0.000000 0.000000
O O5 0.890477 0.137985 0.813394
O O6 0.842101 0.250000 0.000000
O O7 0.750000 0.151579 0.000000
O O8 0.881896 0.160330 0.318419
O O9 0.980935 0.677629 0.631671
O O10 0.171894 0.308713 0.129198
O O11 0.285226 0.385297 0.228149
O O12 0.629469 0.592705 0.363197
O O13 0.750000 0.983612 0.500000
#
# Coordination Sequence:
#
# PCOD9396170 Si02
#       6
#     8   8   8   4   8   8
#     4  10  20  34  58  85 127 173 208 253 328 397
#     4  11  24  44  71  95 124 169 222 286 355 413
#     4  11  21  39  64  96 129 158 221 270 330 406
#     4   8  14  28  50  82 115 150 204 248 291 356
#     4   9  17  32  55  86 122 160 206 260 301 375
#     4   8  15  27  49  74 110 151 211 261 289 350
#
# _framework density 24.234196000000001
#
# number of rings (size 3 to 8) (size 9 to 14) (size 15 to 20)
#    0.000    2.364    1.818    1.091    0.000    4.364 
#    0.000    0.000   16.000    0.000    0.000    0.636 
#   21.818    0.000    0.000    0.000    0.182    0.000 
#
# Total GULP energy -244981.205090 kJ/mol
# GULP energy per Si atom -5567.754661 kJ/mol
# Density = 2.417904 g / cm^3
# Si number density = 24.234196 Si / 1000 Ang^3
#
#
#
# Elastic Constant Matrix: (Units=GPa)
#
#
# Indices 1 2 3 4 5 6 
#
# 1 263.2276 37.0444 79.6217 0.0000 0.0000 0.0000
# 2 37.0444 43.8375 11.7488 0.0000 0.0000 0.0000
# 3 79.6217 11.7488 132.6601 0.0000 0.0000 0.0000
# 4 0.0000 0.0000 0.0000 21.8536 0.0000 0.0000
# 5 0.0000 0.0000 0.0000 0.0000 63.5563 0.0000
# 6 0.0000 0.0000 0.0000 0.0000 0.0000 766.3178
#
#
#
# Elastic Compliance Matrix: (Units=1/GPa)
#
#
# Indices 1 2 3 4 5 6 
#
# 1 0.005144 -0.003605 -0.002768 0.000000 0.000000 0.000000
# 2 -0.003605 0.025892 -0.000130 0.000000 0.000000 0.000000
# 3 -0.002768 -0.000130 0.009211 0.000000 0.000000 0.000000
# 4 0.000000 0.000000 0.000000 0.045759 0.000000 0.000000
# 5 0.000000 0.000000 0.000000 0.000000 0.015734 0.000000
# 6 0.000000 0.000000 0.000000 0.000000 0.000000 0.001305
#
#
# Mechanical properties :
#
#
# Convention : Reuss Voigt Hill
#
# Bulk Modulus (GPa) = 36.70753 77.39500 57.05126
# Shear Modulus (GPa) = 39.95850 191.09956 115.52903
#
# Velocity S-wave (km/s) = 4.06501 8.88969 6.91197
# Velocity P-wave (km/s) = 6.10018 11.72068 9.34309
#
# Compressibility (1/GPa) = 0.02724237
#
# Stress axis : x y z
#
# Youngs Moduli (GPa) = 194.41967 38.62144 108.56831
#
# Poissons Ratio (x) = 0.13922 0.30050
# Poissons Ratio (y) = 0.70082 0.01407
# Poissons Ratio (z) = 0.53813 0.00501
#
# Static dielectric constant tensor:
#      x y z
#    x 2.019250 0.000000 0.000000 
#    y 0.000000 1.960700 0.000000 
#    z 0.000000 0.000000 2.045710 
# 
# From -- ./inp_files/3495.got.cif
#   From: 2010.05.17/outbox.cif.g08.bks.cpg/sg50_2_cif.got.tgz:3495.got - 2010.06.03 11:33:33.
