data_PCOD9396792
_publ_section_title
;
Structure prediction by ZEFSAII (Michael W. Deem and Ramdas Pophale) SiO2 
 PCOD9396792
Probable space group: P B A N
;
_chemical_formula_sum "Si O2"
_cell_formula_units_Z 58
_cell_length_a 11.448272
_cell_length_b 8.924512
_cell_length_c 27.162082
_cell_angle_alpha 90.000000
_cell_angle_beta 90.000000
_cell_angle_gamma 90.000000
_cell_volume 2775.156460
_symmetry_space_group_name_H-M "P B A N"
_symmetry_group_IT_number 50
_space_group.IT_coordinate_system_code '2'
_symmetry_cell_setting 'orthorhombic'
loop_
_space_group_symop_operation_xyz
x,y,z
1/2-x,1/2-y,z
x,1/2-y,-z
1/2-x,y,-z
-x,-y,-z
1/2+x,1/2+y,-z
-x,1/2+y,z
1/2+x,-y,z
loop_
_atom_site_type_symbol
_atom_site_label
_atom_site_fract_x
_atom_site_fract_y
_atom_site_fract_z
Si Si1 0.250000 0.250000 0.000000
Si Si2 0.667417 0.061674 0.713644
Si Si3 0.861698 0.835407 0.905241
Si Si4 0.010232 0.897663 0.143175
Si Si5 0.623119 0.576483 0.518025
Si Si6 0.153968 0.846249 0.817696
Si Si7 0.977352 0.801073 0.317070
Si Si8 0.858994 0.972141 0.634265
O O1 0.173271 0.151348 0.037592
O O2 0.716318 0.098384 0.767407
O O3 0.580796 0.199300 0.703436
O O4 0.751440 0.038460 0.666492
O O5 0.590526 0.912108 0.718613
O O6 0.750000 0.750000 0.882097
O O7 0.894065 0.987114 0.877822
O O8 0.965859 0.716485 0.898577
O O9 0.907077 0.009118 0.159714
O O10 0.053338 0.782363 0.185411
O O11 0.616671 0.750000 0.500000
O O12 0.750000 0.514192 0.500000
O O13 0.500000 0.500000 0.500000
O O14 0.641282 0.559735 0.576591
O O15 0.250000 0.750000 0.847116
O O16 0.888029 0.685167 0.340455
O O17 0.035265 0.912071 0.356680
#
# Coordination Sequence:
#
# PCOD9396792 Si02
#       8
#     2   8   8   8   8   8   8   8
#     4   8  20  36  64  86 134 156 228 278 332 392
#     4  11  23  40  62  93 126 166 212 263 320 380
#     4   9  19  38  57  93 122 170 211 276 324 387
#     4  10  21  37  64  84 130 173 213 261 341 382
#     4  11  27  46  71 102 134 173 222 272 334 419
#     4  11  22  38  60  91 124 168 217 267 309 407
#     4  10  23  39  65  88 125 161 204 257 318 386
#     4  11  23  42  67  90 128 165 204 269 320 382
#
# _framework density 20.899723999999999
#
# number of rings (size 3 to 8) (size 9 to 14) (size 15 to 20)
#    0.414    1.241    0.000    4.138    7.724    1.931 
#    2.483    4.138    0.000    1.655    0.000    0.000 
#    0.000    0.000    0.000    0.000    0.000    0.000 
#
# Total GULP energy -322892.625234 kJ/mol
# GULP energy per Si atom -5567.114228 kJ/mol
# Density = 2.085216 g / cm^3
# Si number density = 20.899724 Si / 1000 Ang^3
#
#
#
# Elastic Constant Matrix: (Units=GPa)
#
#
# Indices 1 2 3 4 5 6 
#
# 1 82.1566 39.0443 29.2264 0.0000 0.0000 0.0000
# 2 39.0443 135.8980 39.5210 0.0000 0.0000 0.0000
# 3 29.2264 39.5210 101.1642 0.0000 0.0000 0.0000
# 4 0.0000 0.0000 0.0000 76.1106 0.0000 0.0000
# 5 0.0000 0.0000 0.0000 0.0000 32.4292 0.0000
# 6 0.0000 0.0000 0.0000 0.0000 0.0000 50.6508
#
#
#
# Elastic Compliance Matrix: (Units=1/GPa)
#
#
# Indices 1 2 3 4 5 6 
#
# 1 0.014842 -0.003404 -0.002958 0.000000 0.000000 0.000000
# 2 -0.003404 0.009082 -0.002565 0.000000 0.000000 0.000000
# 3 -0.002958 -0.002565 0.011741 0.000000 0.000000 0.000000
# 4 0.000000 0.000000 0.000000 0.013139 0.000000 0.000000
# 5 0.000000 0.000000 0.000000 0.000000 0.030836 0.000000
# 6 0.000000 0.000000 0.000000 0.000000 0.000000 0.019743
#
#
# Mechanical properties :
#
#
# Convention : Reuss Voigt Hill
#
# Bulk Modulus (GPa) = 56.14118 59.42247 57.78182
# Shear Modulus (GPa) = 40.59280 45.93326 43.26303
#
# Velocity S-wave (km/s) = 4.41189 4.69315 4.55469
# Velocity P-wave (km/s) = 7.27142 7.60667 7.44093
#
# Compressibility (1/GPa) = 0.01781224
#
# Stress axis : x y z
#
# Youngs Moduli (GPa) = 67.37702 110.10459 85.16841
#
# Poissons Ratio (x) = 0.37479 0.25193
# Poissons Ratio (y) = 0.22935 0.21843
# Poissons Ratio (z) = 0.19930 0.28239
#
# Static dielectric constant tensor:
#      x y z
#    x 1.869770 0.000000 0.000000 
#    y 0.000000 1.735200 0.000000 
#    z 0.000000 0.000000 1.769800 
# 
# From -- ./inp_files/32182.got.cif
#   From: 2010.05.17/outbox.cif.g08.bks.cpg/sg50_17_cif.got.tgz:32182.got - 2010.06.03 11:33:33.
