data_PCOD9396837
_publ_section_title
;
Structure prediction by ZEFSAII (Michael W. Deem and Ramdas Pophale) SiO2 
 PCOD9396837
Probable space group: P B A N
;
_chemical_formula_sum "Si O2"
_cell_formula_units_Z 48
_cell_length_a 27.974402
_cell_length_b 8.300535
_cell_length_c 9.674362
_cell_angle_alpha 90.000000
_cell_angle_beta 90.000000
_cell_angle_gamma 90.000000
_cell_volume 2246.411070
_symmetry_space_group_name_H-M "P B A N"
_symmetry_group_IT_number 50
_space_group.IT_coordinate_system_code '2'
_symmetry_cell_setting 'orthorhombic'
loop_
_space_group_symop_operation_xyz
x,y,z
1/2-x,1/2-y,z
x,1/2-y,-z
1/2-x,y,-z
-x,-y,-z
1/2+x,1/2+y,-z
-x,1/2+y,z
1/2+x,-y,z
loop_
_atom_site_type_symbol
_atom_site_label
_atom_site_fract_x
_atom_site_fract_y
_atom_site_fract_z
Si Si1 0.601596 0.438576 0.956951
Si Si2 0.605778 0.558430 0.499359
Si Si3 0.461153 0.883284 0.702665
Si Si4 0.205840 0.081542 0.083823
Si Si5 0.936929 0.012516 0.242488
Si Si6 0.792366 0.581864 0.412312
O O1 0.567531 0.469577 0.826822
O O2 0.655542 0.491178 0.928355
O O3 0.601488 0.250000 0.000000
O O4 0.577751 0.524814 0.087479
O O5 0.596948 0.750000 0.500000
O O6 0.562621 0.457536 0.566138
O O7 0.608559 0.518250 0.338383
O O8 0.654742 0.509790 0.573808
O O9 0.451221 0.696644 0.729856
O O10 0.517365 0.910858 0.711465
O O11 0.217337 0.100927 0.248274
O O12 0.199582 0.250000 0.000000
O O13 0.250000 0.001461 0.000000
O O14 0.797547 0.750000 0.500000
O O15 0.750000 0.497363 0.500000
#
# Coordination Sequence:
#
# PCOD9396837 Si02
#       6
#     8   8   8   8   8   8
#     4  10  24  42  62  90 127 163 200 256 311 364
#     4  11  23  38  63  92 123 164 204 253 305 362
#     4  11  22  44  59  93 121 163 208 254 308 364
#     4  11  23  38  67  97 124 160 208 253 303 365
#     4  11  24  38  67  85 126 163 205 256 305 367
#     4  10  21  38  62  92 130 156 201 253 306 356
#
# _framework density 21.367414
#
# number of rings (size 3 to 8) (size 9 to 14) (size 15 to 20)
#    0.000    1.333    1.667    4.500    7.000    1.667 
#    0.000    0.000    0.000    2.000    0.000    0.000 
#    0.000    0.000    0.000    0.000    0.000    0.000 
#
# Total GULP energy -267887.008386 kJ/mol
# GULP energy per Si atom -5580.979341 kJ/mol
# Density = 2.131878 g / cm^3
# Si number density = 21.367414 Si / 1000 Ang^3
#
#
#
# Elastic Constant Matrix: (Units=GPa)
#
#
# Indices 1 2 3 4 5 6 
#
# 1 95.3024 -6.9437 36.1900 0.0000 0.0000 0.0000
# 2 -6.9437 17.9764 2.1535 0.0000 0.0000 0.0000
# 3 36.1900 2.1535 155.6164 0.0000 0.0000 0.0000
# 4 0.0000 0.0000 0.0000 21.5965 0.0000 0.0000
# 5 0.0000 0.0000 0.0000 0.0000 48.8301 0.0000
# 6 0.0000 0.0000 0.0000 0.0000 0.0000 -239.1634
#
#
#
# Elastic Compliance Matrix: (Units=1/GPa)
#
#
# Indices 1 2 3 4 5 6 
#
# 1 0.011933 0.004950 -0.002844 0.000000 0.000000 0.000000
# 2 0.004950 0.057774 -0.001951 0.000000 0.000000 0.000000
# 3 -0.002844 -0.001951 0.007114 0.000000 0.000000 0.000000
# 4 0.000000 0.000000 0.000000 0.046304 0.000000 0.000000
# 5 0.000000 0.000000 0.000000 0.000000 0.020479 0.000000
# 6 0.000000 0.000000 0.000000 0.000000 0.000000 -0.004181
#
#
# Mechanical properties :
#
#
# Convention : Reuss Voigt Hill
#
# Bulk Modulus (GPa) = 12.96449 36.85495 24.90972
# Shear Modulus (GPa) = 30.33544 -17.91432 6.21056
#
# Velocity S-wave (km/s) = 3.77199 -2.89865 1.70671
# Velocity P-wave (km/s) = 5.00511 2.46633 3.94550
#
# Compressibility (1/GPa) = 0.07713375
#
# Stress axis : x y z
#
# Youngs Moduli (GPa) = 83.79793 17.30870 140.56016
#
# Poissons Ratio (x) = -0.08568 0.39972
# Poissons Ratio (y) = -0.41482 0.27419
# Poissons Ratio (z) = 0.23830 0.03376
#
# Static dielectric constant tensor:
#      x y z
#    x 1.798810 0.000000 0.000000 
#    y 0.000000 1.791580 0.000000 
#    z 0.000000 0.000000 1.785710 
# 
# From -- ./inp_files/16906.got.cif
#   From: 2010.05.17/outbox.cif.g08.bks.cpg/sg50_9_cif.got.tgz:16906.got - 2010.06.03 11:33:33.
