data_PCOD9396067
_publ_section_title
;
Structure prediction by ZEFSAII (Michael W. Deem and Ramdas Pophale) SiO2 
 PCOD9396067
Probable space group: P B A N
;
_chemical_formula_sum "Si O2"
_cell_formula_units_Z 52
_cell_length_a 22.395464
_cell_length_b 8.581122
_cell_length_c 15.525487
_cell_angle_alpha 90.000000
_cell_angle_beta 90.000000
_cell_angle_gamma 90.000000
_cell_volume 2983.660283
_symmetry_space_group_name_H-M "P B A N"
_symmetry_group_IT_number 50
_space_group.IT_coordinate_system_code '2'
_symmetry_cell_setting 'orthorhombic'
loop_
_space_group_symop_operation_xyz
x,y,z
1/2-x,1/2-y,z
x,1/2-y,-z
1/2-x,y,-z
-x,-y,-z
1/2+x,1/2+y,-z
-x,1/2+y,z
1/2+x,-y,z
loop_
_atom_site_type_symbol
_atom_site_label
_atom_site_fract_x
_atom_site_fract_y
_atom_site_fract_z
Si Si1 0.806525 0.042294 0.283323
Si Si2 0.582159 0.020832 0.415476
Si Si3 0.332526 0.594685 0.264681
Si Si4 0.992381 0.750000 0.500000
Si Si5 0.684084 0.571215 0.469294
Si Si6 0.820966 0.582328 0.899570
Si Si7 0.323259 0.447023 0.087315
O O1 0.734070 0.025228 0.280536
O O2 0.824084 0.223827 0.288202
O O3 0.824772 0.947522 0.367674
O O4 0.834803 0.985270 0.193785
O O5 0.615428 0.025044 0.324118
O O6 0.534335 0.154210 0.434872
O O7 0.548204 0.863418 0.442566
O O8 0.636042 0.034357 0.483326
O O9 0.344572 0.557809 0.164166
O O10 0.677392 0.750000 0.500000
O O11 0.750000 0.521971 0.500000
O O12 0.749185 0.557765 0.907976
O O13 0.837894 0.764656 0.898544
O O14 0.843442 0.511441 0.990216
#
# Coordination Sequence:
#
# PCOD9396067 Si02
#       7
#     8   8   8   4   8   8   8
#     4  10  20  31  46  77 110 149 171 208 268 330
#     4  11  21  40  53  77 101 143 182 238 263 331
#     4  10  20  32  50  74 110 138 179 218 268 326
#     4  10  24  38  58  68 102 142 198 234 282 292
#     4  11  22  33  53  80 108 143 180 220 273 332
#     4   8  15  27  45  67 107 142 182 203 242 322
#     4   8  15  27  45  71  99 147 175 212 250 303
#
# _framework density 17.428258
#
# number of rings (size 3 to 8) (size 9 to 14) (size 15 to 20)
#    0.000    2.308    2.308    1.846    2.154    1.846 
#    0.000    3.077    0.000    0.000    0.000    0.000 
#    0.000   41.846    0.000    0.000    0.000    0.000 
#
# Total GULP energy -289594.262816 kJ/mol
# GULP energy per Si atom -5569.120439 kJ/mol
# Density = 1.738859 g / cm^3
# Si number density = 17.428258 Si / 1000 Ang^3
#
#
#
# Elastic Constant Matrix: (Units=GPa)
#
#
# Indices 1 2 3 4 5 6 
#
# 1 66.2684 25.7640 28.3368 0.0000 0.0000 0.0000
# 2 25.7640 50.8308 49.0325 0.0000 0.0000 0.0000
# 3 28.3368 49.0325 166.7420 0.0000 0.0000 0.0000
# 4 0.0000 0.0000 0.0000 0.6517 0.0000 0.0000
# 5 0.0000 0.0000 0.0000 0.0000 20.8686 0.0000
# 6 0.0000 0.0000 0.0000 0.0000 0.0000 -1.8249
#
#
#
# Elastic Compliance Matrix: (Units=1/GPa)
#
#
# Indices 1 2 3 4 5 6 
#
# 1 0.018830 -0.009014 -0.000549 0.000000 0.000000 0.000000
# 2 -0.009014 0.031779 -0.007813 0.000000 0.000000 0.000000
# 3 -0.000549 -0.007813 0.008388 0.000000 0.000000 0.000000
# 4 0.000000 0.000000 0.000000 1.534451 0.000000 0.000000
# 5 0.000000 0.000000 0.000000 0.000000 0.047919 0.000000
# 6 0.000000 0.000000 0.000000 0.000000 0.000000 -0.547965
#
#
# Mechanical properties :
#
#
# Convention : Reuss Voigt Hill
#
# Bulk Modulus (GPa) = 41.24803 54.45642 47.85222
# Shear Modulus (GPa) = 4.40050 15.98627 10.19339
#
# Velocity S-wave (km/s) = 1.59072 3.03192 2.42105
# Velocity P-wave (km/s) = 5.20505 6.60080 5.94404
#
# Compressibility (1/GPa) = 0.02424358
#
# Stress axis : x y z
#
# Youngs Moduli (GPa) = 53.10811 31.46780 119.21602
#
# Poissons Ratio (x) = 0.28365 0.06548
# Poissons Ratio (y) = 0.47872 0.93143
# Poissons Ratio (z) = 0.02917 0.24586
#
# Static dielectric constant tensor:
#      x y z
#    x 1.577360 0.000000 0.000000 
#    y 0.000000 1.620870 0.000000 
#    z 0.000000 0.000000 1.629790 
# 
# From -- ./inp_files/27445.got.cif
#   From: 2010.05.17/outbox.cif.g08.bks.cpg/sg50_14_cif.got.tgz:27445.got - 2010.06.03 11:33:33.
