data_PCOD9396818
_publ_section_title
;
Structure prediction by ZEFSAII (Michael W. Deem and Ramdas Pophale) SiO2 
 PCOD9396818
Probable space group: P B A N
;
_chemical_formula_sum "Si O2"
_cell_formula_units_Z 38
_cell_length_a 12.416804
_cell_length_b 5.342754
_cell_length_c 23.870238
_cell_angle_alpha 90.000000
_cell_angle_beta 90.000000
_cell_angle_gamma 90.000000
_cell_volume 1583.549900
_symmetry_space_group_name_H-M "P B A N"
_symmetry_group_IT_number 50
_space_group.IT_coordinate_system_code '2'
_symmetry_cell_setting 'orthorhombic'
loop_
_space_group_symop_operation_xyz
x,y,z
1/2-x,1/2-y,z
x,1/2-y,-z
1/2-x,y,-z
-x,-y,-z
1/2+x,1/2+y,-z
-x,1/2+y,z
1/2+x,-y,z
loop_
_atom_site_type_symbol
_atom_site_label
_atom_site_fract_x
_atom_site_fract_y
_atom_site_fract_z
Si Si1 0.750000 0.750000 0.500000
Si Si2 0.429427 0.250000 0.000000
Si Si3 0.018320 0.809043 0.184709
Si Si4 0.574709 0.951011 0.581837
Si Si5 0.442389 0.204299 0.305449
Si Si6 0.250000 0.750000 0.830192
Si Si7 0.750000 0.750000 0.905347
O O1 0.669382 0.916690 0.537450
O O2 0.351807 0.256386 0.053802
O O3 0.500000 0.500000 0.000000
O O4 0.141107 0.785863 0.204400
O O5 0.994245 0.560864 0.151500
O O6 0.937098 0.812611 0.237862
O O7 0.489926 0.714502 0.576198
O O8 0.627967 0.904945 0.644041
O O9 0.461103 0.498871 0.314762
O O10 0.257623 0.500058 0.867642
#
# Coordination Sequence:
#
# PCOD9396818 Si02
#       7
#     2   4   8   8   8   4   4
#     4  12  24  38  64  90 116 160 200 250 332 366
#     4  11  24  45  70  92 128 177 210 251 312 366
#     4  10  21  38  59  86 122 162 204 251 305 368
#     4  10  22  40  59  86 121 151 195 255 304 372
#     4   8  16  35  56  77 113 153 191 244 296 353
#     4  12  24  39  62  94 128 163 204 262 314 356
#     4  11  26  42  62 101 132 157 218 263 292 370
#
# _framework density 23.996718999999999
#
# number of rings (size 3 to 8) (size 9 to 14) (size 15 to 20)
#    0.000    1.895    0.000    3.158    0.000    8.421 
#    0.000   18.947    0.000    0.000    0.000    0.000 
#    0.000    0.000    0.000    0.000    0.000    0.000 
#
# Total GULP energy -211617.629580 kJ/mol
# GULP energy per Si atom -5568.884989 kJ/mol
# Density = 2.394210 g / cm^3
# Si number density = 23.996719 Si / 1000 Ang^3
#
#
#
# Elastic Constant Matrix: (Units=GPa)
#
#
# Indices 1 2 3 4 5 6 
#
# 1 87.5680 50.0849 38.1100 0.0000 0.0000 0.0000
# 2 50.0849 223.2955 40.7255 0.0000 0.0000 0.0000
# 3 38.1100 40.7255 112.3041 0.0000 0.0000 0.0000
# 4 0.0000 0.0000 0.0000 21.6676 0.0000 0.0000
# 5 0.0000 0.0000 0.0000 0.0000 12.4535 0.0000
# 6 0.0000 0.0000 0.0000 0.0000 0.0000 20.4011
#
#
#
# Elastic Compliance Matrix: (Units=1/GPa)
#
#
# Indices 1 2 3 4 5 6 
#
# 1 0.014635 -0.002545 -0.004043 0.000000 0.000000 0.000000
# 2 -0.002545 0.005238 -0.001036 0.000000 0.000000 0.000000
# 3 -0.004043 -0.001036 0.010652 0.000000 0.000000 0.000000
# 4 0.000000 0.000000 0.000000 0.046152 0.000000 0.000000
# 5 0.000000 0.000000 0.000000 0.000000 0.080298 0.000000
# 6 0.000000 0.000000 0.000000 0.000000 0.000000 0.049017
#
#
# Mechanical properties :
#
#
# Convention : Reuss Voigt Hill
#
# Bulk Modulus (GPa) = 65.45971 75.66759 70.56365
# Shear Modulus (GPa) = 22.09126 30.52093 26.30610
#
# Velocity S-wave (km/s) = 3.03742 3.57021 3.31454
# Velocity P-wave (km/s) = 6.29596 6.97109 6.64211
#
# Compressibility (1/GPa) = 0.01527657
#
# Stress axis : x y z
#
# Youngs Moduli (GPa) = 68.32868 190.90623 93.87781
#
# Poissons Ratio (x) = 0.48589 0.37959
# Poissons Ratio (y) = 0.17391 0.09724
# Poissons Ratio (z) = 0.27628 0.19775
#
# Static dielectric constant tensor:
#      x y z
#    x 1.959560 0.000000 0.000000 
#    y 0.000000 1.983010 0.000000 
#    z 0.000000 0.000000 1.996690 
# 
# From -- ./inp_files/32168.got.cif
#   From: 2010.05.17/outbox.cif.g08.bks.cpg/sg50_17_cif.got.tgz:32168.got - 2010.06.03 11:33:33.
