data_PCOD9396029
_publ_section_title
;
Structure prediction by ZEFSAII (Michael W. Deem and Ramdas Pophale) SiO2 
 PCOD9396029
Probable space group: P B A N
;
_chemical_formula_sum "Si O2"
_cell_formula_units_Z 64
_cell_length_a 11.532780
_cell_length_b 21.412907
_cell_length_c 11.423045
_cell_angle_alpha 90.000000
_cell_angle_beta 90.000000
_cell_angle_gamma 90.000000
_cell_volume 2820.924910
_symmetry_space_group_name_H-M "P B A N"
_symmetry_group_IT_number 50
_space_group.IT_coordinate_system_code '2'
_symmetry_cell_setting 'orthorhombic'
loop_
_space_group_symop_operation_xyz
x,y,z
1/2-x,1/2-y,z
x,1/2-y,-z
1/2-x,y,-z
-x,-y,-z
1/2+x,1/2+y,-z
-x,1/2+y,z
1/2+x,-y,z
loop_
_atom_site_type_symbol
_atom_site_label
_atom_site_fract_x
_atom_site_fract_y
_atom_site_fract_z
Si Si1 0.744812 0.822992 0.704541
Si Si2 0.148927 0.980208 0.591842
Si Si3 0.338140 0.921858 0.163728
Si Si4 0.921484 0.092945 0.918927
Si Si5 0.496546 0.684792 0.723285
Si Si6 0.382161 0.659576 0.499076
Si Si7 0.967939 0.906034 0.328450
Si Si8 0.074434 0.291668 0.104558
O O1 0.750000 0.750000 0.662255
O O2 0.875942 0.845536 0.709544
O O3 0.653376 0.869596 0.646261
O O4 0.685769 0.820648 0.832509
O O5 0.250000 0.999104 0.500000
O O6 0.181905 0.970901 0.730055
O O7 0.117407 0.910353 0.554126
O O8 0.047384 0.030613 0.600218
O O9 0.209852 0.901178 0.125914
O O10 0.409559 0.863069 0.214558
O O11 0.406221 0.942272 0.044230
O O12 0.997334 0.074291 0.804001
O O13 0.982844 0.158942 0.943951
O O14 0.452670 0.699546 0.592773
O O15 0.515121 0.746853 0.799171
O O16 0.250000 0.680017 0.500000
O O17 0.437040 0.643525 0.374059
O O18 0.114386 0.250000 0.000000
#
# Coordination Sequence:
#
# PCOD9396029 Si02
#       8
#     8   8   8   8   8   8   8   8
#     4   9  22  39  60  92 126 168 206 263 323 381
#     4  10  22  39  66  93 122 168 219 272 333 394
#     4  10  21  40  60  90 133 161 211 278 328 383
#     4  10  21  39  64  90 128 171 210 267 333 385
#     4  10  20  37  60  92 126 162 214 262 324 379
#     4  10  22  41  64  91 125 168 209 277 328 382
#     4  11  22  40  66  93 125 168 224 263 328 412
#     4  10  19  38  63  94 124 172 218 263 319 399
#
# _framework density 22.687593
#
# number of rings (size 3 to 8) (size 9 to 14) (size 15 to 20)
#    0.000    2.000    1.250    2.625    1.750    3.250 
#    4.500    8.750    0.000   12.000    0.000    0.000 
#    0.000    0.000    0.000    0.000    0.000    0.000 
#
# Total GULP energy -356732.683830 kJ/mol
# GULP energy per Si atom -5573.948185 kJ/mol
# Density = 2.263595 g / cm^3
# Si number density = 22.687593 Si / 1000 Ang^3
#
#
#
# Elastic Constant Matrix: (Units=GPa)
#
#
# Indices 1 2 3 4 5 6 
#
# 1 90.3798 22.6851 36.5514 0.0000 0.0000 0.0000
# 2 22.6851 36.9434 29.0812 0.0000 0.0000 0.0000
# 3 36.5514 29.0812 139.2167 0.0000 0.0000 0.0000
# 4 0.0000 0.0000 0.0000 50.6745 0.0000 0.0000
# 5 0.0000 0.0000 0.0000 0.0000 9.8135 0.0000
# 6 0.0000 0.0000 0.0000 0.0000 0.0000 26.2828
#
#
#
# Elastic Compliance Matrix: (Units=1/GPa)
#
#
# Indices 1 2 3 4 5 6 
#
# 1 0.013615 -0.006638 -0.002188 0.000000 0.000000 0.000000
# 2 -0.006638 0.035632 -0.005700 0.000000 0.000000 0.000000
# 3 -0.002188 -0.005700 0.008948 0.000000 0.000000 0.000000
# 4 0.000000 0.000000 0.000000 0.019734 0.000000 0.000000
# 5 0.000000 0.000000 0.000000 0.000000 0.101900 0.000000
# 6 0.000000 0.000000 0.000000 0.000000 0.000000 0.038048
#
#
# Mechanical properties :
#
#
# Convention : Reuss Voigt Hill
#
# Bulk Modulus (GPa) = 34.31427 49.24169 41.77798
# Shear Modulus (GPa) = 19.48219 29.23565 24.35892
#
# Velocity S-wave (km/s) = 2.93356 3.59363 3.28024
# Velocity P-wave (km/s) = 5.16061 6.24261 5.72722
#
# Compressibility (1/GPa) = 0.02914239
#
# Stress axis : x y z
#
# Youngs Moduli (GPa) = 73.44574 28.06483 111.75331
#
# Poissons Ratio (x) = 0.18630 0.24453
# Poissons Ratio (y) = 0.48754 0.63703
# Poissons Ratio (z) = 0.16071 0.15998
#
# Static dielectric constant tensor:
#      x y z
#    x 1.861030 0.000000 0.000000 
#    y 0.000000 1.903210 0.000000 
#    z 0.000000 0.000000 1.931940 
# 
# From -- ./inp_files/20548.got.cif
#   From: 2010.05.17/outbox.cif.g08.bks.cpg/sg50_11_cif.got.tgz:20548.got - 2010.06.03 11:33:33.
