data_PCOD9396588
_publ_section_title
;
Structure prediction by ZEFSAII (Michael W. Deem and Ramdas Pophale) SiO2 
 PCOD9396588
Probable space group: P B A N
;
_chemical_formula_sum "Si O2"
_cell_formula_units_Z 24
_cell_length_a 19.304966
_cell_length_b 4.861206
_cell_length_c 13.157241
_cell_angle_alpha 90.000000
_cell_angle_beta 90.000000
_cell_angle_gamma 90.000000
_cell_volume 1234.746762
_symmetry_space_group_name_H-M "P B A N"
_symmetry_group_IT_number 50
_space_group.IT_coordinate_system_code '2'
_symmetry_cell_setting 'orthorhombic'
loop_
_space_group_symop_operation_xyz
x,y,z
1/2-x,1/2-y,z
x,1/2-y,-z
1/2-x,y,-z
-x,-y,-z
1/2+x,1/2+y,-z
-x,1/2+y,z
1/2+x,-y,z
loop_
_atom_site_type_symbol
_atom_site_label
_atom_site_fract_x
_atom_site_fract_y
_atom_site_fract_z
Si Si1 0.750000 0.250000 0.000000
Si Si2 0.316412 0.556594 0.315136
Si Si3 0.750000 0.750000 0.500000
Si Si4 0.750000 0.750000 0.145292
Si Si5 0.954760 0.310694 0.618826
O O1 0.723418 0.486813 0.079678
O O2 0.250000 0.750000 0.301598
O O3 0.300047 0.414006 0.423499
O O4 0.310741 0.349401 0.220969
O O5 0.387599 0.718506 0.320680
O O6 0.939763 0.250000 0.500000
O O7 0.978068 0.620458 0.638778
#
# Coordination Sequence:
#
# PCOD9396588 Si02
#       5
#     2   8   2   4   8
#     4  10  20  42  56  96 116 138 176 278 306 368
#     4  11  22  37  57  90 119 161 200 242 287 360
#     4  10  22  30  56  84 128 156 194 248 284 328
#     4  10  22  36  66  86 120 140 198 238 330 344
#     4  10  23  36  53  79 122 170 204 235 277 335
#
# _framework density 19.437186000000001
#
# number of rings (size 3 to 8) (size 9 to 14) (size 15 to 20)
#    0.000    1.667    1.667    2.500   16.333    0.000 
#    0.000    0.000    0.000    0.000    0.000   23.333 
#    0.000    0.000    0.000    0.000    0.000    0.000 
#
# Total GULP energy -133707.464035 kJ/mol
# GULP energy per Si atom -5571.144335 kJ/mol
# Density = 1.939295 g / cm^3
# Si number density = 19.437186 Si / 1000 Ang^3
#
#
#
# Elastic Constant Matrix: (Units=GPa)
#
#
# Indices 1 2 3 4 5 6 
#
# 1 75.3729 7.8474 23.0168 0.0000 0.0000 0.0000
# 2 7.8474 89.6836 37.8553 0.0000 0.0000 0.0000
# 3 23.0168 37.8553 103.0540 0.0000 0.0000 0.0000
# 4 0.0000 0.0000 0.0000 31.5871 0.0000 0.0000
# 5 0.0000 0.0000 0.0000 0.0000 -5.3025 0.0000
# 6 0.0000 0.0000 0.0000 0.0000 0.0000 20.6899
#
#
#
# Elastic Compliance Matrix: (Units=1/GPa)
#
#
# Indices 1 2 3 4 5 6 
#
# 1 0.014239 0.000114 -0.003222 0.000000 0.000000 0.000000
# 2 0.000114 0.013197 -0.004873 0.000000 0.000000 0.000000
# 3 -0.003222 -0.004873 0.012213 0.000000 0.000000 0.000000
# 4 0.000000 0.000000 0.000000 0.031659 0.000000 0.000000
# 5 0.000000 0.000000 0.000000 0.000000 -0.188592 0.000000
# 6 0.000000 0.000000 0.000000 0.000000 0.000000 0.048333
#
#
# Mechanical properties :
#
#
# Convention : Reuss Voigt Hill
#
# Bulk Modulus (GPa) = 42.21656 45.06106 43.63881
# Shear Modulus (GPa) = -110.88535 22.68763 -44.09886
#
# Velocity S-wave (km/s) = -7.56121 3.42018 -4.76835
# Velocity P-wave (km/s) = 7.37988 6.23138 2.79575
#
# Compressibility (1/GPa) = 0.02368739
#
# Stress axis : x y z
#
# Youngs Moduli (GPa) = 70.22727 75.77277 81.87672
#
# Poissons Ratio (x) = -0.00865 0.26383
# Poissons Ratio (y) = -0.00802 0.39901
# Poissons Ratio (z) = 0.22629 0.36927
#
# Static dielectric constant tensor:
#      x y z
#    x 1.652290 0.000000 0.000000 
#    y 0.000000 1.812140 0.000000 
#    z 0.000000 0.000000 1.751170 
# 
# From -- ./inp_files/17393.got.cif
#   From: 2010.05.17/outbox.cif.g08.bks.cpg/sg50_9_cif.got.tgz:17393.got - 2010.06.03 11:33:33.
