data_PCOD9396467
_publ_section_title
;
Structure prediction by ZEFSAII (Michael W. Deem and Ramdas Pophale) SiO2 
 PCOD9396467
Probable space group: P B A N
;
_chemical_formula_sum "Si O2"
_cell_formula_units_Z 32
_cell_length_a 14.428389
_cell_length_b 8.343676
_cell_length_c 12.814415
_cell_angle_alpha 90.000000
_cell_angle_beta 90.000000
_cell_angle_gamma 90.000000
_cell_volume 1542.673640
_symmetry_space_group_name_H-M "P B A N"
_symmetry_group_IT_number 50
_space_group.IT_coordinate_system_code '2'
_symmetry_cell_setting 'orthorhombic'
loop_
_space_group_symop_operation_xyz
x,y,z
1/2-x,1/2-y,z
x,1/2-y,-z
1/2-x,y,-z
-x,-y,-z
1/2+x,1/2+y,-z
-x,1/2+y,z
1/2+x,-y,z
loop_
_atom_site_type_symbol
_atom_site_label
_atom_site_fract_x
_atom_site_fract_y
_atom_site_fract_z
Si Si1 0.553032 0.250000 0.500000
Si Si2 0.900139 0.548613 0.621415
Si Si3 0.250000 0.750000 0.000000
Si Si4 0.250000 0.250000 0.500000
Si Si5 0.351419 0.304467 0.831560
Si Si6 0.893824 0.514921 0.039447
O O1 0.604419 0.366977 0.419282
O O2 0.489677 0.134384 0.428829
O O3 0.814119 0.640228 0.570936
O O4 0.898420 0.587227 0.743815
O O5 0.325719 0.636634 0.060765
O O6 0.250000 0.250000 0.796865
O O7 0.399470 0.137604 0.863967
O O8 0.345578 0.402210 0.939119
O O9 0.000000 0.500000 0.000000
#
# Coordination Sequence:
#
# PCOD9396467 Si02
#       6
#     4   8   2   2   8   8
#     4   9  22  42  60  93 132 160 224 285 340 420
#     4  10  21  40  66  90 126 174 214 284 349 410
#     4  12  20  42  64  90 140 184 240 296 340 420
#     4  10  20  38  64  92 120 168 216 270 344 404
#     4  11  21  43  64  89 136 181 219 282 360 416
#     4  11  24  41  64  98 138 183 237 297 355 430
#
# _framework density 20.743206000000001
#
# number of rings (size 3 to 8) (size 9 to 14) (size 15 to 20)
#    0.000    1.500    3.750    2.250    3.500    0.500 
#    0.000    2.500    0.000    0.000    0.000    0.000 
#    0.000    0.000    0.000    0.000    0.000    0.000 
#
# Total GULP energy -178295.029402 kJ/mol
# GULP energy per Si atom -5571.719669 kJ/mol
# Density = 2.069599 g / cm^3
# Si number density = 20.743206 Si / 1000 Ang^3
#
#
#
# Elastic Constant Matrix: (Units=GPa)
#
#
# Indices 1 2 3 4 5 6 
#
# 1 96.0259 45.8236 18.7802 0.0000 0.0000 0.0000
# 2 45.8236 131.3422 48.8682 0.0000 0.0000 0.0000
# 3 18.7802 48.8682 112.4254 0.0000 0.0000 0.0000
# 4 0.0000 0.0000 0.0000 42.1203 0.0000 0.0000
# 5 0.0000 0.0000 0.0000 0.0000 63.8095 0.0000
# 6 0.0000 0.0000 0.0000 0.0000 0.0000 98.3770
#
#
#
# Elastic Compliance Matrix: (Units=1/GPa)
#
#
# Indices 1 2 3 4 5 6 
#
# 1 0.012499 -0.004275 -0.000230 0.000000 0.000000 0.000000
# 2 -0.004275 0.010545 -0.003869 0.000000 0.000000 0.000000
# 3 -0.000230 -0.003869 0.010615 0.000000 0.000000 0.000000
# 4 0.000000 0.000000 0.000000 0.023742 0.000000 0.000000
# 5 0.000000 0.000000 0.000000 0.000000 0.015672 0.000000
# 6 0.000000 0.000000 0.000000 0.000000 0.000000 0.010165
#
#
# Mechanical properties :
#
#
# Convention : Reuss Voigt Hill
#
# Bulk Modulus (GPa) = 59.13514 62.97082 61.05298
# Shear Modulus (GPa) = 47.33839 55.94946 51.64393
#
# Velocity S-wave (km/s) = 4.78233 5.19913 4.99508
# Velocity P-wave (km/s) = 7.68533 8.15258 7.92240
#
# Compressibility (1/GPa) = 0.01691042
#
# Stress axis : x y z
#
# Youngs Moduli (GPa) = 80.00683 94.83174 94.20569
#
# Poissons Ratio (x) = 0.40544 0.02162
# Poissons Ratio (y) = 0.34205 0.36452
# Poissons Ratio (z) = 0.01836 0.36695
#
# Static dielectric constant tensor:
#      x y z
#    x 1.790380 0.000000 0.000000 
#    y 0.000000 1.806940 0.000000 
#    z 0.000000 0.000000 1.744600 
# 
# From -- ./inp_files/18447.got.cif
#   From: 2010.05.17/outbox.cif.g08.bks.cpg/sg50_10_cif.got.tgz:18447.got - 2010.06.03 11:33:33.
