data_PCOD9396746
_publ_section_title
;
Structure prediction by ZEFSAII (Michael W. Deem and Ramdas Pophale) SiO2 
 PCOD9396746
Probable space group: P B A N
;
_chemical_formula_sum "Si O2"
_cell_formula_units_Z 56
_cell_length_a 14.191572
_cell_length_b 9.994897
_cell_length_c 20.363221
_cell_angle_alpha 90.000000
_cell_angle_beta 90.000000
_cell_angle_gamma 90.000000
_cell_volume 2888.386474
_symmetry_space_group_name_H-M "P B A N"
_symmetry_group_IT_number 50
_space_group.IT_coordinate_system_code '2'
_symmetry_cell_setting 'orthorhombic'
loop_
_space_group_symop_operation_xyz
x,y,z
1/2-x,1/2-y,z
x,1/2-y,-z
1/2-x,y,-z
-x,-y,-z
1/2+x,1/2+y,-z
-x,1/2+y,z
1/2+x,-y,z
loop_
_atom_site_type_symbol
_atom_site_label
_atom_site_fract_x
_atom_site_fract_y
_atom_site_fract_z
Si Si1 0.749451 0.906854 0.609036
Si Si2 0.390386 0.952401 0.844916
Si Si3 0.889977 0.295433 0.929522
Si Si4 0.409599 0.094358 0.501524
Si Si5 0.383695 0.038129 0.153565
Si Si6 0.618325 0.708332 0.926616
Si Si7 0.747873 0.412547 0.263180
O O1 0.750000 0.750000 0.630865
O O2 0.660595 0.925002 0.560248
O O3 0.843584 0.927128 0.565391
O O4 0.743256 0.012121 0.667646
O O5 0.503133 0.960430 0.837825
O O6 0.358480 0.063271 0.897800
O O7 0.361043 0.810149 0.874691
O O8 0.340829 0.962610 0.775280
O O9 0.862413 0.442254 0.908162
O O10 0.004039 0.290085 0.930403
O O11 0.856391 0.250000 0.000000
O O12 0.438911 0.250000 0.500000
O O13 0.500000 0.000000 0.500000
O O14 0.334915 0.971031 0.216218
O O15 0.353994 0.184248 0.129064
O O16 0.649175 0.750000 0.000000
O O17 0.750000 0.250000 0.268423
#
# Coordination Sequence:
#
# PCOD9396746 Si02
#       7
#     8   8   8   8   8   8   8
#     4   9  22  42  64  91 129 167 195 235 286 339
#     4  10  21  37  56  82 115 151 198 253 308 362
#     4   9  16  33  57  79 108 149 193 251 318 365
#     4   9  19  41  70 102 130 157 197 237 282 336
#     4  10  21  37  56  82 115 151 198 253 308 362
#     4   9  18  33  57  81 106 147 199 253 314 375
#     4  12  25  41  58  85 123 163 204 241 289 353
#
# _framework density 19.387986000000001
#
# number of rings (size 3 to 8) (size 9 to 14) (size 15 to 20)
#    0.000    2.286    1.429    1.714    2.000    5.714 
#    0.000    8.571    0.000    0.000    0.000    0.000 
#    0.000    0.000    0.000    0.000    0.000    0.000 
#
# Total GULP energy -312563.413927 kJ/mol
# GULP energy per Si atom -5581.489534 kJ/mol
# Density = 1.934386 g / cm^3
# Si number density = 19.387986 Si / 1000 Ang^3
#
#
#
# Elastic Constant Matrix: (Units=GPa)
#
#
# Indices 1 2 3 4 5 6 
#
# 1 108.7538 46.3088 27.4235 0.0000 0.0000 0.0000
# 2 46.3088 99.3935 46.4791 0.0000 0.0000 0.0000
# 3 27.4235 46.4791 108.1325 0.0000 0.0000 0.0000
# 4 0.0000 0.0000 0.0000 36.7127 0.0000 0.0000
# 5 0.0000 0.0000 0.0000 0.0000 10.7372 0.0000
# 6 0.0000 0.0000 0.0000 0.0000 0.0000 27.6913
#
#
#
# Elastic Compliance Matrix: (Units=1/GPa)
#
#
# Indices 1 2 3 4 5 6 
#
# 1 0.011522 -0.005008 -0.000769 0.000000 0.000000 0.000000
# 2 -0.005008 0.014769 -0.005078 0.000000 0.000000 0.000000
# 3 -0.000769 -0.005078 0.011626 0.000000 0.000000 0.000000
# 4 0.000000 0.000000 0.000000 0.027239 0.000000 0.000000
# 5 0.000000 0.000000 0.000000 0.000000 0.093134 0.000000
# 6 0.000000 0.000000 0.000000 0.000000 0.000000 0.036112
#
#
# Mechanical properties :
#
#
# Convention : Reuss Voigt Hill
#
# Bulk Modulus (GPa) = 61.70898 61.85587 61.78243
# Shear Modulus (GPa) = 22.57184 28.09947 25.33565
#
# Velocity S-wave (km/s) = 3.41577 3.81113 3.61885
# Velocity P-wave (km/s) = 6.88870 7.16518 7.02830
#
# Compressibility (1/GPa) = 0.01620510
#
# Stress axis : x y z
#
# Youngs Moduli (GPa) = 86.79284 67.70866 86.01597
#
# Poissons Ratio (x) = 0.33911 0.06617
# Poissons Ratio (y) = 0.43469 0.43680
# Poissons Ratio (z) = 0.06676 0.34383
#
# Static dielectric constant tensor:
#      x y z
#    x 1.717760 0.000000 0.000000 
#    y 0.000000 1.661660 0.000000 
#    z 0.000000 0.000000 1.634250 
# 
# From -- ./inp_files/30983.got.cif
#   From: 2010.05.17/outbox.cif.g08.bks.cpg/sg50_16_cif.got.tgz:30983.got - 2010.06.03 11:33:33.
