data_PCOD9396888
_publ_section_title
;
Structure prediction by ZEFSAII (Michael W. Deem and Ramdas Pophale) SiO2 
 PCOD9396888
Probable space group: P B A N
;
_chemical_formula_sum "Si O2"
_cell_formula_units_Z 34
_cell_length_a 8.619474
_cell_length_b 10.438423
_cell_length_c 18.158705
_cell_angle_alpha 90.000000
_cell_angle_beta 90.000000
_cell_angle_gamma 90.000000
_cell_volume 1633.806160
_symmetry_space_group_name_H-M "P B A N"
_symmetry_group_IT_number 50
_space_group.IT_coordinate_system_code '2'
_symmetry_cell_setting 'orthorhombic'
loop_
_space_group_symop_operation_xyz
x,y,z
1/2-x,1/2-y,z
x,1/2-y,-z
1/2-x,y,-z
-x,-y,-z
1/2+x,1/2+y,-z
-x,1/2+y,z
1/2+x,-y,z
loop_
_atom_site_type_symbol
_atom_site_label
_atom_site_fract_x
_atom_site_fract_y
_atom_site_fract_z
Si Si1 0.545287 0.635889 0.804411
Si Si2 0.817385 0.384153 0.582015
Si Si3 0.609003 0.609851 0.134118
Si Si4 0.250000 0.250000 0.000000
Si Si5 0.858102 0.875584 0.640306
O O1 0.503983 0.780863 0.827353
O O2 0.724376 0.616738 0.826873
O O3 0.454705 0.530188 0.850901
O O4 0.547340 0.618629 0.717095
O O5 0.750000 0.250000 0.611667
O O6 0.750000 0.398950 0.500000
O O7 0.752079 0.502719 0.628571
O O8 0.003639 0.376567 0.580845
O O9 0.644277 0.659783 0.051822
O O10 0.750000 0.750000 0.638698
#
# Coordination Sequence:
#
# PCOD9396888 Si02
#       5
#     8   8   8   2   8
#     4  10  22  39  60  97 126 164 213 270 315 379
#     4  11  26  43  63  96 130 169 221 269 330 400
#     4  10  21  39  62  91 135 159 219 257 316 386
#     4   8  20  40  64  92 128 184 198 268 320 376
#     4  12  23  43  69  94 131 174 217 274 338 388
#
# _framework density 20.810302
#
# number of rings (size 3 to 8) (size 9 to 14) (size 15 to 20)
#    0.000    1.647    2.353    3.529    3.294    7.059 
#    0.000    0.000    0.000   11.294    0.000    0.000 
#    0.000    0.000    0.000    0.000    0.000    0.000 
#
# Total GULP energy -189865.617723 kJ/mol
# GULP energy per Si atom -5584.282874 kJ/mol
# Density = 2.076294 g / cm^3
# Si number density = 20.810302 Si / 1000 Ang^3
#
#
#
# Elastic Constant Matrix: (Units=GPa)
#
#
# Indices 1 2 3 4 5 6 
#
# 1 72.7542 15.9232 4.3117 0.0000 0.0000 0.0000
# 2 15.9232 69.2298 -10.3938 0.0000 0.0000 0.0000
# 3 4.3117 -10.3938 88.9889 0.0000 0.0000 0.0000
# 4 0.0000 0.0000 0.0000 18.8348 0.0000 0.0000
# 5 0.0000 0.0000 0.0000 0.0000 13.4432 0.0000
# 6 0.0000 0.0000 0.0000 0.0000 0.0000 29.1874
#
#
#
# Elastic Compliance Matrix: (Units=1/GPa)
#
#
# Indices 1 2 3 4 5 6 
#
# 1 0.014582 -0.003522 -0.001118 0.000000 0.000000 0.000000
# 2 -0.003522 0.015553 0.001987 0.000000 0.000000 0.000000
# 3 -0.001118 0.001987 0.011524 0.000000 0.000000 0.000000
# 4 0.000000 0.000000 0.000000 0.053093 0.000000 0.000000
# 5 0.000000 0.000000 0.000000 0.000000 0.074387 0.000000
# 6 0.000000 0.000000 0.000000 0.000000 0.000000 0.034261
#
#
# Mechanical properties :
#
#
# Convention : Reuss Voigt Hill
#
# Bulk Modulus (GPa) = 27.50744 27.85055 27.67900
# Shear Modulus (GPa) = 22.64254 27.03518 24.83886
#
# Velocity S-wave (km/s) = 3.30213 3.60825 3.45858
# Velocity P-wave (km/s) = 5.27121 5.54720 5.41096
#
# Compressibility (1/GPa) = 0.03635380
#
# Stress axis : x y z
#
# Youngs Moduli (GPa) = 68.57796 64.29622 86.77828
#
# Poissons Ratio (x) = 0.22643 0.09701
# Poissons Ratio (y) = 0.24151 -0.17245
# Poissons Ratio (z) = 0.07666 -0.12777
#
# Static dielectric constant tensor:
#      x y z
#    x 1.741880 0.000000 0.000000 
#    y 0.000000 1.778740 0.000000 
#    z 0.000000 0.000000 1.804760 
# 
# From -- ./inp_files/30538.got.cif
#   From: 2010.05.17/outbox.cif.g08.bks.cpg/sg50_16_cif.got.tgz:30538.got - 2010.06.03 11:33:33.
