data_PCOD9396733
_publ_section_title
;
Structure prediction by ZEFSAII (Michael W. Deem and Ramdas Pophale) SiO2 
 PCOD9396733
Probable space group: P B A N
;
_chemical_formula_sum "Si O2"
_cell_formula_units_Z 64
_cell_length_a 16.288771
_cell_length_b 9.389985
_cell_length_c 20.879748
_cell_angle_alpha 90.000000
_cell_angle_beta 90.000000
_cell_angle_gamma 90.000000
_cell_volume 3193.584921
_symmetry_space_group_name_H-M "P B A N"
_symmetry_group_IT_number 50
_space_group.IT_coordinate_system_code '2'
_symmetry_cell_setting 'orthorhombic'
loop_
_space_group_symop_operation_xyz
x,y,z
1/2-x,1/2-y,z
x,1/2-y,-z
1/2-x,y,-z
-x,-y,-z
1/2+x,1/2+y,-z
-x,1/2+y,z
1/2+x,-y,z
loop_
_atom_site_type_symbol
_atom_site_label
_atom_site_fract_x
_atom_site_fract_y
_atom_site_fract_z
Si Si1 0.255844 0.911506 0.715055
Si Si2 0.946235 0.870768 0.126927
Si Si3 0.034451 0.630736 0.044187
Si Si4 0.108959 0.248377 0.572747
Si Si5 0.835401 0.671583 0.759193
Si Si6 0.068166 0.911021 0.244206
Si Si7 0.745609 0.982041 0.574614
Si Si8 0.012812 0.319948 0.688162
O O1 0.250000 0.750000 0.735107
O O2 0.339110 0.964024 0.750618
O O3 0.182566 0.011080 0.738298
O O4 0.259672 0.922423 0.637487
O O5 0.869467 0.823081 0.169142
O O6 0.970823 0.739850 0.079566
O O7 0.024065 0.894793 0.175516
O O8 0.926205 0.026765 0.097257
O O9 0.080547 0.750000 0.000000
O O10 0.000000 0.500000 0.000000
O O11 0.082447 0.250000 0.500000
O O12 0.180888 0.366312 0.579821
O O13 0.158682 0.100911 0.584328
O O14 0.030977 0.291787 0.614713
O O15 0.750000 0.750000 0.748576
O O16 0.906597 0.744000 0.718357
O O17 0.062853 0.762380 0.281662
O O18 0.015933 0.020507 0.287193
O O19 0.750000 0.035201 0.500000
#
# Coordination Sequence:
#
# PCOD9396733 Si02
#       8
#     8   8   8   8   8   8   8   8
#     4  12  25  36  56  89 125 154 203 256 318 357
#     4  10  21  36  63  95 121 154 202 238 292 347
#     4   9  19  38  64  94 120 158 198 234 269 338
#     4   9  16  31  58  80  98 145 207 250 297 371
#     4  11  21  38  61  87 119 163 195 246 299 367
#     4  11  24  36  58  86 125 157 192 251 300 367
#     4   9  17  33  58  81 106 151 205 255 302 369
#     4  11  21  37  56  80 119 155 200 246 315 360
#
# _framework density 20.040175000000001
#
# number of rings (size 3 to 8) (size 9 to 14) (size 15 to 20)
#    0.000    1.750    3.750    2.250    5.250    0.250 
#    0.000    0.625    2.750    3.375    3.250    0.000 
#    0.000    0.000    0.000    0.000    0.000    0.000 
#
# Total GULP energy -356332.297113 kJ/mol
# GULP energy per Si atom -5567.692142 kJ/mol
# Density = 1.999456 g / cm^3
# Si number density = 20.040175 Si / 1000 Ang^3
#
#
#
# Elastic Constant Matrix: (Units=GPa)
#
#
# Indices 1 2 3 4 5 6 
#
# 1 46.7432 0.2949 2.0056 0.0000 0.0000 0.0000
# 2 0.2949 101.3110 12.6588 0.0000 0.0000 0.0000
# 3 2.0056 12.6588 69.7322 0.0000 0.0000 0.0000
# 4 0.0000 0.0000 0.0000 19.3793 0.0000 0.0000
# 5 0.0000 0.0000 0.0000 0.0000 0.2434 0.0000
# 6 0.0000 0.0000 0.0000 0.0000 0.0000 20.4956
#
#
#
# Elastic Compliance Matrix: (Units=1/GPa)
#
#
# Indices 1 2 3 4 5 6 
#
# 1 0.021420 0.000015 -0.000619 0.000000 0.000000 0.000000
# 2 0.000015 0.010100 -0.001834 0.000000 0.000000 0.000000
# 3 -0.000619 -0.001834 0.014691 0.000000 0.000000 0.000000
# 4 0.000000 0.000000 0.000000 0.051602 0.000000 0.000000
# 5 0.000000 0.000000 0.000000 0.000000 4.108055 0.000000
# 6 0.000000 0.000000 0.000000 0.000000 0.000000 0.048791
#
#
# Mechanical properties :
#
#
# Convention : Reuss Voigt Hill
#
# Bulk Modulus (GPa) = 24.19224 27.52277 25.85751
# Shear Modulus (GPa) = 1.17005 21.54546 11.35776
#
# Velocity S-wave (km/s) = 0.76493 3.28245 2.38323
# Velocity P-wave (km/s) = 3.58863 5.30373 4.52812
#
# Compressibility (1/GPa) = 0.04133557
#
# Stress axis : x y z
#
# Youngs Moduli (GPa) = 46.68543 99.01284 68.06759
#
# Poissons Ratio (x) = -0.00148 0.04212
# Poissons Ratio (y) = -0.00070 0.12483
# Poissons Ratio (z) = 0.02889 0.18158
#
# Static dielectric constant tensor:
#      x y z
#    x 1.728050 0.000000 0.000000 
#    y 0.000000 1.744820 0.000000 
#    z 0.000000 0.000000 2.440340 
# 
# From -- ./inp_files/31112.got.cif
#   From: 2010.05.17/outbox.cif.g08.bks.cpg/sg50_16_cif.got.tgz:31112.got - 2010.06.03 11:33:33.
