data_PCOD9396280
_publ_section_title
;
Structure prediction by ZEFSAII (Michael W. Deem and Ramdas Pophale) SiO2 
 PCOD9396280
Probable space group: P B A N
;
_chemical_formula_sum "Si O2"
_cell_formula_units_Z 32
_cell_length_a 24.521352
_cell_length_b 7.909398
_cell_length_c 8.063850
_cell_angle_alpha 90.000000
_cell_angle_beta 90.000000
_cell_angle_gamma 90.000000
_cell_volume 1563.976712
_symmetry_space_group_name_H-M "P B A N"
_symmetry_group_IT_number 50
_space_group.IT_coordinate_system_code '2'
_symmetry_cell_setting 'orthorhombic'
loop_
_space_group_symop_operation_xyz
x,y,z
1/2-x,1/2-y,z
x,1/2-y,-z
1/2-x,y,-z
-x,-y,-z
1/2+x,1/2+y,-z
-x,1/2+y,z
1/2+x,-y,z
loop_
_atom_site_type_symbol
_atom_site_label
_atom_site_fract_x
_atom_site_fract_y
_atom_site_fract_z
Si Si1 0.693233 0.442413 0.064821
Si Si2 0.059471 0.942788 0.442838
Si Si3 0.404862 0.119438 0.876810
Si Si4 0.158008 0.128341 0.632457
O O1 0.689589 0.487276 0.260275
O O2 0.694186 0.250000 0.000000
O O3 0.750000 0.521264 0.000000
O O4 0.638614 0.515687 0.983574
O O5 0.065737 0.750000 0.500000
O O6 0.064246 0.993974 0.248505
O O7 0.107733 0.041587 0.536674
O O8 0.000000 0.000000 0.500000
O O9 0.368595 0.242297 0.762585
O O10 0.436399 0.250000 0.000000
O O11 0.187673 0.250000 0.500000
#
# Coordination Sequence:
#
# PCOD9396280 Si02
#       4
#     8   8   8   8
#     4  10  20  36  58  84 115 151 190 239 294 350
#     4  11  21  37  58  81 113 150 188 235 290 349
#     4   9  19  36  56  81 112 144 187 235 284 342
#     4   9  19  36  56  81 112 146 189 235 284 345
#
# _framework density 20.460661999999999
#
# number of rings (size 3 to 8) (size 9 to 14) (size 15 to 20)
#    0.000    2.250    0.000    3.750    0.000    4.500 
#    0.000   21.250    0.000   13.500    0.000    0.000 
#    0.000    0.000    0.000    0.000    0.000    0.000 
#
# Total GULP energy -178166.710489 kJ/mol
# GULP energy per Si atom -5567.709703 kJ/mol
# Density = 2.041409 g / cm^3
# Si number density = 20.460662 Si / 1000 Ang^3
#
#
#
# Elastic Constant Matrix: (Units=GPa)
#
#
# Indices 1 2 3 4 5 6 
#
# 1 88.3298 17.0727 38.4477 0.0000 0.0000 0.0000
# 2 17.0727 112.1804 45.8348 0.0000 0.0000 0.0000
# 3 38.4477 45.8348 133.0571 0.0000 0.0000 0.0000
# 4 0.0000 0.0000 0.0000 45.5992 0.0000 0.0000
# 5 0.0000 0.0000 0.0000 0.0000 12.3808 0.0000
# 6 0.0000 0.0000 0.0000 0.0000 0.0000 -116.8234
#
#
#
# Elastic Compliance Matrix: (Units=1/GPa)
#
#
# Indices 1 2 3 4 5 6 
#
# 1 0.012976 -0.000515 -0.003572 0.000000 0.000000 0.000000
# 2 -0.000515 0.010395 -0.003432 0.000000 0.000000 0.000000
# 3 -0.003572 -0.003432 0.009730 0.000000 0.000000 0.000000
# 4 0.000000 0.000000 0.000000 0.021930 0.000000 0.000000
# 5 0.000000 0.000000 0.000000 0.000000 0.080770 0.000000
# 6 0.000000 0.000000 0.000000 0.000000 0.000000 -0.008560
#
#
# Mechanical properties :
#
#
# Convention : Reuss Voigt Hill
#
# Bulk Modulus (GPa) = 55.36435 59.58640 57.47538
# Shear Modulus (GPa) = 33.71560 3.71213 18.71387
#
# Velocity S-wave (km/s) = 4.06375 1.34841 3.02756
# Velocity P-wave (km/s) = 7.00973 5.62227 6.35399
#
# Compressibility (1/GPa) = 0.01806216
#
# Stress axis : x y z
#
# Youngs Moduli (GPa) = 77.06801 96.20166 102.77650
#
# Poissons Ratio (x) = 0.04958 0.36710
# Poissons Ratio (y) = 0.03972 0.35271
# Poissons Ratio (z) = 0.27527 0.33015
#
# Static dielectric constant tensor:
#      x y z
#    x 1.631270 0.000000 0.000000 
#    y 0.000000 1.791400 0.000000 
#    z 0.000000 0.000000 1.807960 
# 
# From -- ./inp_files/15716.got.cif
#   From: 2010.05.17/outbox.cif.g08.bks.cpg/sg50_8_cif.got.tgz:15716.got - 2010.06.03 11:33:33.
