data_PCOD9396977
_publ_section_title
;
Structure prediction by ZEFSAII (Michael W. Deem and Ramdas Pophale) SiO2 
 PCOD9396977
Probable space group: P B A N
;
_chemical_formula_sum "Si O2"
_cell_formula_units_Z 56
_cell_length_a 13.472437
_cell_length_b 14.483636
_cell_length_c 13.326891
_cell_angle_alpha 90.000000
_cell_angle_beta 90.000000
_cell_angle_gamma 90.000000
_cell_volume 2600.474556
_symmetry_space_group_name_H-M "P B A N"
_symmetry_group_IT_number 50
_space_group.IT_coordinate_system_code '2'
_symmetry_cell_setting 'orthorhombic'
loop_
_space_group_symop_operation_xyz
x,y,z
1/2-x,1/2-y,z
x,1/2-y,-z
1/2-x,y,-z
-x,-y,-z
1/2+x,1/2+y,-z
-x,1/2+y,z
1/2+x,-y,z
loop_
_atom_site_type_symbol
_atom_site_label
_atom_site_fract_x
_atom_site_fract_y
_atom_site_fract_z
Si Si1 0.546846 0.063089 0.144470
Si Si2 0.405108 0.596973 0.913877
Si Si3 0.052667 0.359621 0.521854
Si Si4 0.549870 0.752045 0.885168
Si Si5 0.750920 0.467592 0.232012
Si Si6 0.850450 0.464516 0.564682
Si Si7 0.683877 0.664468 0.715632
O O1 0.470330 0.146273 0.155169
O O2 0.634333 0.062764 0.225227
O O3 0.486586 0.968483 0.139793
O O4 0.589829 0.076906 0.031956
O O5 0.444077 0.699371 0.891898
O O6 0.301461 0.569832 0.866990
O O7 0.052885 0.250000 0.500000
O O8 0.109534 0.429521 0.445668
O O9 0.111655 0.369588 0.627054
O O10 0.941183 0.399738 0.530138
O O11 0.621960 0.701496 0.809662
O O12 0.588397 0.750000 0.000000
O O13 0.684695 0.435593 0.324934
O O14 0.754251 0.577831 0.244167
O O15 0.750000 0.457996 0.500000
O O16 0.750000 0.750000 0.677875
#
# Coordination Sequence:
#
# PCOD9396977 Si02
#       7
#     8   8   8   8   8   8   8
#     4  10  22  39  64  92 134 178 217 270 333 393
#     4  10  21  41  62  92 135 177 220 266 330 402
#     4  11  26  47  71  98 135 177 223 281 357 413
#     4  10  22  42  63  94 136 176 219 277 329 396
#     4  12  23  39  68  94 131 172 225 274 330 403
#     4  11  25  45  71 100 133 175 225 290 341 409
#     4  12  24  41  67 102 129 173 226 277 338 399
#
# _framework density 21.534531999999999
#
# number of rings (size 3 to 8) (size 9 to 14) (size 15 to 20)
#    0.000    1.143    2.857    3.000    0.000    2.286 
#    2.571    3.571    0.000    0.000    0.000    0.000 
#    0.000    0.000    0.000    0.000    0.000    0.000 
#
# Total GULP energy -313033.526098 kJ/mol
# GULP energy per Si atom -5589.884395 kJ/mol
# Density = 2.148552 g / cm^3
# Si number density = 21.534532 Si / 1000 Ang^3
#
#
#
# Elastic Constant Matrix: (Units=GPa)
#
#
# Indices 1 2 3 4 5 6 
#
# 1 92.6398 6.4938 23.0241 0.0000 0.0000 0.0000
# 2 6.4938 73.0600 7.2821 0.0000 0.0000 0.0000
# 3 23.0241 7.2821 34.2830 0.0000 0.0000 0.0000
# 4 0.0000 0.0000 0.0000 27.3764 0.0000 0.0000
# 5 0.0000 0.0000 0.0000 0.0000 21.0145 0.0000
# 6 0.0000 0.0000 0.0000 0.0000 0.0000 -2.8210
#
#
#
# Elastic Compliance Matrix: (Units=1/GPa)
#
#
# Indices 1 2 3 4 5 6 
#
# 1 0.012963 -0.000291 -0.008644 0.000000 0.000000 0.000000
# 2 -0.000291 0.013990 -0.002776 0.000000 0.000000 0.000000
# 3 -0.008644 -0.002776 0.035564 0.000000 0.000000 0.000000
# 4 0.000000 0.000000 0.000000 0.036528 0.000000 0.000000
# 5 0.000000 0.000000 0.000000 0.000000 0.047586 0.000000
# 6 0.000000 0.000000 0.000000 0.000000 0.000000 -0.354484
#
#
# Mechanical properties :
#
#
# Convention : Reuss Voigt Hill
#
# Bulk Modulus (GPa) = 25.57892 30.39808 27.98850
# Shear Modulus (GPa) = -29.17172 19.99284 -4.58944
#
# Velocity S-wave (km/s) = -3.68455 3.05029 -1.46145
# Velocity P-wave (km/s) = 2.48944 5.15289 3.19022
#
# Compressibility (1/GPa) = 0.03909470
#
# Stress axis : x y z
#
# Youngs Moduli (GPa) = 77.14110 71.47989 28.11820
#
# Poissons Ratio (x) = 0.02077 0.24306
# Poissons Ratio (y) = 0.02242 0.07807
# Poissons Ratio (z) = 0.66683 0.19846
#
# Static dielectric constant tensor:
#      x y z
#    x 1.847950 0.000000 0.000000 
#    y 0.000000 1.777790 0.000000 
#    z 0.000000 0.000000 1.840940 
# 
# From -- ./inp_files/21172.got.cif
#   From: 2010.05.17/outbox.cif.g08.bks.cpg/sg50_11_cif.got.tgz:21172.got - 2010.06.03 11:33:33.
