data_PCOD9396982
_publ_section_title
;
Structure prediction by ZEFSAII (Michael W. Deem and Ramdas Pophale) SiO2 
 PCOD9396982
Probable space group: P B A N
;
_chemical_formula_sum "Si O2"
_cell_formula_units_Z 52
_cell_length_a 12.339307
_cell_length_b 8.801900
_cell_length_c 24.632899
_cell_angle_alpha 90.000000
_cell_angle_beta 90.000000
_cell_angle_gamma 90.000000
_cell_volume 2675.363057
_symmetry_space_group_name_H-M "P B A N"
_symmetry_group_IT_number 50
_space_group.IT_coordinate_system_code '2'
_symmetry_cell_setting 'orthorhombic'
loop_
_space_group_symop_operation_xyz
x,y,z
1/2-x,1/2-y,z
x,1/2-y,-z
1/2-x,y,-z
-x,-y,-z
1/2+x,1/2+y,-z
-x,1/2+y,z
1/2+x,-y,z
loop_
_atom_site_type_symbol
_atom_site_label
_atom_site_fract_x
_atom_site_fract_y
_atom_site_fract_z
Si Si1 0.437463 0.275762 0.126094
Si Si2 0.250000 0.250000 0.500000
Si Si3 0.750000 0.250000 0.000000
Si Si4 0.624751 0.227931 0.611374
Si Si5 0.873691 0.239853 0.260737
Si Si6 0.425159 0.958223 0.947787
Si Si7 0.541757 0.964503 0.797564
Si Si8 0.944128 0.568745 0.553895
O O1 0.385131 0.387867 0.081969
O O2 0.509621 0.157303 0.091509
O O3 0.501813 0.402215 0.161549
O O4 0.385140 0.158603 0.169517
O O5 0.166394 0.347315 0.463810
O O6 0.675830 0.140169 0.034617
O O7 0.750000 0.250000 0.593706
O O8 0.618732 0.266995 0.675031
O O9 0.537209 0.327205 0.579395
O O10 0.589809 0.057592 0.597255
O O11 0.750000 0.250000 0.242299
O O12 0.945832 0.362142 0.227953
O O13 0.906565 0.065651 0.249228
O O14 0.500000 0.000000 0.000000
O O15 0.000000 0.500000 0.500000
#
# Coordination Sequence:
#
# PCOD9396982 Si02
#       8
#     8   2   2   8   8   8   8   8
#     4   9  19  38  63  85 125 157 191 262 297 356
#     4  12  24  40  64  92 132 168 214 258 308 360
#     4  12  24  36  66  82 124 172 194 248 308 350
#     4  11  24  40  65  93 124 169 209 257 319 374
#     4  10  21  41  65  90 121 158 204 256 309 366
#     4  11  20  40  60  90 125 159 203 248 298 364
#     4   9  19  40  63  87 121 154 196 254 310 358
#     4  12  23  42  63  93 130 168 211 261 308 376
#
# _framework density 19.436613000000001
#
# number of rings (size 3 to 8) (size 9 to 14) (size 15 to 20)
#    0.000    1.538    3.077    1.846    0.000    0.615 
#   12.462    6.154    0.000    0.000    0.000    0.000 
#    0.000    0.000    0.000    0.000    0.000    0.000 
#
# Total GULP energy -289649.571656 kJ/mol
# GULP energy per Si atom -5570.184070 kJ/mol
# Density = 1.939237 g / cm^3
# Si number density = 19.436613 Si / 1000 Ang^3
#
#
#
# Elastic Constant Matrix: (Units=GPa)
#
#
# Indices 1 2 3 4 5 6 
#
# 1 115.5769 59.2014 36.4163 0.0000 0.0000 0.0000
# 2 59.2014 139.3697 35.5963 0.0000 0.0000 0.0000
# 3 36.4163 35.5963 61.0117 0.0000 0.0000 0.0000
# 4 0.0000 0.0000 0.0000 50.4003 0.0000 0.0000
# 5 0.0000 0.0000 0.0000 0.0000 -21.3472 0.0000
# 6 0.0000 0.0000 0.0000 0.0000 0.0000 26.8727
#
#
#
# Elastic Compliance Matrix: (Units=1/GPa)
#
#
# Indices 1 2 3 4 5 6 
#
# 1 0.012241 -0.003917 -0.005021 0.000000 0.000000 0.000000
# 2 -0.003917 0.009685 -0.003313 0.000000 0.000000 0.000000
# 3 -0.005021 -0.003313 0.021320 0.000000 0.000000 0.000000
# 4 0.000000 0.000000 0.000000 0.019841 0.000000 0.000000
# 5 0.000000 0.000000 0.000000 0.000000 -0.046844 0.000000
# 6 0.000000 0.000000 0.000000 0.000000 0.000000 0.037212
#
#
# Mechanical properties :
#
#
# Convention : Reuss Voigt Hill
#
# Bulk Modulus (GPa) = 53.34886 64.26514 58.80700
# Shear Modulus (GPa) = 59.37967 23.50146 41.44056
#
# Velocity S-wave (km/s) = 5.53324 3.48103 4.62246
# Velocity P-wave (km/s) = 8.26617 7.02086 7.66883
#
# Compressibility (1/GPa) = 0.01874454
#
# Stress axis : x y z
#
# Youngs Moduli (GPa) = 81.69461 103.25048 46.90504
#
# Poissons Ratio (x) = 0.40446 0.23550
# Poissons Ratio (y) = 0.32002 0.15538
# Poissons Ratio (z) = 0.41016 0.34202
#
# Static dielectric constant tensor:
#      x y z
#    x 1.886040 0.000000 0.000000 
#    y 0.000000 1.697620 0.000000 
#    z 0.000000 0.000000 1.743390 
# 
# From -- ./inp_files/32177.got.cif
#   From: 2010.05.17/outbox.cif.g08.bks.cpg/sg50_17_cif.got.tgz:32177.got - 2010.06.03 11:33:33.
