data_PCOD9396852
_publ_section_title
;
Structure prediction by ZEFSAII (Michael W. Deem and Ramdas Pophale) SiO2 
 PCOD9396852
Probable space group: P B A N
;
_chemical_formula_sum "Si O2"
_cell_formula_units_Z 48
_cell_length_a 14.323599
_cell_length_b 9.502832
_cell_length_c 16.522941
_cell_angle_alpha 90.000000
_cell_angle_beta 90.000000
_cell_angle_gamma 90.000000
_cell_volume 2249.016065
_symmetry_space_group_name_H-M "P B A N"
_symmetry_group_IT_number 50
_space_group.IT_coordinate_system_code '2'
_symmetry_cell_setting 'orthorhombic'
loop_
_space_group_symop_operation_xyz
x,y,z
1/2-x,1/2-y,z
x,1/2-y,-z
1/2-x,y,-z
-x,-y,-z
1/2+x,1/2+y,-z
-x,1/2+y,z
1/2+x,-y,z
loop_
_atom_site_type_symbol
_atom_site_label
_atom_site_fract_x
_atom_site_fract_y
_atom_site_fract_z
Si Si1 0.149267 0.767114 0.149732
Si Si2 0.260169 0.092800 0.363216
Si Si3 0.027756 0.366175 0.054771
Si Si4 0.651347 0.188530 0.589330
Si Si5 0.090866 0.917626 0.302619
Si Si6 0.606142 0.532574 0.222821
O O1 0.250000 0.750000 0.110941
O O2 0.067704 0.796854 0.087454
O O3 0.144571 0.886847 0.218381
O O4 0.131087 0.625912 0.199989
O O5 0.250000 0.250000 0.397002
O O6 0.312990 0.101692 0.276476
O O7 0.327036 0.978155 0.409245
O O8 0.157189 0.024400 0.351901
O O9 0.084678 0.398725 0.136023
O O10 0.077509 0.250000 0.000000
O O11 0.000000 0.500000 0.000000
O O12 0.750000 0.250000 0.621359
O O13 0.638059 0.250000 0.500000
O O14 0.580117 0.271946 0.646586
O O15 0.988914 0.966369 0.275395
#
# Coordination Sequence:
#
# PCOD9396852 Si02
#       6
#     8   8   8   8   8   8
#     4  11  20  40  68  90 118 173 231 263 318 396
#     4  11  23  37  63 103 128 158 222 272 318 384
#     4  11  24  41  60  90 127 167 211 265 337 384
#     4   9  18  39  64  89 127 176 210 256 326 391
#     4  10  21  38  65  91 124 171 219 255 320 393
#     4  11  23  39  67  93 126 168 219 273 317 381
#
# _framework density 21.342666000000001
#
# number of rings (size 3 to 8) (size 9 to 14) (size 15 to 20)
#    0.000    1.500    5.000    0.500    4.667    0.333 
#    0.000    7.500    0.000    2.000    0.000    0.000 
#    0.000    0.000    0.000    0.000    0.000    0.000 
#
# Total GULP energy -267753.128419 kJ/mol
# GULP energy per Si atom -5578.190175 kJ/mol
# Density = 2.129409 g / cm^3
# Si number density = 21.342666 Si / 1000 Ang^3
#
#
#
# Elastic Constant Matrix: (Units=GPa)
#
#
# Indices 1 2 3 4 5 6 
#
# 1 65.8633 19.0811 11.3482 0.0000 0.0000 0.0000
# 2 19.0811 124.7882 29.2533 0.0000 0.0000 0.0000
# 3 11.3482 29.2533 80.7498 0.0000 0.0000 0.0000
# 4 0.0000 0.0000 0.0000 27.4280 0.0000 0.0000
# 5 0.0000 0.0000 0.0000 0.0000 17.2657 0.0000
# 6 0.0000 0.0000 0.0000 0.0000 0.0000 26.1746
#
#
#
# Elastic Compliance Matrix: (Units=1/GPa)
#
#
# Indices 1 2 3 4 5 6 
#
# 1 0.016050 -0.002104 -0.001493 0.000000 0.000000 0.000000
# 2 -0.002104 0.009033 -0.002977 0.000000 0.000000 0.000000
# 3 -0.001493 -0.002977 0.013672 0.000000 0.000000 0.000000
# 4 0.000000 0.000000 0.000000 0.036459 0.000000 0.000000
# 5 0.000000 0.000000 0.000000 0.000000 0.057918 0.000000
# 6 0.000000 0.000000 0.000000 0.000000 0.000000 0.038205
#
#
# Mechanical properties :
#
#
# Convention : Reuss Voigt Hill
#
# Bulk Modulus (GPa) = 39.05207 43.41852 41.23529
# Shear Modulus (GPa) = 25.90385 28.28823 27.09604
#
# Velocity S-wave (km/s) = 3.48762 3.64460 3.56697
# Velocity P-wave (km/s) = 5.87838 6.17240 6.02718
#
# Compressibility (1/GPa) = 0.02560684
#
# Stress axis : x y z
#
# Youngs Moduli (GPa) = 62.30601 110.70360 73.14120
#
# Poissons Ratio (x) = 0.23293 0.10922
# Poissons Ratio (y) = 0.13110 0.21772
# Poissons Ratio (z) = 0.09304 0.32954
#
# Static dielectric constant tensor:
#      x y z
#    x 1.768710 0.000000 0.000000 
#    y 0.000000 1.859250 0.000000 
#    z 0.000000 0.000000 1.837520 
# 
# From -- ./inp_files/29441.got.cif
#   From: 2010.05.17/outbox.cif.g08.bks.cpg/sg50_15_cif.got.tgz:29441.got - 2010.06.03 11:33:33.
