data_PCOD9396961
_publ_section_title
;
Structure prediction by ZEFSAII (Michael W. Deem and Ramdas Pophale) SiO2 
 PCOD9396961
Probable space group: P B A N
;
_chemical_formula_sum "Si O2"
_cell_formula_units_Z 34
_cell_length_a 15.743741
_cell_length_b 11.926374
_cell_length_c 9.124381
_cell_angle_alpha 90.000000
_cell_angle_beta 90.000000
_cell_angle_gamma 90.000000
_cell_volume 1713.246181
_symmetry_space_group_name_H-M "P B A N"
_symmetry_group_IT_number 50
_space_group.IT_coordinate_system_code '2'
_symmetry_cell_setting 'orthorhombic'
loop_
_space_group_symop_operation_xyz
x,y,z
1/2-x,1/2-y,z
x,1/2-y,-z
1/2-x,y,-z
-x,-y,-z
1/2+x,1/2+y,-z
-x,1/2+y,z
1/2+x,-y,z
loop_
_atom_site_type_symbol
_atom_site_label
_atom_site_fract_x
_atom_site_fract_y
_atom_site_fract_z
Si Si1 0.750000 0.250000 0.500000
Si Si2 0.756329 0.883643 0.674710
Si Si3 0.589036 0.485452 0.808109
Si Si4 0.158697 0.763568 0.777714
Si Si5 0.897978 0.496003 0.850308
O O1 0.813691 0.192257 0.385349
O O2 0.750000 0.750000 0.703432
O O3 0.750000 0.901549 0.500000
O O4 0.847493 0.934059 0.720571
O O5 0.681417 0.947156 0.766225
O O6 0.618975 0.358301 0.778193
O O7 0.488773 0.482132 0.776378
O O8 0.599570 0.524990 0.977535
O O9 0.250000 0.750000 0.849838
O O10 0.108346 0.861251 0.852055
#
# Coordination Sequence:
#
# PCOD9396961 Si02
#       5
#     2   8   8   8   8
#     4   8  20  36  62  96 118 162 210 248 324 362
#     4  11  26  46  63  93 130 170 211 260 316 378
#     4  11  25  42  67  97 127 167 212 263 316 373
#     4  10  21  40  66  94 127 162 211 268 305 378
#     4  11  25  42  67  97 127 167 212 263 316 373
#
# _framework density 19.845368000000001
#
# number of rings (size 3 to 8) (size 9 to 14) (size 15 to 20)
#    0.706    0.706    2.353    1.412    9.882    3.765 
#    0.000    0.000    0.000    0.000    0.000    0.000 
#    0.000    0.000    0.000    0.000    0.000    0.000 
#
# Total GULP energy -189377.186766 kJ/mol
# GULP energy per Si atom -5569.917258 kJ/mol
# Density = 1.980020 g / cm^3
# Si number density = 19.845368 Si / 1000 Ang^3
#
#
#
# Elastic Constant Matrix: (Units=GPa)
#
#
# Indices 1 2 3 4 5 6 
#
# 1 97.7034 32.7837 22.6159 0.0000 0.0000 0.0000
# 2 32.7837 105.6075 6.6786 0.0000 0.0000 0.0000
# 3 22.6159 6.6786 85.5218 0.0000 0.0000 0.0000
# 4 0.0000 0.0000 0.0000 18.9890 0.0000 0.0000
# 5 0.0000 0.0000 0.0000 0.0000 23.4553 0.0000
# 6 0.0000 0.0000 0.0000 0.0000 0.0000 29.2826
#
#
#
# Elastic Compliance Matrix: (Units=1/GPa)
#
#
# Indices 1 2 3 4 5 6 
#
# 1 0.012111 -0.003575 -0.002924 0.000000 0.000000 0.000000
# 2 -0.003575 0.010571 0.000120 0.000000 0.000000 0.000000
# 3 -0.002924 0.000120 0.012457 0.000000 0.000000 0.000000
# 4 0.000000 0.000000 0.000000 0.052662 0.000000 0.000000
# 5 0.000000 0.000000 0.000000 0.000000 0.042634 0.000000
# 6 0.000000 0.000000 0.000000 0.000000 0.000000 0.034150
#
#
# Mechanical properties :
#
#
# Convention : Reuss Voigt Hill
#
# Bulk Modulus (GPa) = 44.67888 45.88770 45.28329
# Shear Modulus (GPa) = 27.05580 29.46237 28.25908
#
# Velocity S-wave (km/s) = 3.69634 3.85723 3.77764
# Velocity P-wave (km/s) = 6.38589 6.55823 6.47263
#
# Compressibility (1/GPa) = 0.02238194
#
# Stress axis : x y z
#
# Youngs Moduli (GPa) = 82.56745 94.59684 80.27806
#
# Poissons Ratio (x) = 0.33817 0.23470
# Poissons Ratio (y) = 0.29516 -0.00962
# Poissons Ratio (z) = 0.24140 -0.01134
#
# Static dielectric constant tensor:
#      x y z
#    x 1.714880 0.000000 0.000000 
#    y 0.000000 1.637630 0.000000 
#    z 0.000000 0.000000 1.818190 
# 
# From -- ./inp_files/12243.got.cif
#   From: 2010.05.17/outbox.cif.g08.bks.cpg/sg50_7_cif.got.tgz:12243.got - 2010.06.03 11:33:33.
