data_PCOD9396406
_publ_section_title
;
Structure prediction by ZEFSAII (Michael W. Deem and Ramdas Pophale) SiO2 
 PCOD9396406
Probable space group: P B A N
;
_chemical_formula_sum "Si O2"
_cell_formula_units_Z 40
_cell_length_a 15.045781
_cell_length_b 11.413598
_cell_length_c 10.584082
_cell_angle_alpha 90.000000
_cell_angle_beta 90.000000
_cell_angle_gamma 90.000000
_cell_volume 1817.567314
_symmetry_space_group_name_H-M "P B A N"
_symmetry_group_IT_number 50
_space_group.IT_coordinate_system_code '2'
_symmetry_cell_setting 'orthorhombic'
loop_
_space_group_symop_operation_xyz
x,y,z
1/2-x,1/2-y,z
x,1/2-y,-z
1/2-x,y,-z
-x,-y,-z
1/2+x,1/2+y,-z
-x,1/2+y,z
1/2+x,-y,z
loop_
_atom_site_type_symbol
_atom_site_label
_atom_site_fract_x
_atom_site_fract_y
_atom_site_fract_z
Si Si1 0.643432 0.002730 0.753341
Si Si2 0.067773 0.110520 1.000000
Si Si3 0.358714 0.117983 0.500000
Si Si4 0.856568 0.497270 0.246659
Si Si5 0.140932 0.750000 0.651852
O O1 0.750000 0.009114 0.751154
O O2 0.611938 0.136691 0.733460
O O3 0.610432 0.942333 0.626353
O O4 0.619843 0.922762 0.872229
O O5 0.119843 0.077238 0.127770
O O6 0.043086 0.250000 0.000000
O O7 0.000000 0.000000 0.000000
O O8 0.387399 0.250000 0.500000
O O9 0.250000 0.113389 0.500000
O O10 0.389568 0.057667 0.626353
O O11 0.888062 0.363309 0.266540
O O12 0.250000 0.750000 0.647811
O O13 0.115915 0.750000 0.500000
#
# Coordination Sequence:
#
# PCOD9396406 Si02
#       5
#     8   8   8   8   8
#     4  10  20  37  66  96 125 161 205 258 311 366
#     4  12  29  47  62  86 126 171 214 261 313 373
#     4   9  16  29  56  93 123 149 193 257 317 363
#     4  10  20  37  66  96 125 161 205 258 311 366
#     4   9  16  31  61 103 135 155 191 252 317 372
#
# _framework density 22.007439000000002
#
# number of rings (size 3 to 8) (size 9 to 14) (size 15 to 20)
#    0.000    2.000    2.000    1.800    2.800    3.200 
#    0.000    4.000    0.000    0.000    0.000    0.000 
#    0.000    0.000    0.000    0.000    0.000    0.000 
#
# Total GULP energy -222930.809936 kJ/mol
# GULP energy per Si atom -5573.270248 kJ/mol
# Density = 2.195735 g / cm^3
# Si number density = 22.007439 Si / 1000 Ang^3
#
#
#
# Elastic Constant Matrix: (Units=GPa)
#
#
# Indices 1 2 3 4 5 6 
#
# 1 30.7148 21.5122 7.8455 0.0000 0.0000 0.0000
# 2 21.5122 238.9015 84.4418 0.0000 0.0000 0.0000
# 3 7.8455 84.4418 164.0507 0.0000 0.0000 0.0000
# 4 0.0000 0.0000 0.0000 74.6421 0.0000 0.0000
# 5 0.0000 0.0000 0.0000 0.0000 0.2950 0.0000
# 6 0.0000 0.0000 0.0000 0.0000 0.0000 16.1278
#
#
#
# Elastic Compliance Matrix: (Units=1/GPa)
#
#
# Indices 1 2 3 4 5 6 
#
# 1 0.034750 -0.003107 -0.000063 0.000000 0.000000 0.000000
# 2 -0.003107 0.005395 -0.002628 0.000000 0.000000 0.000000
# 3 -0.000063 -0.002628 0.007451 0.000000 0.000000 0.000000
# 4 0.000000 0.000000 0.000000 0.013397 0.000000 0.000000
# 5 0.000000 0.000000 0.000000 0.000000 3.389385 0.000000
# 6 0.000000 0.000000 0.000000 0.000000 0.000000 0.062005
#
#
# Mechanical properties :
#
#
# Convention : Reuss Voigt Hill
#
# Bulk Modulus (GPa) = 27.77757 73.47397 50.62577
# Shear Modulus (GPa) = 1.41404 39.53750 20.47577
#
# Velocity S-wave (km/s) = 0.80245 4.24317 3.05356
# Velocity P-wave (km/s) = 3.67530 7.58053 5.95703
#
# Compressibility (1/GPa) = 0.03600027
#
# Stress axis : x y z
#
# Youngs Moduli (GPa) = 28.77723 185.37282 134.20197
#
# Poissons Ratio (x) = 0.57594 0.00840
# Poissons Ratio (y) = 0.08941 0.35270
# Poissons Ratio (z) = 0.00180 0.48719
#
# Static dielectric constant tensor:
#      x y z
#    x 1.906420 0.000000 0.000000 
#    y 0.000000 1.873830 0.000000 
#    z 0.000000 0.000000 2.057570 
# 
# From -- ./inp_files/13924.got.cif
#   From: 2010.05.17/outbox.cif.g08.bks.cpg/sg50_7_cif.got.tgz:13924.got - 2010.06.03 11:33:33.
