data_PCOD9396087
_publ_section_title
;
Structure prediction by ZEFSAII (Michael W. Deem and Ramdas Pophale) SiO2 
 PCOD9396087
Probable space group: P B A N
;
_chemical_formula_sum "Si O2"
_cell_formula_units_Z 56
_cell_length_a 13.357864
_cell_length_b 13.047583
_cell_length_c 18.778252
_cell_angle_alpha 90.000000
_cell_angle_beta 90.000000
_cell_angle_gamma 90.000000
_cell_volume 3272.820966
_symmetry_space_group_name_H-M "P B A N"
_symmetry_group_IT_number 50
_space_group.IT_coordinate_system_code '2'
_symmetry_cell_setting 'orthorhombic'
loop_
_space_group_symop_operation_xyz
x,y,z
1/2-x,1/2-y,z
x,1/2-y,-z
1/2-x,y,-z
-x,-y,-z
1/2+x,1/2+y,-z
-x,1/2+y,z
1/2+x,-y,z
loop_
_atom_site_type_symbol
_atom_site_label
_atom_site_fract_x
_atom_site_fract_y
_atom_site_fract_z
Si Si1 0.683413 0.037196 0.719059
Si Si2 0.734105 0.871177 0.920149
Si Si3 0.999145 0.190575 0.273289
Si Si4 0.368595 0.475494 0.198669
Si Si5 0.943885 0.612922 0.814913
Si Si6 0.744845 0.926401 0.579203
Si Si7 0.084560 0.241273 0.420430
O O1 0.606615 0.131060 0.727316
O O2 0.785572 0.045780 0.763423
O O3 0.624884 0.939478 0.753413
O O4 0.717001 0.007388 0.639582
O O5 0.750000 0.750000 0.921927
O O6 0.813689 0.919103 0.865832
O O7 0.625460 0.885169 0.884512
O O8 0.750000 0.911837 0.000000
O O9 0.085550 0.107129 0.254158
O O10 0.016777 0.278940 0.214866
O O11 0.014519 0.238049 0.351736
O O12 0.461616 0.541147 0.172800
O O13 0.750000 0.971959 0.500000
O O14 0.847667 0.861625 0.586371
O O15 0.660045 0.837703 0.582820
O O16 0.038830 0.250000 0.500000
#
# Coordination Sequence:
#
# PCOD9396087 Si02
#       7
#     8   8   8   8   8   8   8
#     4  10  20  32  53  81 105 146 190 229 280 328
#     4  10  20  36  61  89 114 140 177 224 268 319
#     4  11  19  33  55  78 111 145 184 237 278 324
#     4  10  21  36  55  82 111 146 185 221 271 332
#     4  10  21  35  56  83 109 147 182 221 277 328
#     4   9  16  29  49  73 102 135 184 238 286 328
#     4   9  17  29  50  75 103 137 182 237 289 329
#
# _framework density 17.110620999999998
#
# number of rings (size 3 to 8) (size 9 to 14) (size 15 to 20)
#    0.000    2.143    4.286    0.857    0.000    1.143 
#    0.000    4.286    0.000    0.000    0.000    1.000 
#    0.000    0.000    0.000    0.000    0.000    0.000 
#
# Total GULP energy -311950.883375 kJ/mol
# GULP energy per Si atom -5570.551489 kJ/mol
# Density = 1.707168 g / cm^3
# Si number density = 17.110621 Si / 1000 Ang^3
#
#
#
# Elastic Constant Matrix: (Units=GPa)
#
#
# Indices 1 2 3 4 5 6 
#
# 1 90.4694 31.4727 60.9055 0.0000 0.0000 0.0000
# 2 31.4727 43.7431 35.2036 0.0000 0.0000 0.0000
# 3 60.9055 35.2036 145.3438 0.0000 0.0000 0.0000
# 4 0.0000 0.0000 0.0000 15.7868 0.0000 0.0000
# 5 0.0000 0.0000 0.0000 0.0000 -3.7059 0.0000
# 6 0.0000 0.0000 0.0000 0.0000 0.0000 20.7398
#
#
#
# Elastic Compliance Matrix: (Units=1/GPa)
#
#
# Indices 1 2 3 4 5 6 
#
# 1 0.017541 -0.008329 -0.005333 0.000000 0.000000 0.000000
# 2 -0.008329 0.032350 -0.004345 0.000000 0.000000 0.000000
# 3 -0.005333 -0.004345 0.010168 0.000000 0.000000 0.000000
# 4 0.000000 0.000000 0.000000 0.063344 0.000000 0.000000
# 5 0.000000 0.000000 0.000000 0.000000 -0.269840 0.000000
# 6 0.000000 0.000000 0.000000 0.000000 0.000000 0.048216
#
#
# Mechanical properties :
#
#
# Convention : Reuss Voigt Hill
#
# Bulk Modulus (GPa) = 41.58977 59.41333 50.50155
# Shear Modulus (GPa) = -92.26690 16.69579 -37.78555
#
# Velocity S-wave (km/s) = -7.35125 3.12710 -4.70436
# Velocity P-wave (km/s) = 6.90618 6.91641 0.26601
#
# Compressibility (1/GPa) = 0.02404437
#
# Stress axis : x y z
#
# Youngs Moduli (GPa) = 57.00828 30.91172 98.35126
#
# Poissons Ratio (x) = 0.25745 0.52454
# Poissons Ratio (y) = 0.47480 0.42738
# Poissons Ratio (z) = 0.30404 0.13433
#
# Static dielectric constant tensor:
#      x y z
#    x 1.570320 0.000000 0.000000 
#    y 0.000000 1.577050 0.000000 
#    z 0.000000 0.000000 1.599430 
# 
# From -- ./inp_files/30857.got.cif
#   From: 2010.05.17/outbox.cif.g08.bks.cpg/sg50_16_cif.got.tgz:30857.got - 2010.06.03 11:33:33.
