data_PCOD9396780
_publ_section_title
;
Structure prediction by ZEFSAII (Michael W. Deem and Ramdas Pophale) SiO2 
 PCOD9396780
Probable space group: P B A N
;
_chemical_formula_sum "Si O2"
_cell_formula_units_Z 34
_cell_length_a 11.039607
_cell_length_b 20.857752
_cell_length_c 5.989169
_cell_angle_alpha 90.000000
_cell_angle_beta 90.000000
_cell_angle_gamma 90.000000
_cell_volume 1379.074349
_symmetry_space_group_name_H-M "P B A N"
_symmetry_group_IT_number 50
_space_group.IT_coordinate_system_code '2'
_symmetry_cell_setting 'orthorhombic'
loop_
_space_group_symop_operation_xyz
x,y,z
1/2-x,1/2-y,z
x,1/2-y,-z
1/2-x,y,-z
-x,-y,-z
1/2+x,1/2+y,-z
-x,1/2+y,z
1/2+x,-y,z
loop_
_atom_site_type_symbol
_atom_site_label
_atom_site_fract_x
_atom_site_fract_y
_atom_site_fract_z
Si Si1 0.250000 0.250000 0.500000
Si Si2 0.371580 0.708842 0.207130
Si Si3 0.900437 0.086835 0.056288
Si Si4 0.417811 0.031044 0.306919
Si Si5 0.940933 0.654528 0.436688
O O1 0.162098 0.296285 0.639189
O O2 0.250000 0.750000 0.263726
O O3 0.466940 0.691490 0.397075
O O4 0.424420 0.750000 0.000000
O O5 0.341046 0.637965 0.114151
O O6 0.975376 0.126138 0.242503
O O7 0.839991 0.027301 0.196471
O O8 0.999032 0.055602 0.893094
O O9 0.377135 0.096527 0.426036
O O10 0.500000 0.000000 0.500000
#
# Coordination Sequence:
#
# PCOD9396780 Si02
#       5
#     2   8   8   8   8
#     4  12  24  40  64  92 136 182 230 274 330 396
#     4  10  21  37  60  91 131 168 226 281 348 412
#     4   9  17  35  64  92 125 170 216 280 342 407
#     4   8  16  34  64  92 125 166 218 279 334 406
#     4  10  21  38  61  94 130 177 224 281 337 405
#
# _framework density 24.654216999999999
#
# number of rings (size 3 to 8) (size 9 to 14) (size 15 to 20)
#    0.000    2.588    0.000    1.412    0.000    0.941 
#    0.000   17.647   62.118    0.000    0.000    0.000 
#    0.000    0.000    0.000    0.000    0.000    0.000 
#
# Total GULP energy -189353.438443 kJ/mol
# GULP energy per Si atom -5569.218778 kJ/mol
# Density = 2.459810 g / cm^3
# Si number density = 24.654217 Si / 1000 Ang^3
#
#
#
# Elastic Constant Matrix: (Units=GPa)
#
#
# Indices 1 2 3 4 5 6 
#
# 1 90.6420 54.3245 33.6118 0.0000 0.0000 0.0000
# 2 54.3245 196.9474 41.6663 0.0000 0.0000 0.0000
# 3 33.6118 41.6663 121.4402 0.0000 0.0000 0.0000
# 4 0.0000 0.0000 0.0000 68.0264 0.0000 0.0000
# 5 0.0000 0.0000 0.0000 0.0000 11.2354 0.0000
# 6 0.0000 0.0000 0.0000 0.0000 0.0000 23.6325
#
#
#
# Elastic Compliance Matrix: (Units=1/GPa)
#
#
# Indices 1 2 3 4 5 6 
#
# 1 0.014023 -0.003285 -0.002754 0.000000 0.000000 0.000000
# 2 -0.003285 0.006245 -0.001233 0.000000 0.000000 0.000000
# 3 -0.002754 -0.001233 0.009420 0.000000 0.000000 0.000000
# 4 0.000000 0.000000 0.000000 0.014700 0.000000 0.000000
# 5 0.000000 0.000000 0.000000 0.000000 0.089004 0.000000
# 6 0.000000 0.000000 0.000000 0.000000 0.000000 0.042315
#
#
# Mechanical properties :
#
#
# Convention : Reuss Voigt Hill
#
# Bulk Modulus (GPa) = 66.04089 74.24831 70.14460
# Shear Modulus (GPa) = 25.60188 39.20735 32.40461
#
# Velocity S-wave (km/s) = 3.22598 3.99217 3.62935
# Velocity P-wave (km/s) = 6.38129 7.17155 6.78793
#
# Compressibility (1/GPa) = 0.01514213
#
# Stress axis : x y z
#
# Youngs Moduli (GPa) = 71.31354 160.13880 106.15863
#
# Poissons Ratio (x) = 0.52610 0.29236
# Poissons Ratio (y) = 0.23428 0.13092
# Poissons Ratio (z) = 0.19639 0.19749
#
# Static dielectric constant tensor:
#      x y z
#    x 2.091700 0.000000 0.000000 
#    y 0.000000 2.116580 0.000000 
#    z 0.000000 0.000000 1.943200 
# 
# From -- ./inp_files/2239.got.cif
#   From: 2010.05.17/outbox.cif.g08.bks.cpg/sg50_2_cif.got.tgz:2239.got - 2010.06.03 11:33:33.
