data_PCOD9396859
_publ_section_title
;
Structure prediction by ZEFSAII (Michael W. Deem and Ramdas Pophale) SiO2 
 PCOD9396859
Probable space group: P B A N
;
_chemical_formula_sum "Si O2"
_cell_formula_units_Z 40
_cell_length_a 13.436780
_cell_length_b 21.035586
_cell_length_c 5.546524
_cell_angle_alpha 90.000000
_cell_angle_beta 90.000000
_cell_angle_gamma 90.000000
_cell_volume 1567.728011
_symmetry_space_group_name_H-M "P B A N"
_symmetry_group_IT_number 50
_space_group.IT_coordinate_system_code '2'
_symmetry_cell_setting 'orthorhombic'
loop_
_space_group_symop_operation_xyz
x,y,z
1/2-x,1/2-y,z
x,1/2-y,-z
1/2-x,y,-z
-x,-y,-z
1/2+x,1/2+y,-z
-x,1/2+y,z
1/2+x,-y,z
loop_
_atom_site_type_symbol
_atom_site_label
_atom_site_fract_x
_atom_site_fract_y
_atom_site_fract_z
Si Si1 0.636402 0.334887 0.910059
Si Si2 0.906026 0.149657 0.388156
Si Si3 0.362783 0.275649 0.751158
Si Si4 0.544051 0.906746 0.725504
Si Si5 0.308091 0.982740 0.257404
O O1 0.632396 0.316433 0.630050
O O2 0.559490 0.395866 0.872561
O O3 0.750000 0.335322 0.000000
O O4 0.588767 0.307151 0.153693
O O5 0.007860 0.113528 0.458506
O O6 0.835459 0.089720 0.322713
O O7 0.250000 0.250000 0.744047
O O8 0.409299 0.250000 0.500000
O O9 0.376144 0.351180 0.776694
O O10 0.404902 0.250000 0.000000
O O11 0.594094 0.973791 0.757423
O O12 0.250000 0.006024 0.500000
O O13 0.250000 0.986221 0.000000
#
# Coordination Sequence:
#
# PCOD9396859 Si02
#       5
#     8   8   8   8   8
#     4  10  21  38  67  90 131 171 228 264 333 373
#     4  10  22  40  61  91 135 172 228 269 326 381
#     4  10  24  43  69  93 133 164 213 270 346 398
#     4  10  27  39  70  97 128 180 226 274 337 410
#     4  12  26  38  62  94 146 177 228 268 331 396
#
# _framework density 25.51463
#
# number of rings (size 3 to 8) (size 9 to 14) (size 15 to 20)
#    1.200    0.400    0.000    4.200   11.200    0.800 
#    0.000    0.000    0.000    0.600    0.000    0.000 
#    0.000    0.000    0.000    0.000    0.000    0.000 
#
# Total GULP energy -222696.841122 kJ/mol
# GULP energy per Si atom -5567.421028 kJ/mol
# Density = 2.545656 g / cm^3
# Si number density = 25.514630 Si / 1000 Ang^3
#
#
#
# Elastic Constant Matrix: (Units=GPa)
#
#
# Indices 1 2 3 4 5 6 
#
# 1 138.3608 24.3669 56.3724 0.0000 0.0000 0.0000
# 2 24.3669 92.3954 56.1859 0.0000 0.0000 0.0000
# 3 56.3724 56.1859 268.8616 0.0000 0.0000 0.0000
# 4 0.0000 0.0000 0.0000 30.5990 0.0000 0.0000
# 5 0.0000 0.0000 0.0000 0.0000 41.8268 0.0000
# 6 0.0000 0.0000 0.0000 0.0000 0.0000 482.6517
#
#
#
# Elastic Compliance Matrix: (Units=1/GPa)
#
#
# Indices 1 2 3 4 5 6 
#
# 1 0.008027 -0.001253 -0.001421 0.000000 0.000000 0.000000
# 2 -0.001253 0.012594 -0.002369 0.000000 0.000000 0.000000
# 3 -0.001421 -0.002369 0.004513 0.000000 0.000000 0.000000
# 4 0.000000 0.000000 0.000000 0.032681 0.000000 0.000000
# 5 0.000000 0.000000 0.000000 0.000000 0.023908 0.000000
# 6 0.000000 0.000000 0.000000 0.000000 0.000000 0.002072
#
#
# Mechanical properties :
#
#
# Convention : Reuss Voigt Hill
#
# Bulk Modulus (GPa) = 66.45652 85.94091 76.19872
# Shear Modulus (GPa) = 50.55775 135.19503 92.87639
#
# Velocity S-wave (km/s) = 4.45626 7.28713 6.03989
# Velocity P-wave (km/s) = 7.25125 10.22542 8.86397
#
# Compressibility (1/GPa) = 0.01504743
#
# Stress axis : x y z
#
# Youngs Moduli (GPa) = 124.57706 79.40198 221.60651
#
# Poissons Ratio (x) = 0.09946 0.31496
# Poissons Ratio (y) = 0.15605 0.52504
# Poissons Ratio (z) = 0.17706 0.18812
#
# Static dielectric constant tensor:
#      x y z
#    x -0.747750 0.000000 0.000000 
#    y 0.000000 2.021300 0.000000 
#    z 0.000000 0.000000 2.096090 
# 
# From -- ./inp_files/3376.got.cif
#   From: 2010.05.17/outbox.cif.g08.bks.cpg/sg50_2_cif.got.tgz:3376.got - 2010.06.03 11:33:33.
