data_PCOD9396846
_publ_section_title
;
Structure prediction by ZEFSAII (Michael W. Deem and Ramdas Pophale) SiO2 
 PCOD9396846
Probable space group: P B A N
;
_chemical_formula_sum "Si O2"
_cell_formula_units_Z 36
_cell_length_a 10.892757
_cell_length_b 21.800194
_cell_length_c 7.791751
_cell_angle_alpha 90.000000
_cell_angle_beta 90.000000
_cell_angle_gamma 90.000000
_cell_volume 1850.262041
_symmetry_space_group_name_H-M "P B A N"
_symmetry_group_IT_number 50
_space_group.IT_coordinate_system_code '2'
_symmetry_cell_setting 'orthorhombic'
loop_
_space_group_symop_operation_xyz
x,y,z
1/2-x,1/2-y,z
x,1/2-y,-z
1/2-x,y,-z
-x,-y,-z
1/2+x,1/2+y,-z
-x,1/2+y,z
1/2+x,-y,z
loop_
_atom_site_type_symbol
_atom_site_label
_atom_site_fract_x
_atom_site_fract_y
_atom_site_fract_z
Si Si1 0.123552 0.626339 0.793311
Si Si2 0.963465 0.819556 0.493216
Si Si3 0.584139 0.122928 0.822940
Si Si4 0.750000 0.586601 0.500000
Si Si5 0.060597 0.489921 0.687205
O O1 0.070328 0.669415 0.645189
O O2 0.270817 0.624409 0.785657
O O3 0.080793 0.556390 0.764706
O O4 0.075146 0.644872 0.981157
O O5 0.919978 0.750000 0.500000
O O6 0.013700 0.837625 0.680663
O O7 0.858374 0.868093 0.442519
O O8 0.526297 0.055110 0.795985
O O9 0.810197 0.544072 0.353547
O O10 0.000000 0.500000 0.500000
#
# Coordination Sequence:
#
# PCOD9396846 Si02
#       5
#     8   8   8   4   8
#     4  11  22  38  61  90 125 153 199 253 303 365
#     4  11  24  42  62  84 121 166 209 248 292 354
#     4  10  23  38  59  92 118 159 200 246 310 358
#     4  10  21  38  64  90 119 160 200 246 302 364
#     4  11  19  36  63  90 124 157 189 245 311 363
#
# _framework density 19.456703000000001
#
# number of rings (size 3 to 8) (size 9 to 14) (size 15 to 20)
#    0.000    1.333    4.444    3.000    0.000    2.667 
#    0.000    5.556    0.000    5.333    0.000    0.000 
#    0.000    0.000    0.000    0.000    0.000    0.000 
#
# Total GULP energy -201031.453730 kJ/mol
# GULP energy per Si atom -5584.207048 kJ/mol
# Density = 1.941242 g / cm^3
# Si number density = 19.456703 Si / 1000 Ang^3
#
#
#
# Elastic Constant Matrix: (Units=GPa)
#
#
# Indices 1 2 3 4 5 6 
#
# 1 69.5433 8.7934 29.3997 0.0000 0.0000 0.0000
# 2 8.7934 61.5036 19.1271 0.0000 0.0000 0.0000
# 3 29.3997 19.1271 80.6968 0.0000 0.0000 0.0000
# 4 0.0000 0.0000 0.0000 -4.3172 0.0000 0.0000
# 5 0.0000 0.0000 0.0000 0.0000 22.7447 0.0000
# 6 0.0000 0.0000 0.0000 0.0000 0.0000 5.8815
#
#
#
# Elastic Compliance Matrix: (Units=1/GPa)
#
#
# Indices 1 2 3 4 5 6 
#
# 1 0.017014 -0.000545 -0.006070 0.000000 0.000000 0.000000
# 2 -0.000545 0.017571 -0.003966 0.000000 0.000000 0.000000
# 3 -0.006070 -0.003966 0.015543 0.000000 0.000000 0.000000
# 4 0.000000 0.000000 0.000000 -0.231634 0.000000 0.000000
# 5 0.000000 0.000000 0.000000 0.000000 0.043966 0.000000
# 6 0.000000 0.000000 0.000000 0.000000 0.000000 0.170026
#
#
# Mechanical properties :
#
#
# Convention : Reuss Voigt Hill
#
# Bulk Modulus (GPa) = 34.52202 36.26489 35.39345
# Shear Modulus (GPa) = 78.98443 15.15670 47.07057
#
# Velocity S-wave (km/s) = 6.37833 2.79408 4.92392
# Velocity P-wave (km/s) = 8.48679 5.39337 7.11035
#
# Compressibility (1/GPa) = 0.02896702
#
# Stress axis : x y z
#
# Youngs Moduli (GPa) = 58.77381 56.91343 64.33601
#
# Poissons Ratio (x) = 0.03102 0.39049
# Poissons Ratio (y) = 0.03203 0.25516
# Poissons Ratio (z) = 0.35673 0.22572
#
# Static dielectric constant tensor:
#      x y z
#    x 1.699960 0.000000 0.000000 
#    y 0.000000 1.669800 0.000000 
#    z 0.000000 0.000000 1.675140 
# 
# From -- ./inp_files/11241.got.cif
#   From: 2010.05.17/outbox.cif.g08.bks.cpg/sg50_6_cif.got.tgz:11241.got - 2010.06.03 11:33:33.
