data_PCOD9396915
_publ_section_title
;
Structure prediction by ZEFSAII (Michael W. Deem and Ramdas Pophale) SiO2 
 PCOD9396915
Probable space group: P B A N
;
_chemical_formula_sum "Si O2"
_cell_formula_units_Z 34
_cell_length_a 14.809729
_cell_length_b 9.098375
_cell_length_c 11.679463
_cell_angle_alpha 90.000000
_cell_angle_beta 90.000000
_cell_angle_gamma 90.000000
_cell_volume 1573.743030
_symmetry_space_group_name_H-M "P B A N"
_symmetry_group_IT_number 50
_space_group.IT_coordinate_system_code '2'
_symmetry_cell_setting 'orthorhombic'
loop_
_space_group_symop_operation_xyz
x,y,z
1/2-x,1/2-y,z
x,1/2-y,-z
1/2-x,y,-z
-x,-y,-z
1/2+x,1/2+y,-z
-x,1/2+y,z
1/2+x,-y,z
loop_
_atom_site_type_symbol
_atom_site_label
_atom_site_fract_x
_atom_site_fract_y
_atom_site_fract_z
Si Si1 0.696351 0.030059 0.600452
Si Si2 0.250000 0.750000 0.000000
Si Si3 0.987808 0.665175 0.744090
Si Si4 0.386264 0.072667 0.617467
Si Si5 0.616714 0.110264 0.826034
O O1 0.750000 0.108704 0.500000
O O2 0.621190 0.948978 0.521065
O O3 0.778785 0.930387 0.649805
O O4 0.657990 0.129391 0.698610
O O5 0.310325 0.854814 0.079417
O O6 0.058671 0.562740 0.673914
O O7 0.040081 0.767215 0.834040
O O8 0.934899 0.782600 0.664836
O O9 0.923109 0.552752 0.811857
#
# Coordination Sequence:
#
# PCOD9396915 Si02
#       5
#     8   2   8   8   8
#     4   8  20  40  59 101 138 179 206 269 333 418
#     4  12  28  48  70  90 128 190 236 280 332 384
#     4  10  21  39  67 100 132 169 218 279 336 398
#     4   8  19  36  60  96 137 168 208 261 341 407
#     4  11  24  43  68  94 132 174 228 277 331 396
#
# _framework density 21.604544000000001
#
# number of rings (size 3 to 8) (size 9 to 14) (size 15 to 20)
#    1.412    0.941    0.000    1.412    0.000    9.412 
#    8.471    0.000    0.000   12.706    0.000    0.000 
#    0.000    0.000    0.000    0.000    0.000    0.000 
#
# Total GULP energy -189301.071951 kJ/mol
# GULP energy per Si atom -5567.678587 kJ/mol
# Density = 2.155537 g / cm^3
# Si number density = 21.604544 Si / 1000 Ang^3
#
#
#
# Elastic Constant Matrix: (Units=GPa)
#
#
# Indices 1 2 3 4 5 6 
#
# 1 98.3778 72.6151 53.8651 0.0000 0.0000 0.0000
# 2 72.6151 172.2252 56.3980 0.0000 0.0000 0.0000
# 3 53.8651 56.3980 96.0619 0.0000 0.0000 0.0000
# 4 0.0000 0.0000 0.0000 24.0803 0.0000 0.0000
# 5 0.0000 0.0000 0.0000 0.0000 32.9723 0.0000
# 6 0.0000 0.0000 0.0000 0.0000 0.0000 -47.9613
#
#
#
# Elastic Compliance Matrix: (Units=1/GPa)
#
#
# Indices 1 2 3 4 5 6 
#
# 1 0.017827 -0.005253 -0.006912 0.000000 0.000000 0.000000
# 2 -0.005253 0.008736 -0.002184 0.000000 0.000000 0.000000
# 3 -0.006912 -0.002184 0.015568 0.000000 0.000000 0.000000
# 4 0.000000 0.000000 0.000000 0.041528 0.000000 0.000000
# 5 0.000000 0.000000 0.000000 0.000000 0.030329 0.000000
# 6 0.000000 0.000000 0.000000 0.000000 0.000000 -0.020850
#
#
# Mechanical properties :
#
#
# Convention : Reuss Voigt Hill
#
# Bulk Modulus (GPa) = 74.43977 81.38016 77.90996
# Shear Modulus (GPa) = 39.58464 14.07070 26.82767
#
# Velocity S-wave (km/s) = 4.28511 2.55480 3.52769
# Velocity P-wave (km/s) = 7.68201 6.81561 7.26174
#
# Compressibility (1/GPa) = 0.01343368
#
# Stress axis : x y z
#
# Youngs Moduli (GPa) = 56.09562 114.46732 64.23516
#
# Poissons Ratio (x) = 0.60127 0.44400
# Poissons Ratio (y) = 0.29466 0.14026
# Poissons Ratio (z) = 0.38774 0.24995
#
# Static dielectric constant tensor:
#      x y z
#    x 2.001520 0.000000 0.000000 
#    y 0.000000 1.802050 0.000000 
#    z 0.000000 0.000000 1.772360 
# 
# From -- ./inp_files/18649.got.cif
#   From: 2010.05.17/outbox.cif.g08.bks.cpg/sg50_10_cif.got.tgz:18649.got - 2010.06.03 11:33:33.
