data_PCOD9396711
_publ_section_title
;
Structure prediction by ZEFSAII (Michael W. Deem and Ramdas Pophale) SiO2 
 PCOD9396711
Probable space group: P B A N
;
_chemical_formula_sum "Si O2"
_cell_formula_units_Z 38
_cell_length_a 13.644315
_cell_length_b 23.946422
_cell_length_c 4.982822
_cell_angle_alpha 90.000000
_cell_angle_beta 90.000000
_cell_angle_gamma 90.000000
_cell_volume 1628.050013
_symmetry_space_group_name_H-M "P B A N"
_symmetry_group_IT_number 50
_space_group.IT_coordinate_system_code '2'
_symmetry_cell_setting 'orthorhombic'
loop_
_space_group_symop_operation_xyz
x,y,z
1/2-x,1/2-y,z
x,1/2-y,-z
1/2-x,y,-z
-x,-y,-z
1/2+x,1/2+y,-z
-x,1/2+y,z
1/2+x,-y,z
loop_
_atom_site_type_symbol
_atom_site_label
_atom_site_fract_x
_atom_site_fract_y
_atom_site_fract_z
Si Si1 0.159006 0.532565 0.358126
Si Si2 0.750000 0.126970 0.000000
Si Si3 0.750000 0.250000 0.500000
Si Si4 0.365003 0.071912 0.007571
Si Si5 0.517062 0.603695 0.497568
Si Si6 0.585608 0.194869 0.859736
O O1 0.250000 0.502452 0.500000
O O2 0.123154 0.490191 0.130240
O O3 0.071310 0.559101 0.527273
O O4 0.211228 0.586024 0.227590
O O5 0.851618 0.158827 0.923799
O O6 0.678578 0.214689 0.685542
O O7 0.427700 0.110282 0.215247
O O8 0.250000 0.086112 0.000000
O O9 0.409041 0.076494 0.712798
O O10 0.480274 0.658739 0.658387
O O11 0.541539 0.250000 0.000000
#
# Coordination Sequence:
#
# PCOD9396711 Si02
#       6
#     8   4   2   8   8   8
#     4  11  24  38  68 102 153 189 232 280 364 439
#     4  10  21  36  60 102 144 194 217 268 354 458
#     4  12  22  40  72 102 146 184 218 280 386 460
#     4  12  25  48  67  97 140 202 250 305 338 405
#     4  11  28  41  72 104 145 187 247 291 363 428
#     4  11  24  40  66 103 149 180 231 287 370 452
#
# _framework density 23.340805
#
# number of rings (size 3 to 8) (size 9 to 14) (size 15 to 20)
#    0.000    0.842    3.158    3.158   14.737    0.000 
#    0.000    0.000    0.000    0.632    0.000    0.000 
#    0.000    0.000    0.000    0.000    0.000    0.000 
#
# Total GULP energy -212609.877162 kJ/mol
# GULP energy per Si atom -5594.996767 kJ/mol
# Density = 2.328768 g / cm^3
# Si number density = 23.340805 Si / 1000 Ang^3
#
#
#
# Elastic Constant Matrix: (Units=GPa)
#
#
# Indices 1 2 3 4 5 6 
#
# 1 131.3352 21.5737 29.4769 0.0000 0.0000 0.0000
# 2 21.5737 88.3181 -2.1674 0.0000 0.0000 0.0000
# 3 29.4769 -2.1674 75.9995 0.0000 0.0000 0.0000
# 4 0.0000 0.0000 0.0000 31.7604 0.0000 0.0000
# 5 0.0000 0.0000 0.0000 0.0000 50.8379 0.0000
# 6 0.0000 0.0000 0.0000 0.0000 0.0000 14.5758
#
#
#
# Elastic Compliance Matrix: (Units=1/GPa)
#
#
# Indices 1 2 3 4 5 6 
#
# 1 0.008756 -0.002224 -0.003459 0.000000 0.000000 0.000000
# 2 -0.002224 0.011895 0.001202 0.000000 0.000000 0.000000
# 3 -0.003459 0.001202 0.014534 0.000000 0.000000 0.000000
# 4 0.000000 0.000000 0.000000 0.031486 0.000000 0.000000
# 5 0.000000 0.000000 0.000000 0.000000 0.019670 0.000000
# 6 0.000000 0.000000 0.000000 0.000000 0.000000 0.068607
#
#
# Mechanical properties :
#
#
# Convention : Reuss Voigt Hill
#
# Bulk Modulus (GPa) = 38.13531 43.71323 40.92427
# Shear Modulus (GPa) = 28.96003 35.88614 32.42309
#
# Velocity S-wave (km/s) = 3.52625 3.92533 3.73113
# Velocity P-wave (km/s) = 5.74048 6.27002 6.01109
#
# Compressibility (1/GPa) = 0.02622242
#
# Stress axis : x y z
#
# Youngs Moduli (GPa) = 114.20986 84.06615 68.80411
#
# Poissons Ratio (x) = 0.18694 0.23802
# Poissons Ratio (y) = 0.25397 -0.08268
# Poissons Ratio (z) = 0.39510 -0.10102
#
# Static dielectric constant tensor:
#      x y z
#    x 1.915070 0.000000 0.000000 
#    y 0.000000 2.178430 0.000000 
#    z 0.000000 0.000000 1.999200 
# 
# From -- ./inp_files/2450.got.cif
#   From: 2010.05.17/outbox.cif.g08.bks.cpg/sg50_2_cif.got.tgz:2450.got - 2010.06.03 11:33:33.
