data_PCOD9396855
_publ_section_title
;
Structure prediction by ZEFSAII (Michael W. Deem and Ramdas Pophale) SiO2 
 PCOD9396855
Probable space group: P B A N
;
_chemical_formula_sum "Si O2"
_cell_formula_units_Z 64
_cell_length_a 18.371911
_cell_length_b 11.202728
_cell_length_c 15.352425
_cell_angle_alpha 90.000000
_cell_angle_beta 90.000000
_cell_angle_gamma 90.000000
_cell_volume 3159.767362
_symmetry_space_group_name_H-M "P B A N"
_symmetry_group_IT_number 50
_space_group.IT_coordinate_system_code '2'
_symmetry_cell_setting 'orthorhombic'
loop_
_space_group_symop_operation_xyz
x,y,z
1/2-x,1/2-y,z
x,1/2-y,-z
1/2-x,y,-z
-x,-y,-z
1/2+x,1/2+y,-z
-x,1/2+y,z
1/2+x,-y,z
loop_
_atom_site_type_symbol
_atom_site_label
_atom_site_fract_x
_atom_site_fract_y
_atom_site_fract_z
Si Si1 0.922317 0.382968 0.491876
Si Si2 0.331288 0.377677 0.534996
Si Si3 0.572838 0.674637 0.802426
Si Si4 0.354174 0.994371 0.924546
Si Si5 0.312737 0.941139 0.111627
Si Si6 0.368633 0.082398 0.271061
Si Si7 0.488233 0.472419 0.350964
Si Si8 0.070283 0.758101 0.100799
O O1 0.889846 0.250000 0.500000
O O2 0.872342 0.500223 0.507212
O O3 0.984106 0.393003 0.567099
O O4 0.955812 0.409394 0.396906
O O5 0.362283 0.250000 0.500000
O O6 0.250000 0.384431 0.500000
O O7 0.330437 0.380809 0.639328
O O8 0.623602 0.612366 0.874063
O O9 0.607164 0.799145 0.776959
O O10 0.564458 0.594681 0.715309
O O11 0.492464 0.702119 0.840461
O O12 0.273139 0.945266 0.905897
O O13 0.411330 0.896867 0.888321
O O14 0.353570 0.005498 0.029667
O O15 0.324021 0.003841 0.203662
O O16 0.354235 0.814584 0.112218
O O17 0.440331 0.009602 0.298464
O O18 0.047267 0.750000 0.000000
#
# Coordination Sequence:
#
# PCOD9396855 Si02
#       8
#     8   8   8   8   8   8   8   8
#     4  10  21  38  66  91 124 160 210 274 332 386
#     4  10  23  43  64  87 123 173 215 256 334 414
#     4  12  23  37  63  99 129 164 218 268 324 382
#     4  10  24  40  63  90 123 179 212 263 323 385
#     4  10  22  44  62  87 130 167 220 258 325 391
#     4  11  23  38  63  90 126 164 207 270 313 392
#     4  10  21  39  58  93 127 162 204 261 334 392
#     4  10  22  39  66  89 125 169 219 269 320 385
#
# _framework density 20.254655
#
# number of rings (size 3 to 8) (size 9 to 14) (size 15 to 20)
#    0.000    1.625    1.250    2.625    1.750    9.750 
#    0.000    1.250    2.750    0.000    0.000    0.000 
#    0.000    0.000    0.000    0.000    0.000    0.000 
#
# Total GULP energy -357233.653013 kJ/mol
# GULP energy per Si atom -5581.775828 kJ/mol
# Density = 2.020855 g / cm^3
# Si number density = 20.254655 Si / 1000 Ang^3
#
#
#
# Elastic Constant Matrix: (Units=GPa)
#
#
# Indices 1 2 3 4 5 6 
#
# 1 51.1999 17.5917 10.7471 0.0000 0.0000 0.0000
# 2 17.5917 81.2277 35.2581 0.0000 0.0000 0.0000
# 3 10.7471 35.2581 90.8975 0.0000 0.0000 0.0000
# 4 0.0000 0.0000 0.0000 26.8845 0.0000 0.0000
# 5 0.0000 0.0000 0.0000 0.0000 -8.7626 0.0000
# 6 0.0000 0.0000 0.0000 0.0000 0.0000 14.2401
#
#
#
# Elastic Compliance Matrix: (Units=1/GPa)
#
#
# Indices 1 2 3 4 5 6 
#
# 1 0.021159 -0.004204 -0.000871 0.000000 0.000000 0.000000
# 2 -0.004204 0.015639 -0.005569 0.000000 0.000000 0.000000
# 3 -0.000871 -0.005569 0.013265 0.000000 0.000000 0.000000
# 4 0.000000 0.000000 0.000000 0.037196 0.000000 0.000000
# 5 0.000000 0.000000 0.000000 0.000000 -0.114121 0.000000
# 6 0.000000 0.000000 0.000000 0.000000 0.000000 0.070224
#
#
# Mechanical properties :
#
#
# Convention : Reuss Voigt Hill
#
# Bulk Modulus (GPa) = 34.75410 38.94654 36.85032
# Shear Modulus (GPa) = 67.34831 17.12094 42.23463
#
# Velocity S-wave (km/s) = 5.77260 2.91053 4.57133
# Velocity P-wave (km/s) = 7.85025 5.52857 6.78939
#
# Compressibility (1/GPa) = 0.02877359
#
# Stress axis : x y z
#
# Youngs Moduli (GPa) = 47.26199 63.94279 75.38891
#
# Poissons Ratio (x) = 0.26884 0.06565
# Poissons Ratio (y) = 0.19871 0.41985
# Poissons Ratio (z) = 0.04116 0.35610
#
# Static dielectric constant tensor:
#      x y z
#    x 1.740080 0.000000 0.000000 
#    y 0.000000 1.716470 0.000000 
#    z 0.000000 0.000000 1.744890 
# 
# From -- ./inp_files/27013.got.cif
#   From: 2010.05.17/outbox.cif.g08.bks.cpg/sg50_14_cif.got.tgz:27013.got - 2010.06.03 11:33:33.
