data_PCOD9396311
_publ_section_title
;
Structure prediction by ZEFSAII (Michael W. Deem and Ramdas Pophale) SiO2 
 PCOD9396311
Probable space group: P B A N
;
_chemical_formula_sum "Si O2"
_cell_formula_units_Z 26
_cell_length_a 9.570320
_cell_length_b 15.824612
_cell_length_c 7.463008
_cell_angle_alpha 90.000000
_cell_angle_beta 90.000000
_cell_angle_gamma 90.000000
_cell_volume 1130.247193
_symmetry_space_group_name_H-M "P B A N"
_symmetry_group_IT_number 50
_space_group.IT_coordinate_system_code '2'
_symmetry_cell_setting 'orthorhombic'
loop_
_space_group_symop_operation_xyz
x,y,z
1/2-x,1/2-y,z
x,1/2-y,-z
1/2-x,y,-z
-x,-y,-z
1/2+x,1/2+y,-z
-x,1/2+y,z
1/2+x,-y,z
loop_
_atom_site_type_symbol
_atom_site_label
_atom_site_fract_x
_atom_site_fract_y
_atom_site_fract_z
Si Si1 0.876750 0.962042 0.881945
Si Si2 0.415118 0.088340 0.530541
Si Si3 0.750000 0.250000 0.000000
Si Si4 0.654930 0.134677 0.319239
O O1 0.818408 0.040440 0.761372
O O2 0.935664 0.894781 0.740849
O O3 0.750000 0.929728 0.000000
O O4 0.000000 0.000000 0.000000
O O5 0.250000 0.087257 0.500000
O O6 0.498091 0.146009 0.393287
O O7 0.500000 0.000000 0.500000
O O8 0.671503 0.191478 0.144001
O O9 0.750000 0.147233 0.500000
#
# Coordination Sequence:
#
# PCOD9396311 Si02
#       4
#     8   8   2   8
#     4  11  19  33  61 101 137 165 210 272 352 418
#     4  10  20  36  62 100 142 170 207 284 355 409
#     4  12  26  44  76  92 128 200 254 292 328 442
#     4  11  23  43  66  99 135 180 238 288 345 410
#
# _framework density 23.003813999999998
#
# number of rings (size 3 to 8) (size 9 to 14) (size 15 to 20)
#    0.000    1.231    1.538    9.692    0.000    0.000 
#    0.000    0.000    0.000    5.538    0.000    0.000 
#    0.000    0.000    0.000    0.000    0.000    0.000 
#
# Total GULP energy -144983.502377 kJ/mol
# GULP energy per Si atom -5576.288553 kJ/mol
# Density = 2.295146 g / cm^3
# Si number density = 23.003814 Si / 1000 Ang^3
#
#
#
# Elastic Constant Matrix: (Units=GPa)
#
#
# Indices 1 2 3 4 5 6 
#
# 1 159.9717 4.8274 84.2574 0.0000 0.0000 0.0000
# 2 4.8274 34.2864 36.7365 0.0000 0.0000 0.0000
# 3 84.2574 36.7365 226.4207 0.0000 0.0000 0.0000
# 4 0.0000 0.0000 0.0000 32.2600 0.0000 0.0000
# 5 0.0000 0.0000 0.0000 0.0000 53.6704 0.0000
# 6 0.0000 0.0000 0.0000 0.0000 0.0000 -6.4242
#
#
#
# Elastic Compliance Matrix: (Units=1/GPa)
#
#
# Indices 1 2 3 4 5 6 
#
# 1 0.007946 0.002481 -0.003359 0.000000 0.000000 0.000000
# 2 0.002481 0.036078 -0.006777 0.000000 0.000000 0.000000
# 3 -0.003359 -0.006777 0.006766 0.000000 0.000000 0.000000
# 4 0.000000 0.000000 0.000000 0.030998 0.000000 0.000000
# 5 0.000000 0.000000 0.000000 0.000000 0.018632 0.000000
# 6 0.000000 0.000000 0.000000 0.000000 0.000000 -0.155662
#
#
# Mechanical properties :
#
#
# Convention : Reuss Voigt Hill
#
# Bulk Modulus (GPa) = 28.18582 74.70235 51.44409
# Shear Modulus (GPa) = -177.90017 35.55843 -71.17087
#
# Velocity S-wave (km/s) = -8.80358 3.93588 -5.56829
# Velocity P-wave (km/s) = 9.54243 7.29379 4.35079
#
# Compressibility (1/GPa) = 0.03547883
#
# Stress axis : x y z
#
# Youngs Moduli (GPa) = 125.85639 27.71789 147.79501
#
# Poissons Ratio (x) = -0.06876 0.49648
# Poissons Ratio (y) = -0.31220 1.00156
# Poissons Ratio (z) = 0.42278 0.18783
#
# Static dielectric constant tensor:
#      x y z
#    x 2.009350 0.000000 0.000000 
#    y 0.000000 2.054020 0.000000 
#    z 0.000000 0.000000 1.940370 
# 
# From -- ./inp_files/8796.got.cif
#   From: 2010.05.17/outbox.cif.g08.bks.cpg/sg50_5_cif.got.tgz:8796.got - 2010.06.03 11:33:33.
