data_PCOD9396282
_publ_section_title
;
Structure prediction by ZEFSAII (Michael W. Deem and Ramdas Pophale) SiO2 
 PCOD9396282
Probable space group: P B A N
;
_chemical_formula_sum "Si O2"
_cell_formula_units_Z 58
_cell_length_a 28.098621
_cell_length_b 7.573598
_cell_length_c 11.992414
_cell_angle_alpha 90.000000
_cell_angle_beta 90.000000
_cell_angle_gamma 90.000000
_cell_volume 2552.077559
_symmetry_space_group_name_H-M "P B A N"
_symmetry_group_IT_number 50
_space_group.IT_coordinate_system_code '2'
_symmetry_cell_setting 'orthorhombic'
loop_
_space_group_symop_operation_xyz
x,y,z
1/2-x,1/2-y,z
x,1/2-y,-z
1/2-x,y,-z
-x,-y,-z
1/2+x,1/2+y,-z
-x,1/2+y,z
1/2+x,-y,z
loop_
_atom_site_type_symbol
_atom_site_label
_atom_site_fract_x
_atom_site_fract_y
_atom_site_fract_z
Si Si1 0.036766 0.145817 0.313681
Si Si2 0.430700 0.554045 0.696675
Si Si3 0.236423 0.953737 0.879419
Si Si4 0.309340 0.039885 0.682099
Si Si5 0.108039 0.401792 0.859450
Si Si6 0.885577 0.537396 0.480031
Si Si7 0.874847 0.005202 0.094733
Si Si8 0.250000 0.250000 0.500000
O O1 0.054854 0.346662 0.306725
O O2 0.058307 0.057624 0.201493
O O3 0.063969 0.050656 0.415146
O O4 0.980493 0.148877 0.323007
O O5 0.393457 0.560718 0.595990
O O6 0.407013 0.603944 0.814432
O O7 0.250000 0.750000 0.889384
O O8 0.266580 0.005163 0.770400
O O9 0.179981 0.977116 0.869082
O O10 0.250000 0.038586 0.000000
O O11 0.349871 0.102799 0.768336
O O12 0.346592 0.941587 0.597862
O O13 0.282205 0.143085 0.585546
O O14 0.108421 0.197612 0.895374
O O15 0.120222 0.532819 0.961645
O O16 0.874129 0.750000 0.500000
#
# Coordination Sequence:
#
# PCOD9396282 Si02
#       8
#     8   8   8   8   8   8   8   2
#     4   9  19  35  58  82 120 154 198 250 309 370
#     4  10  20  36  58  88 118 159 204 254 310 376
#     4  11  24  43  63  86 128 171 208 247 312 382
#     4  11  21  37  59  90 120 156 203 256 311 368
#     4   9  19  37  60  89 118 152 198 264 315 359
#     4   9  18  35  58  83 118 153 194 253 309 363
#     4  10  20  37  61  87 120 154 207 258 310 368
#     4  12  24  32  68  96 120 152 208 268 316 360
#
# _framework density 22.726583000000002
#
# number of rings (size 3 to 8) (size 9 to 14) (size 15 to 20)
#    0.000    2.069    2.069    2.069    1.931    0.552 
#    4.966    0.345    0.000    0.000    0.000    0.000 
#    0.000    0.000    0.000    0.000    0.000    0.000 
#
# Total GULP energy -322902.102298 kJ/mol
# GULP energy per Si atom -5567.277626 kJ/mol
# Density = 2.267486 g / cm^3
# Si number density = 22.726583 Si / 1000 Ang^3
#
#
#
# Elastic Constant Matrix: (Units=GPa)
#
#
# Indices 1 2 3 4 5 6 
#
# 1 80.7625 16.2901 52.0825 0.0000 0.0000 0.0000
# 2 16.2901 32.1460 34.2816 0.0000 0.0000 0.0000
# 3 52.0825 34.2816 173.4911 0.0000 0.0000 0.0000
# 4 0.0000 0.0000 0.0000 7.7002 0.0000 0.0000
# 5 0.0000 0.0000 0.0000 0.0000 68.5632 0.0000
# 6 0.0000 0.0000 0.0000 0.0000 0.0000 -6.2961
#
#
#
# Elastic Compliance Matrix: (Units=1/GPa)
#
#
# Indices 1 2 3 4 5 6 
#
# 1 0.015696 -0.003711 -0.003979 0.000000 0.000000 0.000000
# 2 -0.003711 0.040291 -0.006847 0.000000 0.000000 0.000000
# 3 -0.003979 -0.006847 0.008311 0.000000 0.000000 0.000000
# 4 0.000000 0.000000 0.000000 0.129866 0.000000 0.000000
# 5 0.000000 0.000000 0.000000 0.000000 0.014585 0.000000
# 6 0.000000 0.000000 0.000000 0.000000 0.000000 -0.158828
#
#
# Mechanical properties :
#
#
# Convention : Reuss Voigt Hill
#
# Bulk Modulus (GPa) = 28.38949 54.63422 41.51186
# Shear Modulus (GPa) = 55.10365 26.24316 40.67340
#
# Velocity S-wave (km/s) = 4.92940 3.40182 4.23506
# Velocity P-wave (km/s) = 6.70205 6.28664 6.49767
#
# Compressibility (1/GPa) = 0.03522430
#
# Stress axis : x y z
#
# Youngs Moduli (GPa) = 63.70894 24.81950 120.31591
#
# Poissons Ratio (x) = 0.09211 0.47871
# Poissons Ratio (y) = 0.23643 0.82384
# Poissons Ratio (z) = 0.25348 0.16995
#
# Static dielectric constant tensor:
#      x y z
#    x 1.878920 0.000000 0.000000 
#    y 0.000000 1.881310 0.000000 
#    z 0.000000 0.000000 1.789090 
# 
# From -- ./inp_files/23159.got.cif
#   From: 2010.05.17/outbox.cif.g08.bks.cpg/sg50_12_cif.got.tgz:23159.got - 2010.06.03 11:33:33.
