data_PCOD9396756
_publ_section_title
;
Structure prediction by ZEFSAII (Michael W. Deem and Ramdas Pophale) SiO2 
 PCOD9396756
Probable space group: P B A N
;
_chemical_formula_sum "Si O2"
_cell_formula_units_Z 64
_cell_length_a 20.856564
_cell_length_b 17.265234
_cell_length_c 9.551317
_cell_angle_alpha 90.000000
_cell_angle_beta 90.000000
_cell_angle_gamma 90.000000
_cell_volume 3439.366766
_symmetry_space_group_name_H-M "P B A N"
_symmetry_group_IT_number 50
_space_group.IT_coordinate_system_code '2'
_symmetry_cell_setting 'orthorhombic'
loop_
_space_group_symop_operation_xyz
x,y,z
1/2-x,1/2-y,z
x,1/2-y,-z
1/2-x,y,-z
-x,-y,-z
1/2+x,1/2+y,-z
-x,1/2+y,z
1/2+x,-y,z
loop_
_atom_site_type_symbol
_atom_site_label
_atom_site_fract_x
_atom_site_fract_y
_atom_site_fract_z
Si Si1 0.674741 0.595930 0.333370
Si Si2 0.874668 0.158424 0.836570
Si Si3 0.125332 0.658424 0.163430
Si Si4 0.672410 0.750000 0.839388
Si Si5 0.070102 0.963224 0.340997
Si Si6 0.570102 0.463224 0.340997
Si Si7 0.825259 0.595930 0.333370
Si Si8 0.750000 0.343681 0.342574
O O1 0.655672 0.671928 0.244958
O O2 0.624924 0.526552 0.305949
O O3 0.750000 0.576520 0.302658
O O4 0.671360 0.613064 0.500000
O O5 0.886008 0.250000 0.820023
O O6 0.928914 0.106204 0.768947
O O7 0.812267 0.136365 0.746214
O O8 0.864469 0.143116 1.000000
O O9 0.071086 0.606204 0.231053
O O10 0.187733 0.636365 0.253786
O O11 0.750000 0.750000 0.844249
O O12 0.655672 0.671928 0.755042
O O13 0.648826 0.750000 0.000000
O O14 0.000000 1.000000 0.341034
O O15 0.083564 0.935066 0.500000
O O16 0.124924 0.026552 0.305949
O O17 0.750000 0.250000 0.353162
O O18 0.750000 0.376255 0.500000
#
# Coordination Sequence:
#
# PCOD9396756 Si02
#       8
#     8   8   8   8   8   8   8   8
#     4   9  18  34  57  82 109 143 182 229 281 333
#     4  10  21  37  57  83 116 152 189 231 285 345
#     4  10  21  37  57  83 116 152 189 231 285 345
#     4   9  17  31  53  83 113 139 176 225 276 336
#     4  10  22  39  57  82 114 148 191 239 285 336
#     4  10  22  39  57  82 114 148 191 239 285 336
#     4   9  18  34  57  82 109 143 182 229 281 333
#     4   9  17  31  55  85 113 144 185 232 277 325
#
# _framework density 18.608074999999999
#
# number of rings (size 3 to 8) (size 9 to 14) (size 15 to 20)
#    0.000    2.500    0.000    1.500    1.750    6.000 
#    2.250    0.000    0.000    0.000    0.000    0.000 
#    0.000    0.000    0.000    0.000    0.000    0.000 
#
# Total GULP energy -356974.309998 kJ/mol
# GULP energy per Si atom -5577.723594 kJ/mol
# Density = 1.856572 g / cm^3
# Si number density = 18.608075 Si / 1000 Ang^3
#
#
#
# Elastic Constant Matrix: (Units=GPa)
#
#
# Indices 1 2 3 4 5 6 
#
# 1 60.6629 34.9990 40.2312 0.0000 0.0000 0.0000
# 2 34.9990 73.0449 74.9397 0.0000 0.0000 0.0000
# 3 40.2312 74.9397 127.2413 0.0000 0.0000 0.0000
# 4 0.0000 0.0000 0.0000 29.8589 0.0000 0.0000
# 5 0.0000 0.0000 0.0000 0.0000 135.6239 0.0000
# 6 0.0000 0.0000 0.0000 0.0000 0.0000 21.4691
#
#
#
# Elastic Compliance Matrix: (Units=1/GPa)
#
#
# Indices 1 2 3 4 5 6 
#
# 1 0.022977 -0.008985 -0.001973 0.000000 0.000000 0.000000
# 2 -0.008985 0.038105 -0.019602 0.000000 0.000000 0.000000
# 3 -0.001973 -0.019602 0.020027 0.000000 0.000000 0.000000
# 4 0.000000 0.000000 0.000000 0.033491 0.000000 0.000000
# 5 0.000000 0.000000 0.000000 0.000000 0.007373 0.000000
# 6 0.000000 0.000000 0.000000 0.000000 0.000000 0.046578
#
#
# Mechanical properties :
#
#
# Convention : Reuss Voigt Hill
#
# Bulk Modulus (GPa) = 50.02394 62.36544 56.19469
# Shear Modulus (GPa) = 21.15642 44.77567 32.96604
#
# Velocity S-wave (km/s) = 3.37552 4.91068 4.21360
# Velocity P-wave (km/s) = 6.49103 8.10808 7.34420
#
# Compressibility (1/GPa) = 0.01999043
#
# Stress axis : x y z
#
# Youngs Moduli (GPa) = 43.52202 26.24305 49.93162
#
# Poissons Ratio (x) = 0.23579 0.09852
# Poissons Ratio (y) = 0.39104 0.97874
# Poissons Ratio (z) = 0.08587 0.51440
#
# Static dielectric constant tensor:
#      x y z
#    x 1.643760 0.000000 0.000000 
#    y 0.000000 1.650760 0.000000 
#    z 0.000000 0.000000 1.629430 
# 
# From -- ./inp_files/15511.got.cif
#   From: 2010.05.17/outbox.cif.g08.bks.cpg/sg50_8_cif.got.tgz:15511.got - 2010.06.03 11:33:33.
