data_PCOD9396386
_publ_section_title
;
Structure prediction by ZEFSAII (Michael W. Deem and Ramdas Pophale) SiO2 
 PCOD9396386
Probable space group: P B A N
;
_chemical_formula_sum "Si O2"
_cell_formula_units_Z 34
_cell_length_a 10.338151
_cell_length_b 12.578714
_cell_length_c 10.098144
_cell_angle_alpha 90.000000
_cell_angle_beta 90.000000
_cell_angle_gamma 90.000000
_cell_volume 1313.169156
_symmetry_space_group_name_H-M "P B A N"
_symmetry_group_IT_number 50
_space_group.IT_coordinate_system_code '2'
_symmetry_cell_setting 'orthorhombic'
loop_
_space_group_symop_operation_xyz
x,y,z
1/2-x,1/2-y,z
x,1/2-y,-z
1/2-x,y,-z
-x,-y,-z
1/2+x,1/2+y,-z
-x,1/2+y,z
1/2+x,-y,z
loop_
_atom_site_type_symbol
_atom_site_label
_atom_site_fract_x
_atom_site_fract_y
_atom_site_fract_z
Si Si1 0.388822 0.439705 0.635597
Si Si2 0.826069 0.657579 0.218703
Si Si3 0.055208 0.842573 0.595110
Si Si4 0.750000 0.250000 0.000000
Si Si5 0.583799 0.444502 0.884020
O O1 0.270745 0.363425 0.660849
O O2 0.346869 0.563547 0.631567
O O3 0.455135 0.401738 0.501942
O O4 0.492150 0.430347 0.755555
O O5 0.750000 0.750000 0.143051
O O6 0.969168 0.683975 0.274581
O O7 0.822791 0.543221 0.149390
O O8 0.104613 0.750000 0.500000
O O9 0.657073 0.334910 0.922113
O O10 0.500000 0.500000 0.000000
#
# Coordination Sequence:
#
# PCOD9396386 Si02
#       5
#     8   8   8   2   8
#     4  10  22  37  64 101 135 174 226 275 344 421
#     4  11  22  40  73 102 136 176 233 286 353 431
#     4  10  20  37  63 100 136 175 216 276 346 413
#     4  12  28  52  74  94 146 188 244 310 352 412
#     4  11  27  47  69 101 136 186 239 295 356 417
#
# _framework density 25.891563000000001
#
# number of rings (size 3 to 8) (size 9 to 14) (size 15 to 20)
#    0.000    1.412    2.353    2.118    3.294    1.882 
#    0.000    1.176    0.000   12.706    0.000    0.000 
#    0.000    0.000    0.000    0.000    0.000    0.000 
#
# Total GULP energy -189911.921753 kJ/mol
# GULP energy per Si atom -5585.644757 kJ/mol
# Density = 2.583263 g / cm^3
# Si number density = 25.891563 Si / 1000 Ang^3
#
#
#
# Elastic Constant Matrix: (Units=GPa)
#
#
# Indices 1 2 3 4 5 6 
#
# 1 68.7818 59.6157 26.3818 0.0000 0.0000 0.0000
# 2 59.6157 251.3971 43.5972 0.0000 0.0000 0.0000
# 3 26.3818 43.5972 97.7066 0.0000 0.0000 0.0000
# 4 0.0000 0.0000 0.0000 50.0086 0.0000 0.0000
# 5 0.0000 0.0000 0.0000 0.0000 35.8725 0.0000
# 6 0.0000 0.0000 0.0000 0.0000 0.0000 46.3826
#
#
#
# Elastic Compliance Matrix: (Units=1/GPa)
#
#
# Indices 1 2 3 4 5 6 
#
# 1 0.019309 -0.003983 -0.003436 0.000000 0.000000 0.000000
# 2 -0.003983 0.005133 -0.001215 0.000000 0.000000 0.000000
# 3 -0.003436 -0.001215 0.011705 0.000000 0.000000 0.000000
# 4 0.000000 0.000000 0.000000 0.019997 0.000000 0.000000
# 5 0.000000 0.000000 0.000000 0.000000 0.027877 0.000000
# 6 0.000000 0.000000 0.000000 0.000000 0.000000 0.021560
#
#
# Mechanical properties :
#
#
# Convention : Reuss Voigt Hill
#
# Bulk Modulus (GPa) = 52.97152 75.23054 64.10103
# Shear Modulus (GPa) = 38.71745 45.67213 42.19479
#
# Velocity S-wave (km/s) = 3.87120 4.20453 4.04130
# Velocity P-wave (km/s) = 6.36278 7.25878 6.82550
#
# Compressibility (1/GPa) = 0.01887807
#
# Stress axis : x y z
#
# Youngs Moduli (GPa) = 51.78944 194.81924 85.43583
#
# Poissons Ratio (x) = 0.77595 0.29359
# Poissons Ratio (y) = 0.20627 0.10380
# Poissons Ratio (z) = 0.17797 0.23669
#
# Static dielectric constant tensor:
#      x y z
#    x 2.174650 0.000000 0.000000 
#    y 0.000000 2.524910 0.000000 
#    z 0.000000 0.000000 2.066030 
# 
# From -- ./inp_files/19785.got.cif
#   From: 2010.05.17/outbox.cif.g08.bks.cpg/sg50_10_cif.got.tgz:19785.got - 2010.06.03 11:33:33.
