data_PCOD9396061
_publ_section_title
;
Structure prediction by ZEFSAII (Michael W. Deem and Ramdas Pophale) SiO2 
 PCOD9396061
Probable space group: P B A N
;
_chemical_formula_sum "Si O2"
_cell_formula_units_Z 52
_cell_length_a 9.339404
_cell_length_b 27.703361
_cell_length_c 11.873166
_cell_angle_alpha 90.000000
_cell_angle_beta 90.000000
_cell_angle_gamma 90.000000
_cell_volume 3071.978440
_symmetry_space_group_name_H-M "P B A N"
_symmetry_group_IT_number 50
_space_group.IT_coordinate_system_code '2'
_symmetry_cell_setting 'orthorhombic'
loop_
_space_group_symop_operation_xyz
x,y,z
1/2-x,1/2-y,z
x,1/2-y,-z
1/2-x,y,-z
-x,-y,-z
1/2+x,1/2+y,-z
-x,1/2+y,z
1/2+x,-y,z
loop_
_atom_site_type_symbol
_atom_site_label
_atom_site_fract_x
_atom_site_fract_y
_atom_site_fract_z
Si Si1 0.734526 0.192875 0.374181
Si Si2 0.456071 0.138209 0.297955
Si Si3 0.057942 0.946487 0.622772
Si Si4 0.393601 0.955647 0.645561
Si Si5 0.248552 0.192265 0.133491
Si Si6 0.250000 0.160728 0.500000
Si Si7 0.464837 0.158894 0.686343
O O1 0.750000 0.250000 0.379030
O O2 0.750000 0.172070 0.500000
O O3 0.585043 0.174045 0.329498
O O4 0.872545 0.175550 0.308156
O O5 0.524835 0.085581 0.284303
O O6 0.375960 0.162902 0.193893
O O7 0.345305 0.135169 0.403594
O O8 0.222644 0.951891 0.664398
O O9 0.074948 0.945377 0.487017
O O10 0.978053 0.897734 0.659120
O O11 0.962348 0.991757 0.661634
O O12 0.250000 0.250000 0.156216
O O13 0.111468 0.171191 0.197766
O O14 0.250000 0.185433 0.000000
O O15 0.372516 0.183713 0.583127
#
# Coordination Sequence:
#
# PCOD9396061 Si02
#       7
#     8   8   8   8   8   4   8
#     4  11  20  32  51  82 119 149 176 220 289 358
#     4  11  20  36  57  82 117 151 188 237 287 342
#     4  10  20  31  53  85 123 155 185 222 276 347
#     4  10  20  31  53  85 123 155 185 222 276 347
#     4  10  24  44  62  81 108 152 208 253 291 338
#     4  10  20  28  53  80 116 150 184 220 283 348
#     4  11  20  36  57  82 117 151 188 237 287 342
#
# _framework density 16.927202000000001
#
# number of rings (size 3 to 8) (size 9 to 14) (size 15 to 20)
#    0.000    1.538    4.615    0.923    4.308    0.000 
#    0.000    3.077    0.000    3.692    0.000    0.000 
#    0.000    0.000    0.000    0.000    0.000    0.000 
#
# Total GULP energy -289733.311730 kJ/mol
# GULP energy per Si atom -5571.794456 kJ/mol
# Density = 1.688868 g / cm^3
# Si number density = 16.927202 Si / 1000 Ang^3
#
#
#
# Elastic Constant Matrix: (Units=GPa)
#
#
# Indices 1 2 3 4 5 6 
#
# 1 128.0159 44.5316 47.9542 0.0000 0.0000 0.0000
# 2 44.5316 103.2072 44.6116 0.0000 0.0000 0.0000
# 3 47.9542 44.6116 82.8540 0.0000 0.0000 0.0000
# 4 0.0000 0.0000 0.0000 21.1794 0.0000 0.0000
# 5 0.0000 0.0000 0.0000 0.0000 16.1607 0.0000
# 6 0.0000 0.0000 0.0000 0.0000 0.0000 19.2450
#
#
#
# Elastic Compliance Matrix: (Units=1/GPa)
#
#
# Indices 1 2 3 4 5 6 
#
# 1 0.010434 -0.002466 -0.004712 0.000000 0.000000 0.000000
# 2 -0.002466 0.013211 -0.005686 0.000000 0.000000 0.000000
# 3 -0.004712 -0.005686 0.017858 0.000000 0.000000 0.000000
# 4 0.000000 0.000000 0.000000 0.047216 0.000000 0.000000
# 5 0.000000 0.000000 0.000000 0.000000 0.061879 0.000000
# 6 0.000000 0.000000 0.000000 0.000000 0.000000 0.051962
#
#
# Mechanical properties :
#
#
# Convention : Reuss Voigt Hill
#
# Bulk Modulus (GPa) = 63.38542 65.36355 64.37449
# Shear Modulus (GPa) = 21.40920 23.11565 22.26242
#
# Velocity S-wave (km/s) = 3.56023 3.69940 3.63048
# Velocity P-wave (km/s) = 7.37750 7.54624 7.46235
#
# Compressibility (1/GPa) = 0.01577650
#
# Stress axis : x y z
#
# Youngs Moduli (GPa) = 95.83960 75.69472 55.99719
#
# Poissons Ratio (x) = 0.18663 0.26383
# Poissons Ratio (y) = 0.23629 0.31841
# Poissons Ratio (z) = 0.45155 0.43042
#
# Static dielectric constant tensor:
#      x y z
#    x 0.980010 0.000000 0.000000 
#    y 0.000000 1.606520 0.000000 
#    z 0.000000 0.000000 1.538940 
# 
# From -- ./inp_files/19354.got.cif
#   From: 2010.05.17/outbox.cif.g08.bks.cpg/sg50_10_cif.got.tgz:19354.got - 2010.06.03 11:33:33.
