data_PCOD9396449
_publ_section_title
;
Structure prediction by ZEFSAII (Michael W. Deem and Ramdas Pophale) SiO2 
 PCOD9396449
Probable space group: P B A N
;
_chemical_formula_sum "Si O2"
_cell_formula_units_Z 64
_cell_length_a 14.841421
_cell_length_b 8.338255
_cell_length_c 25.692091
_cell_angle_alpha 90.000000
_cell_angle_beta 90.000000
_cell_angle_gamma 90.000000
_cell_volume 3179.436157
_symmetry_space_group_name_H-M "P B A N"
_symmetry_group_IT_number 50
_space_group.IT_coordinate_system_code '2'
_symmetry_cell_setting 'orthorhombic'
loop_
_space_group_symop_operation_xyz
x,y,z
1/2-x,1/2-y,z
x,1/2-y,-z
1/2-x,y,-z
-x,-y,-z
1/2+x,1/2+y,-z
-x,1/2+y,z
1/2+x,-y,z
loop_
_atom_site_type_symbol
_atom_site_label
_atom_site_fract_x
_atom_site_fract_y
_atom_site_fract_z
Si Si1 0.580299 0.605357 0.617198
Si Si2 0.896755 0.942523 0.504981
Si Si3 0.751505 0.060696 0.806776
Si Si4 0.767548 0.559343 0.310211
Si Si5 0.896290 0.943588 0.000133
Si Si6 0.898120 0.942660 0.886511
Si Si7 0.120965 0.486356 0.392661
Si Si8 0.603933 0.557652 0.113865
O O1 0.624368 0.525455 0.565269
O O2 0.632247 0.536797 0.666929
O O3 0.473623 0.575452 0.617034
O O4 0.598229 0.795949 0.612753
O O5 0.891003 0.750000 0.500000
O O6 0.850020 0.011646 0.453183
O O7 0.000000 0.000000 0.500000
O O8 0.750000 0.250000 0.803651
O O9 0.754905 0.993481 0.748649
O O10 0.837482 0.006529 0.840235
O O11 0.665356 0.002657 0.839544
O O12 0.750000 0.750000 0.312711
O O13 0.696593 0.478516 0.349959
O O14 0.861560 0.997124 0.943616
O O15 0.891853 0.750000 0.000000
O O16 0.860331 0.996412 0.056495
O O17 0.000000 0.000000 0.000000
O O18 0.895479 0.750194 0.885682
O O19 0.001265 0.998613 0.881480
#
# Coordination Sequence:
#
# PCOD9396449 Si02
#       8
#     8   8   8   8   8   8   8   8
#     4   9  18  33  55  80 108 139 173 215 269 326
#     4   8  14  27  49  79 108 134 166 209 261 325
#     4  12  26  41  56  79 110 150 197 240 279 326
#     4  10  22  39  55  75 104 142 186 232 275 322
#     4   8  16  31  56  87 116 144 176 217 272 333
#     4  10  20  38  62  88 117 148 182 226 278 334
#     4   9  18  33  55  80 108 139 173 215 269 326
#     4  10  20  38  62  88 117 148 182 226 278 334
#
# _framework density 20.129356000000001
#
# number of rings (size 3 to 8) (size 9 to 14) (size 15 to 20)
#    0.000    2.500    0.000    1.875    0.000    4.000 
#    0.000    7.500    0.000    0.000    0.000    9.625 
#    0.000    0.000    0.000    0.000    0.000    0.000 
#
# Total GULP energy -356895.149674 kJ/mol
# GULP energy per Si atom -5576.486714 kJ/mol
# Density = 2.008354 g / cm^3
# Si number density = 20.129356 Si / 1000 Ang^3
#
#
#
# Elastic Constant Matrix: (Units=GPa)
#
#
# Indices 1 2 3 4 5 6 
#
# 1 47.4022 -0.4583 16.2530 0.0000 0.0000 0.0000
# 2 -0.4583 18.8137 7.2217 0.0000 0.0000 0.0000
# 3 16.2530 7.2217 130.0714 0.0000 0.0000 0.0000
# 4 0.0000 0.0000 0.0000 19.9741 0.0000 0.0000
# 5 0.0000 0.0000 0.0000 0.0000 35.6266 0.0000
# 6 0.0000 0.0000 0.0000 0.0000 0.0000 22.2918
#
#
#
# Elastic Compliance Matrix: (Units=1/GPa)
#
#
# Indices 1 2 3 4 5 6 
#
# 1 0.022089 0.001632 -0.002851 0.000000 0.000000 0.000000
# 2 0.001632 0.054431 -0.003226 0.000000 0.000000 0.000000
# 3 -0.002851 -0.003226 0.008223 0.000000 0.000000 0.000000
# 4 0.000000 0.000000 0.000000 0.050065 0.000000 0.000000
# 5 0.000000 0.000000 0.000000 0.000000 0.028069 0.000000
# 6 0.000000 0.000000 0.000000 0.000000 0.000000 0.044860
#
#
# Mechanical properties :
#
#
# Convention : Reuss Voigt Hill
#
# Bulk Modulus (GPa) = 13.18310 26.92446 20.05378
# Shear Modulus (GPa) = 20.66878 27.12989 23.89933
#
# Velocity S-wave (km/s) = 3.20784 3.67519 3.44944
# Velocity P-wave (km/s) = 4.50375 5.60483 5.08419
#
# Compressibility (1/GPa) = 0.07585467
#
# Stress axis : x y z
#
# Youngs Moduli (GPa) = 45.27075 18.37192 121.60400
#
# Poissons Ratio (x) = -0.02999 0.34667
# Poissons Ratio (y) = -0.07390 0.39230
# Poissons Ratio (z) = 0.12906 0.05927
#
# Static dielectric constant tensor:
#      x y z
#    x 1.697060 0.000000 0.000000 
#    y 0.000000 1.689580 0.000000 
#    z 0.000000 0.000000 1.754110 
# 
# From -- ./inp_files/31775.got.cif
#   From: 2010.05.17/outbox.cif.g08.bks.cpg/sg50_16_cif.got.tgz:31775.got - 2010.06.03 11:33:33.
