data_PCOD9396488
_publ_section_title
;
Structure prediction by ZEFSAII (Michael W. Deem and Ramdas Pophale) SiO2 
 PCOD9396488
Probable space group: P B A N
;
_chemical_formula_sum "Si O2"
_cell_formula_units_Z 38
_cell_length_a 21.208163
_cell_length_b 13.463490
_cell_length_c 6.818337
_cell_angle_alpha 90.000000
_cell_angle_beta 90.000000
_cell_angle_gamma 90.000000
_cell_volume 1946.879927
_symmetry_space_group_name_H-M "P B A N"
_symmetry_group_IT_number 50
_space_group.IT_coordinate_system_code '2'
_symmetry_cell_setting 'orthorhombic'
loop_
_space_group_symop_operation_xyz
x,y,z
1/2-x,1/2-y,z
x,1/2-y,-z
1/2-x,y,-z
-x,-y,-z
1/2+x,1/2+y,-z
-x,1/2+y,z
1/2+x,-y,z
loop_
_atom_site_type_symbol
_atom_site_label
_atom_site_fract_x
_atom_site_fract_y
_atom_site_fract_z
Si Si1 0.428154 0.513068 0.757089
Si Si2 0.750000 0.573976 0.500000
Si Si3 0.250000 0.750000 0.500000
Si Si4 0.711151 0.088037 0.802691
Si Si5 0.387854 0.359045 0.438714
Si Si6 0.467056 0.358597 0.083280
O O1 0.360606 0.552722 0.832825
O O2 0.416955 0.453777 0.554303
O O3 0.477542 0.603038 0.772939
O O4 0.457205 0.430862 0.900914
O O5 0.754427 0.502097 0.688908
O O6 0.686005 0.634916 0.514490
O O7 0.288650 0.821128 0.352730
O O8 0.750000 0.111640 0.000000
O O9 0.412579 0.250000 0.500000
O O10 0.403666 0.364943 0.210760
O O11 0.479330 0.250000 0.000000
#
# Coordination Sequence:
#
# PCOD9396488 Si02
#       6
#     8   4   2   8   8   8
#     4  10  23  40  60  87 121 159 200 252 299 358
#     4   9  21  35  59  88 116 154 199 245 298 364
#     4  10  22  36  58  90 118 152 200 238 294 366
#     4  10  20  39  60  85 120 156 195 250 300 351
#     4  11  20  38  60  86 120 157 194 249 302 359
#     4  11  22  39  60  87 120 160 206 247 299 361
#
# _framework density 19.518408999999998
#
# number of rings (size 3 to 8) (size 9 to 14) (size 15 to 20)
#    0.000    1.684    2.105    2.526    0.000    1.684 
#    1.895    2.105    0.000    0.000    0.000    0.000 
#    0.000    0.000    0.000    0.000    0.000    0.000 
#
# Total GULP energy -211897.620547 kJ/mol
# GULP energy per Si atom -5576.253172 kJ/mol
# Density = 1.947398 g / cm^3
# Si number density = 19.518409 Si / 1000 Ang^3
#
#
#
# Elastic Constant Matrix: (Units=GPa)
#
#
# Indices 1 2 3 4 5 6 
#
# 1 65.5193 38.7984 23.3250 0.0000 0.0000 0.0000
# 2 38.7984 120.5041 33.5392 0.0000 0.0000 0.0000
# 3 23.3250 33.5392 66.0025 0.0000 0.0000 0.0000
# 4 0.0000 0.0000 0.0000 20.7445 0.0000 0.0000
# 5 0.0000 0.0000 0.0000 0.0000 20.3776 0.0000
# 6 0.0000 0.0000 0.0000 0.0000 0.0000 12.3723
#
#
#
# Elastic Compliance Matrix: (Units=1/GPa)
#
#
# Indices 1 2 3 4 5 6 
#
# 1 0.019897 -0.005182 -0.004398 0.000000 0.000000 0.000000
# 2 -0.005182 0.011015 -0.003766 0.000000 0.000000 0.000000
# 3 -0.004398 -0.003766 0.018619 0.000000 0.000000 0.000000
# 4 0.000000 0.000000 0.000000 0.048206 0.000000 0.000000
# 5 0.000000 0.000000 0.000000 0.000000 0.049073 0.000000
# 6 0.000000 0.000000 0.000000 0.000000 0.000000 0.080826
#
#
# Mechanical properties :
#
#
# Convention : Reuss Voigt Hill
#
# Bulk Modulus (GPa) = 43.78577 49.26122 46.52349
# Shear Modulus (GPa) = 19.08824 21.12311 20.10568
#
# Velocity S-wave (km/s) = 3.13063 3.29327 3.21298
# Velocity P-wave (km/s) = 5.96234 6.30508 6.13610
#
# Compressibility (1/GPa) = 0.02283847
#
# Stress axis : x y z
#
# Youngs Moduli (GPa) = 50.25849 90.78448 53.70870
#
# Poissons Ratio (x) = 0.47045 0.23623
# Poissons Ratio (y) = 0.26044 0.20227
# Poissons Ratio (z) = 0.22105 0.34189
#
# Static dielectric constant tensor:
#      x y z
#    x 1.680350 0.000000 0.000000 
#    y 0.000000 1.698520 0.000000 
#    z 0.000000 0.000000 1.684140 
# 
# From -- ./inp_files/5923.got.cif
#   From: 2010.05.17/outbox.cif.g08.bks.cpg/sg50_3_cif.got.tgz:5923.got - 2010.06.03 11:33:33.
