data_PCOD9396103
_publ_section_title
;
Structure prediction by ZEFSAII (Michael W. Deem and Ramdas Pophale) SiO2 
 PCOD9396103
Probable space group: P B A N
;
_chemical_formula_sum "Si O2"
_cell_formula_units_Z 42
_cell_length_a 29.483971
_cell_length_b 9.595832
_cell_length_c 7.677909
_cell_angle_alpha 90.000000
_cell_angle_beta 90.000000
_cell_angle_gamma 90.000000
_cell_volume 2172.258832
_symmetry_space_group_name_H-M "P B A N"
_symmetry_group_IT_number 50
_space_group.IT_coordinate_system_code '2'
_symmetry_cell_setting 'orthorhombic'
loop_
_space_group_symop_operation_xyz
x,y,z
1/2-x,1/2-y,z
x,1/2-y,-z
1/2-x,y,-z
-x,-y,-z
1/2+x,1/2+y,-z
-x,1/2+y,z
1/2+x,-y,z
loop_
_atom_site_type_symbol
_atom_site_label
_atom_site_fract_x
_atom_site_fract_y
_atom_site_fract_z
Si Si1 0.250000 0.750000 0.000000
Si Si2 0.098729 0.915562 0.293321
Si Si3 0.031246 0.688945 0.197280
Si Si4 0.179141 0.699541 0.300170
Si Si5 0.428990 0.189569 0.811148
Si Si6 0.896884 0.972358 0.323179
O O1 0.215788 0.815063 0.854054
O O2 0.056985 0.810217 0.299845
O O3 0.142692 0.821884 0.259906
O O4 0.097351 0.998230 0.473213
O O5 0.094439 0.041079 0.160397
O O6 0.061930 0.551659 0.223400
O O7 0.979968 0.666937 0.260230
O O8 0.032725 0.750000 0.000000
O O9 0.193923 0.750000 0.500000
O O10 0.149863 0.557015 0.292785
O O11 0.400475 0.308743 0.713903
O O12 0.436704 0.250000 0.000000
#
# Coordination Sequence:
#
# PCOD9396103 Si02
#       6
#     2   8   8   8   8   8
#     4  12  22  36  76  88 104 148 166 230 300 350
#     4  10  21  36  54  78 114 151 185 233 275 321
#     4  10  20  33  50  77 113 152 198 239 263 304
#     4   9  22  40  60  92 115 135 184 232 280 346
#     4  11  22  32  51  80 114 154 195 230 265 320
#     4  10  21  36  54  78 114 151 185 233 275 321
#
# _framework density 19.334710999999999
#
# number of rings (size 3 to 8) (size 9 to 14) (size 15 to 20)
#    0.000    1.905    0.000    4.857    8.000    7.619 
#    0.000    0.000    0.000    2.286    0.000    5.333 
#    0.000    0.000    0.000    0.000    0.000    0.000 
#
# Total GULP energy -233859.464137 kJ/mol
# GULP energy per Si atom -5568.082479 kJ/mol
# Density = 1.929070 g / cm^3
# Si number density = 19.334711 Si / 1000 Ang^3
#
#
#
# Elastic Constant Matrix: (Units=GPa)
#
#
# Indices 1 2 3 4 5 6 
#
# 1 68.3376 12.9150 28.5336 0.0000 0.0000 0.0000
# 2 12.9150 89.1462 5.5173 0.0000 0.0000 0.0000
# 3 28.5336 5.5173 45.3553 0.0000 0.0000 0.0000
# 4 0.0000 0.0000 0.0000 33.8149 0.0000 0.0000
# 5 0.0000 0.0000 0.0000 0.0000 22.9055 0.0000
# 6 0.0000 0.0000 0.0000 0.0000 0.0000 -4.9055
#
#
#
# Elastic Compliance Matrix: (Units=1/GPa)
#
#
# Indices 1 2 3 4 5 6 
#
# 1 0.020252 -0.002162 -0.012478 0.000000 0.000000 0.000000
# 2 -0.002162 0.011533 -0.000043 0.000000 0.000000 0.000000
# 3 -0.012478 -0.000043 0.029903 0.000000 0.000000 0.000000
# 4 0.000000 0.000000 0.000000 0.029573 0.000000 0.000000
# 5 0.000000 0.000000 0.000000 0.000000 0.043658 0.000000
# 6 0.000000 0.000000 0.000000 0.000000 0.000000 -0.203851
#
#
# Mechanical properties :
#
#
# Convention : Reuss Voigt Hill
#
# Bulk Modulus (GPa) = 30.93722 32.97453 31.95588
# Shear Modulus (GPa) = -173.64918 20.75452 -76.44733
#
# Velocity S-wave (km/s) = -9.48721 3.27988 -6.29482
# Velocity P-wave (km/s) = 10.19676 5.60670 6.02241
#
# Compressibility (1/GPa) = 0.03232352
#
# Stress axis : x y z
#
# Youngs Moduli (GPa) = 49.37873 86.70494 33.44128
#
# Poissons Ratio (x) = 0.18743 0.41727
# Poissons Ratio (y) = 0.10674 0.00144
# Poissons Ratio (z) = 0.61613 0.00373
#
# Static dielectric constant tensor:
#      x y z
#    x 1.694280 0.000000 0.000000 
#    y 0.000000 1.739000 0.000000 
#    z 0.000000 0.000000 1.820790 
# 
# From -- ./inp_files/16404.got.cif
#   From: 2010.05.17/outbox.cif.g08.bks.cpg/sg50_9_cif.got.tgz:16404.got - 2010.06.03 11:33:33.
