data_PCOD9396576
_publ_section_title
;
Structure prediction by ZEFSAII (Michael W. Deem and Ramdas Pophale) SiO2 
 PCOD9396576
Probable space group: P B A N
;
_chemical_formula_sum "Si O2"
_cell_formula_units_Z 52
_cell_length_a 15.652281
_cell_length_b 9.282415
_cell_length_c 15.536079
_cell_angle_alpha 90.000000
_cell_angle_beta 90.000000
_cell_angle_gamma 90.000000
_cell_volume 2257.251956
_symmetry_space_group_name_H-M "P B A N"
_symmetry_group_IT_number 50
_space_group.IT_coordinate_system_code '2'
_symmetry_cell_setting 'orthorhombic'
loop_
_space_group_symop_operation_xyz
x,y,z
1/2-x,1/2-y,z
x,1/2-y,-z
1/2-x,y,-z
-x,-y,-z
1/2+x,1/2+y,-z
-x,1/2+y,z
1/2+x,-y,z
loop_
_atom_site_type_symbol
_atom_site_label
_atom_site_fract_x
_atom_site_fract_y
_atom_site_fract_z
Si Si1 0.617615 0.651667 0.869995
Si Si2 0.750000 0.750000 0.000000
Si Si3 0.226271 0.990872 0.619002
Si Si4 0.750000 0.750000 0.500000
Si Si5 0.143184 0.467299 0.206403
Si Si6 0.454686 0.925766 0.757964
Si Si7 0.613495 0.293120 0.589664
Si Si8 0.572704 0.307240 0.092374
O O1 0.634916 0.811219 0.834715
O O2 0.610271 0.551279 0.785963
O O3 0.524303 0.629300 0.914232
O O4 0.690234 0.645375 0.942177
O O5 0.317467 0.925368 0.587549
O O6 0.165697 0.852837 0.606714
O O7 0.205209 0.135543 0.565267
O O8 0.213655 0.023029 0.720100
O O9 0.142660 0.585487 0.131650
O O10 0.049092 0.491434 0.247432
O O11 0.441480 0.838660 0.670745
O O12 0.442070 0.816794 0.837242
O O13 0.568689 0.250000 0.500000
O O14 0.597823 0.250000 0.000000
#
# Coordination Sequence:
#
# PCOD9396576 Si02
#       8
#     8   2   8   2   8   8   8   8
#     4  10  24  37  61  93 133 175 211 276 331 393
#     4  12  24  38  56 102 140 166 222 270 346 392
#     4  11  23  42  66  95 129 172 218 277 332 406
#     4  12  24  40  68 104 128 168 228 274 350 402
#     4  10  23  41  63  96 134 170 223 282 334 389
#     4  10  23  42  65  95 130 173 224 267 335 401
#     4  11  22  45  68  93 129 180 218 266 340 410
#     4  10  20  41  67  89 125 177 225 267 326 401
#
# _framework density 23.036863
#
# number of rings (size 3 to 8) (size 9 to 14) (size 15 to 20)
#    0.000    1.538    3.846    0.462    6.462    1.846 
#    1.385    0.769    0.000    1.846    2.000    0.000 
#    0.000    0.000    0.000    0.000    0.000    0.000 
#
# Total GULP energy -290094.290501 kJ/mol
# GULP energy per Si atom -5578.736356 kJ/mol
# Density = 2.298443 g / cm^3
# Si number density = 23.036863 Si / 1000 Ang^3
#
#
#
# Elastic Constant Matrix: (Units=GPa)
#
#
# Indices 1 2 3 4 5 6 
#
# 1 34.5860 17.3548 33.1054 0.0000 0.0000 0.0000
# 2 17.3548 114.7851 52.8652 0.0000 0.0000 0.0000
# 3 33.1054 52.8652 181.3045 0.0000 0.0000 0.0000
# 4 0.0000 0.0000 0.0000 45.5642 0.0000 0.0000
# 5 0.0000 0.0000 0.0000 0.0000 -328.0971 0.0000
# 6 0.0000 0.0000 0.0000 0.0000 0.0000 -33.8477
#
#
#
# Elastic Compliance Matrix: (Units=1/GPa)
#
#
# Indices 1 2 3 4 5 6 
#
# 1 0.035786 -0.002774 -0.005726 0.000000 0.000000 0.000000
# 2 -0.002774 0.010278 -0.002491 0.000000 0.000000 0.000000
# 3 -0.005726 -0.002491 0.007287 0.000000 0.000000 0.000000
# 4 0.000000 0.000000 0.000000 0.021947 0.000000 0.000000
# 5 0.000000 0.000000 0.000000 0.000000 -0.003048 0.000000
# 6 0.000000 0.000000 0.000000 0.000000 0.000000 -0.029544
#
#
# Mechanical properties :
#
#
# Convention : Reuss Voigt Hill
#
# Bulk Modulus (GPa) = 31.87578 59.70293 45.78936
# Shear Modulus (GPa) = 66.53990 -48.11945 9.21022
#
# Velocity S-wave (km/s) = 5.38022 -4.57530 2.00168
# Velocity P-wave (km/s) = 7.24311 1.39235 5.02613
#
# Compressibility (1/GPa) = 0.03137178
#
# Stress axis : x y z
#
# Youngs Moduli (GPa) = 27.94420 97.29225 137.22611
#
# Poissons Ratio (x) = 0.26985 0.78570
# Poissons Ratio (y) = 0.07751 0.34177
# Poissons Ratio (z) = 0.16000 0.24231
#
# Static dielectric constant tensor:
#      x y z
#    x 1.927220 0.000000 0.000000 
#    y 0.000000 1.875760 0.000000 
#    z 0.000000 0.000000 -2.710110 
# 
# From -- ./inp_files/29688.got.cif
#   From: 2010.05.17/outbox.cif.g08.bks.cpg/sg50_15_cif.got.tgz:29688.got - 2010.06.03 11:33:33.
