data_PCOD9396963
_publ_section_title
;
Structure prediction by ZEFSAII (Michael W. Deem and Ramdas Pophale) SiO2 
 PCOD9396963
Probable space group: P B A N
;
_chemical_formula_sum "Si O2"
_cell_formula_units_Z 58
_cell_length_a 9.137839
_cell_length_b 17.799630
_cell_length_c 17.008358
_cell_angle_alpha 90.000000
_cell_angle_beta 90.000000
_cell_angle_gamma 90.000000
_cell_volume 2766.412034
_symmetry_space_group_name_H-M "P B A N"
_symmetry_group_IT_number 50
_space_group.IT_coordinate_system_code '2'
_symmetry_cell_setting 'orthorhombic'
loop_
_space_group_symop_operation_xyz
x,y,z
1/2-x,1/2-y,z
x,1/2-y,-z
1/2-x,y,-z
-x,-y,-z
1/2+x,1/2+y,-z
-x,1/2+y,z
1/2+x,-y,z
loop_
_atom_site_type_symbol
_atom_site_label
_atom_site_fract_x
_atom_site_fract_y
_atom_site_fract_z
Si Si1 0.693663 0.175230 0.712596
Si Si2 0.718215 0.834938 0.592376
Si Si3 0.058091 0.435044 0.684802
Si Si4 0.253114 0.387918 0.167023
Si Si5 0.750000 0.250000 0.000000
Si Si6 0.130764 0.980603 0.941390
Si Si7 0.997619 0.892158 0.292109
Si Si8 0.042666 0.829190 0.872727
O O1 0.750000 0.250000 0.669802
O O2 0.579084 0.120196 0.672278
O O3 0.607043 0.200684 0.790933
O O4 0.839196 0.129314 0.732110
O O5 0.750000 0.750000 0.622256
O O6 0.750000 0.834084 0.500000
O O7 0.820260 0.901802 0.626096
O O8 0.559155 0.852210 0.628506
O O9 0.139629 0.424947 0.768328
O O10 0.000562 0.519632 0.686852
O O11 0.196105 0.446956 0.102510
O O12 0.112578 0.368546 0.221265
O O13 0.364864 0.327351 0.128149
O O14 0.864913 0.208018 0.057702
O O15 0.083359 0.917561 0.880340
O O16 0.250000 0.947268 0.000000
O O17 0.000000 0.000000 0.000000
#
# Coordination Sequence:
#
# PCOD9396963 Si02
#       8
#     8   8   8   8   2   8   8   8
#     4  11  22  38  64  90 121 164 214 266 326 388
#     4  10  22  42  65  93 136 179 209 252 326 404
#     4  10  21  40  66  97 127 164 219 273 320 385
#     4  10  22  40  61  90 118 158 210 266 328 382
#     4  12  24  40  60  82 120 176 208 262 340 380
#     4  12  23  36  61  85 114 153 204 265 325 382
#     4  11  22  39  68  92 125 162 217 274 318 380
#     4  11  23  40  58  83 121 160 209 261 324 395
#
# _framework density 20.965786000000001
#
# number of rings (size 3 to 8) (size 9 to 14) (size 15 to 20)
#    0.000    1.241    2.759    4.966    1.931    0.552 
#    0.000    0.690    3.034    2.483    0.000    0.000 
#    0.000    0.000    0.000    0.000    0.000    0.000 
#
# Total GULP energy -323335.038298 kJ/mol
# GULP energy per Si atom -5574.742040 kJ/mol
# Density = 2.091807 g / cm^3
# Si number density = 20.965786 Si / 1000 Ang^3
#
#
#
# Elastic Constant Matrix: (Units=GPa)
#
#
# Indices 1 2 3 4 5 6 
#
# 1 115.4596 22.1956 11.1260 0.0000 0.0000 0.0000
# 2 22.1956 68.9793 3.4268 0.0000 0.0000 0.0000
# 3 11.1260 3.4268 59.2441 0.0000 0.0000 0.0000
# 4 0.0000 0.0000 0.0000 8.8927 0.0000 0.0000
# 5 0.0000 0.0000 0.0000 0.0000 11.7451 0.0000
# 6 0.0000 0.0000 0.0000 0.0000 0.0000 28.1673
#
#
#
# Elastic Compliance Matrix: (Units=1/GPa)
#
#
# Indices 1 2 3 4 5 6 
#
# 1 0.009379 -0.002939 -0.001591 0.000000 0.000000 0.000000
# 2 -0.002939 0.015460 -0.000342 0.000000 0.000000 0.000000
# 3 -0.001591 -0.000342 0.017198 0.000000 0.000000 0.000000
# 4 0.000000 0.000000 0.000000 0.112452 0.000000 0.000000
# 5 0.000000 0.000000 0.000000 0.000000 0.085142 0.000000
# 6 0.000000 0.000000 0.000000 0.000000 0.000000 0.035502
#
#
# Mechanical properties :
#
#
# Convention : Reuss Voigt Hill
#
# Bulk Modulus (GPa) = 30.96763 35.24217 33.10490
# Shear Modulus (GPa) = 16.91232 23.55666 20.23449
#
# Velocity S-wave (km/s) = 2.84326 3.35562 3.11001
# Velocity P-wave (km/s) = 5.05781 5.64441 5.35915
#
# Compressibility (1/GPa) = 0.03229178
#
# Stress axis : x y z
#
# Youngs Moduli (GPa) = 106.61696 64.68396 58.14631
#
# Poissons Ratio (x) = 0.19010 0.09254
# Poissons Ratio (y) = 0.31334 0.01990
# Poissons Ratio (z) = 0.16967 0.02214
#
# Static dielectric constant tensor:
#      x y z
#    x 1.762430 0.000000 0.000000 
#    y 0.000000 1.781970 0.000000 
#    z 0.000000 0.000000 1.760130 
# 
# From -- ./inp_files/28878.got.cif
#   From: 2010.05.17/outbox.cif.g08.bks.cpg/sg50_15_cif.got.tgz:28878.got - 2010.06.03 11:33:33.
