data_PCOD9396441
_publ_section_title
;
Structure prediction by ZEFSAII (Michael W. Deem and Ramdas Pophale) SiO2 
 PCOD9396441
Probable space group: P B A N
;
_chemical_formula_sum "Si O2"
_cell_formula_units_Z 40
_cell_length_a 12.799650
_cell_length_b 12.994481
_cell_length_c 13.194225
_cell_angle_alpha 90.000000
_cell_angle_beta 90.000000
_cell_angle_gamma 90.000000
_cell_volume 2194.526949
_symmetry_space_group_name_H-M "P B A N"
_symmetry_group_IT_number 50
_space_group.IT_coordinate_system_code '2'
_symmetry_cell_setting 'orthorhombic'
loop_
_space_group_symop_operation_xyz
x,y,z
1/2-x,1/2-y,z
x,1/2-y,-z
1/2-x,y,-z
-x,-y,-z
1/2+x,1/2+y,-z
-x,1/2+y,z
1/2+x,-y,z
loop_
_atom_site_type_symbol
_atom_site_label
_atom_site_fract_x
_atom_site_fract_y
_atom_site_fract_z
Si Si1 0.818169 0.467106 0.899343
Si Si2 0.625087 0.241292 0.384375
Si Si3 0.445471 0.179134 0.099450
Si Si4 0.882989 0.068653 0.776725
Si Si5 0.505677 0.140004 0.782369
O O1 0.866111 0.582858 0.904700
O O2 0.735764 0.450564 0.808803
O O3 0.913906 0.390119 0.873871
O O4 0.750000 0.448391 0.000000
O O5 0.750000 0.250000 0.384121
O O6 0.588402 0.250000 0.500000
O O7 0.603326 0.135920 0.323890
O O8 0.572943 0.327743 0.314290
O O9 0.556594 0.128469 0.131785
O O10 0.432196 0.264535 0.187109
O O11 0.441960 0.250000 0.000000
O O12 0.939038 0.960609 0.764424
#
# Coordination Sequence:
#
# PCOD9396441 Si02
#       5
#     8   8   8   8   8
#     4  11  21  34  55  80 112 151 184 217 267 316
#     4  10  20  38  61  80 104 139 183 229 275 326
#     4  10  21  35  52  80 114 149 184 219 261 318
#     4  10  21  36  56  83 110 142 182 227 269 321
#     4  10  21  37  55  82 112 141 183 225 269 322
#
# _framework density 18.227162
#
# number of rings (size 3 to 8) (size 9 to 14) (size 15 to 20)
#    0.000    1.800    2.000    2.400    0.000    6.800 
#    0.000    3.000    0.000    0.000    0.000    1.400 
#    0.000    0.000    0.000    0.000    0.000    0.000 
#
# Total GULP energy -222996.529098 kJ/mol
# GULP energy per Si atom -5574.913227 kJ/mol
# Density = 1.818568 g / cm^3
# Si number density = 18.227162 Si / 1000 Ang^3
#
#
#
# Elastic Constant Matrix: (Units=GPa)
#
#
# Indices 1 2 3 4 5 6 
#
# 1 30.0833 7.1995 7.6307 0.0000 0.0000 0.0000
# 2 7.1995 68.5682 14.6081 0.0000 0.0000 0.0000
# 3 7.6307 14.6081 98.0174 0.0000 0.0000 0.0000
# 4 0.0000 0.0000 0.0000 6.2839 0.0000 0.0000
# 5 0.0000 0.0000 0.0000 0.0000 3.3619 0.0000
# 6 0.0000 0.0000 0.0000 0.0000 0.0000 13.2158
#
#
#
# Elastic Compliance Matrix: (Units=1/GPa)
#
#
# Indices 1 2 3 4 5 6 
#
# 1 0.034559 -0.003156 -0.002220 0.000000 0.000000 0.000000
# 2 -0.003156 0.015350 -0.002042 0.000000 0.000000 0.000000
# 3 -0.002220 -0.002042 0.010679 0.000000 0.000000 0.000000
# 4 0.000000 0.000000 0.000000 0.159136 0.000000 0.000000
# 5 0.000000 0.000000 0.000000 0.000000 0.297454 0.000000
# 6 0.000000 0.000000 0.000000 0.000000 0.000000 0.075667
#
#
# Mechanical properties :
#
#
# Convention : Reuss Voigt Hill
#
# Bulk Modulus (GPa) = 21.85630 28.39395 25.12512
# Shear Modulus (GPa) = 8.02654 15.72103 11.87378
#
# Velocity S-wave (km/s) = 2.10076 2.94003 2.55509
# Velocity P-wave (km/s) = 4.23100 5.20929 4.74542
#
# Compressibility (1/GPa) = 0.04575340
#
# Stress axis : x y z
#
# Youngs Moduli (GPa) = 28.93571 65.14482 93.63774
#
# Poissons Ratio (x) = 0.20558 0.20789
# Poissons Ratio (y) = 0.09131 0.19122
# Poissons Ratio (z) = 0.06424 0.13303
#
# Static dielectric constant tensor:
#      x y z
#    x 1.633110 0.000000 0.000000 
#    y 0.000000 1.625750 0.000000 
#    z 0.000000 0.000000 1.645430 
# 
# From -- ./inp_files/20015.got.cif
#   From: 2010.05.17/outbox.cif.g08.bks.cpg/sg50_11_cif.got.tgz:20015.got - 2010.06.03 11:33:33.
