data_PCOD9396160
_publ_section_title
;
Structure prediction by ZEFSAII (Michael W. Deem and Ramdas Pophale) SiO2 
 PCOD9396160
Probable space group: P B A N
;
_chemical_formula_sum "Si O2"
_cell_formula_units_Z 52
_cell_length_a 9.228031
_cell_length_b 18.115081
_cell_length_c 14.521191
_cell_angle_alpha 90.000000
_cell_angle_beta 90.000000
_cell_angle_gamma 90.000000
_cell_volume 2427.457097
_symmetry_space_group_name_H-M "P B A N"
_symmetry_group_IT_number 50
_space_group.IT_coordinate_system_code '2'
_symmetry_cell_setting 'orthorhombic'
loop_
_space_group_symop_operation_xyz
x,y,z
1/2-x,1/2-y,z
x,1/2-y,-z
1/2-x,y,-z
-x,-y,-z
1/2+x,1/2+y,-z
-x,1/2+y,z
1/2+x,-y,z
loop_
_atom_site_type_symbol
_atom_site_label
_atom_site_fract_x
_atom_site_fract_y
_atom_site_fract_z
Si Si1 0.250000 0.250000 0.000000
Si Si2 0.678164 0.409667 0.412717
Si Si3 0.308200 0.417831 0.781857
Si Si4 0.427158 0.120167 0.919547
Si Si5 0.167796 0.430414 0.589646
Si Si6 0.750000 0.250000 0.000000
Si Si7 0.556808 0.368997 0.892857
Si Si8 0.674012 0.415258 0.213112
O O1 0.352004 0.197818 0.940732
O O2 0.750000 0.369342 0.500000
O O3 0.505755 0.425699 0.423506
O O4 0.776265 0.484531 0.406489
O O5 0.691357 0.376133 0.311290
O O6 0.193629 0.424081 0.864636
O O7 0.224915 0.398439 0.687167
O O8 0.428461 0.360557 0.818310
O O9 0.376017 0.499901 0.770199
O O10 0.561178 0.125169 0.851692
O O11 0.483039 0.092430 0.018368
O O12 0.250000 0.398300 0.500000
O O13 0.644904 0.199418 0.063096
O O14 0.676100 0.415770 0.840315
#
# Coordination Sequence:
#
# PCOD9396160 Si02
#       8
#     2   8   8   8   8   2   8   8
#     4  12  26  44  64  80 120 160 222 262 298 376
#     4  10  20  34  56  86 127 169 198 238 290 368
#     4  11  24  38  60  94 128 163 204 246 319 376
#     4  12  23  43  59  86 120 164 209 257 304 358
#     4  10  20  34  56  85 128 166 202 236 291 369
#     4  12  26  48  56  88 116 160 230 258 310 364
#     4  12  25  40  64  81 125 164 207 264 300 367
#     4  11  24  38  59  93 130 161 202 246 314 379
#
# _framework density 21.421593999999999
#
# number of rings (size 3 to 8) (size 9 to 14) (size 15 to 20)
#    0.000    0.923    4.615    3.231    8.615    3.692 
#    0.000    0.000    0.000    0.000    0.000    1.077 
#    9.231    0.000    0.000    0.000    0.000    0.000 
#
# Total GULP energy -290109.929098 kJ/mol
# GULP energy per Si atom -5579.037098 kJ/mol
# Density = 2.137284 g / cm^3
# Si number density = 21.421594 Si / 1000 Ang^3
#
#
#
# Elastic Constant Matrix: (Units=GPa)
#
#
# Indices 1 2 3 4 5 6 
#
# 1 161.5701 25.9908 70.7962 0.0000 0.0000 0.0000
# 2 25.9908 24.5183 17.9966 0.0000 0.0000 0.0000
# 3 70.7962 17.9966 167.1890 0.0000 0.0000 0.0000
# 4 0.0000 0.0000 0.0000 29.7708 0.0000 0.0000
# 5 0.0000 0.0000 0.0000 0.0000 48.8389 0.0000
# 6 0.0000 0.0000 0.0000 0.0000 0.0000 35.0131
#
#
#
# Elastic Compliance Matrix: (Units=1/GPa)
#
#
# Indices 1 2 3 4 5 6 
#
# 1 0.008573 -0.006974 -0.002879 0.000000 0.000000 0.000000
# 2 -0.006974 0.049958 -0.002424 0.000000 0.000000 0.000000
# 3 -0.002879 -0.002424 0.007462 0.000000 0.000000 0.000000
# 4 0.000000 0.000000 0.000000 0.033590 0.000000 0.000000
# 5 0.000000 0.000000 0.000000 0.000000 0.020475 0.000000
# 6 0.000000 0.000000 0.000000 0.000000 0.000000 0.028561
#
#
# Mechanical properties :
#
#
# Convention : Reuss Voigt Hill
#
# Bulk Modulus (GPa) = 24.13324 64.76052 44.44688
# Shear Modulus (GPa) = 26.73979 38.62415 32.68197
#
# Velocity S-wave (km/s) = 3.53691 4.25084 3.91020
# Velocity P-wave (km/s) = 5.28866 7.37495 6.41716
#
# Compressibility (1/GPa) = 0.04143663
#
# Stress axis : x y z
#
# Youngs Moduli (GPa) = 116.64696 20.01667 134.02066
#
# Poissons Ratio (x) = 0.13960 0.38591
# Poissons Ratio (y) = 0.81352 0.32492
# Poissons Ratio (z) = 0.33588 0.04853
#
# Static dielectric constant tensor:
#      x y z
#    x 1.820910 0.000000 0.000000 
#    y 0.000000 1.773980 0.000000 
#    z 0.000000 0.000000 1.846540 
# 
# From -- ./inp_files/25209.got.cif
#   From: 2010.05.17/outbox.cif.g08.bks.cpg/sg50_13_cif.got.tgz:25209.got - 2010.06.03 11:33:33.
