data_PCOD9396959
_publ_section_title
;
Structure prediction by ZEFSAII (Michael W. Deem and Ramdas Pophale) SiO2 
 PCOD9396959
Probable space group: P B A N
;
_chemical_formula_sum "Si O2"
_cell_formula_units_Z 56
_cell_length_a 17.113707
_cell_length_b 11.426181
_cell_length_c 15.093934
_cell_angle_alpha 90.000000
_cell_angle_beta 90.000000
_cell_angle_gamma 90.000000
_cell_volume 2951.532966
_symmetry_space_group_name_H-M "P B A N"
_symmetry_group_IT_number 50
_space_group.IT_coordinate_system_code '2'
_symmetry_cell_setting 'orthorhombic'
loop_
_space_group_symop_operation_xyz
x,y,z
1/2-x,1/2-y,z
x,1/2-y,-z
1/2-x,y,-z
-x,-y,-z
1/2+x,1/2+y,-z
-x,1/2+y,z
1/2+x,-y,z
loop_
_atom_site_type_symbol
_atom_site_label
_atom_site_fract_x
_atom_site_fract_y
_atom_site_fract_z
Si Si1 0.656557 0.250266 0.604914
Si Si2 0.411844 0.996626 0.649475
Si Si3 0.831274 0.601723 0.849250
Si Si4 0.594976 0.490020 0.315899
Si Si5 0.445281 0.113925 0.985990
Si Si6 0.838842 0.887854 0.482512
Si Si7 0.844388 0.627531 0.184805
O O1 0.750000 0.250000 0.614113
O O2 0.638303 0.250000 0.500000
O O3 0.620636 0.365773 0.647487
O O4 0.621051 0.136562 0.650328
O O5 0.502371 0.998113 0.674675
O O6 0.395674 0.049764 0.552428
O O7 0.364521 0.071766 0.721310
O O8 0.874890 0.515190 0.782440
O O9 0.873885 0.604040 0.943759
O O10 0.839359 0.732365 0.809396
O O11 0.738658 0.580165 0.850877
O O12 0.635773 0.580449 0.383789
O O13 0.476058 0.250000 0.000000
O O14 0.411114 0.103892 0.887348
O O15 0.500000 0.000000 0.000000
O O16 0.841001 0.750000 0.500000
O O17 0.750000 0.930499 0.500000
#
# Coordination Sequence:
#
# PCOD9396959 Si02
#       7
#     8   8   8   8   8   8   8
#     4  11  24  42  62  83 123 175 212 248 316 391
#     4  12  25  38  61  89 125 159 209 260 309 369
#     4  10  21  40  66  91 121 160 207 254 308 370
#     4  12  25  38  61  89 125 159 209 260 309 369
#     4  10  21  41  67  97 129 160 202 252 313 371
#     4  11  23  39  61  85 117 157 203 257 313 367
#     4  10  21  40  66  91 121 160 207 254 308 370
#
# _framework density 18.973191
#
# number of rings (size 3 to 8) (size 9 to 14) (size 15 to 20)
#    0.000    1.143    1.429    5.143    4.000    4.000 
#    2.571    0.000    0.000    0.857    0.000    0.000 
#    0.000    0.000    0.000    0.000    0.000    0.000 
#
# Total GULP energy -313018.773810 kJ/mol
# GULP energy per Si atom -5589.620961 kJ/mol
# Density = 1.893001 g / cm^3
# Si number density = 18.973191 Si / 1000 Ang^3
#
#
#
# Elastic Constant Matrix: (Units=GPa)
#
#
# Indices 1 2 3 4 5 6 
#
# 1 69.5363 18.9319 -16.1312 0.0000 0.0000 0.0000
# 2 18.9319 70.0182 2.2018 0.0000 0.0000 0.0000
# 3 -16.1312 2.2018 45.5526 0.0000 0.0000 0.0000
# 4 0.0000 0.0000 0.0000 38.0674 0.0000 0.0000
# 5 0.0000 0.0000 0.0000 0.0000 24.1653 0.0000
# 6 0.0000 0.0000 0.0000 0.0000 0.0000 20.3379
#
#
#
# Elastic Compliance Matrix: (Units=1/GPa)
#
#
# Indices 1 2 3 4 5 6 
#
# 1 0.017163 -0.004839 0.006312 0.000000 0.000000 0.000000
# 2 -0.004839 0.015668 -0.002471 0.000000 0.000000 0.000000
# 3 0.006312 -0.002471 0.024307 0.000000 0.000000 0.000000
# 4 0.000000 0.000000 0.000000 0.026269 0.000000 0.000000
# 5 0.000000 0.000000 0.000000 0.000000 0.041382 0.000000
# 6 0.000000 0.000000 0.000000 0.000000 0.000000 0.049169
#
#
# Mechanical properties :
#
#
# Convention : Reuss Voigt Hill
#
# Bulk Modulus (GPa) = 18.13529 21.67913 19.90721
# Shear Modulus (GPa) = 25.72877 28.52109 27.12493
#
# Velocity S-wave (km/s) = 3.68647 3.88136 3.78517
# Velocity P-wave (km/s) = 5.26300 5.61583 5.44228
#
# Compressibility (1/GPa) = 0.05514111
#
# Stress axis : x y z
#
# Youngs Moduli (GPa) = 58.26618 63.82393 41.14022
#
# Poissons Ratio (x) = 0.30884 -0.25966
# Poissons Ratio (y) = 0.28195 0.10165
# Poissons Ratio (z) = -0.36775 0.15770
#
# Static dielectric constant tensor:
#      x y z
#    x 1.652520 0.000000 0.000000 
#    y 0.000000 1.646770 0.000000 
#    z 0.000000 0.000000 1.621740 
# 
# From -- ./inp_files/25955.got.cif
#   From: 2010.05.17/outbox.cif.g08.bks.cpg/sg50_13_cif.got.tgz:25955.got - 2010.06.03 11:33:33.
