data_PCOD9396668
_publ_section_title
;
Structure prediction by ZEFSAII (Michael W. Deem and Ramdas Pophale) SiO2 
 PCOD9396668
Probable space group: P B A N
;
_chemical_formula_sum "Si O2"
_cell_formula_units_Z 58
_cell_length_a 18.460277
_cell_length_b 17.923772
_cell_length_c 7.861942
_cell_angle_alpha 90.000000
_cell_angle_beta 90.000000
_cell_angle_gamma 90.000000
_cell_volume 2601.342041
_symmetry_space_group_name_H-M "P B A N"
_symmetry_group_IT_number 50
_space_group.IT_coordinate_system_code '2'
_symmetry_cell_setting 'orthorhombic'
loop_
_space_group_symop_operation_xyz
x,y,z
1/2-x,1/2-y,z
x,1/2-y,-z
1/2-x,y,-z
-x,-y,-z
1/2+x,1/2+y,-z
-x,1/2+y,z
1/2+x,-y,z
loop_
_atom_site_type_symbol
_atom_site_label
_atom_site_fract_x
_atom_site_fract_y
_atom_site_fract_z
Si Si1 0.819104 0.091698 0.634730
Si Si2 0.789327 0.323007 0.815978
Si Si3 0.888140 0.011084 0.913758
Si Si4 0.039350 0.527056 0.262962
Si Si5 0.250000 0.250000 0.000000
Si Si6 0.791492 0.616348 0.231794
Si Si7 0.418605 0.681189 0.600472
Si Si8 0.848221 0.564216 0.559992
O O1 0.738968 0.108774 0.700802
O O2 0.856645 0.157342 0.533135
O O3 0.863278 0.082188 0.808855
O O4 0.827338 0.013566 0.535968
O O5 0.750000 0.250000 0.745428
O O6 0.873877 0.307225 0.777927
O O7 0.750000 0.332208 0.000000
O O8 0.827847 0.947574 0.885013
O O9 0.961959 0.985677 0.821586
O O10 0.903868 0.030931 0.106759
O O11 0.038622 0.604456 0.365171
O O12 0.073011 0.457479 0.367752
O O13 0.209490 0.192446 0.125774
O O14 0.839751 0.621516 0.403673
O O15 0.711641 0.590288 0.300735
O O16 0.455444 0.750000 0.500000
#
# Coordination Sequence:
#
# PCOD9396668 Si02
#       8
#     8   8   8   8   2   8   8   8
#     4  10  21  35  59  89 122 159 204 260 312 356
#     4  11  22  34  53  86 127 170 211 250 305 372
#     4  10  22  41  66  97 123 159 220 272 319 383
#     4  10  22  40  66  90 129 171 208 267 326 370
#     4  12  24  42  68  88 132 174 198 274 348 394
#     4  10  22  39  65  95 129 157 214 264 333 394
#     4  11  22  36  57  83 129 169 211 245 308 385
#     4   9  21  38  63  99 125 154 211 273 314 385
#
# _framework density 22.296184
#
# number of rings (size 3 to 8) (size 9 to 14) (size 15 to 20)
#    0.000    1.793    1.379    2.069   13.517    6.069 
#    4.966    0.000   18.207    0.000    0.000    0.000 
#    0.000    0.000    0.000    0.000    0.000    0.000 
#
# Total GULP energy -323267.863297 kJ/mol
# GULP energy per Si atom -5573.583850 kJ/mol
# Density = 2.224544 g / cm^3
# Si number density = 22.296184 Si / 1000 Ang^3
#
#
#
# Elastic Constant Matrix: (Units=GPa)
#
#
# Indices 1 2 3 4 5 6 
#
# 1 41.4888 22.3339 24.3071 0.0000 0.0000 0.0000
# 2 22.3339 78.6585 56.6558 0.0000 0.0000 0.0000
# 3 24.3071 56.6558 105.6665 0.0000 0.0000 0.0000
# 4 0.0000 0.0000 0.0000 44.4891 0.0000 0.0000
# 5 0.0000 0.0000 0.0000 0.0000 35.5115 0.0000
# 6 0.0000 0.0000 0.0000 0.0000 0.0000 17.2169
#
#
#
# Elastic Compliance Matrix: (Units=1/GPa)
#
#
# Indices 1 2 3 4 5 6 
#
# 1 0.029321 -0.005648 -0.003716 0.000000 0.000000 0.000000
# 2 -0.005648 0.021800 -0.010389 0.000000 0.000000 0.000000
# 3 -0.003716 -0.010389 0.015889 0.000000 0.000000 0.000000
# 4 0.000000 0.000000 0.000000 0.022477 0.000000 0.000000
# 5 0.000000 0.000000 0.000000 0.000000 0.028160 0.000000
# 6 0.000000 0.000000 0.000000 0.000000 0.000000 0.058083
#
#
# Mechanical properties :
#
#
# Convention : Reuss Voigt Hill
#
# Bulk Modulus (GPa) = 36.36112 48.04526 42.20319
# Shear Modulus (GPa) = 22.28108 27.61128 24.94618
#
# Velocity S-wave (km/s) = 3.16464 3.52289 3.34856
# Velocity P-wave (km/s) = 5.44948 6.17601 5.82409
#
# Compressibility (1/GPa) = 0.02750190
#
# Stress axis : x y z
#
# Youngs Moduli (GPa) = 34.10553 45.87110 62.93602
#
# Poissons Ratio (x) = 0.25910 0.23389
# Poissons Ratio (y) = 0.19264 0.65387
# Poissons Ratio (z) = 0.12674 0.47657
#
# Static dielectric constant tensor:
#      x y z
#    x 1.870500 0.000000 0.000000 
#    y 0.000000 1.845250 0.000000 
#    z 0.000000 0.000000 1.931820 
# 
# From -- ./inp_files/14505.got.cif
#   From: 2010.05.17/outbox.cif.g08.bks.cpg/sg50_8_cif.got.tgz:14505.got - 2010.06.03 11:33:33.
