data_PCOD9396298
_publ_section_title
;
Structure prediction by ZEFSAII (Michael W. Deem and Ramdas Pophale) SiO2 
 PCOD9396298
Probable space group: P B A N
;
_chemical_formula_sum "Si O2"
_cell_formula_units_Z 64
_cell_length_a 9.080179
_cell_length_b 30.681355
_cell_length_c 12.436963
_cell_angle_alpha 90.000000
_cell_angle_beta 90.000000
_cell_angle_gamma 90.000000
_cell_volume 3464.840826
_symmetry_space_group_name_H-M "P B A N"
_symmetry_group_IT_number 50
_space_group.IT_coordinate_system_code '2'
_symmetry_cell_setting 'orthorhombic'
loop_
_space_group_symop_operation_xyz
x,y,z
1/2-x,1/2-y,z
x,1/2-y,-z
1/2-x,y,-z
-x,-y,-z
1/2+x,1/2+y,-z
-x,1/2+y,z
1/2+x,-y,z
loop_
_atom_site_type_symbol
_atom_site_label
_atom_site_fract_x
_atom_site_fract_y
_atom_site_fract_z
Si Si1 0.898894 0.533925 0.563147
Si Si2 0.640979 0.098976 0.399556
Si Si3 0.227688 0.978217 0.752500
Si Si4 0.960078 0.969711 0.899564
Si Si5 0.065263 0.653423 0.795775
Si Si6 0.146556 0.685262 0.097073
Si Si7 0.578786 0.744150 0.130523
Si Si8 0.087959 0.120785 0.989694
O O1 0.750000 0.539249 0.500000
O O2 0.856202 0.513192 0.677304
O O3 0.000000 0.500000 0.500000
O O4 0.989810 0.577778 0.561947
O O5 0.750000 0.107265 0.500000
O O6 0.710199 0.060543 0.322994
O O7 0.589466 0.138985 0.325936
O O8 0.108062 0.959351 0.834257
O O9 0.349292 0.004302 0.821385
O O10 0.900549 0.924852 0.948769
O O11 0.000000 0.000000 0.000000
O O12 0.232490 0.659764 0.835075
O O13 0.978714 0.697949 0.824829
O O14 0.975659 0.617888 0.868069
O O15 0.047813 0.720497 0.159850
O O16 0.030790 0.651555 0.046847
O O17 0.250000 0.703449 0.000000
O O18 0.750000 0.750000 0.163586
O O19 0.577638 0.750000 0.000000
O O20 0.250000 0.141741 0.000000
#
# Coordination Sequence:
#
# PCOD9396298 Si02
#       8
#     8   8   8   8   8   8   8   8
#     4  12  21  42  67  89 111 160 223 280 322 368
#     4  12  25  43  65  91 124 158 224 282 328 369
#     4  12  22  40  60  83 118 171 220 260 321 375
#     4  12  25  37  53  83 127 174 213 255 315 394
#     4  11  24  38  62  94 127 166 206 266 317 377
#     4  10  20  36  60  90 125 167 207 246 301 379
#     4  11  20  37  64  94 130 169 205 238 298 394
#     4  11  22  36  52  84 129 168 209 254 312 380
#
# _framework density 18.471267000000001
#
# number of rings (size 3 to 8) (size 9 to 14) (size 15 to 20)
#    0.000    0.625    6.250    3.750    1.750    2.000 
#    0.000    0.000    0.000    1.500    0.000    0.875 
#    0.000    0.000    0.000    0.000    0.000    0.000 
#
# Total GULP energy -357172.354978 kJ/mol
# GULP energy per Si atom -5580.818047 kJ/mol
# Density = 1.842923 g / cm^3
# Si number density = 18.471267 Si / 1000 Ang^3
#
#
#
# Elastic Constant Matrix: (Units=GPa)
#
#
# Indices 1 2 3 4 5 6 
#
# 1 160.1690 38.3398 51.3885 0.0000 0.0000 0.0000
# 2 38.3398 71.3902 41.3568 0.0000 0.0000 0.0000
# 3 51.3885 41.3568 98.1487 0.0000 0.0000 0.0000
# 4 0.0000 0.0000 0.0000 22.1052 0.0000 0.0000
# 5 0.0000 0.0000 0.0000 0.0000 34.1658 0.0000
# 6 0.0000 0.0000 0.0000 0.0000 0.0000 21.0634
#
#
#
# Elastic Compliance Matrix: (Units=1/GPa)
#
#
# Indices 1 2 3 4 5 6 
#
# 1 0.007806 -0.002414 -0.003070 0.000000 0.000000 0.000000
# 2 -0.002414 0.019277 -0.006859 0.000000 0.000000 0.000000
# 3 -0.003070 -0.006859 0.014686 0.000000 0.000000 0.000000
# 4 0.000000 0.000000 0.000000 0.045238 0.000000 0.000000
# 5 0.000000 0.000000 0.000000 0.000000 0.029269 0.000000
# 6 0.000000 0.000000 0.000000 0.000000 0.000000 0.047476
#
#
# Mechanical properties :
#
#
# Convention : Reuss Voigt Hill
#
# Bulk Modulus (GPa) = 58.53445 65.76423 62.14934
# Shear Modulus (GPa) = 25.75553 28.70841 27.23197
#
# Velocity S-wave (km/s) = 3.73816 3.94664 3.84381
# Velocity P-wave (km/s) = 7.09859 7.51324 7.30886
#
# Compressibility (1/GPa) = 0.01708396
#
# Stress axis : x y z
#
# Youngs Moduli (GPa) = 128.10351 51.87439 68.09098
#
# Poissons Ratio (x) = 0.12521 0.20904
# Poissons Ratio (y) = 0.30921 0.46704
# Poissons Ratio (z) = 0.39329 0.35581
#
# Static dielectric constant tensor:
#      x y z
#    x 1.613360 0.000000 0.000000 
#    y 0.000000 1.683820 0.000000 
#    z 0.000000 0.000000 -0.032390 
# 
# From -- ./inp_files/19534.got.cif
#   From: 2010.05.17/outbox.cif.g08.bks.cpg/sg50_10_cif.got.tgz:19534.got - 2010.06.03 11:33:33.
