data_PCOD9396425
_publ_section_title
;
Structure prediction by ZEFSAII (Michael W. Deem and Ramdas Pophale) SiO2 
 PCOD9396425
Probable space group: P B A N
;
_chemical_formula_sum "Si O2"
_cell_formula_units_Z 38
_cell_length_a 17.694154
_cell_length_b 5.271643
_cell_length_c 21.176313
_cell_angle_alpha 90.000000
_cell_angle_beta 90.000000
_cell_angle_gamma 90.000000
_cell_volume 1975.268519
_symmetry_space_group_name_H-M "P B A N"
_symmetry_group_IT_number 50
_space_group.IT_coordinate_system_code '2'
_symmetry_cell_setting 'orthorhombic'
loop_
_space_group_symop_operation_xyz
x,y,z
1/2-x,1/2-y,z
x,1/2-y,-z
1/2-x,y,-z
-x,-y,-z
1/2+x,1/2+y,-z
-x,1/2+y,z
1/2+x,-y,z
loop_
_atom_site_type_symbol
_atom_site_label
_atom_site_fract_x
_atom_site_fract_y
_atom_site_fract_z
Si Si1 0.159024 0.224929 0.260581
Si Si2 0.750000 0.250000 0.500000
Si Si3 0.950105 0.750000 0.500000
Si Si4 0.658314 0.232155 0.811611
Si Si5 0.050386 0.761184 0.926464
Si Si6 0.830679 0.614573 0.403389
O O1 0.250000 0.250000 0.257499
O O2 0.134638 0.503877 0.236406
O O3 0.143739 0.113693 0.330696
O O4 0.132293 0.004994 0.214115
O O5 0.807776 0.384709 0.450365
O O6 0.895279 0.761604 0.440093
O O7 0.000000 0.500000 0.500000
O O8 0.750000 0.250000 0.815026
O O9 0.619781 0.196639 0.879129
O O10 0.006878 0.495766 0.915849
O O11 0.074098 0.750000 0.000000
O O12 0.750000 0.750000 0.401847
#
# Coordination Sequence:
#
# PCOD9396425 Si02
#       6
#     8   2   4   8   8   8
#     4   9  21  35  61  87 119 148 197 252 294 354
#     4  12  20  36  72  92 112 146 232 266 294 362
#     4  12  26  42  57  85 126 152 186 256 324 364
#     4  10  20  38  58  89 119 155 191 244 305 350
#     4  10  21  38  61  88 120 160 204 245 286 347
#     4  11  23  40  64  90 111 161 215 253 298 379
#
# _framework density 19.237891999999999
#
# number of rings (size 3 to 8) (size 9 to 14) (size 15 to 20)
#    0.000    1.684    2.105    1.895    7.368    0.421 
#    0.000    6.316    0.000    7.579    0.000    0.000 
#    0.000    0.000    0.000    0.000    0.000    0.000 
#
# Total GULP energy -211538.061532 kJ/mol
# GULP energy per Si atom -5566.791093 kJ/mol
# Density = 1.919411 g / cm^3
# Si number density = 19.237892 Si / 1000 Ang^3
#
#
#
# Elastic Constant Matrix: (Units=GPa)
#
#
# Indices 1 2 3 4 5 6 
#
# 1 50.3717 22.1751 38.3386 0.0000 0.0000 0.0000
# 2 22.1751 117.1403 41.1331 0.0000 0.0000 0.0000
# 3 38.3386 41.1331 128.1747 0.0000 0.0000 0.0000
# 4 0.0000 0.0000 0.0000 35.9577 0.0000 0.0000
# 5 0.0000 0.0000 0.0000 0.0000 108.5153 0.0000
# 6 0.0000 0.0000 0.0000 0.0000 0.0000 16.3987
#
#
#
# Elastic Compliance Matrix: (Units=1/GPa)
#
#
# Indices 1 2 3 4 5 6 
#
# 1 0.026339 -0.002502 -0.007076 0.000000 0.000000 0.000000
# 2 -0.002502 0.009859 -0.002416 0.000000 0.000000 0.000000
# 3 -0.007076 -0.002416 0.010693 0.000000 0.000000 0.000000
# 4 0.000000 0.000000 0.000000 0.027810 0.000000 0.000000
# 5 0.000000 0.000000 0.000000 0.000000 0.009215 0.000000
# 6 0.000000 0.000000 0.000000 0.000000 0.000000 0.060980
#
#
# Mechanical properties :
#
#
# Convention : Reuss Voigt Hill
#
# Bulk Modulus (GPa) = 43.65717 55.44226 49.54971
# Shear Modulus (GPa) = 28.32584 45.11033 36.71809
#
# Velocity S-wave (km/s) = 3.84135 4.84764 4.37353
# Velocity P-wave (km/s) = 6.51285 7.75981 7.16351
#
# Compressibility (1/GPa) = 0.02290575
#
# Stress axis : x y z
#
# Youngs Moduli (GPa) = 37.96661 101.43525 93.51566
#
# Poissons Ratio (x) = 0.25374 0.66167
# Poissons Ratio (y) = 0.09497 0.22589
# Poissons Ratio (z) = 0.26863 0.24502
#
# Static dielectric constant tensor:
#      x y z
#    x 1.654670 0.000000 0.000000 
#    y 0.000000 1.711930 0.000000 
#    z 0.000000 0.000000 1.775680 
# 
# From -- ./inp_files/29623.got.cif
#   From: 2010.05.17/outbox.cif.g08.bks.cpg/sg50_15_cif.got.tgz:29623.got - 2010.06.03 11:33:33.
