data_PCOD9396332
_publ_section_title
;
Structure prediction by ZEFSAII (Michael W. Deem and Ramdas Pophale) SiO2 
 PCOD9396332
Probable space group: P B A N
;
_chemical_formula_sum "Si O2"
_cell_formula_units_Z 42
_cell_length_a 12.876895
_cell_length_b 8.509108
_cell_length_c 18.448964
_cell_angle_alpha 90.000000
_cell_angle_beta 90.000000
_cell_angle_gamma 90.000000
_cell_volume 2021.469410
_symmetry_space_group_name_H-M "P B A N"
_symmetry_group_IT_number 50
_space_group.IT_coordinate_system_code '2'
_symmetry_cell_setting 'orthorhombic'
loop_
_space_group_symop_operation_xyz
x,y,z
1/2-x,1/2-y,z
x,1/2-y,-z
1/2-x,y,-z
-x,-y,-z
1/2+x,1/2+y,-z
-x,1/2+y,z
1/2+x,-y,z
loop_
_atom_site_type_symbol
_atom_site_label
_atom_site_fract_x
_atom_site_fract_y
_atom_site_fract_z
Si Si1 0.437226 0.239412 0.678867
Si Si2 0.750000 0.250000 0.000000
Si Si3 0.123570 0.927125 0.378720
Si Si4 0.750000 0.750000 0.000000
Si Si5 0.250000 0.750000 0.255072
Si Si6 0.592350 0.502689 0.059141
Si Si7 0.082404 0.980088 0.780098
Si Si8 0.250000 0.750000 0.500000
O O1 0.510269 0.346553 0.627526
O O2 0.387827 0.365398 0.733912
O O3 0.375584 0.114739 0.630190
O O4 0.503516 0.121776 0.731005
O O5 0.669823 0.143607 0.954215
O O6 0.180535 0.855499 0.308380
O O7 0.180767 0.860062 0.448622
O O8 0.828596 0.646897 0.952343
O O9 0.180894 0.631583 0.210512
O O10 0.543417 0.513938 0.139320
O O11 0.500000 0.500000 0.000000
#
# Coordination Sequence:
#
# PCOD9396332 Si02
#       8
#     8   2   8   2   4   8   8   2
#     4   9  20  37  59  88 120 154 210 251 293 385
#     4  10  24  42  58  88 126 170 206 288 320 414
#     4   9  19  37  59  90 124 157 198 244 304 360
#     4  10  26  42  52  92 116 162 210 276 312 412
#     4   9  19  37  58  89 120 150 202 264 299 381
#     4  11  24  41  63  85 128 165 219 275 334 399
#     4  10  21  37  62  87 115 166 206 259 332 364
#     4  10  20  36  66  90 130 172 186 244 318 358
#
# _framework density 20.776965000000001
#
# number of rings (size 3 to 8) (size 9 to 14) (size 15 to 20)
#    0.000    2.286    0.000    1.143    5.333    3.048 
#    6.857    0.000    0.000   18.286    0.000    0.000 
#    0.000    0.000    0.000    0.000    0.000    0.000 
#
# Total GULP energy -234239.025979 kJ/mol
# GULP energy per Si atom -5577.119666 kJ/mol
# Density = 2.072968 g / cm^3
# Si number density = 20.776965 Si / 1000 Ang^3
#
#
#
# Elastic Constant Matrix: (Units=GPa)
#
#
# Indices 1 2 3 4 5 6 
#
# 1 61.2734 34.5858 30.8730 0.0000 0.0000 0.0000
# 2 34.5858 136.7813 42.4302 0.0000 0.0000 0.0000
# 3 30.8730 42.4302 126.5380 0.0000 0.0000 0.0000
# 4 0.0000 0.0000 0.0000 16.2145 0.0000 0.0000
# 5 0.0000 0.0000 0.0000 0.0000 -1.4609 0.0000
# 6 0.0000 0.0000 0.0000 0.0000 0.0000 15.6635
#
#
#
# Elastic Compliance Matrix: (Units=1/GPa)
#
#
# Indices 1 2 3 4 5 6 
#
# 1 0.020429 -0.004040 -0.003630 0.000000 0.000000 0.000000
# 2 -0.004040 0.008958 -0.002018 0.000000 0.000000 0.000000
# 3 -0.003630 -0.002018 0.009465 0.000000 0.000000 0.000000
# 4 0.000000 0.000000 0.000000 0.061673 0.000000 0.000000
# 5 0.000000 0.000000 0.000000 0.000000 -0.684486 0.000000
# 6 0.000000 0.000000 0.000000 0.000000 0.000000 0.063843
#
#
# Mechanical properties :
#
#
# Convention : Reuss Voigt Hill
#
# Bulk Modulus (GPa) = 51.34159 60.04119 55.69139
# Shear Modulus (GPa) = -10.11636 20.53032 5.20698
#
# Velocity S-wave (km/s) = -2.20898 3.14686 1.58479
# Velocity P-wave (km/s) = 4.27298 6.49341 5.49648
#
# Compressibility (1/GPa) = 0.01947739
#
# Stress axis : x y z
#
# Youngs Moduli (GPa) = 48.94898 111.62605 105.65070
#
# Poissons Ratio (x) = 0.45093 0.38350
# Poissons Ratio (y) = 0.19774 0.21324
# Poissons Ratio (z) = 0.17768 0.22530
#
# Static dielectric constant tensor:
#      x y z
#    x 1.796290 0.000000 0.000000 
#    y 0.000000 1.775460 0.000000 
#    z 0.000000 0.000000 1.715200 
# 
# From -- ./inp_files/30843.got.cif
#   From: 2010.05.17/outbox.cif.g08.bks.cpg/sg50_16_cif.got.tgz:30843.got - 2010.06.03 11:33:33.
