data_PCOD9396708
_publ_section_title
;
Structure prediction by ZEFSAII (Michael W. Deem and Ramdas Pophale) SiO2 
 PCOD9396708
Probable space group: P B A N
;
_chemical_formula_sum "Si O2"
_cell_formula_units_Z 48
_cell_length_a 8.513537
_cell_length_b 22.183186
_cell_length_c 12.417229
_cell_angle_alpha 90.000000
_cell_angle_beta 90.000000
_cell_angle_gamma 90.000000
_cell_volume 2345.085271
_symmetry_space_group_name_H-M "P B A N"
_symmetry_group_IT_number 50
_space_group.IT_coordinate_system_code '2'
_symmetry_cell_setting 'orthorhombic'
loop_
_space_group_symop_operation_xyz
x,y,z
1/2-x,1/2-y,z
x,1/2-y,-z
1/2-x,y,-z
-x,-y,-z
1/2+x,1/2+y,-z
-x,1/2+y,z
1/2+x,-y,z
loop_
_atom_site_type_symbol
_atom_site_label
_atom_site_fract_x
_atom_site_fract_y
_atom_site_fract_z
Si Si1 0.559840 0.806367 0.755726
Si Si2 0.913084 0.320567 0.034475
Si Si3 0.566733 0.632129 0.465021
Si Si4 0.108159 0.330840 0.837842
Si Si5 0.556788 0.411252 0.324379
Si Si6 0.854150 0.474935 0.391149
O O1 0.427661 0.828228 0.838037
O O2 0.541725 0.818810 0.629345
O O3 0.715814 0.841136 0.796619
O O4 0.577373 0.736495 0.790381
O O5 0.902981 0.250000 0.000000
O O6 0.750000 0.349892 0.000000
O O7 0.066416 0.337001 0.963707
O O8 0.750000 0.632323 0.500000
O O9 0.463044 0.634686 0.573927
O O10 0.499842 0.569945 0.414097
O O11 0.991493 0.375873 0.779935
O O12 0.727240 0.441013 0.318124
O O13 0.428376 0.463580 0.348874
O O14 0.750000 0.483423 0.500000
#
# Coordination Sequence:
#
# PCOD9396708 Si02
#       6
#     8   8   8   8   8   8
#     4  10  21  36  59  89 121 155 191 236 291 358
#     4   9  19  37  60  84 115 152 197 240 282 344
#     4  11  20  36  57  87 120 155 194 234 294 349
#     4  10  21  36  59  90 116 156 194 240 289 358
#     4  11  21  37  58  88 116 155 200 246 296 344
#     4  10  22  36  58  82 113 159 203 252 275 350
#
# _framework density 20.468340000000001
#
# number of rings (size 3 to 8) (size 9 to 14) (size 15 to 20)
#    0.000    1.833    1.667    4.000    2.333    2.667 
#    0.000    0.000    0.000    4.000    0.000    0.000 
#    0.000    0.000    0.000    0.000    0.000    0.000 
#
# Total GULP energy -267449.628578 kJ/mol
# GULP energy per Si atom -5571.867262 kJ/mol
# Density = 2.042175 g / cm^3
# Si number density = 20.468340 Si / 1000 Ang^3
#
#
#
# Elastic Constant Matrix: (Units=GPa)
#
#
# Indices 1 2 3 4 5 6 
#
# 1 87.5308 17.1638 16.3527 0.0000 0.0000 0.0000
# 2 17.1638 26.8970 13.8870 0.0000 0.0000 0.0000
# 3 16.3527 13.8870 65.3940 0.0000 0.0000 0.0000
# 4 0.0000 0.0000 0.0000 6.8792 0.0000 0.0000
# 5 0.0000 0.0000 0.0000 0.0000 21.4289 0.0000
# 6 0.0000 0.0000 0.0000 0.0000 0.0000 2.2756
#
#
#
# Elastic Compliance Matrix: (Units=1/GPa)
#
#
# Indices 1 2 3 4 5 6 
#
# 1 0.013225 -0.007561 -0.001701 0.000000 0.000000 0.000000
# 2 -0.007561 0.046080 -0.007895 0.000000 0.000000 0.000000
# 3 -0.001701 -0.007895 0.017394 0.000000 0.000000 0.000000
# 4 0.000000 0.000000 0.000000 0.145366 0.000000 0.000000
# 5 0.000000 0.000000 0.000000 0.000000 0.046666 0.000000
# 6 0.000000 0.000000 0.000000 0.000000 0.000000 0.439440
#
#
# Mechanical properties :
#
#
# Convention : Reuss Voigt Hill
#
# Bulk Modulus (GPa) = 23.59349 30.51433 27.05391
# Shear Modulus (GPa) = 6.60839 14.94462 10.77651
#
# Velocity S-wave (km/s) = 1.79878 2.70503 2.29704
# Velocity P-wave (km/s) = 3.98321 4.96958 4.50348
#
# Compressibility (1/GPa) = 0.04238457
#
# Stress axis : x y z
#
# Youngs Moduli (GPa) = 75.61424 21.70147 57.49134
#
# Poissons Ratio (x) = 0.16408 0.09782
# Poissons Ratio (y) = 0.57171 0.45388
# Poissons Ratio (z) = 0.12866 0.17133
#
# Static dielectric constant tensor:
#      x y z
#    x 1.793040 0.000000 0.000000 
#    y 0.000000 1.749180 0.000000 
#    z 0.000000 0.000000 1.760750 
# 
# From -- ./inp_files/19165.got.cif
#   From: 2010.05.17/outbox.cif.g08.bks.cpg/sg50_10_cif.got.tgz:19165.got - 2010.06.03 11:33:33.
