data_PCOD9396433
_publ_section_title
;
Structure prediction by ZEFSAII (Michael W. Deem and Ramdas Pophale) SiO2 
 PCOD9396433
Probable space group: P B A N
;
_chemical_formula_sum "Si O2"
_cell_formula_units_Z 48
_cell_length_a 13.990216
_cell_length_b 11.576204
_cell_length_c 15.898779
_cell_angle_alpha 90.000000
_cell_angle_beta 90.000000
_cell_angle_gamma 90.000000
_cell_volume 2574.864406
_symmetry_space_group_name_H-M "P B A N"
_symmetry_group_IT_number 50
_space_group.IT_coordinate_system_code '2'
_symmetry_cell_setting 'orthorhombic'
loop_
_space_group_symop_operation_xyz
x,y,z
1/2-x,1/2-y,z
x,1/2-y,-z
1/2-x,y,-z
-x,-y,-z
1/2+x,1/2+y,-z
-x,1/2+y,z
1/2+x,-y,z
loop_
_atom_site_type_symbol
_atom_site_label
_atom_site_fract_x
_atom_site_fract_y
_atom_site_fract_z
Si Si1 0.982643 0.474329 0.724854
Si Si2 0.358240 0.389912 0.593868
Si Si3 0.466934 0.889269 0.892888
Si Si4 0.151361 0.473053 0.033727
Si Si5 0.361046 0.387640 0.404378
Si Si6 0.346452 0.822247 0.167042
O O1 0.924493 0.560926 0.665758
O O2 0.907706 0.377162 0.756974
O O3 0.024512 0.540076 0.805927
O O4 0.067953 0.426947 0.667751
O O5 0.387297 0.426689 0.499231
O O6 0.360690 0.251334 0.594891
O O7 0.248367 0.426009 0.609273
O O8 0.417536 0.766960 0.878925
O O9 0.574964 0.884619 0.927800
O O10 0.403649 0.961600 0.958514
O O11 0.174932 0.571307 0.103866
O O12 0.250000 0.422818 0.000000
O O13 0.250000 0.750000 0.187727
#
# Coordination Sequence:
#
# PCOD9396433 Si02
#       6
#     8   8   8   8   8   8
#     4  11  22  34  57  87 120 147 186 252 290 332
#     4   9  19  37  59  82 109 159 197 226 285 355
#     4  10  22  34  55  88 112 142 200 236 288 346
#     4  10  20  38  60  79 108 157 197 235 286 357
#     4   9  19  37  59  81 113 153 200 230 279 352
#     4  11  22  36  58  85 116 156 194 235 303 356
#
# _framework density 18.641759
#
# number of rings (size 3 to 8) (size 9 to 14) (size 15 to 20)
#    0.000    2.000    1.667    3.000    2.333    0.000 
#    0.000    0.000    0.000   17.000    0.000    0.000 
#    0.000    0.000    0.000    0.000    0.000    0.000 
#
# Total GULP energy -267885.565708 kJ/mol
# GULP energy per Si atom -5580.949286 kJ/mol
# Density = 1.859933 g / cm^3
# Si number density = 18.641759 Si / 1000 Ang^3
#
#
#
# Elastic Constant Matrix: (Units=GPa)
#
#
# Indices 1 2 3 4 5 6 
#
# 1 106.4696 14.8721 38.2023 0.0000 0.0000 0.0000
# 2 14.8721 23.8195 -1.1986 0.0000 0.0000 0.0000
# 3 38.2023 -1.1986 92.0131 0.0000 0.0000 0.0000
# 4 0.0000 0.0000 0.0000 -29.8794 0.0000 0.0000
# 5 0.0000 0.0000 0.0000 0.0000 20.1208 0.0000
# 6 0.0000 0.0000 0.0000 0.0000 0.0000 20.3341
#
#
#
# Elastic Compliance Matrix: (Units=1/GPa)
#
#
# Indices 1 2 3 4 5 6 
#
# 1 0.012394 -0.008003 -0.005250 0.000000 0.000000 0.000000
# 2 -0.008003 0.047177 0.003937 0.000000 0.000000 0.000000
# 3 -0.005250 0.003937 0.013099 0.000000 0.000000 0.000000
# 4 0.000000 0.000000 0.000000 -0.033468 0.000000 0.000000
# 5 0.000000 0.000000 0.000000 0.000000 0.049700 0.000000
# 6 0.000000 0.000000 0.000000 0.000000 0.000000 0.049178
#
#
# Mechanical properties :
#
#
# Convention : Reuss Voigt Hill
#
# Bulk Modulus (GPa) = 18.50514 36.22821 27.36668
# Shear Modulus (GPa) = 28.61649 13.47685 21.04667
#
# Velocity S-wave (km/s) = 3.92225 2.69167 3.36371
# Velocity P-wave (km/s) = 5.51909 5.39780 5.45878
#
# Compressibility (1/GPa) = 0.05403903
#
# Stress axis : x y z
#
# Youngs Moduli (GPa) = 80.68459 21.19675 76.34162
#
# Poissons Ratio (x) = 0.16963 0.40079
# Poissons Ratio (y) = 0.64568 -0.30056
# Poissons Ratio (z) = 0.42359 -0.08345
#
# Static dielectric constant tensor:
#      x y z
#    x 1.646780 0.000000 0.000000 
#    y 0.000000 1.623370 0.000000 
#    z 0.000000 0.000000 1.644830 
# 
# From -- ./inp_files/26415.got.cif
#   From: 2010.05.17/outbox.cif.g08.bks.cpg/sg50_14_cif.got.tgz:26415.got - 2010.06.03 11:33:33.
