data_PCOD9396821
_publ_section_title
;
Structure prediction by ZEFSAII (Michael W. Deem and Ramdas Pophale) SiO2 
 PCOD9396821
Probable space group: P B A N
;
_chemical_formula_sum "Si O2"
_cell_formula_units_Z 64
_cell_length_a 10.068434
_cell_length_b 21.991602
_cell_length_c 16.018539
_cell_angle_alpha 90.000000
_cell_angle_beta 90.000000
_cell_angle_gamma 90.000000
_cell_volume 3546.840816
_symmetry_space_group_name_H-M "P B A N"
_symmetry_group_IT_number 50
_space_group.IT_coordinate_system_code '2'
_symmetry_cell_setting 'orthorhombic'
loop_
_space_group_symop_operation_xyz
x,y,z
1/2-x,1/2-y,z
x,1/2-y,-z
1/2-x,y,-z
-x,-y,-z
1/2+x,1/2+y,-z
-x,1/2+y,z
1/2+x,-y,z
loop_
_atom_site_type_symbol
_atom_site_label
_atom_site_fract_x
_atom_site_fract_y
_atom_site_fract_z
Si Si1 0.108991 0.231407 0.753427
Si Si2 0.252490 0.436825 0.194439
Si Si3 0.766454 0.058162 0.287086
Si Si4 0.975512 0.611189 0.681117
Si Si5 0.982410 0.141747 0.204589
Si Si6 0.597360 0.323032 0.016666
Si Si7 0.122269 0.479379 0.442804
Si Si8 0.157322 0.155423 0.923958
O O1 0.250000 0.250000 0.714763
O O2 0.031334 0.182451 0.698532
O O3 0.147653 0.200230 0.843502
O O4 0.025004 0.292072 0.763979
O O5 0.259222 0.507688 0.214902
O O6 0.127811 0.414657 0.250094
O O7 0.390839 0.403080 0.215958
O O8 0.218557 0.408750 0.104771
O O9 0.622732 0.084314 0.311028
O O10 0.860736 0.110666 0.251901
O O11 0.839087 0.024327 0.365328
O O12 0.915854 0.585611 0.595858
O O13 0.944590 0.154815 0.108336
O O14 0.582859 0.250000 0.000000
O O15 0.750000 0.338267 0.000000
O O16 0.492222 0.352615 0.954467
O O17 0.250000 0.475498 0.500000
O O18 0.000000 0.500000 0.500000
O O19 0.250000 0.178822 0.000000
#
# Coordination Sequence:
#
# PCOD9396821 Si02
#       8
#     8   8   8   8   8   8   8   8
#     4  11  21  37  64  93 124 165 213 263 321 379
#     4  10  21  38  60  85 122 165 213 262 314 374
#     4  11  25  41  62  97 129 162 210 254 320 387
#     4  10  22  38  63  95 127 158 202 260 305 373
#     4  12  23  39  63  90 126 171 211 269 323 378
#     4  11  24  36  54  87 125 160 222 276 321 369
#     4  11  22  42  72 100 127 164 211 256 300 370
#     4  11  20  36  61  85 115 165 222 272 316 367
#
# _framework density 18.044225999999998
#
# number of rings (size 3 to 8) (size 9 to 14) (size 15 to 20)
#    0.000    1.125    6.250    1.500    5.250    0.500 
#    0.000    1.250    0.000    2.625    0.000    0.000 
#    0.000    0.000    0.000    0.000    0.000    0.000 
#
# Total GULP energy -356896.697552 kJ/mol
# GULP energy per Si atom -5576.510899 kJ/mol
# Density = 1.800316 g / cm^3
# Si number density = 18.044226 Si / 1000 Ang^3
#
#
#
# Elastic Constant Matrix: (Units=GPa)
#
#
# Indices 1 2 3 4 5 6 
#
# 1 130.1647 44.8458 36.0269 0.0000 0.0000 0.0000
# 2 44.8458 114.3632 46.4249 0.0000 0.0000 0.0000
# 3 36.0269 46.4249 71.8397 0.0000 0.0000 0.0000
# 4 0.0000 0.0000 0.0000 -251.8678 0.0000 0.0000
# 5 0.0000 0.0000 0.0000 0.0000 35.2976 0.0000
# 6 0.0000 0.0000 0.0000 0.0000 0.0000 1130.0221
#
#
#
# Elastic Compliance Matrix: (Units=1/GPa)
#
#
# Indices 1 2 3 4 5 6 
#
# 1 0.009382 -0.002398 -0.003155 0.000000 0.000000 0.000000
# 2 -0.002398 0.012467 -0.006854 0.000000 0.000000 0.000000
# 3 -0.003155 -0.006854 0.019931 0.000000 0.000000 0.000000
# 4 0.000000 0.000000 0.000000 -0.003970 0.000000 0.000000
# 5 0.000000 0.000000 0.000000 0.000000 0.028331 0.000000
# 6 0.000000 0.000000 0.000000 0.000000 0.000000 0.000885
#
#
# Mechanical properties :
#
#
# Convention : Reuss Voigt Hill
#
# Bulk Modulus (GPa) = 58.94204 63.44032 61.19118
# Shear Modulus (GPa) = 51.28483 195.29505 123.28994
#
# Velocity S-wave (km/s) = 5.33699 10.41471 8.27495
# Velocity P-wave (km/s) = 8.40917 13.41105 11.19309
#
# Compressibility (1/GPa) = 0.01696582
#
# Stress axis : x y z
#
# Youngs Moduli (GPa) = 106.58539 80.21384 50.17246
#
# Poissons Ratio (x) = 0.19237 0.15831
# Poissons Ratio (y) = 0.25561 0.34386
# Poissons Ratio (z) = 0.33631 0.54976
#
# Static dielectric constant tensor:
#      x y z
#    x 1.634020 0.000000 0.000000 
#    y 0.000000 1.643840 0.000000 
#    z 0.000000 0.000000 1.707720 
# 
# From -- ./inp_files/28951.got.cif
#   From: 2010.05.17/outbox.cif.g08.bks.cpg/sg50_15_cif.got.tgz:28951.got - 2010.06.03 11:33:33.
