data_PCOD9396111
_publ_section_title
;
Structure prediction by ZEFSAII (Michael W. Deem and Ramdas Pophale) SiO2 
 PCOD9396111
Probable space group: P B A N
;
_chemical_formula_sum "Si O2"
_cell_formula_units_Z 40
_cell_length_a 14.931078
_cell_length_b 21.563966
_cell_length_c 5.452974
_cell_angle_alpha 90.000000
_cell_angle_beta 90.000000
_cell_angle_gamma 90.000000
_cell_volume 1755.711806
_symmetry_space_group_name_H-M "P B A N"
_symmetry_group_IT_number 50
_space_group.IT_coordinate_system_code '2'
_symmetry_cell_setting 'orthorhombic'
loop_
_space_group_symop_operation_xyz
x,y,z
1/2-x,1/2-y,z
x,1/2-y,-z
1/2-x,y,-z
-x,-y,-z
1/2+x,1/2+y,-z
-x,1/2+y,z
1/2+x,-y,z
loop_
_atom_site_type_symbol
_atom_site_label
_atom_site_fract_x
_atom_site_fract_y
_atom_site_fract_z
Si Si1 0.299352 0.840760 0.249744
Si Si2 0.146023 0.323665 0.495934
Si Si3 0.800345 0.491272 0.750644
Si Si4 0.463946 0.081445 0.240454
Si Si5 0.983307 0.122710 0.260345
O O1 0.250000 0.821808 0.500000
O O2 0.405098 0.826080 0.254304
O O3 0.301804 0.916369 0.246936
O O4 0.250000 0.821206 0.000000
O O5 0.140005 0.250000 0.500000
O O6 0.250000 0.341104 0.500000
O O7 0.096529 0.356328 0.268225
O O8 0.083694 0.350434 0.712194
O O9 0.750000 0.509563 0.500000
O O10 0.895269 0.525366 0.750110
O O11 0.750000 0.510883 0.000000
O O12 0.525220 0.084915 0.483520
O O13 0.518652 0.085105 0.991577
#
# Coordination Sequence:
#
# PCOD9396111 Si02
#       5
#     8   8   8   8   8
#     4  10  21  38  59  82 115 154 191 231 284 330
#     4   9  21  39  59  86 116 150 185 229 290 344
#     4  10  20  33  53  82 116 155 190 227 274 336
#     4  10  21  33  56  81 116 147 186 230 279 327
#     4  10  22  36  57  88 110 151 191 235 276 338
#
# _framework density 22.782779999999999
#
# number of rings (size 3 to 8) (size 9 to 14) (size 15 to 20)
#    1.200    1.000    0.000    3.000    2.800    2.400 
#    0.000    2.000    0.000    0.600    0.000    0.000 
#    0.000    0.000    0.000    0.000    0.000    0.000 
#
# Total GULP energy -223199.919451 kJ/mol
# GULP energy per Si atom -5579.997986 kJ/mol
# Density = 2.273093 g / cm^3
# Si number density = 22.782780 Si / 1000 Ang^3
#
#
#
# Elastic Constant Matrix: (Units=GPa)
#
#
# Indices 1 2 3 4 5 6 
#
# 1 125.3267 11.5037 67.9686 0.0000 0.0000 0.0000
# 2 11.5037 76.5083 18.8594 0.0000 0.0000 0.0000
# 3 67.9686 18.8594 210.0854 0.0000 0.0000 0.0000
# 4 0.0000 0.0000 0.0000 29.8403 0.0000 0.0000
# 5 0.0000 0.0000 0.0000 0.0000 40.2401 0.0000
# 6 0.0000 0.0000 0.0000 0.0000 0.0000 35.4205
#
#
#
# Elastic Compliance Matrix: (Units=1/GPa)
#
#
# Indices 1 2 3 4 5 6 
#
# 1 0.009714 -0.000701 -0.003080 0.000000 0.000000 0.000000
# 2 -0.000701 0.013417 -0.000978 0.000000 0.000000 0.000000
# 3 -0.003080 -0.000978 0.005844 0.000000 0.000000 0.000000
# 4 0.000000 0.000000 0.000000 0.033512 0.000000 0.000000
# 5 0.000000 0.000000 0.000000 0.000000 0.024851 0.000000
# 6 0.000000 0.000000 0.000000 0.000000 0.000000 0.028232
#
#
# Mechanical properties :
#
#
# Convention : Reuss Voigt Hill
#
# Bulk Modulus (GPa) = 51.39407 67.62042 59.50724
# Shear Modulus (GPa) = 38.00184 42.00611 40.00398
#
# Velocity S-wave (km/s) = 4.08856 4.29857 4.19488
# Velocity P-wave (km/s) = 6.70042 7.37440 7.04548
#
# Compressibility (1/GPa) = 0.01945750
#
# Stress axis : x y z
#
# Youngs Moduli (GPa) = 102.94686 74.53291 171.11287
#
# Poissons Ratio (x) = 0.05228 0.52698
# Poissons Ratio (y) = 0.07221 0.16727
# Poissons Ratio (z) = 0.31705 0.07286
#
# Static dielectric constant tensor:
#      x y z
#    x 1.936260 0.000000 0.000000 
#    y 0.000000 1.857310 0.000000 
#    z 0.000000 0.000000 2.056750 
# 
# From -- ./inp_files/3458.got.cif
#   From: 2010.05.17/outbox.cif.g08.bks.cpg/sg50_2_cif.got.tgz:3458.got - 2010.06.03 11:33:33.
