data_PCOD9396704
_publ_section_title
;
Structure prediction by ZEFSAII (Michael W. Deem and Ramdas Pophale) SiO2 
 PCOD9396704
Probable space group: P B A N
;
_chemical_formula_sum "Si O2"
_cell_formula_units_Z 64
_cell_length_a 11.548774
_cell_length_b 13.988707
_cell_length_c 16.972318
_cell_angle_alpha 90.000000
_cell_angle_beta 90.000000
_cell_angle_gamma 90.000000
_cell_volume 2741.918973
_symmetry_space_group_name_H-M "P B A N"
_symmetry_group_IT_number 50
_space_group.IT_coordinate_system_code '2'
_symmetry_cell_setting 'orthorhombic'
loop_
_space_group_symop_operation_xyz
x,y,z
1/2-x,1/2-y,z
x,1/2-y,-z
1/2-x,y,-z
-x,-y,-z
1/2+x,1/2+y,-z
-x,1/2+y,z
1/2+x,-y,z
loop_
_atom_site_type_symbol
_atom_site_label
_atom_site_fract_x
_atom_site_fract_y
_atom_site_fract_z
Si Si1 0.186586 0.352618 0.426136
Si Si2 0.905653 0.335529 0.615560
Si Si3 0.142862 0.099762 0.946049
Si Si4 0.974042 0.099951 0.067162
Si Si5 0.681372 0.151863 0.792142
Si Si6 0.414153 0.874714 0.559755
Si Si7 0.133235 0.436078 0.659049
Si Si8 0.311109 0.042122 0.830607
O O1 0.250000 0.250000 0.419711
O O2 0.250000 0.400503 0.500000
O O3 0.231807 0.410501 0.352286
O O4 0.052482 0.357232 0.441009
O O5 0.858392 0.365157 0.701166
O O6 0.874032 0.385014 0.531487
O O7 0.874771 0.224847 0.598886
O O8 0.042869 0.359437 0.623618
O O9 0.200217 0.106604 0.858635
O O10 0.250000 0.131406 0.000000
O O11 0.025581 0.142403 0.984933
O O12 0.115128 0.985924 0.950328
O O13 0.089639 0.052474 0.104301
O O14 0.916213 0.158384 0.138753
O O15 0.750000 0.250000 0.792136
O O16 0.762956 0.063704 0.816186
O O17 0.390202 0.964301 0.615345
O O18 0.120867 0.433286 0.751593
#
# Coordination Sequence:
#
# PCOD9396704 Si02
#       8
#     8   8   8   8   8   8   8   8
#     4  11  21  39  61  86 117 163 225 285 335 400
#     4  11  22  43  59  84 133 167 221 288 339 399
#     4   8  16  32  60  93 120 153 205 251 307 384
#     4   9  17  35  63  89 125 166 207 260 313 393
#     4  11  23  39  60  93 134 169 217 274 339 402
#     4  11  24  41  61  86 125 178 226 283 348 399
#     4  12  23  36  62  93 121 169 227 279 338 400
#     4  10  21  36  58  94 126 167 219 262 321 406
#
# _framework density 23.341317
#
# number of rings (size 3 to 8) (size 9 to 14) (size 15 to 20)
#    0.000    1.625    3.750    1.875    1.750    0.000 
#    0.000    3.750    0.000   37.500    0.000    4.375 
#    0.000    0.000    0.000    0.000    0.000    0.000 
#
# Total GULP energy -356658.442986 kJ/mol
# GULP energy per Si atom -5572.788172 kJ/mol
# Density = 2.328819 g / cm^3
# Si number density = 23.341317 Si / 1000 Ang^3
#
#
#
# Elastic Constant Matrix: (Units=GPa)
#
#
# Indices 1 2 3 4 5 6 
#
# 1 104.2566 26.9112 37.2686 0.0000 0.0000 0.0000
# 2 26.9112 62.0373 41.1557 0.0000 0.0000 0.0000
# 3 37.2686 41.1557 144.1677 0.0000 0.0000 0.0000
# 4 0.0000 0.0000 0.0000 18.1103 0.0000 0.0000
# 5 0.0000 0.0000 0.0000 0.0000 29.1192 0.0000
# 6 0.0000 0.0000 0.0000 0.0000 0.0000 21.1822
#
#
#
# Elastic Compliance Matrix: (Units=1/GPa)
#
#
# Indices 1 2 3 4 5 6 
#
# 1 0.011191 -0.003621 -0.001859 0.000000 0.000000 0.000000
# 2 -0.003621 0.021057 -0.005075 0.000000 0.000000 0.000000
# 3 -0.001859 -0.005075 0.008866 0.000000 0.000000 0.000000
# 4 0.000000 0.000000 0.000000 0.055217 0.000000 0.000000
# 5 0.000000 0.000000 0.000000 0.000000 0.034342 0.000000
# 6 0.000000 0.000000 0.000000 0.000000 0.000000 0.047209
#
#
# Mechanical properties :
#
#
# Convention : Reuss Voigt Hill
#
# Bulk Modulus (GPa) = 49.99274 57.90359 53.94817
# Shear Modulus (GPa) = 24.31192 27.35742 25.83467
#
# Velocity S-wave (km/s) = 3.23086 3.42725 3.33050
# Velocity P-wave (km/s) = 5.94832 6.36574 6.16057
#
# Compressibility (1/GPa) = 0.02000290
#
# Stress axis : x y z
#
# Youngs Moduli (GPa) = 89.35710 47.49023 112.79317
#
# Poissons Ratio (x) = 0.17197 0.20971
# Poissons Ratio (y) = 0.32357 0.57243
# Poissons Ratio (z) = 0.16614 0.24102
#
# Static dielectric constant tensor:
#      x y z
#    x 1.950260 0.000000 0.000000 
#    y 0.000000 1.895620 0.000000 
#    z 0.000000 0.000000 2.094800 
# 
# From -- ./inp_files/29232.got.cif
#   From: 2010.05.17/outbox.cif.g08.bks.cpg/sg50_15_cif.got.tgz:29232.got - 2010.06.03 11:33:33.
