data_PCOD9396335
_publ_section_title
;
Structure prediction by ZEFSAII (Michael W. Deem and Ramdas Pophale) SiO2 
 PCOD9396335
Probable space group: P B A N
;
_chemical_formula_sum "Si O2"
_cell_formula_units_Z 34
_cell_length_a 11.143917
_cell_length_b 14.786123
_cell_length_c 8.582785
_cell_angle_alpha 90.000000
_cell_angle_beta 90.000000
_cell_angle_gamma 90.000000
_cell_volume 1414.231209
_symmetry_space_group_name_H-M "P B A N"
_symmetry_group_IT_number 50
_space_group.IT_coordinate_system_code '2'
_symmetry_cell_setting 'orthorhombic'
loop_
_space_group_symop_operation_xyz
x,y,z
1/2-x,1/2-y,z
x,1/2-y,-z
1/2-x,y,-z
-x,-y,-z
1/2+x,1/2+y,-z
-x,1/2+y,z
1/2+x,-y,z
loop_
_atom_site_type_symbol
_atom_site_label
_atom_site_fract_x
_atom_site_fract_y
_atom_site_fract_z
Si Si1 0.250000 0.750000 0.000000
Si Si2 0.945571 0.489173 0.673529
Si Si3 0.081846 0.320708 0.741199
Si Si4 0.250000 0.250000 0.000000
Si Si5 0.250000 0.416101 0.500000
Si Si6 0.750000 0.250000 0.500000
Si Si7 0.585736 0.156926 0.249800
O O1 0.336082 0.688449 0.104614
O O2 0.811763 0.522883 0.635811
O O3 0.000000 0.500000 0.500000
O O4 0.969582 0.390544 0.743283
O O5 0.029564 0.558458 0.767202
O O6 0.166950 0.313280 0.891247
O O7 0.157736 0.353472 0.593490
O O8 0.028444 0.221585 0.727098
O O9 0.668346 0.182950 0.397234
#
# Coordination Sequence:
#
# PCOD9396335 Si02
#       7
#     2   8   8   2   4   2   8
#     4  10  26  44  64  88 136 184 222 276 340 392
#     4  10  23  40  67 102 132 168 222 277 334 399
#     4  11  25  44  67  97 134 174 224 274 333 403
#     4  12  26  44  64  94 136 184 218 266 332 392
#     4  10  22  42  70 102 132 172 218 282 340 392
#     4  10  20  36  68  94 124 168 212 280 336 390
#     4  11  23  42  64  96 132 173 224 275 334 401
#
# _framework density 24.041329999999999
#
# number of rings (size 3 to 8) (size 9 to 14) (size 15 to 20)
#    0.000    1.412    0.000    4.941    0.000   18.353 
#    0.000    8.235    0.000    0.000    0.000    0.000 
#    0.000    0.000    0.000    0.000    0.000    0.000 
#
# Total GULP energy -190307.716645 kJ/mol
# GULP energy per Si atom -5597.285784 kJ/mol
# Density = 2.398661 g / cm^3
# Si number density = 24.041330 Si / 1000 Ang^3
#
#
#
# Elastic Constant Matrix: (Units=GPa)
#
#
# Indices 1 2 3 4 5 6 
#
# 1 85.9135 -4.8994 35.0366 0.0000 0.0000 0.0000
# 2 -4.8994 59.3612 10.8641 0.0000 0.0000 0.0000
# 3 35.0366 10.8641 98.0509 0.0000 0.0000 0.0000
# 4 0.0000 0.0000 0.0000 4.2499 0.0000 0.0000
# 5 0.0000 0.0000 0.0000 0.0000 136.0153 0.0000
# 6 0.0000 0.0000 0.0000 0.0000 0.0000 22.1043
#
#
#
# Elastic Compliance Matrix: (Units=1/GPa)
#
#
# Indices 1 2 3 4 5 6 
#
# 1 0.013876 0.002095 -0.005190 0.000000 0.000000 0.000000
# 2 0.002095 0.017511 -0.002689 0.000000 0.000000 0.000000
# 3 -0.005190 -0.002689 0.012351 0.000000 0.000000 0.000000
# 4 0.000000 0.000000 0.000000 0.235301 0.000000 0.000000
# 5 0.000000 0.000000 0.000000 0.000000 0.007352 0.000000
# 6 0.000000 0.000000 0.000000 0.000000 0.000000 0.045240
#
#
# Mechanical properties :
#
#
# Convention : Reuss Voigt Hill
#
# Bulk Modulus (GPa) = 31.08486 36.14758 33.61622
# Shear Modulus (GPa) = 14.12738 45.96221 30.04480
#
# Velocity S-wave (km/s) = 2.42674 4.37716 3.53897
# Velocity P-wave (km/s) = 4.56179 6.37293 5.54185
#
# Compressibility (1/GPa) = 0.03217000
#
# Stress axis : x y z
#
# Youngs Moduli (GPa) = 72.06794 57.10681 80.96248
#
# Poissons Ratio (x) = -0.11965 0.42023
# Poissons Ratio (y) = -0.15099 0.21770
# Poissons Ratio (z) = 0.37406 0.15355
#
# Static dielectric constant tensor:
#      x y z
#    x 2.050300 0.000000 0.000000 
#    y 0.000000 1.906850 0.000000 
#    z 0.000000 0.000000 1.922230 
# 
# From -- ./inp_files/10795.got.cif
#   From: 2010.05.17/outbox.cif.g08.bks.cpg/sg50_6_cif.got.tgz:10795.got - 2010.06.03 11:33:33.
