data_PCOD9396554
_publ_section_title
;
Structure prediction by ZEFSAII (Michael W. Deem and Ramdas Pophale) SiO2 
 PCOD9396554
Probable space group: P B A N
;
_chemical_formula_sum "Si O2"
_cell_formula_units_Z 38
_cell_length_a 28.687091
_cell_length_b 11.160672
_cell_length_c 4.954061
_cell_angle_alpha 90.000000
_cell_angle_beta 90.000000
_cell_angle_gamma 90.000000
_cell_volume 1586.127905
_symmetry_space_group_name_H-M "P B A N"
_symmetry_group_IT_number 50
_space_group.IT_coordinate_system_code '2'
_symmetry_cell_setting 'orthorhombic'
loop_
_space_group_symop_operation_xyz
x,y,z
1/2-x,1/2-y,z
x,1/2-y,-z
1/2-x,y,-z
-x,-y,-z
1/2+x,1/2+y,-z
-x,1/2+y,z
1/2+x,-y,z
loop_
_atom_site_type_symbol
_atom_site_label
_atom_site_fract_x
_atom_site_fract_y
_atom_site_fract_z
Si Si1 0.385785 0.250000 0.000000
Si Si2 0.970125 0.864655 0.682228
Si Si3 0.545295 0.250000 0.000000
Si Si4 0.250000 0.592580 0.000000
Si Si5 0.905820 0.076416 0.616037
Si Si6 0.652433 0.991704 0.875385
Si Si7 0.750000 0.250000 0.500000
O O1 0.421808 0.181630 0.809635
O O2 0.356688 0.349942 0.841694
O O3 0.983372 0.750000 0.500000
O O4 0.951989 0.992009 0.572800
O O5 0.011352 0.857962 0.901683
O O6 0.575961 0.303644 0.759850
O O7 0.206629 0.522169 0.122529
O O8 0.271574 0.664070 0.263885
O O9 0.876444 0.067629 0.343125
O O10 0.870262 0.025347 0.839324
#
# Coordination Sequence:
#
# PCOD9396554 Si02
#       7
#     4   8   4   4   8   8   2
#     4   9  20  41  64 101 140 183 216 295 350 423
#     4  10  20  40  65  91 139 193 231 280 366 423
#     4  11  26  38  64  98 138 188 250 296 336 431
#     4  11  24  45  74 104 128 189 226 289 350 442
#     4  11  25  42  63 100 138 185 231 300 350 420
#     4  11  24  43  71  99 139 175 238 283 367 422
#     4  10  24  46  68  96 140 170 228 274 356 408
#
# _framework density 23.957712000000001
#
# number of rings (size 3 to 8) (size 9 to 14) (size 15 to 20)
#    0.000    1.474    2.105    1.895    2.947    4.632 
#    0.000    0.000    0.000    3.789    0.000    0.000 
#    0.000    0.000    0.000    0.000    0.000    0.000 
#
# Total GULP energy -211963.906688 kJ/mol
# GULP energy per Si atom -5577.997544 kJ/mol
# Density = 2.390318 g / cm^3
# Si number density = 23.957712 Si / 1000 Ang^3
#
#
#
# Elastic Constant Matrix: (Units=GPa)
#
#
# Indices 1 2 3 4 5 6 
#
# 1 134.4006 52.1451 15.0365 0.0000 0.0000 0.0000
# 2 52.1451 99.6648 21.0254 0.0000 0.0000 0.0000
# 3 15.0365 21.0254 93.0333 0.0000 0.0000 0.0000
# 4 0.0000 0.0000 0.0000 30.7923 0.0000 0.0000
# 5 0.0000 0.0000 0.0000 0.0000 32.1253 0.0000
# 6 0.0000 0.0000 0.0000 0.0000 0.0000 -27.3134
#
#
#
# Elastic Compliance Matrix: (Units=1/GPa)
#
#
# Indices 1 2 3 4 5 6 
#
# 1 0.009352 -0.004803 -0.000426 0.000000 0.000000 0.000000
# 2 -0.004803 0.013003 -0.002162 0.000000 0.000000 0.000000
# 3 -0.000426 -0.002162 0.011306 0.000000 0.000000 0.000000
# 4 0.000000 0.000000 0.000000 0.032476 0.000000 0.000000
# 5 0.000000 0.000000 0.000000 0.000000 0.031128 0.000000
# 6 0.000000 0.000000 0.000000 0.000000 0.000000 -0.036612
#
#
# Mechanical properties :
#
#
# Convention : Reuss Voigt Hill
#
# Bulk Modulus (GPa) = 52.97121 55.94584 54.45853
# Shear Modulus (GPa) = 61.17893 23.04696 42.11294
#
# Velocity S-wave (km/s) = 5.05882 3.10495 4.19716
# Velocity P-wave (km/s) = 7.50203 6.02137 6.80211
#
# Compressibility (1/GPa) = 0.01887818
#
# Stress axis : x y z
#
# Youngs Moduli (GPa) = 106.93423 76.90716 88.44573
#
# Poissons Ratio (x) = 0.36938 0.03768
# Poissons Ratio (y) = 0.51359 0.19125
# Poissons Ratio (z) = 0.04555 0.16630
#
# Static dielectric constant tensor:
#      x y z
#    x 1.880450 0.000000 0.000000 
#    y 0.000000 2.057170 0.000000 
#    z 0.000000 0.000000 1.676700 
# 
# From -- ./inp_files/6475.got.cif
#   From: 2010.05.17/outbox.cif.g08.bks.cpg/sg50_4_cif.got.tgz:6475.got - 2010.06.03 11:33:33.
