data_PCOD9396806
_publ_section_title
;
Structure prediction by ZEFSAII (Michael W. Deem and Ramdas Pophale) SiO2 
 PCOD9396806
Probable space group: P B A N
;
_chemical_formula_sum "Si O2"
_cell_formula_units_Z 32
_cell_length_a 33.329175
_cell_length_b 5.306589
_cell_length_c 7.171072
_cell_angle_alpha 90.000000
_cell_angle_beta 90.000000
_cell_angle_gamma 90.000000
_cell_volume 1268.306152
_symmetry_space_group_name_H-M "P B A N"
_symmetry_group_IT_number 50
_space_group.IT_coordinate_system_code '2'
_symmetry_cell_setting 'orthorhombic'
loop_
_space_group_symop_operation_xyz
x,y,z
1/2-x,1/2-y,z
x,1/2-y,-z
1/2-x,y,-z
-x,-y,-z
1/2+x,1/2+y,-z
-x,1/2+y,z
1/2+x,-y,z
loop_
_atom_site_type_symbol
_atom_site_label
_atom_site_fract_x
_atom_site_fract_y
_atom_site_fract_z
Si Si1 0.232159 0.505081 0.790086
Si Si2 0.105106 0.276987 0.275208
Si Si3 0.145270 0.783710 0.275164
Si Si4 0.516343 0.530093 0.210555
O O1 0.250000 0.250000 0.706755
O O2 0.185284 0.568585 0.788144
O O3 0.250000 0.750000 0.695457
O O4 0.250000 0.502025 0.000000
O O5 0.107465 0.250000 0.500000
O O6 0.136638 0.495930 0.211925
O O7 0.061939 0.381304 0.219666
O O8 0.111832 0.987923 0.214060
O O9 0.146769 0.750000 0.500000
O O10 0.490368 0.756109 0.296229
O O11 0.500000 0.500000 0.000000
#
# Coordination Sequence:
#
# PCOD9396806 Si02
#       4
#     8   8   8   8
#     4  10  21  39  59  87 122 156 198 245 303 366
#     4  10  21  38  61  86 115 155 201 248 300 359
#     4  10  21  39  61  87 118 155 200 248 298 358
#     4  10  21  38  56  84 120 153 195 244 301 362
#
# _framework density 25.230499999999999
#
# number of rings (size 3 to 8) (size 9 to 14) (size 15 to 20)
#    0.000    2.000    0.000    3.000    0.000    1.500 
#    0.000   31.250    0.000    0.000    0.000    0.000 
#    0.000    0.000    0.000    0.000    0.000    0.000 
#
# Total GULP energy -178677.645656 kJ/mol
# GULP energy per Si atom -5583.676427 kJ/mol
# Density = 2.517307 g / cm^3
# Si number density = 25.230500 Si / 1000 Ang^3
#
#
#
# Elastic Constant Matrix: (Units=GPa)
#
#
# Indices 1 2 3 4 5 6 
#
# 1 130.7002 69.9522 3.7968 0.0000 0.0000 0.0000
# 2 69.9522 250.7452 36.4328 0.0000 0.0000 0.0000
# 3 3.7968 36.4328 129.7937 0.0000 0.0000 0.0000
# 4 0.0000 0.0000 0.0000 -31.8723 0.0000 0.0000
# 5 0.0000 0.0000 0.0000 0.0000 31.2334 0.0000
# 6 0.0000 0.0000 0.0000 0.0000 0.0000 48.8929
#
#
#
# Elastic Compliance Matrix: (Units=1/GPa)
#
#
# Indices 1 2 3 4 5 6 
#
# 1 0.009020 -0.002584 0.000461 0.000000 0.000000 0.000000
# 2 -0.002584 0.004898 -0.001299 0.000000 0.000000 0.000000
# 3 0.000461 -0.001299 0.008056 0.000000 0.000000 0.000000
# 4 0.000000 0.000000 0.000000 -0.031375 0.000000 0.000000
# 5 0.000000 0.000000 0.000000 0.000000 0.032017 0.000000
# 6 0.000000 0.000000 0.000000 0.000000 0.000000 0.020453
#
#
# Mechanical properties :
#
#
# Convention : Reuss Voigt Hill
#
# Bulk Modulus (GPa) = 66.08945 81.28920 73.68932
# Shear Modulus (GPa) = 90.98372 36.38795 63.68584
#
# Velocity S-wave (km/s) = 6.01160 3.80178 5.02955
# Velocity P-wave (km/s) = 8.62768 7.18052 7.93715
#
# Compressibility (1/GPa) = 0.01513101
#
# Stress axis : x y z
#
# Youngs Moduli (GPa) = 110.85947 204.18060 124.13543
#
# Poissons Ratio (x) = 0.52751 -0.05727
# Poissons Ratio (y) = 0.28641 0.16127
# Poissons Ratio (z) = -0.05114 0.26527
#
# Static dielectric constant tensor:
#      x y z
#    x 2.093580 0.000000 0.000000 
#    y 0.000000 2.006070 0.000000 
#    z 0.000000 0.000000 1.886750 
# 
# From -- ./inp_files/16663.got.cif
#   From: 2010.05.17/outbox.cif.g08.bks.cpg/sg50_9_cif.got.tgz:16663.got - 2010.06.03 11:33:33.
