data_PCOD9396128
_publ_section_title
;
Structure prediction by ZEFSAII (Michael W. Deem and Ramdas Pophale) SiO2 
 PCOD9396128
Probable space group: P B A N
;
_chemical_formula_sum "Si O2"
_cell_formula_units_Z 56
_cell_length_a 12.974686
_cell_length_b 18.192999
_cell_length_c 11.048277
_cell_angle_alpha 90.000000
_cell_angle_beta 90.000000
_cell_angle_gamma 90.000000
_cell_volume 2607.928655
_symmetry_space_group_name_H-M "P B A N"
_symmetry_group_IT_number 50
_space_group.IT_coordinate_system_code '2'
_symmetry_cell_setting 'orthorhombic'
loop_
_space_group_symop_operation_xyz
x,y,z
1/2-x,1/2-y,z
x,1/2-y,-z
1/2-x,y,-z
-x,-y,-z
1/2+x,1/2+y,-z
-x,1/2+y,z
1/2+x,-y,z
loop_
_atom_site_type_symbol
_atom_site_label
_atom_site_fract_x
_atom_site_fract_y
_atom_site_fract_z
Si Si1 0.390273 0.188816 0.308580
Si Si2 0.891921 0.850666 0.585642
Si Si3 0.777878 0.595906 0.201330
Si Si4 0.307887 0.940654 0.219345
Si Si5 0.081828 0.936721 0.536122
Si Si6 0.406808 0.900490 0.731817
Si Si7 0.519259 0.956668 0.122348
O O1 0.380443 0.274018 0.343113
O O2 0.368335 0.153891 0.442916
O O3 0.306393 0.159664 0.213240
O O4 0.502700 0.160293 0.266316
O O5 0.825160 0.907750 0.662029
O O6 0.010683 0.872544 0.590529
O O7 0.720889 0.520905 0.168192
O O8 0.881736 0.596887 0.121843
O O9 0.338800 0.955712 0.359465
O O10 0.204707 0.892387 0.205022
O O11 0.413448 0.916361 0.156716
O O12 0.122810 0.909436 0.408681
O O13 0.000000 0.000000 0.500000
O O14 0.455530 0.977120 0.781899
O O15 0.500000 0.000000 0.000000
#
# Coordination Sequence:
#
# PCOD9396128 Si02
#       7
#     8   8   8   8   8   8   8
#     4  10  20  36  54  90 125 162 204 234 308 387
#     4  10  20  33  58  88 127 166 193 243 302 389
#     4  11  20  34  58  83 118 152 200 255 306 373
#     4  11  20  36  57  87 116 152 197 254 325 374
#     4  11  17  33  56  88 125 150 193 239 308 380
#     4  10  21  34  54  84 119 159 191 257 306 383
#     4  11  23  39  58  85 116 156 208 268 328 365
#
# _framework density 21.47298
#
# number of rings (size 3 to 8) (size 9 to 14) (size 15 to 20)
#    0.000    1.429    4.286    3.000    0.000    5.714 
#    0.000    0.714    0.000    4.286    3.714    0.000 
#    8.571    0.000    0.000    0.000    0.000    0.000 
#
# Total GULP energy -312265.244967 kJ/mol
# GULP energy per Si atom -5576.165089 kJ/mol
# Density = 2.142411 g / cm^3
# Si number density = 21.472980 Si / 1000 Ang^3
#
#
#
# Elastic Constant Matrix: (Units=GPa)
#
#
# Indices 1 2 3 4 5 6 
#
# 1 177.5480 35.6344 32.7977 0.0000 0.0000 0.0000
# 2 35.6344 48.6018 10.0748 0.0000 0.0000 0.0000
# 3 32.7977 10.0748 45.7137 0.0000 0.0000 0.0000
# 4 0.0000 0.0000 0.0000 18.9182 0.0000 0.0000
# 5 0.0000 0.0000 0.0000 0.0000 8.5957 0.0000
# 6 0.0000 0.0000 0.0000 0.0000 0.0000 26.1267
#
#
#
# Elastic Compliance Matrix: (Units=1/GPa)
#
#
# Indices 1 2 3 4 5 6 
#
# 1 0.007320 -0.004483 -0.004264 0.000000 0.000000 0.000000
# 2 -0.004483 0.024306 -0.002140 0.000000 0.000000 0.000000
# 3 -0.004264 -0.002140 0.025406 0.000000 0.000000 0.000000
# 4 0.000000 0.000000 0.000000 0.052859 0.000000 0.000000
# 5 0.000000 0.000000 0.000000 0.000000 0.116337 0.000000
# 6 0.000000 0.000000 0.000000 0.000000 0.000000 0.038275
#
#
# Mechanical properties :
#
#
# Convention : Reuss Voigt Hill
#
# Bulk Modulus (GPa) = 28.36263 47.65303 38.00783
# Shear Modulus (GPa) = 16.77687 23.61855 20.19771
#
# Velocity S-wave (km/s) = 2.79821 3.32010 3.07026
# Velocity P-wave (km/s) = 4.86592 6.07764 5.50522
#
# Compressibility (1/GPa) = 0.03525766
#
# Stress axis : x y z
#
# Youngs Moduli (GPa) = 136.61974 41.14236 39.36089
#
# Poissons Ratio (x) = 0.18444 0.16782
# Poissons Ratio (y) = 0.61245 0.08425
# Poissons Ratio (z) = 0.58248 0.08806
#
# Static dielectric constant tensor:
#      x y z
#    x 1.844040 0.000000 0.000000 
#    y 0.000000 1.787680 0.000000 
#    z 0.000000 0.000000 1.806100 
# 
# From -- ./inp_files/20379.got.cif
#   From: 2010.05.17/outbox.cif.g08.bks.cpg/sg50_11_cif.got.tgz:20379.got - 2010.06.03 11:33:33.
