data_PCOD9396927
_publ_section_title
;
Structure prediction by ZEFSAII (Michael W. Deem and Ramdas Pophale) SiO2 
 PCOD9396927
Probable space group: P B A N
;
_chemical_formula_sum "Si O2"
_cell_formula_units_Z 54
_cell_length_a 14.070394
_cell_length_b 12.152350
_cell_length_c 16.482078
_cell_angle_alpha 90.000000
_cell_angle_beta 90.000000
_cell_angle_gamma 90.000000
_cell_volume 2818.243363
_symmetry_space_group_name_H-M "P B A N"
_symmetry_group_IT_number 50
_space_group.IT_coordinate_system_code '2'
_symmetry_cell_setting 'orthorhombic'
loop_
_space_group_symop_operation_xyz
x,y,z
1/2-x,1/2-y,z
x,1/2-y,-z
1/2-x,y,-z
-x,-y,-z
1/2+x,1/2+y,-z
-x,1/2+y,z
1/2+x,-y,z
loop_
_atom_site_type_symbol
_atom_site_label
_atom_site_fract_x
_atom_site_fract_y
_atom_site_fract_z
Si Si1 0.747747 0.059675 0.093124
Si Si2 0.584674 0.136854 0.398336
Si Si3 0.637552 0.893672 0.357027
Si Si4 0.711776 0.626627 0.225497
Si Si5 0.517638 0.731424 0.250614
Si Si6 0.750000 0.250000 0.500000
Si Si7 0.579646 0.750000 0.500000
Si Si8 0.095672 0.747033 0.907765
O O1 0.830129 0.152213 0.099685
O O2 0.652132 0.131888 0.104715
O O3 0.762760 0.962760 0.157392
O O4 0.750000 0.018517 0.000000
O O5 0.565589 0.191892 0.310674
O O6 0.678748 0.180763 0.443124
O O7 0.492695 0.169063 0.451996
O O8 0.596102 0.008416 0.385356
O O9 0.735858 0.905223 0.309141
O O10 0.566678 0.835346 0.293482
O O11 0.640769 0.814153 0.434136
O O12 0.750000 0.750000 0.203990
O O13 0.599967 0.639823 0.241932
O O14 0.481000 0.758278 0.161796
O O15 0.058788 0.750000 0.000000
#
# Coordination Sequence:
#
# PCOD9396927 Si02
#       8
#     8   8   8   8   8   2   4   8
#     4   9  19  38  63  87 118 159 201 252 308 356
#     4  10  21  41  63  89 121 151 202 255 302 360
#     4  10  21  40  60  85 120 161 196 245 304 362
#     4  10  22  40  54  86 126 160 205 240 299 378
#     4  10  22  38  58  91 122 159 203 246 298 359
#     4  10  24  44  58  98 116 152 206 248 308 364
#     4   9  20  41  64  88 118 150 205 251 305 363
#     4   9  19  39  65  94 119 154 209 256 302 356
#
# _framework density 19.160872000000001
#
# number of rings (size 3 to 8) (size 9 to 14) (size 15 to 20)
#    0.000    2.370    0.000    2.222    2.074    2.667 
#   21.333    2.963    0.000    0.000    0.000    0.000 
#    0.000    0.000    0.000    0.000    0.000    0.000 
#
# Total GULP energy -301445.144633 kJ/mol
# GULP energy per Si atom -5582.317493 kJ/mol
# Density = 1.911726 g / cm^3
# Si number density = 19.160872 Si / 1000 Ang^3
#
#
#
# Elastic Constant Matrix: (Units=GPa)
#
#
# Indices 1 2 3 4 5 6 
#
# 1 53.4458 17.0454 52.4945 0.0000 0.0000 0.0000
# 2 17.0454 94.6217 58.9399 0.0000 0.0000 0.0000
# 3 52.4945 58.9399 151.9020 0.0000 0.0000 0.0000
# 4 0.0000 0.0000 0.0000 7.3854 0.0000 0.0000
# 5 0.0000 0.0000 0.0000 0.0000 8.4800 0.0000
# 6 0.0000 0.0000 0.0000 0.0000 0.0000 -12.9872
#
#
#
# Elastic Compliance Matrix: (Units=1/GPa)
#
#
# Indices 1 2 3 4 5 6 
#
# 1 0.028449 0.001318 -0.010343 0.000000 0.000000 0.000000
# 2 0.001318 0.013998 -0.005887 0.000000 0.000000 0.000000
# 3 -0.010343 -0.005887 0.012442 0.000000 0.000000 0.000000
# 4 0.000000 0.000000 0.000000 0.135402 0.000000 0.000000
# 5 0.000000 0.000000 0.000000 0.000000 0.117925 0.000000
# 6 0.000000 0.000000 0.000000 0.000000 0.000000 -0.076999
#
#
# Mechanical properties :
#
#
# Convention : Reuss Voigt Hill
#
# Bulk Modulus (GPa) = 39.89662 61.88102 50.88882
# Shear Modulus (GPa) = 18.56012 12.00829 15.28420
#
# Velocity S-wave (km/s) = 3.11569 2.50613 2.82738
# Velocity P-wave (km/s) = 5.81468 6.38278 6.10534
#
# Compressibility (1/GPa) = 0.02506478
#
# Stress axis : x y z
#
# Youngs Moduli (GPa) = 35.15078 71.43951 80.37597
#
# Poissons Ratio (x) = -0.09413 0.83130
# Poissons Ratio (y) = -0.04631 0.47315
# Poissons Ratio (z) = 0.36355 0.42054
#
# Static dielectric constant tensor:
#      x y z
#    x 1.677690 0.000000 0.000000 
#    y 0.000000 1.650440 0.000000 
#    z 0.000000 0.000000 1.658340 
# 
# From -- ./inp_files/26545.got.cif
#   From: 2010.05.17/outbox.cif.g08.bks.cpg/sg50_14_cif.got.tgz:26545.got - 2010.06.03 11:33:33.
