data_PCOD9396987
_publ_section_title
;
Structure prediction by ZEFSAII (Michael W. Deem and Ramdas Pophale) SiO2 
 PCOD9396987
Probable space group: P B A N
;
_chemical_formula_sum "Si O2"
_cell_formula_units_Z 36
_cell_length_a 13.490285
_cell_length_b 13.286989
_cell_length_c 7.980803
_cell_angle_alpha 90.000000
_cell_angle_beta 90.000000
_cell_angle_gamma 90.000000
_cell_volume 1430.521176
_symmetry_space_group_name_H-M "P B A N"
_symmetry_group_IT_number 50
_space_group.IT_coordinate_system_code '2'
_symmetry_cell_setting 'orthorhombic'
loop_
_space_group_symop_operation_xyz
x,y,z
1/2-x,1/2-y,z
x,1/2-y,-z
1/2-x,y,-z
-x,-y,-z
1/2+x,1/2+y,-z
-x,1/2+y,z
1/2+x,-y,z
loop_
_atom_site_type_symbol
_atom_site_label
_atom_site_fract_x
_atom_site_fract_y
_atom_site_fract_z
Si Si1 0.504954 0.076375 0.848295
Si Si2 0.302757 0.561493 0.692229
Si Si3 0.588669 0.412151 0.642743
Si Si4 0.877316 0.750000 0.000000
Si Si5 0.369688 0.168080 0.347792
O O1 0.620468 0.094179 0.830913
O O2 0.458338 0.022978 0.682944
O O3 0.442615 0.170245 0.900535
O O4 0.500000 0.000000 0.000000
O O5 0.355753 0.612720 0.530895
O O6 0.191266 0.584928 0.747365
O O7 0.320664 0.443630 0.637898
O O8 0.490105 0.345663 0.665570
O O9 0.831005 0.694018 0.840014
O O10 0.353104 0.250000 0.500000
#
# Coordination Sequence:
#
# PCOD9396987 Si02
#       5
#     8   8   8   4   8
#     4  11  21  41  62  88 133 169 216 271 340 408
#     4  10  21  41  66  93 129 177 220 276 348 405
#     4  10  21  41  66  93 129 177 220 276 348 405
#     4  12  22  40  64 100 120 174 230 268 336 404
#     4  11  22  42  69  97 135 174 230 289 334 415
#
# _framework density 25.165655000000001
#
# number of rings (size 3 to 8) (size 9 to 14) (size 15 to 20)
#    0.000    1.333    4.444    5.333    0.000    0.889 
#    0.000   17.778    0.000    0.000    0.000    0.000 
#    0.000    0.000    0.000    0.000    0.000    0.000 
#
# Total GULP energy -200451.934948 kJ/mol
# GULP energy per Si atom -5568.109304 kJ/mol
# Density = 2.510838 g / cm^3
# Si number density = 25.165655 Si / 1000 Ang^3
#
#
#
# Elastic Constant Matrix: (Units=GPa)
#
#
# Indices 1 2 3 4 5 6 
#
# 1 189.6501 -16.6271 5.3325 0.0000 0.0000 0.0000
# 2 -16.6271 32.8476 0.2943 0.0000 0.0000 0.0000
# 3 5.3325 0.2943 99.3685 0.0000 0.0000 0.0000
# 4 0.0000 0.0000 0.0000 32.6708 0.0000 0.0000
# 5 0.0000 0.0000 0.0000 0.0000 835.6865 0.0000
# 6 0.0000 0.0000 0.0000 0.0000 0.0000 -25.8540
#
#
#
# Elastic Compliance Matrix: (Units=1/GPa)
#
#
# Indices 1 2 3 4 5 6 
#
# 1 0.005527 0.002800 -0.000305 0.000000 0.000000 0.000000
# 2 0.002800 0.031863 -0.000245 0.000000 0.000000 0.000000
# 3 -0.000305 -0.000245 0.010081 0.000000 0.000000 0.000000
# 4 0.000000 0.000000 0.000000 0.030608 0.000000 0.000000
# 5 0.000000 0.000000 0.000000 0.000000 0.001197 0.000000
# 6 0.000000 0.000000 0.000000 0.000000 0.000000 -0.038679
#
#
# Mechanical properties :
#
#
# Convention : Reuss Voigt Hill
#
# Bulk Modulus (GPa) = 19.24086 33.31841 26.27963
# Shear Modulus (GPa) = 93.59820 190.69174 142.14497
#
# Velocity S-wave (km/s) = 6.10521 8.71430 7.52372
# Velocity P-wave (km/s) = 7.57366 10.70143 9.27041
#
# Compressibility (1/GPa) = 0.05197273
#
# Stress axis : x y z
#
# Youngs Moduli (GPa) = 180.93125 31.38398 99.20003
#
# Poissons Ratio (x) = -0.08789 0.03025
# Poissons Ratio (y) = -0.50668 0.02427
# Poissons Ratio (z) = 0.05516 0.00768
#
# Static dielectric constant tensor:
#      x y z
#    x 2.211190 0.000000 0.000000 
#    y 0.000000 2.081690 0.000000 
#    z 0.000000 0.000000 2.344300 
# 
# From -- ./inp_files/12446.got.cif
#   From: 2010.05.17/outbox.cif.g08.bks.cpg/sg50_7_cif.got.tgz:12446.got - 2010.06.03 11:33:33.
