data_PCOD9396214
_publ_section_title
;
Structure prediction by ZEFSAII (Michael W. Deem and Ramdas Pophale) SiO2 
 PCOD9396214
Probable space group: P B A N
;
_chemical_formula_sum "Si O2"
_cell_formula_units_Z 48
_cell_length_a 15.042581
_cell_length_b 28.824260
_cell_length_c 5.411896
_cell_angle_alpha 90.000000
_cell_angle_beta 90.000000
_cell_angle_gamma 90.000000
_cell_volume 2346.550837
_symmetry_space_group_name_H-M "P B A N"
_symmetry_group_IT_number 50
_space_group.IT_coordinate_system_code '2'
_symmetry_cell_setting 'orthorhombic'
loop_
_space_group_symop_operation_xyz
x,y,z
1/2-x,1/2-y,z
x,1/2-y,-z
1/2-x,y,-z
-x,-y,-z
1/2+x,1/2+y,-z
-x,1/2+y,z
1/2+x,-y,z
loop_
_atom_site_type_symbol
_atom_site_label
_atom_site_fract_x
_atom_site_fract_y
_atom_site_fract_z
Si Si1 0.625515 0.796322 0.099588
Si Si2 0.384479 0.508216 0.728349
Si Si3 0.490157 0.346060 0.680185
Si Si4 0.750000 0.951112 0.000000
Si Si5 0.994551 0.250000 0.500000
Si Si6 0.942257 0.055430 0.762343
Si Si7 0.167845 0.118764 0.333401
O O1 0.554720 0.773855 0.289665
O O2 0.692589 0.830619 0.231377
O O3 0.665563 0.750000 0.000000
O O4 0.574638 0.827517 0.896892
O O5 0.293038 0.482935 0.791571
O O6 0.461376 0.468783 0.718749
O O7 0.387186 0.536637 0.473754
O O8 0.407537 0.538438 0.971947
O O9 0.544075 0.298674 0.607366
O O10 0.549471 0.389135 0.761743
O O11 0.424583 0.369673 0.471868
O O12 0.671805 0.918916 0.115223
O O13 0.250000 0.104070 0.500000
#
# Coordination Sequence:
#
# PCOD9396214 Si02
#       7
#     8   8   8   4   4   8   8
#     4   9  18  35  49  75 104 147 188 240 285 331
#     4  10  24  38  59  83 114 151 199 248 294 348
#     4  10  20  35  57  77 111 145 192 236 297 345
#     4  12  26  40  55  78 114 153 202 246 300 350
#     4   8  18  32  55  78 110 141 182 242 286 340
#     4  10  22  39  59  87 111 151 198 245 293 353
#     4  11  22  33  51  74 101 153 193 238 284 343
#
# _framework density 20.455556000000001
#
# number of rings (size 3 to 8) (size 9 to 14) (size 15 to 20)
#    0.000    2.000    0.000    3.000   14.000    0.000 
#    0.000   29.583    0.000    0.000    0.000    0.000 
#    0.000    4.000    0.000    0.000    0.000    0.000 
#
# Total GULP energy -267496.571417 kJ/mol
# GULP energy per Si atom -5572.845238 kJ/mol
# Density = 2.040900 g / cm^3
# Si number density = 20.455556 Si / 1000 Ang^3
#
#
#
# Elastic Constant Matrix: (Units=GPa)
#
#
# Indices 1 2 3 4 5 6 
#
# 1 22.9587 32.7578 15.5597 0.0000 0.0000 0.0000
# 2 32.7578 186.0470 53.5976 0.0000 0.0000 0.0000
# 3 15.5597 53.5976 93.8557 0.0000 0.0000 0.0000
# 4 0.0000 0.0000 0.0000 33.4622 0.0000 0.0000
# 5 0.0000 0.0000 0.0000 0.0000 25.5749 0.0000
# 6 0.0000 0.0000 0.0000 0.0000 0.0000 23.2740
#
#
#
# Elastic Compliance Matrix: (Units=1/GPa)
#
#
# Indices 1 2 3 4 5 6 
#
# 1 0.059834 -0.009189 -0.004672 0.000000 0.000000 0.000000
# 2 -0.009189 0.007845 -0.002956 0.000000 0.000000 0.000000
# 3 -0.004672 -0.002956 0.013117 0.000000 0.000000 0.000000
# 4 0.000000 0.000000 0.000000 0.029884 0.000000 0.000000
# 5 0.000000 0.000000 0.000000 0.000000 0.039101 0.000000
# 6 0.000000 0.000000 0.000000 0.000000 0.000000 0.042966
#
#
# Mechanical properties :
#
#
# Convention : Reuss Voigt Hill
#
# Bulk Modulus (GPa) = 21.20382 56.29907 38.75145
# Shear Modulus (GPa) = 20.65234 29.85865 25.25549
#
# Velocity S-wave (km/s) = 3.18090 3.82473 3.51757
# Velocity P-wave (km/s) = 4.88663 6.86200 5.95677
#
# Compressibility (1/GPa) = 0.04716132
#
# Stress axis : x y z
#
# Youngs Moduli (GPa) = 16.71284 127.47532 76.23434
#
# Poissons Ratio (x) = 1.17141 0.35616
# Poissons Ratio (y) = 0.15358 0.22538
# Poissons Ratio (z) = 0.07808 0.37686
#
# Static dielectric constant tensor:
#      x y z
#    x 1.719670 0.000000 0.000000 
#    y 0.000000 1.727110 0.000000 
#    z 0.000000 0.000000 1.687200 
# 
# From -- ./inp_files/4551.got.cif
#   From: 2010.05.17/outbox.cif.g08.bks.cpg/sg50_3_cif.got.tgz:4551.got - 2010.06.03 11:33:33.
