data_PCOD9396748
_publ_section_title
;
Structure prediction by ZEFSAII (Michael W. Deem and Ramdas Pophale) SiO2 
 PCOD9396748
Probable space group: P B A N
;
_chemical_formula_sum "Si O2"
_cell_formula_units_Z 64
_cell_length_a 7.353872
_cell_length_b 17.578359
_cell_length_c 20.097740
_cell_angle_alpha 90.000000
_cell_angle_beta 90.000000
_cell_angle_gamma 90.000000
_cell_volume 2598.014793
_symmetry_space_group_name_H-M "P B A N"
_symmetry_group_IT_number 50
_space_group.IT_coordinate_system_code '2'
_symmetry_cell_setting 'orthorhombic'
loop_
_space_group_symop_operation_xyz
x,y,z
1/2-x,1/2-y,z
x,1/2-y,-z
1/2-x,y,-z
-x,-y,-z
1/2+x,1/2+y,-z
-x,1/2+y,z
1/2+x,-y,z
loop_
_atom_site_type_symbol
_atom_site_label
_atom_site_fract_x
_atom_site_fract_y
_atom_site_fract_z
Si Si1 0.100546 0.180338 0.242588
Si Si2 0.966592 0.590422 0.507403
Si Si3 0.445846 0.390422 0.798425
Si Si4 0.646528 0.043865 0.089727
Si Si5 0.545901 0.256148 0.115679
Si Si6 0.017887 0.399025 0.635658
Si Si7 0.949517 0.922438 0.348352
Si Si8 0.021433 0.105914 0.044566
O O1 0.250000 0.250000 0.252256
O O2 0.231299 0.112159 0.216970
O O3 0.983221 0.161168 0.306886
O O4 0.962629 0.196384 0.183802
O O5 0.750000 0.603935 0.500000
O O6 0.043042 0.623417 0.438520
O O7 0.034224 0.607442 0.582013
O O8 0.000000 0.500000 0.500000
O O9 0.545459 0.454945 0.839966
O O10 0.476743 0.322119 0.851889
O O11 0.519814 0.390067 0.722067
O O12 0.841764 0.083006 0.086836
O O13 0.665198 0.956684 0.066875
O O14 0.537881 0.087655 0.030571
O O15 0.750000 0.250000 0.089407
O O16 0.435866 0.307434 0.063064
O O17 0.238129 0.402149 0.641135
O O18 0.957362 0.485318 0.651992
#
# Coordination Sequence:
#
# PCOD9396748 Si02
#       8
#     8   8   8   8   8   8   8   8
#     4   9  21  37  54  77 116 152 188 244 281 345
#     4   8  14  27  46  73 110 144 183 233 287 342
#     4  10  21  37  56  84 118 150 193 233 296 340
#     4  10  22  40  60  88 115 150 184 241 285 347
#     4  11  22  40  59  84 113 154 194 236 292 348
#     4   9  17  31  52  80 110 152 191 233 298 343
#     4   9  18  29  50  81 114 145 189 245 285 350
#     4  10  23  40  61  86 117 149 190 236 291 343
#
# _framework density 24.634194000000001
#
# number of rings (size 3 to 8) (size 9 to 14) (size 15 to 20)
#    0.000    2.500    1.250    0.000    3.500    2.500 
#    0.000    0.000    0.000   19.875    0.000    0.875 
#    0.000    0.000    0.000    0.000    0.000    0.000 
#
# Total GULP energy -356724.431851 kJ/mol
# GULP energy per Si atom -5573.819248 kJ/mol
# Density = 2.457813 g / cm^3
# Si number density = 24.634194 Si / 1000 Ang^3
#
#
#
# Elastic Constant Matrix: (Units=GPa)
#
#
# Indices 1 2 3 4 5 6 
#
# 1 34.1946 14.8668 12.7065 0.0000 0.0000 0.0000
# 2 14.8668 73.1572 68.4818 0.0000 0.0000 0.0000
# 3 12.7065 68.4818 165.2004 0.0000 0.0000 0.0000
# 4 0.0000 0.0000 0.0000 30.2676 0.0000 0.0000
# 5 0.0000 0.0000 0.0000 0.0000 13.9847 0.0000
# 6 0.0000 0.0000 0.0000 0.0000 0.0000 28.6267
#
#
#
# Elastic Compliance Matrix: (Units=1/GPa)
#
#
# Indices 1 2 3 4 5 6 
#
# 1 0.032094 -0.006882 0.000384 0.000000 0.000000 0.000000
# 2 -0.006882 0.023812 -0.009342 0.000000 0.000000 0.000000
# 3 0.000384 -0.009342 0.009896 0.000000 0.000000 0.000000
# 4 0.000000 0.000000 0.000000 0.033039 0.000000 0.000000
# 5 0.000000 0.000000 0.000000 0.000000 0.071507 0.000000
# 6 0.000000 0.000000 0.000000 0.000000 0.000000 0.034932
#
#
# Mechanical properties :
#
#
# Convention : Reuss Voigt Hill
#
# Bulk Modulus (GPa) = 29.30512 51.62916 40.46714
# Shear Modulus (GPa) = 20.13425 26.34229 23.23827
#
# Velocity S-wave (km/s) = 2.86200 3.27362 3.07471
# Velocity P-wave (km/s) = 4.77947 5.94076 5.39147
#
# Compressibility (1/GPa) = 0.03412374
#
# Stress axis : x y z
#
# Youngs Moduli (GPa) = 31.15893 41.99480 101.04825
#
# Poissons Ratio (x) = 0.28899 -0.03882
# Poissons Ratio (y) = 0.21442 0.94398
# Poissons Ratio (z) = -0.01197 0.39231
#
# Static dielectric constant tensor:
#      x y z
#    x 1.944000 0.000000 0.000000 
#    y 0.000000 2.066010 0.000000 
#    z 0.000000 0.000000 2.052630 
# 
# From -- ./inp_files/28970.got.cif
#   From: 2010.05.17/outbox.cif.g08.bks.cpg/sg50_15_cif.got.tgz:28970.got - 2010.06.03 11:33:33.
