data_PCOD9396028
_publ_section_title
;
Structure prediction by ZEFSAII (Michael W. Deem and Ramdas Pophale) SiO2 
 PCOD9396028
Probable space group: P B A N
;
_chemical_formula_sum "Si O2"
_cell_formula_units_Z 60
_cell_length_a 12.380887
_cell_length_b 11.862038
_cell_length_c 19.601034
_cell_angle_alpha 90.000000
_cell_angle_beta 90.000000
_cell_angle_gamma 90.000000
_cell_volume 2878.657876
_symmetry_space_group_name_H-M "P B A N"
_symmetry_group_IT_number 50
_space_group.IT_coordinate_system_code '2'
_symmetry_cell_setting 'orthorhombic'
loop_
_space_group_symop_operation_xyz
x,y,z
1/2-x,1/2-y,z
x,1/2-y,-z
1/2-x,y,-z
-x,-y,-z
1/2+x,1/2+y,-z
-x,1/2+y,z
1/2+x,-y,z
loop_
_atom_site_type_symbol
_atom_site_label
_atom_site_fract_x
_atom_site_fract_y
_atom_site_fract_z
Si Si1 0.485915 0.870481 0.534793
Si Si2 0.285737 0.902597 0.077141
Si Si3 0.902226 0.289656 0.151046
Si Si4 0.958478 0.377722 0.740416
Si Si5 0.750000 0.410446 0.500000
Si Si6 0.286142 0.135647 0.729648
Si Si7 0.881749 0.919766 0.159588
Si Si8 0.139395 0.013830 0.628337
O O1 0.525175 0.750000 0.500000
O O2 0.355821 0.854220 0.535220
O O3 0.550414 0.891906 0.605973
O O4 0.500000 0.000000 0.500000
O O5 0.188263 0.882114 0.131869
O O6 0.372393 0.807570 0.097252
O O7 0.338351 0.021691 0.092042
O O8 0.250000 0.889807 0.000000
O O9 0.900517 0.230406 0.225392
O O10 0.021404 0.336537 0.144153
O O11 0.928936 0.482768 0.790048
O O12 0.922673 0.410448 0.664433
O O13 0.087267 0.366225 0.740890
O O14 0.700278 0.483031 0.439850
O O15 0.250000 0.250000 0.693283
O O16 0.218027 0.131242 0.799318
O O17 0.233560 0.042244 0.681918
#
# Coordination Sequence:
#
# PCOD9396028 Si02
#       8
#     8   8   8   8   4   8   8   8
#     4  10  22  42  65  89 127 171 217 272 343 415
#     4  10  22  40  65  98 133 174 227 268 326 410
#     4  10  19  38  63  88 130 174 214 271 330 391
#     4  10  21  38  59  90 127 164 218 268 331 400
#     4  10  21  42  65  90 129 172 219 280 337 420
#     4  11  21  37  60  90 124 162 213 274 327 396
#     4  10  21  38  63  91 126 173 213 269 334 387
#     4  10  23  38  63  97 124 168 220 274 345 411
#
# _framework density 20.843045
#
# number of rings (size 3 to 8) (size 9 to 14) (size 15 to 20)
#    0.000    1.867    1.333    2.600    0.000    5.867 
#    0.000    4.333   11.733    0.000    0.000    0.000 
#    0.000    0.000    0.000    0.000    0.000    0.000 
#
# Total GULP energy -334050.504721 kJ/mol
# GULP energy per Si atom -5567.508412 kJ/mol
# Density = 2.079561 g / cm^3
# Si number density = 20.843045 Si / 1000 Ang^3
#
#
#
# Elastic Constant Matrix: (Units=GPa)
#
#
# Indices 1 2 3 4 5 6 
#
# 1 111.5158 32.2519 47.3230 0.0000 0.0000 0.0000
# 2 32.2519 59.2223 30.4287 0.0000 0.0000 0.0000
# 3 47.3230 30.4287 89.5576 0.0000 0.0000 0.0000
# 4 0.0000 0.0000 0.0000 19.1385 0.0000 0.0000
# 5 0.0000 0.0000 0.0000 0.0000 30.3083 0.0000
# 6 0.0000 0.0000 0.0000 0.0000 0.0000 53.1275
#
#
#
# Elastic Compliance Matrix: (Units=1/GPa)
#
#
# Indices 1 2 3 4 5 6 
#
# 1 0.012321 -0.004077 -0.005126 0.000000 0.000000 0.000000
# 2 -0.004077 0.021805 -0.005255 0.000000 0.000000 0.000000
# 3 -0.005126 -0.005255 0.015660 0.000000 0.000000 0.000000
# 4 0.000000 0.000000 0.000000 0.052251 0.000000 0.000000
# 5 0.000000 0.000000 0.000000 0.000000 0.032994 0.000000
# 6 0.000000 0.000000 0.000000 0.000000 0.000000 0.018823
#
#
# Mechanical properties :
#
#
# Convention : Reuss Voigt Hill
#
# Bulk Modulus (GPa) = 47.90902 53.36700 50.63801
# Shear Modulus (GPa) = 26.35378 30.53432 28.44405
#
# Velocity S-wave (km/s) = 3.55969 3.83164 3.69816
# Velocity P-wave (km/s) = 6.31907 6.72570 6.52556
#
# Compressibility (1/GPa) = 0.02087289
#
# Stress axis : x y z
#
# Youngs Moduli (GPa) = 81.15899 45.86001 63.85758
#
# Poissons Ratio (x) = 0.18695 0.32732
# Poissons Ratio (y) = 0.33085 0.33555
# Poissons Ratio (z) = 0.41600 0.24098
#
# Static dielectric constant tensor:
#      x y z
#    x 1.752200 0.000000 0.000000 
#    y 0.000000 1.882610 0.000000 
#    z 0.000000 0.000000 1.760730 
# 
# From -- ./inp_files/30877.got.cif
#   From: 2010.05.17/outbox.cif.g08.bks.cpg/sg50_16_cif.got.tgz:30877.got - 2010.06.03 11:33:33.
