data_PCOD9396522
_publ_section_title
;
Structure prediction by ZEFSAII (Michael W. Deem and Ramdas Pophale) SiO2 
 PCOD9396522
Probable space group: P B A N
;
_chemical_formula_sum "Si O2"
_cell_formula_units_Z 64
_cell_length_a 11.931305
_cell_length_b 14.120042
_cell_length_c 17.679185
_cell_angle_alpha 90.000000
_cell_angle_beta 90.000000
_cell_angle_gamma 90.000000
_cell_volume 2978.421627
_symmetry_space_group_name_H-M "P B A N"
_symmetry_group_IT_number 50
_space_group.IT_coordinate_system_code '2'
_symmetry_cell_setting 'orthorhombic'
loop_
_space_group_symop_operation_xyz
x,y,z
1/2-x,1/2-y,z
x,1/2-y,-z
1/2-x,y,-z
-x,-y,-z
1/2+x,1/2+y,-z
-x,1/2+y,z
1/2+x,-y,z
loop_
_atom_site_type_symbol
_atom_site_label
_atom_site_fract_x
_atom_site_fract_y
_atom_site_fract_z
Si Si1 0.083710 0.219352 0.085369
Si Si2 0.445665 0.999038 0.919868
Si Si3 0.915445 0.139490 0.708631
Si Si4 0.688699 0.832361 0.238330
Si Si5 0.043612 0.639111 0.307115
Si Si6 0.734768 0.364951 0.414530
Si Si7 0.110089 0.473305 0.217926
Si Si8 0.849387 0.179563 0.878144
O O1 0.142401 0.233180 0.167555
O O2 0.962825 0.267446 0.095285
O O3 0.123002 0.250000 0.000000
O O4 0.087692 0.106397 0.091055
O O5 0.540767 0.968142 0.859885
O O6 0.347261 0.922495 0.917514
O O7 0.500000 0.000000 0.000000
O O8 0.948388 0.247623 0.691533
O O9 0.830103 0.102559 0.644972
O O10 0.856448 0.152870 0.789921
O O11 0.025945 0.076597 0.721711
O O12 0.750000 0.750000 0.286129
O O13 0.584898 0.877569 0.283639
O O14 0.773359 0.917490 0.217241
O O15 0.111968 0.609674 0.381906
O O16 0.112130 0.583664 0.241328
O O17 0.750000 0.250000 0.414884
O O18 0.750000 0.398713 0.500000
O O19 0.750000 0.250000 0.894851
#
# Coordination Sequence:
#
# PCOD9396522 Si02
#       8
#     8   8   8   8   8   8   8   8
#     4  12  25  43  61  91 134 173 227 286 349 408
#     4  11  23  43  63  89 134 171 225 290 348 400
#     4  10  20  39  66  99 131 167 220 275 323 397
#     4  12  24  44  66  94 132 180 228 279 337 402
#     4  11  21  40  68  98 134 176 223 275 326 407
#     4   9  20  38  68 104 135 171 215 270 337 394
#     4  11  24  40  68  99 131 178 233 274 335 404
#     4  11  22  40  68  95 126 174 227 284 339 400
#
# _framework density 21.487891000000001
#
# number of rings (size 3 to 8) (size 9 to 14) (size 15 to 20)
#    0.000    1.125    5.000    1.875    1.750    2.500 
#    0.000    1.875    0.000    0.000    0.000    0.000 
#    0.000    0.000    0.000    0.000    0.000    0.000 
#
# Total GULP energy -357013.512060 kJ/mol
# GULP energy per Si atom -5578.336126 kJ/mol
# Density = 2.143898 g / cm^3
# Si number density = 21.487891 Si / 1000 Ang^3
#
#
#
# Elastic Constant Matrix: (Units=GPa)
#
#
# Indices 1 2 3 4 5 6 
#
# 1 126.0462 37.9809 58.1562 0.0000 0.0000 0.0000
# 2 37.9809 79.3693 5.5187 0.0000 0.0000 0.0000
# 3 58.1562 5.5187 124.8310 0.0000 0.0000 0.0000
# 4 0.0000 0.0000 0.0000 23.1269 0.0000 0.0000
# 5 0.0000 0.0000 0.0000 0.0000 9.1879 0.0000
# 6 0.0000 0.0000 0.0000 0.0000 0.0000 -18.4547
#
#
#
# Elastic Compliance Matrix: (Units=1/GPa)
#
#
# Indices 1 2 3 4 5 6 
#
# 1 0.012033 -0.005385 -0.005368 0.000000 0.000000 0.000000
# 2 -0.005385 0.015048 0.001843 0.000000 0.000000 0.000000
# 3 -0.005368 0.001843 0.010430 0.000000 0.000000 0.000000
# 4 0.000000 0.000000 0.000000 0.043240 0.000000 0.000000
# 5 0.000000 0.000000 0.000000 0.000000 0.108838 0.000000
# 6 0.000000 0.000000 0.000000 0.000000 0.000000 -0.054187
#
#
# Mechanical properties :
#
#
# Convention : Reuss Voigt Hill
#
# Bulk Modulus (GPa) = 50.78085 59.28423 55.03254
# Shear Modulus (GPa) = 31.29209 18.01141 24.65175
#
# Velocity S-wave (km/s) = 3.82025 2.89833 3.39077
# Velocity P-wave (km/s) = 6.56831 6.23297 6.40283
#
# Compressibility (1/GPa) = 0.01969246
#
# Stress axis : x y z
#
# Youngs Moduli (GPa) = 83.10584 66.45395 95.87648
#
# Poissons Ratio (x) = 0.35785 0.51465
# Poissons Ratio (y) = 0.44752 -0.17674
# Poissons Ratio (z) = 0.44610 -0.12251
#
# Static dielectric constant tensor:
#      x y z
#    x 1.669630 0.000000 0.000000 
#    y 0.000000 1.794270 0.000000 
#    z 0.000000 0.000000 1.811070 
# 
# From -- ./inp_files/29252.got.cif
#   From: 2010.05.17/outbox.cif.g08.bks.cpg/sg50_15_cif.got.tgz:29252.got - 2010.06.03 11:33:33.
