data_PCOD9396263
_publ_section_title
;
Structure prediction by ZEFSAII (Michael W. Deem and Ramdas Pophale) SiO2 
 PCOD9396263
Probable space group: P B A N
;
_chemical_formula_sum "Si O2"
_cell_formula_units_Z 44
_cell_length_a 14.103972
_cell_length_b 15.278616
_cell_length_c 10.224688
_cell_angle_alpha 90.000000
_cell_angle_beta 90.000000
_cell_angle_gamma 90.000000
_cell_volume 2203.309554
_symmetry_space_group_name_H-M "P B A N"
_symmetry_group_IT_number 50
_space_group.IT_coordinate_system_code '2'
_symmetry_cell_setting 'orthorhombic'
loop_
_space_group_symop_operation_xyz
x,y,z
1/2-x,1/2-y,z
x,1/2-y,-z
1/2-x,y,-z
-x,-y,-z
1/2+x,1/2+y,-z
-x,1/2+y,z
1/2+x,-y,z
loop_
_atom_site_type_symbol
_atom_site_label
_atom_site_fract_x
_atom_site_fract_y
_atom_site_fract_z
Si Si1 0.057361 0.268542 0.153056
Si Si2 0.084196 0.476716 0.158020
Si Si3 0.128911 0.988440 0.129982
Si Si4 0.250000 0.250000 0.707068
Si Si5 0.351285 0.780050 0.848177
Si Si6 0.768117 0.552437 0.646060
O O1 0.067808 0.372921 0.162839
O O2 0.153526 0.230035 0.212604
O O3 0.952320 0.244764 0.207055
O O4 0.056840 0.250000 0.000000
O O5 0.140744 0.494582 0.290001
O O6 0.980640 0.518249 0.148157
O O7 0.143148 0.496488 0.025861
O O8 0.142369 0.884949 0.152851
O O9 0.190450 0.034173 0.241383
O O10 0.223792 0.158486 0.637709
O O11 0.250000 0.750000 0.790770
O O12 0.350420 0.750000 0.000000
O O13 0.750000 0.519852 0.500000
#
# Coordination Sequence:
#
# PCOD9396263 Si02
#       6
#     8   8   8   4   8   8
#     4   9  16  30  51  81 115 142 182 239 286 332
#     4   9  20  35  57  84 113 147 192 236 283 339
#     4  10  20  37  58  85 115 149 191 236 285 340
#     4  10  20  36  54  78 111 152 197 228 275 344
#     4   9  19  31  51  84 114 142 182 233 288 340
#     4  11  23  37  57  83 117 153 189 233 285 342
#
# _framework density 19.969957999999998
#
# number of rings (size 3 to 8) (size 9 to 14) (size 15 to 20)
#    0.000    2.364    0.000    2.182    5.091    5.091 
#    0.000    0.000    0.000    0.545    0.000    0.000 
#    0.000    0.000    0.000    0.000    0.000    0.000 
#
# Total GULP energy -244966.147604 kJ/mol
# GULP energy per Si atom -5567.412446 kJ/mol
# Density = 1.992451 g / cm^3
# Si number density = 19.969958 Si / 1000 Ang^3
#
#
#
# Elastic Constant Matrix: (Units=GPa)
#
#
# Indices 1 2 3 4 5 6 
#
# 1 134.2645 9.3559 36.4130 0.0000 0.0000 0.0000
# 2 9.3559 43.5638 9.5166 0.0000 0.0000 0.0000
# 3 36.4130 9.5166 104.0375 0.0000 0.0000 0.0000
# 4 0.0000 0.0000 0.0000 14.2980 0.0000 0.0000
# 5 0.0000 0.0000 0.0000 0.0000 18.9871 0.0000
# 6 0.0000 0.0000 0.0000 0.0000 0.0000 -40.0014
#
#
#
# Elastic Compliance Matrix: (Units=1/GPa)
#
#
# Indices 1 2 3 4 5 6 
#
# 1 0.008287 -0.001170 -0.002793 0.000000 0.000000 0.000000
# 2 -0.001170 0.023588 -0.001748 0.000000 0.000000 0.000000
# 3 -0.002793 -0.001748 0.010750 0.000000 0.000000 0.000000
# 4 0.000000 0.000000 0.000000 0.069940 0.000000 0.000000
# 5 0.000000 0.000000 0.000000 0.000000 0.052667 0.000000
# 6 0.000000 0.000000 0.000000 0.000000 0.000000 -0.024999
#
#
# Mechanical properties :
#
#
# Convention : Reuss Voigt Hill
#
# Bulk Modulus (GPa) = 32.04931 43.60409 37.82670
# Shear Modulus (GPa) = 30.85351 13.76209 22.30780
#
# Velocity S-wave (km/s) = 3.93491 2.62799 3.34588
# Velocity P-wave (km/s) = 6.06039 5.57590 5.82319
#
# Compressibility (1/GPa) = 0.03120192
#
# Stress axis : x y z
#
# Youngs Moduli (GPa) = 120.66970 42.39458 93.02702
#
# Poissons Ratio (x) = 0.04958 0.25987
# Poissons Ratio (y) = 0.14112 0.16264
# Poissons Ratio (z) = 0.33709 0.07412
#
# Static dielectric constant tensor:
#      x y z
#    x 1.833050 0.000000 0.000000 
#    y 0.000000 1.733690 0.000000 
#    z 0.000000 0.000000 1.669250 
# 
# From -- ./inp_files/12862.got.cif
#   From: 2010.05.17/outbox.cif.g08.bks.cpg/sg50_7_cif.got.tgz:12862.got - 2010.06.03 11:33:33.
