data_PCOD9396950
_publ_section_title
;
Structure prediction by ZEFSAII (Michael W. Deem and Ramdas Pophale) SiO2 
 PCOD9396950
Probable space group: P B A N
;
_chemical_formula_sum "Si O2"
_cell_formula_units_Z 24
_cell_length_a 14.362474
_cell_length_b 9.711263
_cell_length_c 7.241988
_cell_angle_alpha 90.000000
_cell_angle_beta 90.000000
_cell_angle_gamma 90.000000
_cell_volume 1010.096281
_symmetry_space_group_name_H-M "P B A N"
_symmetry_group_IT_number 50
_space_group.IT_coordinate_system_code '2'
_symmetry_cell_setting 'orthorhombic'
loop_
_space_group_symop_operation_xyz
x,y,z
1/2-x,1/2-y,z
x,1/2-y,-z
1/2-x,y,-z
-x,-y,-z
1/2+x,1/2+y,-z
-x,1/2+y,z
1/2+x,-y,z
loop_
_atom_site_type_symbol
_atom_site_label
_atom_site_fract_x
_atom_site_fract_y
_atom_site_fract_z
Si Si1 0.335926 0.829891 0.695793
Si Si2 0.269712 0.407220 0.783128
Si Si3 0.967614 0.877917 0.366666
O O1 0.250000 0.750000 0.792708
O O2 0.344638 0.750000 0.500000
O O3 0.442873 0.836935 0.759565
O O4 0.297321 0.984731 0.682570
O O5 0.250000 0.250000 0.730959
O O6 0.378192 0.429117 0.743476
O O7 0.250000 0.422902 0.000000
O O8 0.943829 0.750000 0.500000
O O9 0.000000 0.000000 0.500000
#
# Coordination Sequence:
#
# PCOD9396950 Si02
#       3
#     8   8   8
#     4  10  21  40  64  95 132 174 230 281 336 408
#     4  11  25  43  65  99 141 183 227 288 357 413
#     4  11  22  38  66  98 129 176 233 283 335 412
#
# _framework density 23.760113
#
# number of rings (size 3 to 8) (size 9 to 14) (size 15 to 20)
#    0.000    1.333    0.000    8.000    0.000    5.333 
#    0.000    3.333    0.000    0.000    0.000    0.000 
#    0.000    0.000    0.000    0.000    0.000    0.000 
#
# Total GULP energy -134188.491712 kJ/mol
# GULP energy per Si atom -5591.187155 kJ/mol
# Density = 2.370603 g / cm^3
# Si number density = 23.760113 Si / 1000 Ang^3
#
#
#
# Elastic Constant Matrix: (Units=GPa)
#
#
# Indices 1 2 3 4 5 6 
#
# 1 240.2050 16.6959 60.6716 0.0000 0.0000 0.0000
# 2 16.6959 154.5953 37.8324 0.0000 0.0000 0.0000
# 3 60.6716 37.8324 84.3994 0.0000 0.0000 0.0000
# 4 0.0000 0.0000 0.0000 13.4343 0.0000 0.0000
# 5 0.0000 0.0000 0.0000 0.0000 19.0247 0.0000
# 6 0.0000 0.0000 0.0000 0.0000 0.0000 41.7412
#
#
#
# Elastic Compliance Matrix: (Units=1/GPa)
#
#
# Indices 1 2 3 4 5 6 
#
# 1 0.005108 0.000390 -0.003846 0.000000 0.000000 0.000000
# 2 0.000390 0.007295 -0.003550 0.000000 0.000000 0.000000
# 3 -0.003846 -0.003550 0.016205 0.000000 0.000000 0.000000
# 4 0.000000 0.000000 0.000000 0.074436 0.000000 0.000000
# 5 0.000000 0.000000 0.000000 0.000000 0.052563 0.000000
# 6 0.000000 0.000000 0.000000 0.000000 0.000000 0.023957
#
#
# Mechanical properties :
#
#
# Convention : Reuss Voigt Hill
#
# Bulk Modulus (GPa) = 68.52212 78.84442 73.68327
# Shear Modulus (GPa) = 25.19619 39.10669 32.15144
#
# Velocity S-wave (km/s) = 3.25997 4.06137 3.68253
# Velocity P-wave (km/s) = 6.56290 7.43293 7.01142
#
# Compressibility (1/GPa) = 0.01459383
#
# Stress axis : x y z
#
# Youngs Moduli (GPa) = 195.78935 137.07584 61.71020
#
# Poissons Ratio (x) = -0.05341 0.23735
# Poissons Ratio (y) = -0.07629 0.21909
# Poissons Ratio (z) = 0.75306 0.48665
#
# Static dielectric constant tensor:
#      x y z
#    x 1.943370 0.000000 0.000000 
#    y 0.000000 1.933210 0.000000 
#    z 0.000000 0.000000 1.928860 
# 
# From -- ./inp_files/8480.got.cif
#   From: 2010.05.17/outbox.cif.g08.bks.cpg/sg50_5_cif.got.tgz:8480.got - 2010.06.03 11:33:33.
