data_PCOD9396393
_publ_section_title
;
Structure prediction by ZEFSAII (Michael W. Deem and Ramdas Pophale) SiO2 
 PCOD9396393
Probable space group: P B A N
;
_chemical_formula_sum "Si O2"
_cell_formula_units_Z 64
_cell_length_a 8.281264
_cell_length_b 20.219563
_cell_length_c 18.783693
_cell_angle_alpha 90.000000
_cell_angle_beta 90.000000
_cell_angle_gamma 90.000000
_cell_volume 3145.208035
_symmetry_space_group_name_H-M "P B A N"
_symmetry_group_IT_number 50
_space_group.IT_coordinate_system_code '2'
_symmetry_cell_setting 'orthorhombic'
loop_
_space_group_symop_operation_xyz
x,y,z
1/2-x,1/2-y,z
x,1/2-y,-z
1/2-x,y,-z
-x,-y,-z
1/2+x,1/2+y,-z
-x,1/2+y,z
1/2+x,-y,z
loop_
_atom_site_type_symbol
_atom_site_label
_atom_site_fract_x
_atom_site_fract_y
_atom_site_fract_z
Si Si1 0.596031 0.160024 0.315092
Si Si2 0.916552 0.934758 0.626990
Si Si3 0.350671 0.470306 0.216589
Si Si4 0.214323 0.671879 0.921634
Si Si5 0.083884 0.286992 0.672162
Si Si6 0.776542 0.442481 0.421755
Si Si7 0.029646 0.101516 0.821937
Si Si8 0.592042 0.142506 0.784854
O O1 0.551524 0.231869 0.345412
O O2 0.605371 0.104027 0.375251
O O3 0.470182 0.142422 0.252057
O O4 0.763967 0.156727 0.270997
O O5 0.829448 0.963704 0.698224
O O6 0.903249 0.855527 0.628515
O O7 0.107813 0.945176 0.620270
O O8 0.844140 0.983561 0.568772
O O9 0.396255 0.543300 0.190552
O O10 0.517702 0.429768 0.212830
O O11 0.204745 0.434073 0.174863
O O12 0.250000 0.750000 0.926839
O O13 0.044711 0.646593 0.885890
O O14 0.345825 0.653890 0.862878
O O15 0.250000 0.643322 0.000000
O O16 0.250000 0.250000 0.665095
O O17 0.046915 0.310559 0.753106
O O18 0.750000 0.413021 0.500000
#
# Coordination Sequence:
#
# PCOD9396393 Si02
#       8
#     8   8   8   8   8   8   8   8
#     4  11  20  38  64  92 121 164 211 266 317 374
#     4  11  24  42  61  94 124 165 213 266 323 381
#     4  11  20  37  64  97 124 155 214 266 314 376
#     4  10  22  40  60  88 126 169 211 255 319 390
#     4  11  23  38  65  96 129 158 213 274 320 377
#     4  12  25  42  66  90 126 168 215 261 321 398
#     4  11  21  36  64  93 125 164 208 265 318 375
#     4  10  20  37  63  92 123 159 208 256 314 380
#
# _framework density 20.348414999999999
#
# number of rings (size 3 to 8) (size 9 to 14) (size 15 to 20)
#    0.000    1.125    3.750    6.000    1.750    0.000 
#    0.000    4.375    0.000    1.500    0.000    0.000 
#    0.000    0.000    0.000    0.000    0.000    0.000 
#
# Total GULP energy -356547.397174 kJ/mol
# GULP energy per Si atom -5571.053081 kJ/mol
# Density = 2.030210 g / cm^3
# Si number density = 20.348415 Si / 1000 Ang^3
#
#
#
# Elastic Constant Matrix: (Units=GPa)
#
#
# Indices 1 2 3 4 5 6 
#
# 1 64.7252 37.9164 3.6659 0.0000 0.0000 0.0000
# 2 37.9164 139.5786 26.4543 0.0000 0.0000 0.0000
# 3 3.6659 26.4543 87.5783 0.0000 0.0000 0.0000
# 4 0.0000 0.0000 0.0000 26.8036 0.0000 0.0000
# 5 0.0000 0.0000 0.0000 0.0000 7.4336 0.0000
# 6 0.0000 0.0000 0.0000 0.0000 0.0000 39.7335
#
#
#
# Elastic Compliance Matrix: (Units=1/GPa)
#
#
# Indices 1 2 3 4 5 6 
#
# 1 0.018425 -0.005154 0.000786 0.000000 0.000000 0.000000
# 2 -0.005154 0.009041 -0.002515 0.000000 0.000000 0.000000
# 3 0.000786 -0.002515 0.012145 0.000000 0.000000 0.000000
# 4 0.000000 0.000000 0.000000 0.037308 0.000000 0.000000
# 5 0.000000 0.000000 0.000000 0.000000 0.134525 0.000000
# 6 0.000000 0.000000 0.000000 0.000000 0.000000 0.025168
#
#
# Mechanical properties :
#
#
# Convention : Reuss Voigt Hill
#
# Bulk Modulus (GPa) = 38.69393 47.55056 43.12225
# Shear Modulus (GPa) = 19.30546 29.71717 24.51131
#
# Velocity S-wave (km/s) = 3.08351 3.82569 3.47447
# Velocity P-wave (km/s) = 5.63333 6.55236 6.11015
#
# Compressibility (1/GPa) = 0.02584384
#
# Stress axis : x y z
#
# Youngs Moduli (GPa) = 54.27515 110.60473 82.33671
#
# Poissons Ratio (x) = 0.57005 -0.06468
# Poissons Ratio (y) = 0.27973 0.20710
# Poissons Ratio (z) = -0.04264 0.27820
#
# Static dielectric constant tensor:
#      x y z
#    x 1.784860 0.000000 0.000000 
#    y 0.000000 1.848290 0.000000 
#    z 0.000000 0.000000 1.772850 
# 
# From -- ./inp_files/28959.got.cif
#   From: 2010.05.17/outbox.cif.g08.bks.cpg/sg50_15_cif.got.tgz:28959.got - 2010.06.03 11:33:33.
