data_PCOD9396942
_publ_section_title
;
Structure prediction by ZEFSAII (Michael W. Deem and Ramdas Pophale) SiO2 
 PCOD9396942
Probable space group: P B A N
;
_chemical_formula_sum "Si O2"
_cell_formula_units_Z 48
_cell_length_a 9.321266
_cell_length_b 31.568721
_cell_length_c 7.069086
_cell_angle_alpha 90.000000
_cell_angle_beta 90.000000
_cell_angle_gamma 90.000000
_cell_volume 2080.152397
_symmetry_space_group_name_H-M "P B A N"
_symmetry_group_IT_number 50
_space_group.IT_coordinate_system_code '2'
_symmetry_cell_setting 'orthorhombic'
loop_
_space_group_symop_operation_xyz
x,y,z
1/2-x,1/2-y,z
x,1/2-y,-z
1/2-x,y,-z
-x,-y,-z
1/2+x,1/2+y,-z
-x,1/2+y,z
1/2+x,-y,z
loop_
_atom_site_type_symbol
_atom_site_label
_atom_site_fract_x
_atom_site_fract_y
_atom_site_fract_z
Si Si1 0.693649 0.294073 0.214324
Si Si2 0.388699 0.955572 0.736306
Si Si3 0.396203 0.183535 0.935547
Si Si4 0.383097 0.386164 0.367095
Si Si5 0.066675 0.965065 0.718125
Si Si6 0.066673 0.858226 0.282348
O O1 0.750000 0.250000 0.298651
O O2 0.521712 0.294361 0.188729
O O3 0.778661 0.334908 0.295537
O O4 0.750000 0.294372 0.000000
O O5 0.225493 0.961413 0.796614
O O6 0.404458 0.962590 0.508866
O O7 0.424382 0.907149 0.781732
O O8 0.495248 0.992508 0.796421
O O9 0.342597 0.145802 0.798616
O O10 0.250000 0.205692 0.000000
O O11 0.476439 0.166763 0.124026
O O12 0.250000 0.400387 0.500000
O O13 0.461163 0.425216 0.264265
O O14 0.488742 0.362180 0.514885
#
# Coordination Sequence:
#
# PCOD9396942 Si02
#       6
#     8   8   8   8   8   8
#     4   9  20  41  68  97 127 165 210 259 323 391
#     4   9  18  32  53  86 118 160 207 256 311 368
#     4  11  22  39  65  96 125 164 208 260 317 378
#     4  11  22  37  62  90 128 166 211 256 317 370
#     4   9  19  30  53  84 119 160 207 256 307 370
#     4  10  21  40  63  90 126 164 211 259 314 384
#
# _framework density 23.075232
#
# number of rings (size 3 to 8) (size 9 to 14) (size 15 to 20)
#    0.000    2.167    1.667    1.000    7.000    2.000 
#    0.000    9.167    0.000    4.000    0.000    0.000 
#    0.000    0.000    0.000    0.000    0.000    0.000 
#
# Total GULP energy -267782.572956 kJ/mol
# GULP energy per Si atom -5578.803603 kJ/mol
# Density = 2.302271 g / cm^3
# Si number density = 23.075232 Si / 1000 Ang^3
#
#
#
# Elastic Constant Matrix: (Units=GPa)
#
#
# Indices 1 2 3 4 5 6 
#
# 1 175.9693 70.1294 18.3844 0.0000 0.0000 0.0000
# 2 70.1294 135.0078 29.4456 0.0000 0.0000 0.0000
# 3 18.3844 29.4456 84.8764 0.0000 0.0000 0.0000
# 4 0.0000 0.0000 0.0000 12.9883 0.0000 0.0000
# 5 0.0000 0.0000 0.0000 0.0000 15.8873 0.0000
# 6 0.0000 0.0000 0.0000 0.0000 0.0000 13.8990
#
#
#
# Elastic Compliance Matrix: (Units=1/GPa)
#
#
# Indices 1 2 3 4 5 6 
#
# 1 0.007173 -0.003664 -0.000282 0.000000 0.000000 0.000000
# 2 -0.003664 0.009885 -0.002636 0.000000 0.000000 0.000000
# 3 -0.000282 -0.002636 0.012757 0.000000 0.000000 0.000000
# 4 0.000000 0.000000 0.000000 0.076993 0.000000 0.000000
# 5 0.000000 0.000000 0.000000 0.000000 0.062943 0.000000
# 6 0.000000 0.000000 0.000000 0.000000 0.000000 0.071947
#
#
# Mechanical properties :
#
#
# Convention : Reuss Voigt Hill
#
# Bulk Modulus (GPa) = 60.05812 70.19692 65.12752
# Shear Modulus (GPa) = 19.20025 27.08121 23.14073
#
# Velocity S-wave (km/s) = 2.88769 3.42951 3.17020
# Velocity P-wave (km/s) = 6.09934 6.79478 6.45643
#
# Compressibility (1/GPa) = 0.01665054
#
# Stress axis : x y z
#
# Youngs Moduli (GPa) = 139.41925 101.16141 78.38587
#
# Poissons Ratio (x) = 0.37068 0.02214
# Poissons Ratio (y) = 0.51086 0.20660
# Poissons Ratio (z) = 0.03937 0.26663
#
# Static dielectric constant tensor:
#      x y z
#    x 1.901880 0.000000 0.000000 
#    y 0.000000 1.874110 0.000000 
#    z 0.000000 0.000000 1.999720 
# 
# From -- ./inp_files/10074.got.cif
#   From: 2010.05.17/outbox.cif.g08.bks.cpg/sg50_6_cif.got.tgz:10074.got - 2010.06.03 11:33:33.
