data_PCOD9396793
_publ_section_title
;
Structure prediction by ZEFSAII (Michael W. Deem and Ramdas Pophale) SiO2 
 PCOD9396793
Probable space group: P B A N
;
_chemical_formula_sum "Si O2"
_cell_formula_units_Z 46
_cell_length_a 13.108502
_cell_length_b 24.594303
_cell_length_c 7.400030
_cell_angle_alpha 90.000000
_cell_angle_beta 90.000000
_cell_angle_gamma 90.000000
_cell_volume 2385.728750
_symmetry_space_group_name_H-M "P B A N"
_symmetry_group_IT_number 50
_space_group.IT_coordinate_system_code '2'
_symmetry_cell_setting 'orthorhombic'
loop_
_space_group_symop_operation_xyz
x,y,z
1/2-x,1/2-y,z
x,1/2-y,-z
1/2-x,y,-z
-x,-y,-z
1/2+x,1/2+y,-z
-x,1/2+y,z
1/2+x,-y,z
loop_
_atom_site_type_symbol
_atom_site_label
_atom_site_fract_x
_atom_site_fract_y
_atom_site_fract_z
Si Si1 0.250000 0.355142 0.500000
Si Si2 0.965308 0.104151 0.794807
Si Si3 0.308790 0.060956 0.191616
Si Si4 0.382560 0.844873 0.167798
Si Si5 0.244184 0.943648 0.218396
Si Si6 0.026875 0.312812 0.517993
Si Si7 0.250000 0.750000 0.000000
O O1 0.234437 0.393800 0.326805
O O2 0.148256 0.320352 0.523140
O O3 0.873181 0.065449 0.729370
O O4 0.070607 0.072301 0.829558
O O5 0.986473 0.150795 0.647931
O O6 0.924582 0.131292 0.979179
O O7 0.289746 0.001215 0.275728
O O8 0.250000 0.064398 0.000000
O O9 0.309524 0.889979 0.260717
O O10 0.475541 0.833791 0.299659
O O11 0.318982 0.790598 0.120280
O O12 0.250000 0.946028 0.000000
O O13 0.999411 0.250000 0.500000
#
# Coordination Sequence:
#
# PCOD9396793 Si02
#       7
#     4   8   8   8   8   8   2
#     4  10  23  42  58  88 122 147 208 256 290 356
#     4  10  21  41  58  88 123 155 204 244 302 367
#     4  10  21  37  64  86 115 163 200 244 304 360
#     4  11  22  39  60  86 125 155 193 251 298 352
#     4   9  20  38  57  89 121 154 194 249 295 359
#     4  11  24  39  62  87 115 163 200 247 303 358
#     4  12  20  40  62  88 130 158 200 256 300 370
#
# _framework density 19.281320999999998
#
# number of rings (size 3 to 8) (size 9 to 14) (size 15 to 20)
#    0.000    1.739    2.609    2.348    0.000    9.739 
#    0.000    3.478    0.000    3.130    0.000    0.000 
#    0.000    0.000    0.000    0.000    0.000    0.000 
#
# Total GULP energy -256897.519568 kJ/mol
# GULP energy per Si atom -5584.728686 kJ/mol
# Density = 1.923744 g / cm^3
# Si number density = 19.281321 Si / 1000 Ang^3
#
#
#
# Elastic Constant Matrix: (Units=GPa)
#
#
# Indices 1 2 3 4 5 6 
#
# 1 126.5616 50.9903 38.4508 0.0000 0.0000 0.0000
# 2 50.9903 105.1599 21.4311 0.0000 0.0000 0.0000
# 3 38.4508 21.4311 64.4472 0.0000 0.0000 0.0000
# 4 0.0000 0.0000 0.0000 2.5187 0.0000 0.0000
# 5 0.0000 0.0000 0.0000 0.0000 27.1423 0.0000
# 6 0.0000 0.0000 0.0000 0.0000 0.0000 31.0626
#
#
#
# Elastic Compliance Matrix: (Units=1/GPa)
#
#
# Indices 1 2 3 4 5 6 
#
# 1 0.011270 -0.004392 -0.005263 0.000000 0.000000 0.000000
# 2 -0.004392 0.011912 -0.001341 0.000000 0.000000 0.000000
# 3 -0.005263 -0.001341 0.019103 0.000000 0.000000 0.000000
# 4 0.000000 0.000000 0.000000 0.397028 0.000000 0.000000
# 5 0.000000 0.000000 0.000000 0.000000 0.036843 0.000000
# 6 0.000000 0.000000 0.000000 0.000000 0.000000 0.032193
#
#
# Mechanical properties :
#
#
# Convention : Reuss Voigt Hill
#
# Bulk Modulus (GPa) = 49.27974 57.54590 53.41282
# Shear Modulus (GPa) = 9.30916 24.49784 16.90350
#
# Velocity S-wave (km/s) = 2.19967 3.56834 2.96409
# Velocity P-wave (km/s) = 5.66261 6.84745 6.28302
#
# Compressibility (1/GPa) = 0.02029232
#
# Stress axis : x y z
#
# Youngs Moduli (GPa) = 88.73263 83.94790 52.34853
#
# Poissons Ratio (x) = 0.36869 0.27553
# Poissons Ratio (y) = 0.38970 0.07020
# Poissons Ratio (z) = 0.46703 0.11257
#
# Static dielectric constant tensor:
#      x y z
#    x 1.670080 0.000000 0.000000 
#    y 0.000000 1.676180 0.000000 
#    z 0.000000 0.000000 1.660090 
# 
# From -- ./inp_files/11588.got.cif
#   From: 2010.05.17/outbox.cif.g08.bks.cpg/sg50_6_cif.got.tgz:11588.got - 2010.06.03 11:33:33.
