data_PCOD9396204
_publ_section_title
;
Structure prediction by ZEFSAII (Michael W. Deem and Ramdas Pophale) SiO2 
 PCOD9396204
Probable space group: P B A N
;
_chemical_formula_sum "Si O2"
_cell_formula_units_Z 48
_cell_length_a 31.276067
_cell_length_b 7.628960
_cell_length_c 9.340484
_cell_angle_alpha 90.000000
_cell_angle_beta 90.000000
_cell_angle_gamma 90.000000
_cell_volume 2228.675575
_symmetry_space_group_name_H-M "P B A N"
_symmetry_group_IT_number 50
_space_group.IT_coordinate_system_code '2'
_symmetry_cell_setting 'orthorhombic'
loop_
_space_group_symop_operation_xyz
x,y,z
1/2-x,1/2-y,z
x,1/2-y,-z
1/2-x,y,-z
-x,-y,-z
1/2+x,1/2+y,-z
-x,1/2+y,z
1/2+x,-y,z
loop_
_atom_site_type_symbol
_atom_site_label
_atom_site_fract_x
_atom_site_fract_y
_atom_site_fract_z
Si Si1 0.930590 0.027329 0.219623
Si Si2 0.660361 0.451087 0.695490
Si Si3 0.345187 0.969347 0.358934
Si Si4 0.516239 0.163999 0.158719
Si Si5 0.909305 0.937967 0.923936
Si Si6 0.252787 0.536747 0.668007
O O1 0.969406 0.890589 0.208622
O O2 0.891147 0.962301 0.311752
O O3 0.955481 0.206498 0.256460
O O4 0.908550 0.060353 0.064961
O O5 0.654661 0.239257 0.681031
O O6 0.656648 0.503116 0.528756
O O7 0.626262 0.525857 0.806083
O O8 0.708200 0.510937 0.741530
O O9 0.299986 0.028337 0.288799
O O10 0.544910 0.989172 0.143106
O O11 0.513336 0.250000 0.000000
O O12 0.906017 0.750000 0.000000
O O13 0.250000 0.750000 0.671996
O O14 0.250000 0.489731 0.500000
#
# Coordination Sequence:
#
# PCOD9396204 Si02
#       6
#     8   8   8   8   8   8
#     4  11  20  35  58  81 107 145 195 233 280 333
#     4   9  17  33  56  84 117 143 180 233 284 334
#     4   9  17  32  58  86 112 142 183 236 286 335
#     4  10  20  35  55  78 107 145 196 235 274 338
#     4  11  21  35  55  80 111 150 189 228 278 338
#     4   7  12  26  52  83 109 139 173 215 274 336
#
# _framework density 21.537454
#
# number of rings (size 3 to 8) (size 9 to 14) (size 15 to 20)
#    0.000    2.500    1.667    5.500    0.000    0.000 
#    0.000    2.500    0.000    6.000    0.000    4.667 
#    0.000    0.000    0.000    0.000    0.000    0.000 
#
# Total GULP energy -267278.403268 kJ/mol
# GULP energy per Si atom -5568.300068 kJ/mol
# Density = 2.148843 g / cm^3
# Si number density = 21.537454 Si / 1000 Ang^3
#
#
#
# Elastic Constant Matrix: (Units=GPa)
#
#
# Indices 1 2 3 4 5 6 
#
# 1 257.1639 40.5500 69.8610 0.0000 0.0000 0.0000
# 2 40.5500 73.0911 19.3295 0.0000 0.0000 0.0000
# 3 69.8610 19.3295 41.5166 0.0000 0.0000 0.0000
# 4 0.0000 0.0000 0.0000 8.5718 0.0000 0.0000
# 5 0.0000 0.0000 0.0000 0.0000 27.9664 0.0000
# 6 0.0000 0.0000 0.0000 0.0000 0.0000 2.5923
#
#
#
# Elastic Compliance Matrix: (Units=1/GPa)
#
#
# Indices 1 2 3 4 5 6 
#
# 1 0.007215 -0.000903 -0.011720 0.000000 0.000000 0.000000
# 2 -0.000903 0.015716 -0.005797 0.000000 0.000000 0.000000
# 3 -0.011720 -0.005797 0.046507 0.000000 0.000000 0.000000
# 4 0.000000 0.000000 0.000000 0.116662 0.000000 0.000000
# 5 0.000000 0.000000 0.000000 0.000000 0.035757 0.000000
# 6 0.000000 0.000000 0.000000 0.000000 0.000000 0.385754
#
#
# Mechanical properties :
#
#
# Convention : Reuss Voigt Hill
#
# Bulk Modulus (GPa) = 30.67747 70.13918 50.40833
# Shear Modulus (GPa) = 7.62989 23.96152 15.79570
#
# Velocity S-wave (km/s) = 1.88423 3.33911 2.71109
# Velocity P-wave (km/s) = 4.35987 6.89225 5.76678
#
# Compressibility (1/GPa) = 0.03259721
#
# Stress axis : x y z
#
# Youngs Moduli (GPa) = 138.60260 63.63045 21.50194
#
# Poissons Ratio (x) = 0.05747 0.25200
# Poissons Ratio (y) = 0.12519 0.12465
# Poissons Ratio (z) = 1.62444 0.36887
#
# Static dielectric constant tensor:
#      x y z
#    x 1.843570 0.000000 0.000000 
#    y 0.000000 1.919110 0.000000 
#    z 0.000000 0.000000 1.771990 
# 
# From -- ./inp_files/23039.got.cif
#   From: 2010.05.17/outbox.cif.g08.bks.cpg/sg50_12_cif.got.tgz:23039.got - 2010.06.03 11:33:33.
