data_PCOD9396031
_publ_section_title
;
Structure prediction by ZEFSAII (Michael W. Deem and Ramdas Pophale) SiO2 
 PCOD9396031
Probable space group: P B A N
;
_chemical_formula_sum "Si O2"
_cell_formula_units_Z 56
_cell_length_a 13.910546
_cell_length_b 10.594730
_cell_length_c 18.005780
_cell_angle_alpha 90.000000
_cell_angle_beta 90.000000
_cell_angle_gamma 90.000000
_cell_volume 2653.664470
_symmetry_space_group_name_H-M "P B A N"
_symmetry_group_IT_number 50
_space_group.IT_coordinate_system_code '2'
_symmetry_cell_setting 'orthorhombic'
loop_
_space_group_symop_operation_xyz
x,y,z
1/2-x,1/2-y,z
x,1/2-y,-z
1/2-x,y,-z
-x,-y,-z
1/2+x,1/2+y,-z
-x,1/2+y,z
1/2+x,-y,z
loop_
_atom_site_type_symbol
_atom_site_label
_atom_site_fract_x
_atom_site_fract_y
_atom_site_fract_z
Si Si1 0.162338 0.019283 0.458602
Si Si2 0.705154 0.128477 0.652929
Si Si3 0.943897 0.891249 0.829820
Si Si4 0.251037 0.114223 0.744882
Si Si5 0.024202 0.640999 0.437890
Si Si6 0.423188 0.393491 0.849863
Si Si7 0.143155 0.098675 0.008708
O O1 0.250000 0.089624 0.500000
O O2 0.082687 0.098376 0.413380
O O3 0.219152 0.908401 0.414327
O O4 0.090659 0.964102 0.521057
O O5 0.750000 0.250000 0.692620
O O6 0.598031 0.169286 0.628400
O O7 0.708329 0.999340 0.697978
O O8 0.858471 0.908512 0.771511
O O9 0.971990 0.743229 0.836732
O O10 0.900364 0.926531 0.910905
O O11 0.026057 0.990033 0.810309
O O12 0.250000 0.250000 0.705047
O O13 0.183561 0.127239 0.817624
O O14 0.013598 0.750000 0.500000
O O15 0.417227 0.433889 0.935803
O O16 0.150360 0.250000 0.000000
O O17 0.250000 0.043934 0.000000
#
# Coordination Sequence:
#
# PCOD9396031 Si02
#       7
#     8   8   8   8   8   8   8
#     4   9  20  37  60  92 120 149 187 239 293 351
#     4  11  22  40  65  88 119 161 198 242 299 358
#     4  10  20  36  60  85 117 155 202 254 304 352
#     4  10  23  42  57  82 121 166 204 243 290 359
#     4  10  19  38  65  91 120 149 191 240 297 354
#     4  10  20  36  60  85 117 157 202 253 300 358
#     4   9  15  30  59  88 110 149 204 251 303 357
#
# _framework density 21.102893999999999
#
# number of rings (size 3 to 8) (size 9 to 14) (size 15 to 20)
#    0.000    2.143    2.857    0.429    0.000    2.571 
#    7.714    2.857    0.000    0.857    0.000    0.000 
#    0.000    0.000    0.000    0.000    0.000    0.000 
#
# Total GULP energy -311906.345301 kJ/mol
# GULP energy per Si atom -5569.756166 kJ/mol
# Density = 2.105486 g / cm^3
# Si number density = 21.102894 Si / 1000 Ang^3
#
#
#
# Elastic Constant Matrix: (Units=GPa)
#
#
# Indices 1 2 3 4 5 6 
#
# 1 124.0120 44.4784 3.5636 0.0000 0.0000 0.0000
# 2 44.4784 88.0752 9.8744 0.0000 0.0000 0.0000
# 3 3.5636 9.8744 30.4982 0.0000 0.0000 0.0000
# 4 0.0000 0.0000 0.0000 22.3217 0.0000 0.0000
# 5 0.0000 0.0000 0.0000 0.0000 4.5117 0.0000
# 6 0.0000 0.0000 0.0000 0.0000 0.0000 31.4421
#
#
#
# Elastic Compliance Matrix: (Units=1/GPa)
#
#
# Indices 1 2 3 4 5 6 
#
# 1 0.009854 -0.005030 0.000477 0.000000 0.000000 0.000000
# 2 -0.005030 0.014349 -0.004058 0.000000 0.000000 0.000000
# 3 0.000477 -0.004058 0.034047 0.000000 0.000000 0.000000
# 4 0.000000 0.000000 0.000000 0.044799 0.000000 0.000000
# 5 0.000000 0.000000 0.000000 0.000000 0.221647 0.000000
# 6 0.000000 0.000000 0.000000 0.000000 0.000000 0.031805
#
#
# Mechanical properties :
#
#
# Convention : Reuss Voigt Hill
#
# Bulk Modulus (GPa) = 24.37335 39.82424 32.09879
# Shear Modulus (GPa) = 12.90661 23.96635 18.43648
#
# Velocity S-wave (km/s) = 2.47575 3.37366 2.95896
# Velocity P-wave (km/s) = 4.44379 5.83848 5.18821
#
# Compressibility (1/GPa) = 0.04102842
#
# Stress axis : x y z
#
# Youngs Moduli (GPa) = 101.48127 69.69139 29.37121
#
# Poissons Ratio (x) = 0.35054 -0.01401
# Poissons Ratio (y) = 0.51043 0.11919
# Poissons Ratio (z) = -0.04841 0.28281
#
# Static dielectric constant tensor:
#      x y z
#    x 1.804680 0.000000 0.000000 
#    y 0.000000 1.784020 0.000000 
#    z 0.000000 0.000000 1.827950 
# 
# From -- ./inp_files/30858.got.cif
#   From: 2010.05.17/outbox.cif.g08.bks.cpg/sg50_16_cif.got.tgz:30858.got - 2010.06.03 11:33:33.
