data_PCOD9396974
_publ_section_title
;
Structure prediction by ZEFSAII (Michael W. Deem and Ramdas Pophale) SiO2 
 PCOD9396974
Probable space group: P B A N
;
_chemical_formula_sum "Si O2"
_cell_formula_units_Z 54
_cell_length_a 20.881897
_cell_length_b 24.815366
_cell_length_c 5.288854
_cell_angle_alpha 90.000000
_cell_angle_beta 90.000000
_cell_angle_gamma 90.000000
_cell_volume 2740.641392
_symmetry_space_group_name_H-M "P B A N"
_symmetry_group_IT_number 50
_space_group.IT_coordinate_system_code '2'
_symmetry_cell_setting 'orthorhombic'
loop_
_space_group_symop_operation_xyz
x,y,z
1/2-x,1/2-y,z
x,1/2-y,-z
1/2-x,y,-z
-x,-y,-z
1/2+x,1/2+y,-z
-x,1/2+y,z
1/2+x,-y,z
loop_
_atom_site_type_symbol
_atom_site_label
_atom_site_fract_x
_atom_site_fract_y
_atom_site_fract_z
Si Si1 0.023538 0.314399 0.990348
Si Si2 0.190407 0.957311 0.678693
Si Si3 0.750000 0.250000 0.000000
Si Si4 0.250000 0.447267 0.000000
Si Si5 0.443563 0.685560 0.489226
Si Si6 0.111403 0.088512 0.053372
Si Si7 0.928963 0.522840 0.546882
Si Si8 0.810016 0.157189 0.314438
O O1 0.085966 0.351341 0.987588
O O2 0.985051 0.328397 0.735691
O O3 0.035673 0.250000 0.000000
O O4 0.980148 0.328636 0.232925
O O5 0.250000 0.945382 0.500000
O O6 0.183928 0.900670 0.826938
O O7 0.215691 0.010739 0.813369
O O8 0.123942 0.974672 0.549351
O O9 0.798060 0.290876 0.857672
O O10 0.188547 0.413224 0.918523
O O11 0.435997 0.750000 0.500000
O O12 0.373746 0.661141 0.519724
O O13 0.086066 0.061999 0.312225
O O14 0.083246 0.053729 0.814651
O O15 0.000000 0.500000 0.500000
O O16 0.750000 0.160139 0.500000
#
# Coordination Sequence:
#
# PCOD9396974 Si02
#       8
#     8   8   2   4   8   8   8   8
#     4  10  23  41  64  94 126 161 209 254 320 388
#     4  10  21  41  60  86 127 167 212 261 317 387
#     4  12  24  40  56  86 120 162 230 274 320 368
#     4  10  21  42  63  93 122 169 210 254 328 388
#     4  10  22  41  61  86 124 169 206 259 312 378
#     4  11  23  41  70  90 130 166 206 260 328 376
#     4  11  24  41  62  98 127 164 215 268 315 376
#     4  11  25  38  60  85 121 167 220 272 315 369
#
# _framework density 19.703417000000002
#
# number of rings (size 3 to 8) (size 9 to 14) (size 15 to 20)
#    0.000    1.481    1.481    2.889    9.333    0.000 
#    0.000    0.370    0.000    0.000    0.000    5.185 
#    0.000    0.000    0.000    0.000    0.000    0.000 
#
# Total GULP energy -301120.677254 kJ/mol
# GULP energy per Si atom -5576.308838 kJ/mol
# Density = 1.965857 g / cm^3
# Si number density = 19.703417 Si / 1000 Ang^3
#
#
#
# Elastic Constant Matrix: (Units=GPa)
#
#
# Indices 1 2 3 4 5 6 
#
# 1 172.1545 68.6893 33.4675 0.0000 0.0000 0.0000
# 2 68.6893 100.0715 34.6820 0.0000 0.0000 0.0000
# 3 33.4675 34.6820 92.5247 0.0000 0.0000 0.0000
# 4 0.0000 0.0000 0.0000 -63.7731 0.0000 0.0000
# 5 0.0000 0.0000 0.0000 0.0000 30.7952 0.0000
# 6 0.0000 0.0000 0.0000 0.0000 0.0000 60.4812
#
#
#
# Elastic Compliance Matrix: (Units=1/GPa)
#
#
# Indices 1 2 3 4 5 6 
#
# 1 0.008075 -0.005207 -0.000969 0.000000 0.000000 0.000000
# 2 -0.005207 0.014842 -0.003680 0.000000 0.000000 0.000000
# 3 -0.000969 -0.003680 0.012538 0.000000 0.000000 0.000000
# 4 0.000000 0.000000 0.000000 -0.015681 0.000000 0.000000
# 5 0.000000 0.000000 0.000000 0.000000 0.032473 0.000000
# 6 0.000000 0.000000 0.000000 0.000000 0.000000 0.016534
#
#
# Mechanical properties :
#
#
# Convention : Reuss Voigt Hill
#
# Bulk Modulus (GPa) = 63.51999 70.93648 67.22824
# Shear Modulus (GPa) = 53.33923 20.69479 37.01701
#
# Velocity S-wave (km/s) = 5.20863 3.24437 4.33911
# Velocity P-wave (km/s) = 8.27533 7.07919 7.70052
#
# Compressibility (1/GPa) = 0.01574307
#
# Stress axis : x y z
#
# Youngs Moduli (GPa) = 123.84644 67.37615 79.75811
#
# Poissons Ratio (x) = 0.35080 0.07729
# Poissons Ratio (y) = 0.64481 0.29352
# Poissons Ratio (z) = 0.12001 0.24795
#
# Static dielectric constant tensor:
#      x y z
#    x 1.762310 0.000000 0.000000 
#    y 0.000000 1.814830 0.000000 
#    z 0.000000 0.000000 1.723610 
# 
# From -- ./inp_files/5457.got.cif
#   From: 2010.05.17/outbox.cif.g08.bks.cpg/sg50_3_cif.got.tgz:5457.got - 2010.06.03 11:33:33.
