data_PCOD9396694
_publ_section_title
;
Structure prediction by ZEFSAII (Michael W. Deem and Ramdas Pophale) SiO2 
 PCOD9396694
Probable space group: P B A N
;
_chemical_formula_sum "Si O2"
_cell_formula_units_Z 38
_cell_length_a 18.137692
_cell_length_b 4.970616
_cell_length_c 21.350873
_cell_angle_alpha 90.000000
_cell_angle_beta 90.000000
_cell_angle_gamma 90.000000
_cell_volume 1924.898675
_symmetry_space_group_name_H-M "P B A N"
_symmetry_group_IT_number 50
_space_group.IT_coordinate_system_code '2'
_symmetry_cell_setting 'orthorhombic'
loop_
_space_group_symop_operation_xyz
x,y,z
1/2-x,1/2-y,z
x,1/2-y,-z
1/2-x,y,-z
-x,-y,-z
1/2+x,1/2+y,-z
-x,1/2+y,z
1/2+x,-y,z
loop_
_atom_site_type_symbol
_atom_site_label
_atom_site_fract_x
_atom_site_fract_y
_atom_site_fract_z
Si Si1 0.050871 0.789267 0.429325
Si Si2 0.835446 0.721572 0.766292
Si Si3 0.250000 0.750000 0.000000
Si Si4 0.647531 0.750000 0.000000
Si Si5 0.052502 0.208012 0.121616
Si Si6 0.664675 0.280116 0.680761
O O1 0.080134 0.750000 0.500000
O O2 0.110355 0.730118 0.376407
O O3 0.981863 0.587307 0.422868
O O4 0.750000 0.750000 0.787237
O O5 0.890661 0.802250 0.820948
O O6 0.847927 0.425375 0.738378
O O7 0.845781 0.923302 0.708308
O O8 0.306751 0.515075 0.975249
O O9 0.597878 0.661714 0.941902
O O10 0.013103 0.495028 0.124131
O O11 0.750000 0.250000 0.661639
#
# Coordination Sequence:
#
# PCOD9396694 Si02
#       6
#     8   8   2   4   8   8
#     4  10  21  36  57  86 117 153 196 244 295 355
#     4  10  23  40  59  88 120 158 202 250 294 362
#     4  10  24  40  68  96 116 158 210 242 294 376
#     4  11  24  45  64  97 125 160 206 256 303 367
#     4  12  25  42  65  93 127 161 201 254 313 365
#     4  10  21  39  59  84 119 156 198 249 299 347
#
# _framework density 19.741298
#
# number of rings (size 3 to 8) (size 9 to 14) (size 15 to 20)
#    0.000    1.474    0.000    4.421    2.947    5.474 
#    3.789    0.000    0.000    7.579    0.000    0.000 
#    0.000    0.000    0.000    0.000    0.000    0.000 
#
# Total GULP energy -212007.381877 kJ/mol
# GULP energy per Si atom -5579.141628 kJ/mol
# Density = 1.969637 g / cm^3
# Si number density = 19.741298 Si / 1000 Ang^3
#
#
#
# Elastic Constant Matrix: (Units=GPa)
#
#
# Indices 1 2 3 4 5 6 
#
# 1 63.4673 -19.6894 56.8504 0.0000 0.0000 0.0000
# 2 -19.6894 51.6917 -25.6281 0.0000 0.0000 0.0000
# 3 56.8504 -25.6281 79.7068 0.0000 0.0000 0.0000
# 4 0.0000 0.0000 0.0000 -2.5858 0.0000 0.0000
# 5 0.0000 0.0000 0.0000 0.0000 -508.4366 0.0000
# 6 0.0000 0.0000 0.0000 0.0000 0.0000 23.4932
#
#
#
# Elastic Compliance Matrix: (Units=1/GPa)
#
#
# Indices 1 2 3 4 5 6 
#
# 1 0.043719 0.001419 -0.030726 0.000000 0.000000 0.000000
# 2 0.001419 0.023060 0.006402 0.000000 0.000000 0.000000
# 3 -0.030726 0.006402 0.036520 0.000000 0.000000 0.000000
# 4 0.000000 0.000000 0.000000 -0.386723 0.000000 0.000000
# 5 0.000000 0.000000 0.000000 0.000000 -0.001967 0.000000
# 6 0.000000 0.000000 0.000000 0.000000 0.000000 0.042565
#
#
# Mechanical properties :
#
#
# Convention : Reuss Voigt Hill
#
# Bulk Modulus (GPa) = 17.39441 24.21463 20.80452
# Shear Modulus (GPa) = -28.11306 -85.28364 -56.69835
#
# Velocity S-wave (km/s) = -3.77778 -6.57985 -5.36498
# Velocity P-wave (km/s) = 3.19352 6.74042 5.27408
#
# Compressibility (1/GPa) = 0.05748973
#
# Stress axis : x y z
#
# Youngs Moduli (GPa) = 22.87342 43.36471 27.38256
#
# Poissons Ratio (x) = -0.06154 0.84135
# Poissons Ratio (y) = -0.03246 -0.17531
# Poissons Ratio (z) = 0.70281 -0.27764
#
# Static dielectric constant tensor:
#      x y z
#    x 1.683030 0.000000 0.000000 
#    y 0.000000 1.679020 0.000000 
#    z 0.000000 0.000000 1.650030 
# 
# From -- ./inp_files/29625.got.cif
#   From: 2010.05.17/outbox.cif.g08.bks.cpg/sg50_15_cif.got.tgz:29625.got - 2010.06.03 11:33:33.
