data_PCOD9396339
_publ_section_title
;
Structure prediction by ZEFSAII (Michael W. Deem and Ramdas Pophale) SiO2 
 PCOD9396339
Probable space group: P B A N
;
_chemical_formula_sum "Si O2"
_cell_formula_units_Z 64
_cell_length_a 11.136472
_cell_length_b 30.070044
_cell_length_c 9.429139
_cell_angle_alpha 90.000000
_cell_angle_beta 90.000000
_cell_angle_gamma 90.000000
_cell_volume 3157.575408
_symmetry_space_group_name_H-M "P B A N"
_symmetry_group_IT_number 50
_space_group.IT_coordinate_system_code '2'
_symmetry_cell_setting 'orthorhombic'
loop_
_space_group_symop_operation_xyz
x,y,z
1/2-x,1/2-y,z
x,1/2-y,-z
1/2-x,y,-z
-x,-y,-z
1/2+x,1/2+y,-z
-x,1/2+y,z
1/2+x,-y,z
loop_
_atom_site_type_symbol
_atom_site_label
_atom_site_fract_x
_atom_site_fract_y
_atom_site_fract_z
Si Si1 0.649965 0.034049 0.736698
Si Si2 0.487123 0.928297 0.510907
Si Si3 0.194074 0.615425 0.854448
Si Si4 0.336055 0.058995 0.227889
Si Si5 0.490001 0.430352 0.030635
Si Si6 0.885343 0.697878 0.466282
Si Si7 0.133583 0.839433 0.414531
Si Si8 0.873073 0.624165 0.268983
O O1 0.584264 0.036604 0.585036
O O2 0.720460 0.079350 0.775413
O O3 0.548580 0.034258 0.861540
O O4 0.726735 0.988835 0.743554
O O5 0.557940 0.939868 0.653984
O O6 0.389373 0.890616 0.543475
O O7 0.579466 0.904366 0.403249
O O8 0.161482 0.655506 0.750896
O O9 0.250000 0.632861 0.000000
O O10 0.084143 0.586767 0.914720
O O11 0.258662 0.103703 0.244514
O O12 0.379713 0.056166 0.066519
O O13 0.449992 0.390423 0.133780
O O14 0.880343 0.750000 0.500000
O O15 0.750000 0.680340 0.500000
O O16 0.895766 0.675375 0.310571
O O17 0.005411 0.682568 0.549428
O O18 0.250000 0.822021 0.500000
#
# Coordination Sequence:
#
# PCOD9396339 Si02
#       8
#     8   8   8   8   8   8   8   8
#     4  10  22  36  51  82 128 171 236 277 316 370
#     4  10  20  37  54  84 119 168 215 278 328 368
#     4  10  21  37  57  86 122 177 219 264 327 375
#     4  12  21  35  56  85 123 180 227 279 319 377
#     4  10  22  36  55  82 119 176 220 269 320 382
#     4  10  23  44  74 104 130 162 203 270 342 421
#     4  11  20  39  70  97 129 165 219 270 331 400
#     4  10  22  39  58  87 123 156 216 264 324 390
#
# _framework density 20.268716999999999
#
# number of rings (size 3 to 8) (size 9 to 14) (size 15 to 20)
#    0.000    1.625    2.500    3.000    1.750    5.250 
#    4.500    0.000    0.000    0.750    0.000    0.000 
#    0.000    0.000    0.000    0.000    0.000    0.000 
#
# Total GULP energy -356435.248161 kJ/mol
# GULP energy per Si atom -5569.300753 kJ/mol
# Density = 2.022258 g / cm^3
# Si number density = 20.268717 Si / 1000 Ang^3
#
#
#
# Elastic Constant Matrix: (Units=GPa)
#
#
# Indices 1 2 3 4 5 6 
#
# 1 100.4763 21.8810 39.9561 0.0000 0.0000 0.0000
# 2 21.8810 71.2833 22.4617 0.0000 0.0000 0.0000
# 3 39.9561 22.4617 102.3579 0.0000 0.0000 0.0000
# 4 0.0000 0.0000 0.0000 13.9618 0.0000 0.0000
# 5 0.0000 0.0000 0.0000 0.0000 24.3842 0.0000
# 6 0.0000 0.0000 0.0000 0.0000 0.0000 14.1467
#
#
#
# Elastic Compliance Matrix: (Units=1/GPa)
#
#
# Indices 1 2 3 4 5 6 
#
# 1 0.012152 -0.002402 -0.004217 0.000000 0.000000 0.000000
# 2 -0.002402 0.015545 -0.002474 0.000000 0.000000 0.000000
# 3 -0.004217 -0.002474 0.011959 0.000000 0.000000 0.000000
# 4 0.000000 0.000000 0.000000 0.071624 0.000000 0.000000
# 5 0.000000 0.000000 0.000000 0.000000 0.041010 0.000000
# 6 0.000000 0.000000 0.000000 0.000000 0.000000 0.070688
#
#
# Mechanical properties :
#
#
# Convention : Reuss Voigt Hill
#
# Bulk Modulus (GPa) = 46.57253 49.19057 47.88155
# Shear Modulus (GPa) = 20.13530 23.15311 21.64420
#
# Velocity S-wave (km/s) = 3.15527 3.38347 3.27136
# Velocity P-wave (km/s) = 6.02509 6.29172 6.15985
#
# Compressibility (1/GPa) = 0.02147189
#
# Stress axis : x y z
#
# Youngs Moduli (GPa) = 82.28783 64.32844 83.62213
#
# Poissons Ratio (x) = 0.15449 0.35262
# Poissons Ratio (y) = 0.19762 0.20687
# Poissons Ratio (z) = 0.34699 0.15914
#
# Static dielectric constant tensor:
#      x y z
#    x 1.851900 0.000000 0.000000 
#    y 0.000000 1.717140 0.000000 
#    z 0.000000 0.000000 1.755010 
# 
# From -- ./inp_files/11842.got.cif
#   From: 2010.05.17/outbox.cif.g08.bks.cpg/sg50_6_cif.got.tgz:11842.got - 2010.06.03 11:33:33.
