data_PCOD9396278
_publ_section_title
;
Structure prediction by ZEFSAII (Michael W. Deem and Ramdas Pophale) SiO2 
 PCOD9396278
Probable space group: P B A N
;
_chemical_formula_sum "Si O2"
_cell_formula_units_Z 32
_cell_length_a 5.510050
_cell_length_b 17.003906
_cell_length_c 13.971727
_cell_angle_alpha 90.000000
_cell_angle_beta 90.000000
_cell_angle_gamma 90.000000
_cell_volume 1309.044247
_symmetry_space_group_name_H-M "P B A N"
_symmetry_group_IT_number 50
_space_group.IT_coordinate_system_code '2'
_symmetry_cell_setting 'orthorhombic'
loop_
_space_group_symop_operation_xyz
x,y,z
1/2-x,1/2-y,z
x,1/2-y,-z
1/2-x,y,-z
-x,-y,-z
1/2+x,1/2+y,-z
-x,1/2+y,z
1/2+x,-y,z
loop_
_atom_site_type_symbol
_atom_site_label
_atom_site_fract_x
_atom_site_fract_y
_atom_site_fract_z
Si Si1 0.502628 0.218088 0.108857
Si Si2 0.420971 0.188461 0.424293
Si Si3 0.859931 0.462761 0.349039
Si Si4 0.391638 0.535623 0.120135
O O1 0.750000 0.250000 0.156551
O O2 0.519656 0.124422 0.105201
O O3 0.250000 0.250000 0.149969
O O4 0.505467 0.250000 0.000000
O O5 0.250000 0.250000 0.365411
O O6 0.526201 0.250000 0.500000
O O7 0.250000 0.140914 0.500000
O O8 0.588102 0.128856 0.369779
O O9 0.097053 0.510250 0.385122
O O10 0.864907 0.475562 0.234750
O O11 0.614928 0.480167 0.086174
#
# Coordination Sequence:
#
# PCOD9396278 Si02
#       4
#     8   8   8   8
#     4  10  21  39  59  87 119 152 197 234 293 352
#     4   6  16  35  52  80 114 143 187 222 286 324
#     4  10  20  36  58  83 110 149 190 232 281 336
#     4  10  21  38  60  86 119 151 195 243 291 341
#
# _framework density 24.445316999999999
#
# number of rings (size 3 to 8) (size 9 to 14) (size 15 to 20)
#    1.500    1.500    0.000    1.500    0.000    2.000 
#    0.000   17.500    0.000    0.000    0.000    0.000 
#    0.000    0.000    0.000    0.000    0.000    0.000 
#
# Total GULP energy -178284.960353 kJ/mol
# GULP energy per Si atom -5571.405011 kJ/mol
# Density = 2.438968 g / cm^3
# Si number density = 24.445317 Si / 1000 Ang^3
#
#
#
# Elastic Constant Matrix: (Units=GPa)
#
#
# Indices 1 2 3 4 5 6 
#
# 1 212.6243 75.0721 42.3963 0.0000 0.0000 0.0000
# 2 75.0721 111.9469 -12.6218 0.0000 0.0000 0.0000
# 3 42.3963 -12.6218 43.3312 0.0000 0.0000 0.0000
# 4 0.0000 0.0000 0.0000 41.7505 0.0000 0.0000
# 5 0.0000 0.0000 0.0000 0.0000 14.6015 0.0000
# 6 0.0000 0.0000 0.0000 0.0000 0.0000 86.8033
#
#
#
# Elastic Compliance Matrix: (Units=1/GPa)
#
#
# Indices 1 2 3 4 5 6 
#
# 1 0.009945 -0.008030 -0.012069 0.000000 0.000000 0.000000
# 2 -0.008030 0.015720 0.012436 0.000000 0.000000 0.000000
# 3 -0.012069 0.012436 0.038509 0.000000 0.000000 0.000000
# 4 0.000000 0.000000 0.000000 0.023952 0.000000 0.000000
# 5 0.000000 0.000000 0.000000 0.000000 0.068486 0.000000
# 6 0.000000 0.000000 0.000000 0.000000 0.000000 0.011520
#
#
# Mechanical properties :
#
#
# Convention : Reuss Voigt Hill
#
# Bulk Modulus (GPa) = 20.47222 64.17728 42.32475
# Shear Modulus (GPa) = 25.03239 46.16812 35.60025
#
# Velocity S-wave (km/s) = 3.20350 4.35055 3.82032
# Velocity P-wave (km/s) = 4.69852 7.17961 6.06724
#
# Compressibility (1/GPa) = 0.04884668
#
# Stress axis : x y z
#
# Youngs Moduli (GPa) = 100.55508 63.61435 25.96783
#
# Poissons Ratio (x) = 0.51081 0.31341
# Poissons Ratio (y) = 0.80744 -0.32292
# Poissons Ratio (z) = 1.21362 -0.79108
#
# Static dielectric constant tensor:
#      x y z
#    x 2.030090 0.000000 0.000000 
#    y 0.000000 1.846630 0.000000 
#    z 0.000000 0.000000 2.026740 
# 
# From -- ./inp_files/27898.got.cif
#   From: 2010.05.17/outbox.cif.g08.bks.cpg/sg50_14_cif.got.tgz:27898.got - 2010.06.03 11:33:33.
