data_PCOD9396572
_publ_section_title
;
Structure prediction by ZEFSAII (Michael W. Deem and Ramdas Pophale) SiO2 
 PCOD9396572
Probable space group: P B A N
;
_chemical_formula_sum "Si O2"
_cell_formula_units_Z 22
_cell_length_a 7.950653
_cell_length_b 27.436521
_cell_length_c 4.834470
_cell_angle_alpha 90.000000
_cell_angle_beta 90.000000
_cell_angle_gamma 90.000000
_cell_volume 1054.582864
_symmetry_space_group_name_H-M "P B A N"
_symmetry_group_IT_number 50
_space_group.IT_coordinate_system_code '2'
_symmetry_cell_setting 'orthorhombic'
loop_
_space_group_symop_operation_xyz
x,y,z
1/2-x,1/2-y,z
x,1/2-y,-z
1/2-x,y,-z
-x,-y,-z
1/2+x,1/2+y,-z
-x,1/2+y,z
1/2+x,-y,z
loop_
_atom_site_type_symbol
_atom_site_label
_atom_site_fract_x
_atom_site_fract_y
_atom_site_fract_z
Si Si1 0.250000 0.750000 0.500000
Si Si2 0.250000 0.817432 0.000000
Si Si3 0.086644 0.902622 0.301309
Si Si4 0.750000 0.559154 0.500000
Si Si5 0.250000 0.984890 0.000000
O O1 0.176386 0.786867 0.737126
O O2 0.390071 0.852616 0.866020
O O3 0.250000 0.907072 0.500000
O O4 0.102722 0.946958 0.081779
O O5 0.917308 0.908525 0.474193
O O6 0.761226 0.521308 0.748404
#
# Coordination Sequence:
#
# PCOD9396572 Si02
#       5
#     2   4   8   4   4
#     4  10  20  40  72  92 120 154 202 260 340 408
#     4  10  22  39  64 102 114 158 210 259 330 402
#     4  11  24  40  62  92 130 166 218 262 308 369
#     4  12  26  37  60  91 130 179 214 259 302 354
#     4  11  24  39  56  89 132 181 224 251 296 361
#
# _framework density 20.861329999999999
#
# number of rings (size 3 to 8) (size 9 to 14) (size 15 to 20)
#    0.000    1.091    3.636    2.182   10.182    0.000 
#    0.000    0.000    0.000    1.091    9.455    0.000 
#    0.000    0.000    0.000    0.000    0.000    0.000 
#
# Total GULP energy -122541.808486 kJ/mol
# GULP energy per Si atom -5570.082204 kJ/mol
# Density = 2.081385 g / cm^3
# Si number density = 20.861330 Si / 1000 Ang^3
#
#
#
# Elastic Constant Matrix: (Units=GPa)
#
#
# Indices 1 2 3 4 5 6 
#
# 1 143.2534 47.0834 47.2198 0.0000 0.0000 0.0000
# 2 47.0834 116.2800 60.1918 0.0000 0.0000 0.0000
# 3 47.2198 60.1918 180.4749 0.0000 0.0000 0.0000
# 4 0.0000 0.0000 0.0000 52.7921 0.0000 0.0000
# 5 0.0000 0.0000 0.0000 0.0000 23.7877 0.0000
# 6 0.0000 0.0000 0.0000 0.0000 0.0000 -1.1200
#
#
#
# Elastic Compliance Matrix: (Units=1/GPa)
#
#
# Indices 1 2 3 4 5 6 
#
# 1 0.008286 -0.002699 -0.001268 0.000000 0.000000 0.000000
# 2 -0.002699 0.011273 -0.003054 0.000000 0.000000 0.000000
# 3 -0.001268 -0.003054 0.006891 0.000000 0.000000 0.000000
# 4 0.000000 0.000000 0.000000 0.018942 0.000000 0.000000
# 5 0.000000 0.000000 0.000000 0.000000 0.042039 0.000000
# 6 0.000000 0.000000 0.000000 0.000000 0.000000 -0.892882
#
#
# Mechanical properties :
#
#
# Convention : Reuss Voigt Hill
#
# Bulk Modulus (GPa) = 80.58295 83.22205 81.90250
# Shear Modulus (GPa) = -6.35103 34.12618 13.88757
#
# Velocity S-wave (km/s) = -1.74671 4.04896 2.58293
# Velocity P-wave (km/s) = 5.88589 7.86374 6.94558
#
# Compressibility (1/GPa) = 0.01240957
#
# Stress axis : x y z
#
# Youngs Moduli (GPa) = 120.69273 88.70393 145.11358
#
# Poissons Ratio (x) = 0.23938 0.18397
# Poissons Ratio (y) = 0.32571 0.44315
# Poissons Ratio (z) = 0.15301 0.27089
#
# Static dielectric constant tensor:
#      x y z
#    x 1.796810 0.000000 0.000000 
#    y 0.000000 1.818150 0.000000 
#    z 0.000000 0.000000 1.800080 
# 
# From -- ./inp_files/930.got.cif
#   From: 2010.05.17/outbox.cif.g08.bks.cpg/sg50_1_cif.got.tgz:930.got - 2010.06.03 11:33:33.
