data_PCOD9396068
_publ_section_title
;
Structure prediction by ZEFSAII (Michael W. Deem and Ramdas Pophale) SiO2 
 PCOD9396068
Probable space group: P B A N
;
_chemical_formula_sum "Si O2"
_cell_formula_units_Z 48
_cell_length_a 33.298009
_cell_length_b 16.708413
_cell_length_c 5.285273
_cell_angle_alpha 90.000000
_cell_angle_beta 90.000000
_cell_angle_gamma 90.000000
_cell_volume 2940.498030
_symmetry_space_group_name_H-M "P B A N"
_symmetry_group_IT_number 50
_space_group.IT_coordinate_system_code '2'
_symmetry_cell_setting 'orthorhombic'
loop_
_space_group_symop_operation_xyz
x,y,z
1/2-x,1/2-y,z
x,1/2-y,-z
1/2-x,y,-z
-x,-y,-z
1/2+x,1/2+y,-z
-x,1/2+y,z
1/2+x,-y,z
loop_
_atom_site_type_symbol
_atom_site_label
_atom_site_fract_x
_atom_site_fract_y
_atom_site_fract_z
Si Si1 0.154669 0.347303 0.993356
Si Si2 0.044888 0.526141 0.587934
Si Si3 0.551858 0.288375 0.743752
Si Si4 0.926086 0.946703 0.107061
Si Si5 0.295698 0.153423 0.490606
Si Si6 0.541396 0.785045 0.748606
O O1 0.115355 0.400507 0.049430
O O2 0.184528 0.366622 0.223689
O O3 0.148274 0.250000 0.000000
O O4 0.175844 0.368707 0.727075
O O5 0.049300 0.616992 0.691253
O O6 0.072325 0.511678 0.335333
O O7 0.000000 0.500000 0.500000
O O8 0.057043 0.474981 0.836207
O O9 0.572209 0.250000 0.500000
O O10 0.505065 0.259720 0.745651
O O11 0.568974 0.250000 0.000000
O O12 0.954706 0.878742 0.226685
O O13 0.293453 0.250000 0.500000
O O14 0.250000 0.122767 0.500000
O O15 0.561646 0.750000 0.500000
O O16 0.559993 0.750000 0.000000
#
# Coordination Sequence:
#
# PCOD9396068 Si02
#       6
#     8   8   8   8   8   8
#     4  10  20  33  48  74 104 132 171 211 255 301
#     4  12  24  37  52  71  95 128 170 216 269 318
#     4  10  21  36  52  67  86 117 167 216 254 300
#     4  12  23  34  51  70 102 132 163 215 272 307
#     4   9  17  31  51  71  97 134 174 210 238 283
#     4  10  20  31  47  67  91 122 161 203 258 305
#
# _framework density 16.323764000000001
#
# number of rings (size 3 to 8) (size 9 to 14) (size 15 to 20)
#    0.000    1.500    1.667    4.500    4.667    4.000 
#    0.000    0.000    0.000    0.000    0.000    0.000 
#    0.000    0.000    0.000    0.000    0.000  175.000 
#
# Total GULP energy -267300.695917 kJ/mol
# GULP energy per Si atom -5568.764498 kJ/mol
# Density = 1.628661 g / cm^3
# Si number density = 16.323764 Si / 1000 Ang^3
#
#
#
# Elastic Constant Matrix: (Units=GPa)
#
#
# Indices 1 2 3 4 5 6 
#
# 1 59.3997 16.3247 42.6210 0.0000 0.0000 0.0000
# 2 16.3247 64.2937 48.7343 0.0000 0.0000 0.0000
# 3 42.6210 48.7343 163.1822 0.0000 0.0000 0.0000
# 4 0.0000 0.0000 0.0000 30.4545 0.0000 0.0000
# 5 0.0000 0.0000 0.0000 0.0000 17.7267 0.0000
# 6 0.0000 0.0000 0.0000 0.0000 0.0000 10.1421
#
#
#
# Elastic Compliance Matrix: (Units=1/GPa)
#
#
# Indices 1 2 3 4 5 6 
#
# 1 0.020830 -0.001506 -0.004991 0.000000 0.000000 0.000000
# 2 -0.001506 0.020214 -0.005644 0.000000 0.000000 0.000000
# 3 -0.004991 -0.005644 0.009117 0.000000 0.000000 0.000000
# 4 0.000000 0.000000 0.000000 0.032836 0.000000 0.000000
# 5 0.000000 0.000000 0.000000 0.000000 0.056412 0.000000
# 6 0.000000 0.000000 0.000000 0.000000 0.000000 0.098599
#
#
# Mechanical properties :
#
#
# Convention : Reuss Voigt Hill
#
# Bulk Modulus (GPa) = 38.63925 55.80395 47.22160
# Shear Modulus (GPa) = 18.45598 23.61103 21.03351
#
# Velocity S-wave (km/s) = 3.36612 3.80731 3.59349
# Velocity P-wave (km/s) = 6.23134 7.32034 6.79768
#
# Compressibility (1/GPa) = 0.02588042
#
# Stress axis : x y z
#
# Youngs Moduli (GPa) = 48.00767 49.47128 109.68428
#
# Poissons Ratio (x) = 0.07450 0.54741
# Poissons Ratio (y) = 0.07230 0.61900
# Poissons Ratio (z) = 0.23960 0.27919
#
# Static dielectric constant tensor:
#      x y z
#    x 1.550170 0.000000 0.000000 
#    y 0.000000 1.580960 0.000000 
#    z 0.000000 0.000000 1.622500 
# 
# From -- ./inp_files/7151.got.cif
#   From: 2010.05.17/outbox.cif.g08.bks.cpg/sg50_4_cif.got.tgz:7151.got - 2010.06.03 11:33:33.
