data_PCOD9396313
_publ_section_title
;
Structure prediction by ZEFSAII (Michael W. Deem and Ramdas Pophale) SiO2 
 PCOD9396313
Probable space group: P B A N
;
_chemical_formula_sum "Si O2"
_cell_formula_units_Z 54
_cell_length_a 12.045735
_cell_length_b 15.116534
_cell_length_c 14.148325
_cell_angle_alpha 90.000000
_cell_angle_beta 90.000000
_cell_angle_gamma 90.000000
_cell_volume 2576.265142
_symmetry_space_group_name_H-M "P B A N"
_symmetry_group_IT_number 50
_space_group.IT_coordinate_system_code '2'
_symmetry_cell_setting 'orthorhombic'
loop_
_space_group_symop_operation_xyz
x,y,z
1/2-x,1/2-y,z
x,1/2-y,-z
1/2-x,y,-z
-x,-y,-z
1/2+x,1/2+y,-z
-x,1/2+y,z
1/2+x,-y,z
loop_
_atom_site_type_symbol
_atom_site_label
_atom_site_fract_x
_atom_site_fract_y
_atom_site_fract_z
Si Si1 0.569088 0.353697 0.001078
Si Si2 0.250000 0.250000 0.791468
Si Si3 0.387571 0.363475 0.646340
Si Si4 0.200767 0.561364 0.354191
Si Si5 0.338002 0.101873 0.918546
Si Si6 0.264385 0.911480 0.853635
Si Si7 0.080734 0.578952 0.532990
Si Si8 0.250000 0.250000 0.500000
O O1 0.458282 0.404589 0.032967
O O2 0.664430 0.381604 0.076745
O O3 0.543665 0.250000 0.000000
O O4 0.624041 0.369788 0.898244
O O5 0.338173 0.309072 0.733458
O O6 0.327517 0.184539 0.850277
O O7 0.357758 0.466569 0.662492
O O8 0.513142 0.361209 0.607071
O O9 0.322102 0.316476 0.561749
O O10 0.228092 0.605718 0.253876
O O11 0.128490 0.614835 0.432739
O O12 0.315745 0.542059 0.408158
O O13 0.294720 0.014867 0.864988
O O14 0.250000 0.118060 0.000000
O O15 0.000000 0.500000 0.500000
#
# Coordination Sequence:
#
# PCOD9396313 Si02
#       8
#     8   4   8   8   8   8   8   2
#     4  11  25  47  68  97 132 180 223 279 347 407
#     4  11  23  39  59  98 134 172 221 285 329 413
#     4  10  20  38  58  89 125 169 214 261 334 392
#     4  10  20  38  62  96 124 161 225 273 321 396
#     4  12  24  42  65  96 138 172 224 281 346 402
#     4  11  23  41  70  96 129 177 230 275 332 421
#     4   9  19  35  61  88 124 165 208 271 325 387
#     4  10  20  36  62  78 126 168 204 256 320 396
#
# _framework density 20.960574999999999
#
# number of rings (size 3 to 8) (size 9 to 14) (size 15 to 20)
#    0.000    1.481    2.963    4.222    0.000    4.741 
#    5.333    0.000    0.000    0.889    0.000    0.000 
#    0.000    0.000    0.000    0.000    0.000    0.000 
#
# Total GULP energy -301043.413748 kJ/mol
# GULP energy per Si atom -5574.878032 kJ/mol
# Density = 2.091287 g / cm^3
# Si number density = 20.960575 Si / 1000 Ang^3
#
#
#
# Elastic Constant Matrix: (Units=GPa)
#
#
# Indices 1 2 3 4 5 6 
#
# 1 113.1726 6.8876 45.6506 0.0000 0.0000 0.0000
# 2 6.8876 33.1774 -0.5011 0.0000 0.0000 0.0000
# 3 45.6506 -0.5011 113.0721 0.0000 0.0000 0.0000
# 4 0.0000 0.0000 0.0000 11.7401 0.0000 0.0000
# 5 0.0000 0.0000 0.0000 0.0000 38.8122 0.0000
# 6 0.0000 0.0000 0.0000 0.0000 0.0000 9.5964
#
#
#
# Elastic Compliance Matrix: (Units=1/GPa)
#
#
# Indices 1 2 3 4 5 6 
#
# 1 0.010727 -0.002292 -0.004341 0.000000 0.000000 0.000000
# 2 -0.002292 0.030633 0.001061 0.000000 0.000000 0.000000
# 3 -0.004341 0.001061 0.010601 0.000000 0.000000 0.000000
# 4 0.000000 0.000000 0.000000 0.085178 0.000000 0.000000
# 5 0.000000 0.000000 0.000000 0.000000 0.025765 0.000000
# 6 0.000000 0.000000 0.000000 0.000000 0.000000 0.104206
#
#
# Mechanical properties :
#
#
# Convention : Reuss Voigt Hill
#
# Bulk Modulus (GPa) = 24.49974 40.38848 32.44411
# Shear Modulus (GPa) = 17.13154 25.85540 21.49347
#
# Velocity S-wave (km/s) = 2.86199 3.51597 3.20570
# Velocity P-wave (km/s) = 4.75764 5.98275 5.40502
#
# Compressibility (1/GPa) = 0.04081675
#
# Stress axis : x y z
#
# Youngs Moduli (GPa) = 93.22687 32.64463 94.32960
#
# Poissons Ratio (x) = 0.07483 0.40946
# Poissons Ratio (y) = 0.21371 -0.10011
# Poissons Ratio (z) = 0.40468 -0.03464
#
# Static dielectric constant tensor:
#      x y z
#    x 1.511560 0.000000 0.000000 
#    y 0.000000 1.711670 0.000000 
#    z 0.000000 0.000000 1.782950 
# 
# From -- ./inp_files/25988.got.cif
#   From: 2010.05.17/outbox.cif.g08.bks.cpg/sg50_13_cif.got.tgz:25988.got - 2010.06.03 11:33:33.
