data_PCOD9396690
_publ_section_title
;
Structure prediction by ZEFSAII (Michael W. Deem and Ramdas Pophale) SiO2 
 PCOD9396690
Probable space group: P B A N
;
_chemical_formula_sum "Si O2"
_cell_formula_units_Z 34
_cell_length_a 8.394444
_cell_length_b 26.104448
_cell_length_c 7.829069
_cell_angle_alpha 90.000000
_cell_angle_beta 90.000000
_cell_angle_gamma 90.000000
_cell_volume 1715.602107
_symmetry_space_group_name_H-M "P B A N"
_symmetry_group_IT_number 50
_space_group.IT_coordinate_system_code '2'
_symmetry_cell_setting 'orthorhombic'
loop_
_space_group_symop_operation_xyz
x,y,z
1/2-x,1/2-y,z
x,1/2-y,-z
1/2-x,y,-z
-x,-y,-z
1/2+x,1/2+y,-z
-x,1/2+y,z
1/2+x,-y,z
loop_
_atom_site_type_symbol
_atom_site_label
_atom_site_fract_x
_atom_site_fract_y
_atom_site_fract_z
Si Si1 0.099342 0.606839 0.888074
Si Si2 0.308052 0.328938 0.806389
Si Si3 0.885997 0.933497 0.811571
Si Si4 0.250000 0.250000 0.500000
Si Si5 0.208855 0.974797 0.687272
O O1 0.173572 0.570801 0.744216
O O2 0.988654 0.651769 0.823631
O O3 0.250000 0.624639 0.000000
O O4 0.983440 0.574989 0.013460
O O5 0.195762 0.378937 0.769534
O O6 0.309898 0.290568 0.646275
O O7 0.250000 0.311737 0.000000
O O8 0.029811 0.953846 0.693751
O O9 0.752932 0.977432 0.806958
O O10 0.250000 0.992675 0.500000
#
# Coordination Sequence:
#
# PCOD9396690 Si02
#       5
#     8   8   8   2   8
#     4   9  20  39  61  86 125 169 202 245 306 376
#     4  10  23  43  67  94 123 161 209 263 317 378
#     4  10  21  36  56  87 128 170 205 243 306 373
#     4  12  26  40  76  92 120 148 218 274 332 372
#     4  11  21  31  56  92 133 165 204 250 294 374
#
# _framework density 19.818114999999999
#
# number of rings (size 3 to 8) (size 9 to 14) (size 15 to 20)
#    0.000    1.882    0.000    3.176    4.941    6.588 
#    0.000    0.000    0.000   36.706    0.000    0.000 
#    0.000    0.000    0.000    0.000    0.000    0.000 
#
# Total GULP energy -189354.099524 kJ/mol
# GULP energy per Si atom -5569.238221 kJ/mol
# Density = 1.977301 g / cm^3
# Si number density = 19.818115 Si / 1000 Ang^3
#
#
#
# Elastic Constant Matrix: (Units=GPa)
#
#
# Indices 1 2 3 4 5 6 
#
# 1 132.4261 68.0029 56.1449 0.0000 0.0000 0.0000
# 2 68.0029 87.7698 53.5531 0.0000 0.0000 0.0000
# 3 56.1449 53.5531 113.5816 0.0000 0.0000 0.0000
# 4 0.0000 0.0000 0.0000 130.7096 0.0000 0.0000
# 5 0.0000 0.0000 0.0000 0.0000 21.6072 0.0000
# 6 0.0000 0.0000 0.0000 0.0000 0.0000 -52.0885
#
#
#
# Elastic Compliance Matrix: (Units=1/GPa)
#
#
# Indices 1 2 3 4 5 6 
#
# 1 0.012973 -0.008618 -0.002349 0.000000 0.000000 0.000000
# 2 -0.008618 0.021719 -0.005981 0.000000 0.000000 0.000000
# 3 -0.002349 -0.005981 0.012786 0.000000 0.000000 0.000000
# 4 0.000000 0.000000 0.000000 0.007651 0.000000 0.000000
# 5 0.000000 0.000000 0.000000 0.000000 0.046281 0.000000
# 6 0.000000 0.000000 0.000000 0.000000 0.000000 -0.019198
#
#
# Mechanical properties :
#
#
# Convention : Reuss Voigt Hill
#
# Bulk Modulus (GPa) = 73.62676 76.57547 75.10111
# Shear Modulus (GPa) = 41.44769 30.45077 35.94923
#
# Velocity S-wave (km/s) = 4.57815 3.92409 4.26368
# Velocity P-wave (km/s) = 8.07328 7.69768 7.88772
#
# Compressibility (1/GPa) = 0.01358202
#
# Stress axis : x y z
#
# Youngs Moduli (GPa) = 77.08470 46.04174 78.21345
#
# Poissons Ratio (x) = 0.39677 0.18376
# Poissons Ratio (y) = 0.66428 0.46778
# Poissons Ratio (z) = 0.18111 0.27537
#
# Static dielectric constant tensor:
#      x y z
#    x 1.748390 0.000000 0.000000 
#    y 0.000000 1.722860 0.000000 
#    z 0.000000 0.000000 1.731170 
# 
# From -- ./inp_files/9216.got.cif
#   From: 2010.05.17/outbox.cif.g08.bks.cpg/sg50_5_cif.got.tgz:9216.got - 2010.06.03 11:33:33.
