data_PCOD9396615
_publ_section_title
;
Structure prediction by ZEFSAII (Michael W. Deem and Ramdas Pophale) SiO2 
 PCOD9396615
Probable space group: P B A N
;
_chemical_formula_sum "Si O2"
_cell_formula_units_Z 30
_cell_length_a 12.034213
_cell_length_b 19.558017
_cell_length_c 5.173293
_cell_angle_alpha 90.000000
_cell_angle_beta 90.000000
_cell_angle_gamma 90.000000
_cell_volume 1217.613878
_symmetry_space_group_name_H-M "P B A N"
_symmetry_group_IT_number 50
_space_group.IT_coordinate_system_code '2'
_symmetry_cell_setting 'orthorhombic'
loop_
_space_group_symop_operation_xyz
x,y,z
1/2-x,1/2-y,z
x,1/2-y,-z
1/2-x,y,-z
-x,-y,-z
1/2+x,1/2+y,-z
-x,1/2+y,z
1/2+x,-y,z
loop_
_atom_site_type_symbol
_atom_site_label
_atom_site_fract_x
_atom_site_fract_y
_atom_site_fract_z
Si Si1 0.419286 0.359920 0.790999
Si Si2 0.250000 0.557090 0.500000
Si Si3 0.632578 0.158598 0.857500
Si Si4 0.024481 0.750000 0.500000
Si Si5 0.750000 0.528846 0.000000
Si Si6 0.250000 0.250000 0.000000
O O1 0.458605 0.322032 0.526152
O O2 0.529676 0.363578 0.964073
O O3 0.346762 0.426554 0.859279
O O4 0.333054 0.300119 0.859531
O O5 0.155233 0.604856 0.376259
O O6 0.292344 0.514074 0.249597
O O7 0.602678 0.232183 0.737739
O O8 0.750000 0.158635 0.000000
#
# Coordination Sequence:
#
# PCOD9396615 Si02
#       6
#     8   4   8   4   4   2
#     4  11  26  47  80 116 159 205 258 339 397 481
#     4  12  28  53  80 113 164 220 274 324 388 486
#     4  12  27  51  75 117 160 213 267 336 402 477
#     4  12  26  46  84 120 158 205 267 338 418 476
#     4  11  30  53  80 119 162 217 274 324 398 479
#     4  10  20  50  66 112 154 186 256 314 416 464
#
# _framework density 24.638349999999999
#
# number of rings (size 3 to 8) (size 9 to 14) (size 15 to 20)
#    0.000    0.533    4.000    1.600    3.733   10.667 
#    0.000    0.000    0.000    0.000    0.000    0.000 
#    0.000    0.000    0.000    0.000    0.000    0.000 
#
# Total GULP energy -167308.030892 kJ/mol
# GULP energy per Si atom -5576.934363 kJ/mol
# Density = 2.458227 g / cm^3
# Si number density = 24.638350 Si / 1000 Ang^3
#
#
#
# Elastic Constant Matrix: (Units=GPa)
#
#
# Indices 1 2 3 4 5 6 
#
# 1 144.5767 31.5921 30.1718 0.0000 0.0000 0.0000
# 2 31.5921 97.4397 37.2323 0.0000 0.0000 0.0000
# 3 30.1718 37.2323 122.9643 0.0000 0.0000 0.0000
# 4 0.0000 0.0000 0.0000 99.4967 0.0000 0.0000
# 5 0.0000 0.0000 0.0000 0.0000 54.7927 0.0000
# 6 0.0000 0.0000 0.0000 0.0000 0.0000 20.7871
#
#
#
# Elastic Compliance Matrix: (Units=1/GPa)
#
#
# Indices 1 2 3 4 5 6 
#
# 1 0.007615 -0.001985 -0.001268 0.000000 0.000000 0.000000
# 2 -0.001985 0.012123 -0.003184 0.000000 0.000000 0.000000
# 3 -0.001268 -0.003184 0.009407 0.000000 0.000000 0.000000
# 4 0.000000 0.000000 0.000000 0.010051 0.000000 0.000000
# 5 0.000000 0.000000 0.000000 0.000000 0.018251 0.000000
# 6 0.000000 0.000000 0.000000 0.000000 0.000000 0.048107
#
#
# Mechanical properties :
#
#
# Convention : Reuss Voigt Hill
#
# Bulk Modulus (GPa) = 61.44982 62.55256 62.00119
# Shear Modulus (GPa) = 40.37168 52.74760 46.55964
#
# Velocity S-wave (km/s) = 4.05232 4.63198 4.35181
# Velocity P-wave (km/s) = 6.84762 7.35190 7.10423
#
# Compressibility (1/GPa) = 0.01627344
#
# Stress axis : x y z
#
# Youngs Moduli (GPa) = 131.32091 82.48987 106.29879
#
# Poissons Ratio (x) = 0.16371 0.13474
# Poissons Ratio (y) = 0.26062 0.33842
# Poissons Ratio (z) = 0.16646 0.26262
#
# Static dielectric constant tensor:
#      x y z
#    x -0.635130 0.000000 0.000000 
#    y 0.000000 2.011590 0.000000 
#    z 0.000000 0.000000 2.147570 
# 
# From -- ./inp_files/2050.got.cif
#   From: 2010.05.17/outbox.cif.g08.bks.cpg/sg50_2_cif.got.tgz:2050.got - 2010.06.03 11:33:33.
