data_PCOD9396834
_publ_section_title
;
Structure prediction by ZEFSAII (Michael W. Deem and Ramdas Pophale) SiO2 
 PCOD9396834
Probable space group: P B A N
;
_chemical_formula_sum "Si O2"
_cell_formula_units_Z 58
_cell_length_a 12.066139
_cell_length_b 23.974952
_cell_length_c 9.687140
_cell_angle_alpha 90.000000
_cell_angle_beta 90.000000
_cell_angle_gamma 90.000000
_cell_volume 2802.345296
_symmetry_space_group_name_H-M "P B A N"
_symmetry_group_IT_number 50
_space_group.IT_coordinate_system_code '2'
_symmetry_cell_setting 'orthorhombic'
loop_
_space_group_symop_operation_xyz
x,y,z
1/2-x,1/2-y,z
x,1/2-y,-z
1/2-x,y,-z
-x,-y,-z
1/2+x,1/2+y,-z
-x,1/2+y,z
1/2+x,-y,z
loop_
_atom_site_type_symbol
_atom_site_label
_atom_site_fract_x
_atom_site_fract_y
_atom_site_fract_z
Si Si1 0.250000 0.750000 0.500000
Si Si2 0.029965 0.172721 0.171516
Si Si3 0.255738 0.135823 0.665393
Si Si4 0.432929 0.963040 0.854598
Si Si5 0.366057 0.726036 0.232891
Si Si6 0.588074 0.439832 0.145729
Si Si7 0.257502 0.001970 0.662042
Si Si8 0.950066 0.852888 0.144060
O O1 0.329597 0.717954 0.392762
O O2 0.134234 0.163182 0.270451
O O3 0.960981 0.227888 0.206630
O O4 0.941881 0.122320 0.187305
O O5 0.071285 0.168262 0.011962
O O6 0.250000 0.144628 0.500000
O O7 0.263434 0.068560 0.689879
O O8 0.148068 0.159295 0.747789
O O9 0.532692 0.919353 0.848871
O O10 0.473840 0.026115 0.871821
O O11 0.361468 0.966979 0.718120
O O12 0.366672 0.944191 0.990289
O O13 0.250000 0.750000 0.169934
O O14 0.427697 0.671294 0.179788
O O15 0.656799 0.473474 0.257196
O O16 0.250000 0.995528 0.500000
#
# Coordination Sequence:
#
# PCOD9396834 Si02
#       8
#     2   8   8   8   8   8   8   8
#     4   8  24  48  70  94 132 168 198 268 322 378
#     4  11  24  43  68  95 127 167 216 267 315 370
#     4  11  25  40  65  94 134 171 209 260 321 383
#     4  10  21  38  62  90 123 166 208 257 313 372
#     4  10  25  47  69  94 128 165 210 256 319 375
#     4  10  21  38  62  90 123 166 208 257 313 372
#     4  11  23  38  55  92 130 168 206 257 314 376
#     4  11  24  43  68  95 127 167 216 267 315 370
#
# _framework density 20.696950999999999
#
# number of rings (size 3 to 8) (size 9 to 14) (size 15 to 20)
#    0.414    1.103    2.759    1.241    3.862    4.414 
#    2.483    2.069    0.000    0.000    0.000    0.000 
#    0.000    0.000    0.000    0.000    0.000    0.000 
#
# Total GULP energy -323228.677651 kJ/mol
# GULP energy per Si atom -5572.908235 kJ/mol
# Density = 2.064984 g / cm^3
# Si number density = 20.696951 Si / 1000 Ang^3
#
#
#
# Elastic Constant Matrix: (Units=GPa)
#
#
# Indices 1 2 3 4 5 6 
#
# 1 119.0521 14.9064 68.9340 0.0000 0.0000 0.0000
# 2 14.9064 55.6125 24.9140 0.0000 0.0000 0.0000
# 3 68.9340 24.9140 135.3269 0.0000 0.0000 0.0000
# 4 0.0000 0.0000 0.0000 18.6785 0.0000 0.0000
# 5 0.0000 0.0000 0.0000 0.0000 36.6586 0.0000
# 6 0.0000 0.0000 0.0000 0.0000 0.0000 18.6778
#
#
#
# Elastic Compliance Matrix: (Units=1/GPa)
#
#
# Indices 1 2 3 4 5 6 
#
# 1 0.011927 -0.000518 -0.005980 0.000000 0.000000 0.000000
# 2 -0.000518 0.019620 -0.003348 0.000000 0.000000 0.000000
# 3 -0.005980 -0.003348 0.011052 0.000000 0.000000 0.000000
# 4 0.000000 0.000000 0.000000 0.053538 0.000000 0.000000
# 5 0.000000 0.000000 0.000000 0.000000 0.027279 0.000000
# 6 0.000000 0.000000 0.000000 0.000000 0.000000 0.053539
#
#
# Mechanical properties :
#
#
# Convention : Reuss Voigt Hill
#
# Bulk Modulus (GPa) = 43.65498 58.61114 51.13306
# Shear Modulus (GPa) = 24.47571 28.21879 26.34725
#
# Velocity S-wave (km/s) = 3.44259 3.69647 3.57179
# Velocity P-wave (km/s) = 6.07784 6.82632 6.46293
#
# Compressibility (1/GPa) = 0.02290689
#
# Stress axis : x y z
#
# Youngs Moduli (GPa) = 83.84176 50.96735 90.47949
#
# Poissons Ratio (x) = 0.02639 0.54109
# Poissons Ratio (y) = 0.04342 0.30296
# Poissons Ratio (z) = 0.50140 0.17066
#
# Static dielectric constant tensor:
#      x y z
#    x 1.786040 0.000000 0.000000 
#    y 0.000000 1.722000 0.000000 
#    z 0.000000 0.000000 1.757630 
# 
# From -- ./inp_files/11784.got.cif
#   From: 2010.05.17/outbox.cif.g08.bks.cpg/sg50_6_cif.got.tgz:11784.got - 2010.06.03 11:33:33.
