data_PCOD9396268
_publ_section_title
;
Structure prediction by ZEFSAII (Michael W. Deem and Ramdas Pophale) SiO2 
 PCOD9396268
Probable space group: P B A N
;
_chemical_formula_sum "Si O2"
_cell_formula_units_Z 60
_cell_length_a 20.896179
_cell_length_b 12.182673
_cell_length_c 12.301225
_cell_angle_alpha 90.000000
_cell_angle_beta 90.000000
_cell_angle_gamma 90.000000
_cell_volume 3131.539033
_symmetry_space_group_name_H-M "P B A N"
_symmetry_group_IT_number 50
_space_group.IT_coordinate_system_code '2'
_symmetry_cell_setting 'orthorhombic'
loop_
_space_group_symop_operation_xyz
x,y,z
1/2-x,1/2-y,z
x,1/2-y,-z
1/2-x,y,-z
-x,-y,-z
1/2+x,1/2+y,-z
-x,1/2+y,z
1/2+x,-y,z
loop_
_atom_site_type_symbol
_atom_site_label
_atom_site_fract_x
_atom_site_fract_y
_atom_site_fract_z
Si Si1 0.336642 0.941645 0.347242
Si Si2 0.647929 0.250000 0.500000
Si Si3 0.117616 0.630291 0.122972
Si Si4 0.572854 0.644925 0.362462
Si Si5 0.874117 0.111467 0.882322
Si Si6 0.310051 0.935132 0.656333
Si Si7 0.001593 0.506847 0.793828
Si Si8 0.423199 0.393974 0.394902
O O1 0.374434 0.854866 0.425767
O O2 0.338649 0.895321 0.225734
O O3 0.262648 0.962150 0.372669
O O4 0.371309 0.057538 0.347427
O O5 0.680670 0.180484 0.404791
O O6 0.105905 0.760686 0.126547
O O7 0.053299 0.559133 0.143256
O O8 0.147836 0.599317 0.006746
O O9 0.524248 0.617017 0.265589
O O10 0.547864 0.616829 0.483913
O O11 0.595280 0.769898 0.363197
O O12 0.826195 0.081630 0.784055
O O13 0.937134 0.037827 0.864351
O O14 0.362462 0.023633 0.613198
O O15 0.025358 0.434827 0.691869
#
# Coordination Sequence:
#
# PCOD9396268 Si02
#       8
#     8   4   8   8   8   8   8   8
#     4  11  22  36  57  82 113 149 182 225 275 331
#     4  12  21  36  56  82 116 148 184 218 273 338
#     4  10  21  36  55  80 108 141 184 232 277 321
#     4  10  21  36  54  82 115 147 184 224 271 327
#     4  10  21  36  55  80 108 141 184 232 277 321
#     4  11  22  36  57  82 113 149 182 225 275 331
#     4  10  20  36  56  78 106 147 183 226 276 328
#     4  10  21  36  54  82 115 147 184 224 271 327
#
# _framework density 19.159908000000001
#
# number of rings (size 3 to 8) (size 9 to 14) (size 15 to 20)
#    0.000    1.600    2.667    2.800    0.000    1.067 
#    0.000    2.667    0.000    7.200    0.000    7.467 
#    0.000    0.000    0.000    0.000    0.000    0.000 
#
# Total GULP energy -334252.726580 kJ/mol
# GULP energy per Si atom -5570.878776 kJ/mol
# Density = 1.911630 g / cm^3
# Si number density = 19.159908 Si / 1000 Ang^3
#
#
#
# Elastic Constant Matrix: (Units=GPa)
#
#
# Indices 1 2 3 4 5 6 
#
# 1 28.5243 4.1580 3.4845 0.0000 0.0000 0.0000
# 2 4.1580 83.1873 9.6748 0.0000 0.0000 0.0000
# 3 3.4845 9.6748 108.3672 0.0000 0.0000 0.0000
# 4 0.0000 0.0000 0.0000 24.0133 0.0000 0.0000
# 5 0.0000 0.0000 0.0000 0.0000 -8.1806 0.0000
# 6 0.0000 0.0000 0.0000 0.0000 0.0000 7.0238
#
#
#
# Elastic Compliance Matrix: (Units=1/GPa)
#
#
# Indices 1 2 3 4 5 6 
#
# 1 0.035420 -0.001655 -0.000991 0.000000 0.000000 0.000000
# 2 -0.001655 0.012225 -0.001038 0.000000 0.000000 0.000000
# 3 -0.000991 -0.001038 0.009352 0.000000 0.000000 0.000000
# 4 0.000000 0.000000 0.000000 0.041644 0.000000 0.000000
# 5 0.000000 0.000000 0.000000 0.000000 -0.122240 0.000000
# 6 0.000000 0.000000 0.000000 0.000000 0.000000 0.142374
#
#
# Mechanical properties :
#
#
# Convention : Reuss Voigt Hill
#
# Bulk Modulus (GPa) = 20.14981 28.30147 24.22564
# Shear Modulus (GPa) = 35.04191 18.08873 26.56532
#
# Velocity S-wave (km/s) = 4.28123 3.07594 3.72762
# Velocity P-wave (km/s) = 5.91422 5.23627 5.58554
#
# Compressibility (1/GPa) = 0.04962825
#
# Stress axis : x y z
#
# Youngs Moduli (GPa) = 28.23251 81.80271 106.92403
#
# Poissons Ratio (x) = 0.13539 0.10598
# Poissons Ratio (y) = 0.04673 0.11100
# Poissons Ratio (z) = 0.02798 0.08492
#
# Static dielectric constant tensor:
#      x y z
#    x 1.663190 0.000000 0.000000 
#    y 0.000000 1.659760 0.000000 
#    z 0.000000 0.000000 1.723100 
# 
# From -- ./inp_files/22439.got.cif
#   From: 2010.05.17/outbox.cif.g08.bks.cpg/sg50_12_cif.got.tgz:22439.got - 2010.06.03 11:33:33.
