data_PCOD9396561
_publ_section_title
;
Structure prediction by ZEFSAII (Michael W. Deem and Ramdas Pophale) SiO2 
 PCOD9396561
Probable space group: P B A N
;
_chemical_formula_sum "Si O2"
_cell_formula_units_Z 52
_cell_length_a 18.742196
_cell_length_b 20.173842
_cell_length_c 5.928775
_cell_angle_alpha 90.000000
_cell_angle_beta 90.000000
_cell_angle_gamma 90.000000
_cell_volume 2241.682283
_symmetry_space_group_name_H-M "P B A N"
_symmetry_group_IT_number 50
_space_group.IT_coordinate_system_code '2'
_symmetry_cell_setting 'orthorhombic'
loop_
_space_group_symop_operation_xyz
x,y,z
1/2-x,1/2-y,z
x,1/2-y,-z
1/2-x,y,-z
-x,-y,-z
1/2+x,1/2+y,-z
-x,1/2+y,z
1/2+x,-y,z
loop_
_atom_site_type_symbol
_atom_site_label
_atom_site_fract_x
_atom_site_fract_y
_atom_site_fract_z
Si Si1 0.542966 0.750000 0.000000
Si Si2 0.250000 0.845687 0.500000
Si Si3 0.682140 0.049449 0.842990
Si Si4 0.868363 0.250000 0.500000
Si Si5 0.061794 0.967160 0.151270
Si Si6 0.830649 0.543806 0.474258
Si Si7 0.866453 0.814599 0.621820
Si Si8 0.014461 0.840199 0.381824
O O1 0.598346 0.704616 0.858751
O O2 0.492887 0.795715 0.844164
O O3 0.290999 0.892380 0.322568
O O4 0.190420 0.798441 0.381052
O O5 0.646790 0.984933 0.718473
O O6 0.750000 0.030694 0.000000
O O7 0.617358 0.073863 0.997584
O O8 0.927253 0.192425 0.452693
O O9 0.029760 0.915498 0.327528
O O10 0.113868 0.015522 0.292365
O O11 0.000000 0.000000 0.000000
O O12 0.750000 0.516029 0.500000
O O13 0.821256 0.619515 0.400106
O O14 0.834676 0.750000 0.500000
O O15 0.936505 0.833216 0.480538
#
# Coordination Sequence:
#
# PCOD9396561 Si02
#       8
#     4   4   8   4   8   8   8   8
#     4  10  20  40  66  98 134 180 224 294 364 428
#     4  11  26  42  62  96 143 192 234 296 357 450
#     4  12  23  47  69 100 146 195 242 301 375 453
#     4  11  22  42  62  96 139 184 240 284 363 430
#     4  12  27  43  73 113 140 193 260 309 376 458
#     4  12  25  46  70  99 144 184 234 310 374 443
#     4  10  23  44  68  99 135 174 228 293 370 437
#     4  11  22  41  65 100 138 182 232 301 354 424
#
# _framework density 23.196866
#
# number of rings (size 3 to 8) (size 9 to 14) (size 15 to 20)
#    0.000    0.769    4.615    3.692    2.154    6.462 
#    0.000    0.769    0.000    3.692    0.000    0.000 
#    0.000    0.000    0.000    0.000    0.000    0.000 
#
# Total GULP energy -289531.633785 kJ/mol
# GULP energy per Si atom -5567.916034 kJ/mol
# Density = 2.314407 g / cm^3
# Si number density = 23.196866 Si / 1000 Ang^3
#
#
#
# Elastic Constant Matrix: (Units=GPa)
#
#
# Indices 1 2 3 4 5 6 
#
# 1 113.6703 40.2847 23.1243 0.0000 0.0000 0.0000
# 2 40.2847 134.8531 39.3158 0.0000 0.0000 0.0000
# 3 23.1243 39.3158 75.0492 0.0000 0.0000 0.0000
# 4 0.0000 0.0000 0.0000 7.4694 0.0000 0.0000
# 5 0.0000 0.0000 0.0000 0.0000 11.1394 0.0000
# 6 0.0000 0.0000 0.0000 0.0000 0.0000 -14.3443
#
#
#
# Elastic Compliance Matrix: (Units=1/GPa)
#
#
# Indices 1 2 3 4 5 6 
#
# 1 0.010040 -0.002475 -0.001797 0.000000 0.000000 0.000000
# 2 -0.002475 0.009363 -0.004142 0.000000 0.000000 0.000000
# 3 -0.001797 -0.004142 0.016048 0.000000 0.000000 0.000000
# 4 0.000000 0.000000 0.000000 0.133879 0.000000 0.000000
# 5 0.000000 0.000000 0.000000 0.000000 0.089771 0.000000
# 6 0.000000 0.000000 0.000000 0.000000 0.000000 -0.069714
#
#
# Mechanical properties :
#
#
# Convention : Reuss Voigt Hill
#
# Bulk Modulus (GPa) = 53.69895 58.78024 56.23960
# Shear Modulus (GPa) = 23.53797 15.57611 19.55704
#
# Velocity S-wave (km/s) = 3.18890 2.59409 2.90675
# Velocity P-wave (km/s) = 6.06286 5.86235 5.96345
#
# Compressibility (1/GPa) = 0.01862234
#
# Stress axis : x y z
#
# Youngs Moduli (GPa) = 99.59958 106.80860 62.31284
#
# Poissons Ratio (x) = 0.26440 0.11196
# Poissons Ratio (y) = 0.24656 0.25810
# Poissons Ratio (z) = 0.17896 0.44240
#
# Static dielectric constant tensor:
#      x y z
#    x 1.858640 0.000000 0.000000 
#    y 0.000000 2.054620 0.000000 
#    z 0.000000 0.000000 2.076700 
# 
# From -- ./inp_files/5379.got.cif
#   From: 2010.05.17/outbox.cif.g08.bks.cpg/sg50_3_cif.got.tgz:5379.got - 2010.06.03 11:33:33.
