data_PCOD9396586
_publ_section_title
;
Structure prediction by ZEFSAII (Michael W. Deem and Ramdas Pophale) SiO2 
 PCOD9396586
Probable space group: P B A N
;
_chemical_formula_sum "Si O2"
_cell_formula_units_Z 40
_cell_length_a 23.487952
_cell_length_b 7.839263
_cell_length_c 9.217580
_cell_angle_alpha 90.000000
_cell_angle_beta 90.000000
_cell_angle_gamma 90.000000
_cell_volume 1697.216718
_symmetry_space_group_name_H-M "P B A N"
_symmetry_group_IT_number 50
_space_group.IT_coordinate_system_code '2'
_symmetry_cell_setting 'orthorhombic'
loop_
_space_group_symop_operation_xyz
x,y,z
1/2-x,1/2-y,z
x,1/2-y,-z
1/2-x,y,-z
-x,-y,-z
1/2+x,1/2+y,-z
-x,1/2+y,z
1/2+x,-y,z
loop_
_atom_site_type_symbol
_atom_site_label
_atom_site_fract_x
_atom_site_fract_y
_atom_site_fract_z
Si Si1 0.367684 0.919921 0.082094
Si Si2 0.665502 0.196314 0.339196
Si Si3 0.060511 0.481796 0.577150
Si Si4 0.092781 0.166434 0.716625
Si Si5 0.801768 0.620202 0.171166
O O1 0.333405 0.845998 0.220393
O O2 0.416771 0.035759 0.153026
O O3 0.387408 0.750000 0.000000
O O4 0.328224 0.030965 0.973703
O O5 0.681357 0.250000 0.500000
O O6 0.598824 0.128033 0.349231
O O7 0.703257 0.040184 0.279666
O O8 0.051274 0.324571 0.687201
O O9 0.098247 0.425720 0.438053
O O10 0.000000 0.500000 0.500000
O O11 0.149969 0.262081 0.759195
O O12 0.750000 0.750000 0.153742
#
# Coordination Sequence:
#
# PCOD9396586 Si02
#       5
#     8   8   8   8   8
#     4  10  21  39  69  98 138 186 231 283 353 421
#     4  10  20  41  72 106 142 181 233 307 349 402
#     4  10  22  39  70 105 141 186 231 286 371 436
#     4  10  21  38  66 104 132 178 241 285 336 428
#     4  10  23  44  69 100 141 195 235 277 353 441
#
# _framework density 23.568000000000001
#
# number of rings (size 3 to 8) (size 9 to 14) (size 15 to 20)
#    0.000    2.000    2.000    0.600    2.800    1.600 
#    0.000   16.000    4.400   40.800    0.000    0.000 
#    0.000    0.000    0.000    0.000    0.000    0.000 
#
# Total GULP energy -223249.866833 kJ/mol
# GULP energy per Si atom -5581.246671 kJ/mol
# Density = 2.351436 g / cm^3
# Si number density = 23.568000 Si / 1000 Ang^3
#
#
#
# Elastic Constant Matrix: (Units=GPa)
#
#
# Indices 1 2 3 4 5 6 
#
# 1 94.1754 57.7392 38.3960 0.0000 0.0000 0.0000
# 2 57.7392 133.0992 85.8465 0.0000 0.0000 0.0000
# 3 38.3960 85.8465 172.4195 0.0000 0.0000 0.0000
# 4 0.0000 0.0000 0.0000 83.9938 0.0000 0.0000
# 5 0.0000 0.0000 0.0000 0.0000 6.4772 0.0000
# 6 0.0000 0.0000 0.0000 0.0000 0.0000 10.3262
#
#
#
# Elastic Compliance Matrix: (Units=1/GPa)
#
#
# Indices 1 2 3 4 5 6 
#
# 1 0.014468 -0.006184 -0.000143 0.000000 0.000000 0.000000
# 2 -0.006184 0.013711 -0.005449 0.000000 0.000000 0.000000
# 3 -0.000143 -0.005449 0.008545 0.000000 0.000000 0.000000
# 4 0.000000 0.000000 0.000000 0.011906 0.000000 0.000000
# 5 0.000000 0.000000 0.000000 0.000000 0.154388 0.000000
# 6 0.000000 0.000000 0.000000 0.000000 0.000000 0.096841
#
#
# Mechanical properties :
#
#
# Convention : Reuss Voigt Hill
#
# Bulk Modulus (GPa) = 75.92465 84.85083 80.38774
# Shear Modulus (GPa) = 15.25314 34.67360 24.96337
#
# Velocity S-wave (km/s) = 2.54677 3.83980 3.25808
# Velocity P-wave (km/s) = 6.39790 7.46589 6.95243
#
# Compressibility (1/GPa) = 0.01317095
#
# Stress axis : x y z
#
# Youngs Moduli (GPa) = 69.11638 72.93589 117.03085
#
# Poissons Ratio (x) = 0.45106 0.01671
# Poissons Ratio (y) = 0.42744 0.63773
# Poissons Ratio (z) = 0.00987 0.39745
#
# Static dielectric constant tensor:
#      x y z
#    x 1.930210 0.000000 0.000000 
#    y 0.000000 2.022380 0.000000 
#    z 0.000000 0.000000 1.916140 
# 
# From -- ./inp_files/15799.got.cif
#   From: 2010.05.17/outbox.cif.g08.bks.cpg/sg50_8_cif.got.tgz:15799.got - 2010.06.03 11:33:33.
