data_PCOD9396083
_publ_section_title
;
Structure prediction by ZEFSAII (Michael W. Deem and Ramdas Pophale) SiO2 
 PCOD9396083
Probable space group: P B A N
;
_chemical_formula_sum "Si O2"
_cell_formula_units_Z 32
_cell_length_a 21.768544
_cell_length_b 9.199606
_cell_length_c 7.298648
_cell_angle_alpha 90.000000
_cell_angle_beta 90.000000
_cell_angle_gamma 90.000000
_cell_volume 1461.642050
_symmetry_space_group_name_H-M "P B A N"
_symmetry_group_IT_number 50
_space_group.IT_coordinate_system_code '2'
_symmetry_cell_setting 'orthorhombic'
loop_
_space_group_symop_operation_xyz
x,y,z
1/2-x,1/2-y,z
x,1/2-y,-z
1/2-x,y,-z
-x,-y,-z
1/2+x,1/2+y,-z
-x,1/2+y,z
1/2+x,-y,z
loop_
_atom_site_type_symbol
_atom_site_label
_atom_site_fract_x
_atom_site_fract_y
_atom_site_fract_z
Si Si1 0.449791 0.409648 0.620524
Si Si2 0.477795 0.817632 0.195210
Si Si3 0.158256 0.764702 0.219277
Si Si4 0.316059 0.504870 0.507562
O O1 0.500000 0.500000 0.500000
O O2 0.460014 0.513381 0.801249
O O3 0.468482 0.247332 0.678590
O O4 0.379763 0.424887 0.554713
O O5 0.414354 0.744799 0.261764
O O6 0.489578 0.750000 0.000000
O O7 0.187229 0.632836 0.336742
O O8 0.177380 0.914894 0.311872
O O9 0.167880 0.750000 0.000000
O O10 0.250000 0.427432 0.500000
#
# Coordination Sequence:
#
# PCOD9396083 Si02
#       4
#     8   8   8   8
#     4  11  20  36  57  82 113 151 185 235 290 335
#     4  10  20  34  57  86 115 145 191 234 286 340
#     4   9  17  31  52  80 111 145 182 233 291 337
#     4  10  20  32  50  79 112 146 189 235 283 341
#
# _framework density 21.893183000000001
#
# number of rings (size 3 to 8) (size 9 to 14) (size 15 to 20)
#    0.000    2.000    2.500    3.000    0.000    2.000 
#    0.000    0.000    0.000    3.000    0.000    1.750 
#    0.000    0.000    0.000    0.000    0.000    0.000 
#
# Total GULP energy -178291.702728 kJ/mol
# GULP energy per Si atom -5571.615710 kJ/mol
# Density = 2.184335 g / cm^3
# Si number density = 21.893183 Si / 1000 Ang^3
#
#
#
# Elastic Constant Matrix: (Units=GPa)
#
#
# Indices 1 2 3 4 5 6 
#
# 1 184.2502 45.7960 20.1884 0.0000 0.0000 0.0000
# 2 45.7960 93.7635 0.4071 0.0000 0.0000 0.0000
# 3 20.1884 0.4071 85.0650 0.0000 0.0000 0.0000
# 4 0.0000 0.0000 0.0000 7.4934 0.0000 0.0000
# 5 0.0000 0.0000 0.0000 0.0000 14.4900 0.0000
# 6 0.0000 0.0000 0.0000 0.0000 0.0000 11.6052
#
#
#
# Elastic Compliance Matrix: (Units=1/GPa)
#
#
# Indices 1 2 3 4 5 6 
#
# 1 0.006362 -0.003101 -0.001495 0.000000 0.000000 0.000000
# 2 -0.003101 0.012177 0.000678 0.000000 0.000000 0.000000
# 3 -0.001495 0.000678 0.012107 0.000000 0.000000 0.000000
# 4 0.000000 0.000000 0.000000 0.133451 0.000000 0.000000
# 5 0.000000 0.000000 0.000000 0.000000 0.069013 0.000000
# 6 0.000000 0.000000 0.000000 0.000000 0.000000 0.086168
#
#
# Mechanical properties :
#
#
# Convention : Reuss Voigt Hill
#
# Bulk Modulus (GPa) = 43.84139 55.09576 49.46857
# Shear Modulus (GPa) = 14.93795 26.49687 20.71741
#
# Velocity S-wave (km/s) = 2.61494 3.48268 3.07953
# Velocity P-wave (km/s) = 5.40239 6.43370 5.94047
#
# Compressibility (1/GPa) = 0.02280950
#
# Stress axis : x y z
#
# Youngs Moduli (GPa) = 157.18504 82.12417 82.59492
#
# Poissons Ratio (x) = 0.25465 0.12348
# Poissons Ratio (y) = 0.48740 -0.05597
# Poissons Ratio (z) = 0.23500 -0.05565
#
# Static dielectric constant tensor:
#      x y z
#    x 1.872760 0.000000 0.000000 
#    y 0.000000 1.934480 0.000000 
#    z 0.000000 0.000000 1.969450 
# 
# From -- ./inp_files/14856.got.cif
#   From: 2010.05.17/outbox.cif.g08.bks.cpg/sg50_8_cif.got.tgz:14856.got - 2010.06.03 11:33:33.
