data_PCOD9396766
_publ_section_title
;
Structure prediction by ZEFSAII (Michael W. Deem and Ramdas Pophale) SiO2 
 PCOD9396766
Probable space group: P B A N
;
_chemical_formula_sum "Si O2"
_cell_formula_units_Z 48
_cell_length_a 14.625455
_cell_length_b 8.137281
_cell_length_c 17.803989
_cell_angle_alpha 90.000000
_cell_angle_beta 90.000000
_cell_angle_gamma 90.000000
_cell_volume 2118.878317
_symmetry_space_group_name_H-M "P B A N"
_symmetry_group_IT_number 50
_space_group.IT_coordinate_system_code '2'
_symmetry_cell_setting 'orthorhombic'
loop_
_space_group_symop_operation_xyz
x,y,z
1/2-x,1/2-y,z
x,1/2-y,-z
1/2-x,y,-z
-x,-y,-z
1/2+x,1/2+y,-z
-x,1/2+y,z
1/2+x,-y,z
loop_
_atom_site_type_symbol
_atom_site_label
_atom_site_fract_x
_atom_site_fract_y
_atom_site_fract_z
Si Si1 0.954662 0.372594 0.943006
Si Si2 0.439251 0.367666 0.835574
Si Si3 0.121690 0.462117 0.427785
Si Si4 0.416311 0.423424 0.409911
Si Si5 0.119487 0.887006 0.256101
Si Si6 0.816437 0.019644 0.270755
O O1 0.030794 0.275414 0.893044
O O2 0.899181 0.483450 0.885467
O O3 0.904622 0.250000 0.000000
O O4 0.000000 0.500000 0.000000
O O5 0.535753 0.421316 0.798919
O O6 0.369947 0.364586 0.765410
O O7 0.103637 0.270056 0.410020
O O8 0.139207 0.483679 0.516272
O O9 0.190387 0.509122 0.361318
O O10 0.025532 0.556930 0.419393
O O11 0.397587 0.527454 0.335831
O O12 0.127403 0.689568 0.260962
O O13 0.218351 0.955179 0.233153
#
# Coordination Sequence:
#
# PCOD9396766 Si02
#       6
#     8   8   8   8   8   8
#     4   9  20  38  68  98 120 159 203 237 306 386
#     4  11  20  40  65  92 129 163 201 259 310 367
#     4  10  21  37  58  85 122 167 217 267 320 371
#     4  10  21  37  58  85 122 167 216 269 320 371
#     4  11  24  39  60  93 127 169 215 258 321 373
#     4  11  24  39  60  93 127 169 216 259 317 378
#
# _framework density 22.653496000000001
#
# number of rings (size 3 to 8) (size 9 to 14) (size 15 to 20)
#    0.000    1.667    3.333    1.000    2.333    3.333 
#    0.000    3.333    0.000   15.000    0.000    0.000 
#    0.000    0.000    0.000    0.000    0.000    0.000 
#
# Total GULP energy -267618.529640 kJ/mol
# GULP energy per Si atom -5575.386034 kJ/mol
# Density = 2.260194 g / cm^3
# Si number density = 22.653496 Si / 1000 Ang^3
#
#
#
# Elastic Constant Matrix: (Units=GPa)
#
#
# Indices 1 2 3 4 5 6 
#
# 1 60.3845 6.4562 22.0641 0.0000 0.0000 0.0000
# 2 6.4562 56.2576 40.3611 0.0000 0.0000 0.0000
# 3 22.0641 40.3611 136.9986 0.0000 0.0000 0.0000
# 4 0.0000 0.0000 0.0000 53.7617 0.0000 0.0000
# 5 0.0000 0.0000 0.0000 0.0000 10.4146 0.0000
# 6 0.0000 0.0000 0.0000 0.0000 0.0000 15.6584
#
#
#
# Elastic Compliance Matrix: (Units=1/GPa)
#
#
# Indices 1 2 3 4 5 6 
#
# 1 0.017596 0.000017 -0.002839 0.000000 0.000000 0.000000
# 2 0.000017 0.022539 -0.006643 0.000000 0.000000 0.000000
# 3 -0.002839 -0.006643 0.009714 0.000000 0.000000 0.000000
# 4 0.000000 0.000000 0.000000 0.018601 0.000000 0.000000
# 5 0.000000 0.000000 0.000000 0.000000 0.096019 0.000000
# 6 0.000000 0.000000 0.000000 0.000000 0.000000 0.063864
#
#
# Mechanical properties :
#
#
# Convention : Reuss Voigt Hill
#
# Bulk Modulus (GPa) = 32.34181 43.48928 37.91555
# Shear Modulus (GPa) = 19.41233 28.28422 23.84828
#
# Velocity S-wave (km/s) = 2.93050 3.53733 3.24812
# Velocity P-wave (km/s) = 5.07525 5.99357 5.55343
#
# Compressibility (1/GPa) = 0.03091973
#
# Stress axis : x y z
#
# Youngs Moduli (GPa) = 56.83097 44.36678 102.94719
#
# Poissons Ratio (x) = -0.00078 0.29227
# Poissons Ratio (y) = -0.00099 0.68389
# Poissons Ratio (z) = 0.16135 0.29473
#
# Static dielectric constant tensor:
#      x y z
#    x 1.808640 0.000000 0.000000 
#    y 0.000000 1.901950 0.000000 
#    z 0.000000 0.000000 1.885700 
# 
# From -- ./inp_files/29462.got.cif
#   From: 2010.05.17/outbox.cif.g08.bks.cpg/sg50_15_cif.got.tgz:29462.got - 2010.06.03 11:33:33.
