data_PCOD9396980
_publ_section_title
;
Structure prediction by ZEFSAII (Michael W. Deem and Ramdas Pophale) SiO2 
 PCOD9396980
Probable space group: P B A N
;
_chemical_formula_sum "Si O2"
_cell_formula_units_Z 58
_cell_length_a 13.013339
_cell_length_b 8.475760
_cell_length_c 25.222027
_cell_angle_alpha 90.000000
_cell_angle_beta 90.000000
_cell_angle_gamma 90.000000
_cell_volume 2781.937574
_symmetry_space_group_name_H-M "P B A N"
_symmetry_group_IT_number 50
_space_group.IT_coordinate_system_code '2'
_symmetry_cell_setting 'orthorhombic'
loop_
_space_group_symop_operation_xyz
x,y,z
1/2-x,1/2-y,z
x,1/2-y,-z
1/2-x,y,-z
-x,-y,-z
1/2+x,1/2+y,-z
-x,1/2+y,z
1/2+x,-y,z
loop_
_atom_site_type_symbol
_atom_site_label
_atom_site_fract_x
_atom_site_fract_y
_atom_site_fract_z
Si Si1 0.424155 0.042716 0.549445
Si Si2 0.750000 0.750000 0.500000
Si Si3 0.374805 0.252372 0.116084
Si Si4 0.941943 0.224982 0.623186
Si Si5 0.374527 0.578042 0.936342
Si Si6 0.463671 0.963517 0.299032
Si Si7 0.873903 0.076507 0.938819
Si Si8 0.372929 0.241291 0.239668
O O1 0.324987 0.137669 0.532216
O O2 0.485037 0.160951 0.588636
O O3 0.500000 0.000000 0.500000
O O4 0.388302 0.884737 0.579873
O O5 0.250000 0.250000 0.112376
O O6 0.249917 0.574123 0.065568
O O7 0.398435 0.267412 0.178153
O O8 0.407802 0.084477 0.091348
O O9 0.894028 0.341316 0.667093
O O10 0.000410 0.096434 0.659231
O O11 0.591444 0.588918 0.914051
O O12 0.403214 0.752317 0.914821
O O13 0.399273 0.576017 0.998837
O O14 0.559972 0.866169 0.274378
O O15 0.406367 0.063859 0.254811
O O16 0.250000 0.250000 0.248367
#
# Coordination Sequence:
#
# PCOD9396980 Si02
#       8
#     8   2   8   8   8   8   8   8
#     4  11  20  40  63  95 133 168 204 251 302 363
#     4  12  24  36  66  94 136 176 198 252 316 354
#     4   9  16  27  47  77 110 148 194 252 315 377
#     4   9  19  40  65  85 129 165 201 264 297 350
#     4   8  13  22  38  67 108 151 187 244 297 376
#     4   9  20  42  64  88 122 160 210 263 306 366
#     4   8  13  22  38  67 109 148 193 237 301 374
#     4  10  21  41  64  89 122 157 204 269 329 371
#
# _framework density 20.848777999999999
#
# number of rings (size 3 to 8) (size 9 to 14) (size 15 to 20)
#    0.000    2.759    1.379    1.241    0.000    1.655 
#   16.138    5.517    0.000    0.000    0.000    3.862 
#    0.000    0.000    0.000    0.000    0.000    0.000 
#
# Total GULP energy -323236.657106 kJ/mol
# GULP energy per Si atom -5573.045812 kJ/mol
# Density = 2.080133 g / cm^3
# Si number density = 20.848778 Si / 1000 Ang^3
#
#
#
# Elastic Constant Matrix: (Units=GPa)
#
#
# Indices 1 2 3 4 5 6 
#
# 1 72.9117 54.7548 20.5049 0.0000 0.0000 0.0000
# 2 54.7548 194.5120 83.2811 0.0000 0.0000 0.0000
# 3 20.5049 83.2811 102.1113 0.0000 0.0000 0.0000
# 4 0.0000 0.0000 0.0000 6.6425 0.0000 0.0000
# 5 0.0000 0.0000 0.0000 0.0000 8.7084 0.0000
# 6 0.0000 0.0000 0.0000 0.0000 0.0000 71.8651
#
#
#
# Elastic Compliance Matrix: (Units=1/GPa)
#
#
# Indices 1 2 3 4 5 6 
#
# 1 0.017431 -0.005237 0.000771 0.000000 0.000000 0.000000
# 2 -0.005237 0.009473 -0.006674 0.000000 0.000000 0.000000
# 3 0.000771 -0.006674 0.015082 0.000000 0.000000 0.000000
# 4 0.000000 0.000000 0.000000 0.150545 0.000000 0.000000
# 5 0.000000 0.000000 0.000000 0.000000 0.114831 0.000000
# 6 0.000000 0.000000 0.000000 0.000000 0.000000 0.013915
#
#
# Mechanical properties :
#
#
# Convention : Reuss Voigt Hill
#
# Bulk Modulus (GPa) = 50.74805 76.29074 63.51939
# Shear Modulus (GPa) = 14.28056 31.50950 22.89503
#
# Velocity S-wave (km/s) = 2.62001 3.89181 3.31743
# Velocity P-wave (km/s) = 5.79193 7.54100 6.72359
#
# Compressibility (1/GPa) = 0.01970519
#
# Stress axis : x y z
#
# Youngs Moduli (GPa) = 57.36842 105.56404 66.30397
#
# Poissons Ratio (x) = 0.55283 -0.05111
# Poissons Ratio (y) = 0.30043 0.44254
# Poissons Ratio (z) = -0.04422 0.70458
#
# Static dielectric constant tensor:
#      x y z
#    x 1.795180 0.000000 0.000000 
#    y 0.000000 1.765370 0.000000 
#    z 0.000000 0.000000 1.807810 
# 
# From -- ./inp_files/31757.got.cif
#   From: 2010.05.17/outbox.cif.g08.bks.cpg/sg50_16_cif.got.tgz:31757.got - 2010.06.03 11:33:33.
