data_PCOD9396044
_publ_section_title
;
Structure prediction by ZEFSAII (Michael W. Deem and Ramdas Pophale) SiO2 
 PCOD9396044
Probable space group: P B A N
;
_chemical_formula_sum "Si O2"
_cell_formula_units_Z 32
_cell_length_a 9.542130
_cell_length_b 27.298073
_cell_length_c 5.255441
_cell_angle_alpha 90.000000
_cell_angle_beta 90.000000
_cell_angle_gamma 90.000000
_cell_volume 1368.946528
_symmetry_space_group_name_H-M "P B A N"
_symmetry_group_IT_number 50
_space_group.IT_coordinate_system_code '2'
_symmetry_cell_setting 'orthorhombic'
loop_
_space_group_symop_operation_xyz
x,y,z
1/2-x,1/2-y,z
x,1/2-y,-z
1/2-x,y,-z
-x,-y,-z
1/2+x,1/2+y,-z
-x,1/2+y,z
1/2+x,-y,z
loop_
_atom_site_type_symbol
_atom_site_label
_atom_site_fract_x
_atom_site_fract_y
_atom_site_fract_z
Si Si1 0.158745 0.089270 0.263636
Si Si2 0.591172 0.119998 0.094725
Si Si3 0.619073 0.483659 0.811927
Si Si4 0.587776 0.228364 0.252345
O O1 0.250000 0.111281 0.500000
O O2 0.132115 0.032539 0.352460
O O3 0.250000 0.087309 0.000000
O O4 0.015632 0.112732 0.144860
O O5 0.585188 0.071487 0.273457
O O6 0.571617 0.170360 0.243497
O O7 0.750000 0.124456 0.000000
O O8 0.750000 0.478065 0.000000
O O9 0.500000 0.500000 0.000000
O O10 0.750000 0.250000 0.251873
O O11 0.519370 0.250000 0.500000
O O12 0.522088 0.250000 0.000000
#
# Coordination Sequence:
#
# PCOD9396044 Si02
#       4
#     8   8   8   8
#     4  10  22  42  60  91 137 179 220 282 341 415
#     4  10  19  39  66  97 126 180 229 280 346 423
#     4   8  16  33  56  86 125 171 223 268 326 403
#     4  10  20  37  56  90 132 153 204 284 356 389
#
# _framework density 23.375639
#
# number of rings (size 3 to 8) (size 9 to 14) (size 15 to 20)
#    0.000    2.500    2.500    0.000    0.000    2.000 
#    4.500   42.500    0.000    0.750    0.000    5.250 
#    0.000    0.000    0.000    0.000    0.000    0.000 
#
# Total GULP energy -178191.539770 kJ/mol
# GULP energy per Si atom -5568.485618 kJ/mol
# Density = 2.332244 g / cm^3
# Si number density = 23.375639 Si / 1000 Ang^3
#
#
#
# Elastic Constant Matrix: (Units=GPa)
#
#
# Indices 1 2 3 4 5 6 
#
# 1 114.8338 45.4158 44.8937 0.0000 0.0000 0.0000
# 2 45.4158 184.5882 54.1681 0.0000 0.0000 0.0000
# 3 44.8937 54.1681 143.3184 0.0000 0.0000 0.0000
# 4 0.0000 0.0000 0.0000 44.2370 0.0000 0.0000
# 5 0.0000 0.0000 0.0000 0.0000 -11.4314 0.0000
# 6 0.0000 0.0000 0.0000 0.0000 0.0000 19.7976
#
#
#
# Elastic Compliance Matrix: (Units=1/GPa)
#
#
# Indices 1 2 3 4 5 6 
#
# 1 0.010434 -0.001809 -0.002585 0.000000 0.000000 0.000000
# 2 -0.001809 0.006407 -0.001855 0.000000 0.000000 0.000000
# 3 -0.002585 -0.001855 0.008488 0.000000 0.000000 0.000000
# 4 0.000000 0.000000 0.000000 0.022606 0.000000 0.000000
# 5 0.000000 0.000000 0.000000 0.000000 -0.087479 0.000000
# 6 0.000000 0.000000 0.000000 0.000000 0.000000 0.050511
#
#
# Mechanical properties :
#
#
# Convention : Reuss Voigt Hill
#
# Bulk Modulus (GPa) = 77.92851 81.29951 79.61401
# Shear Modulus (GPa) = 180.23606 30.40483 105.32045
#
# Velocity S-wave (km/s) = 8.79043 3.61044 6.71963
# Velocity P-wave (km/s) = 11.68070 7.22741 9.71273
#
# Compressibility (1/GPa) = 0.01283227
#
# Stress axis : x y z
#
# Youngs Moduli (GPa) = 95.83994 156.08412 117.81007
#
# Poissons Ratio (x) = 0.28230 0.30452
# Poissons Ratio (y) = 0.17334 0.21853
# Poissons Ratio (z) = 0.24773 0.28953
#
# Static dielectric constant tensor:
#      x y z
#    x 1.935270 0.000000 0.000000 
#    y 0.000000 1.967580 0.000000 
#    z 0.000000 0.000000 0.884480 
# 
# From -- ./inp_files/1227.got.cif
#   From: 2010.05.17/outbox.cif.g08.bks.cpg/sg50_1_cif.got.tgz:1227.got - 2010.06.03 11:33:33.
