data_PCOD9396319
_publ_section_title
;
Structure prediction by ZEFSAII (Michael W. Deem and Ramdas Pophale) SiO2 
 PCOD9396319
Probable space group: P B A N
;
_chemical_formula_sum "Si O2"
_cell_formula_units_Z 64
_cell_length_a 31.049255
_cell_length_b 11.441154
_cell_length_c 9.430324
_cell_angle_alpha 90.000000
_cell_angle_beta 90.000000
_cell_angle_gamma 90.000000
_cell_volume 3350.021772
_symmetry_space_group_name_H-M "P B A N"
_symmetry_group_IT_number 50
_space_group.IT_coordinate_system_code '2'
_symmetry_cell_setting 'orthorhombic'
loop_
_space_group_symop_operation_xyz
x,y,z
1/2-x,1/2-y,z
x,1/2-y,-z
1/2-x,y,-z
-x,-y,-z
1/2+x,1/2+y,-z
-x,1/2+y,z
1/2+x,-y,z
loop_
_atom_site_type_symbol
_atom_site_label
_atom_site_fract_x
_atom_site_fract_y
_atom_site_fract_z
Si Si1 0.620402 0.884545 0.974718
Si Si2 0.576877 0.020352 0.479558
Si Si3 0.987656 0.641922 0.603322
Si Si4 0.701681 0.887330 0.475331
Si Si5 0.855692 0.029690 0.303025
Si Si6 0.981421 0.625063 0.942508
Si Si7 0.151924 0.510281 0.749916
Si Si8 0.301143 0.748893 0.327607
O O1 0.639407 0.967962 0.095667
O O2 0.635327 0.750000 0.000000
O O3 0.568694 0.880565 0.985082
O O4 0.631922 0.945637 0.825841
O O5 0.531714 0.071861 0.428125
O O6 0.603182 0.080014 0.608730
O O7 0.609044 0.010122 0.348061
O O8 0.559166 0.903011 0.551724
O O9 0.994680 0.750000 0.500000
O O10 0.984964 0.641323 0.773031
O O11 0.700839 0.750000 0.500000
O O12 0.750000 0.932186 0.500000
O O13 0.670235 0.952189 0.583420
O O14 0.684785 0.918471 0.320443
O O15 0.824893 0.137458 0.265681
O O16 0.999752 0.750000 0.000000
O O17 0.000000 0.500000 0.000000
O O18 0.175254 0.634709 0.733316
O O19 0.250000 0.750000 0.299624
O O20 0.306644 0.750000 0.500000
#
# Coordination Sequence:
#
# PCOD9396319 Si02
#       8
#     8   8   8   8   8   8   8   8
#     4  11  25  44  65  91 135 175 230 270 340 410
#     4  10  23  39  61  95 126 165 231 273 338 377
#     4  11  25  39  66  93 132 173 231 291 331 399
#     4  10  20  36  62  94 125 163 216 269 324 391
#     4  11  22  41  66  94 130 171 219 270 337 401
#     4  11  26  47  66  95 137 188 227 288 359 418
#     4  11  23  40  66  94 128 174 220 268 336 406
#     4  11  22  41  70 101 132 167 212 279 344 405
#
# _framework density 19.104354000000001
#
# number of rings (size 3 to 8) (size 9 to 14) (size 15 to 20)
#    0.000    1.250    3.750    2.250    8.750    2.500 
#    2.250    3.125    0.000    4.500    0.000    0.000 
#    0.000    0.000    0.000    0.000    0.000    0.000 
#
# Total GULP energy -356704.577698 kJ/mol
# GULP energy per Si atom -5573.509027 kJ/mol
# Density = 1.906087 g / cm^3
# Si number density = 19.104354 Si / 1000 Ang^3
#
#
#
# Elastic Constant Matrix: (Units=GPa)
#
#
# Indices 1 2 3 4 5 6 
#
# 1 87.7950 15.4413 16.4253 0.0000 0.0000 0.0000
# 2 15.4413 84.6666 29.4809 0.0000 0.0000 0.0000
# 3 16.4253 29.4809 94.4326 0.0000 0.0000 0.0000
# 4 0.0000 0.0000 0.0000 -107.1556 0.0000 0.0000
# 5 0.0000 0.0000 0.0000 0.0000 12.7353 0.0000
# 6 0.0000 0.0000 0.0000 0.0000 0.0000 29.7870
#
#
#
# Elastic Compliance Matrix: (Units=1/GPa)
#
#
# Indices 1 2 3 4 5 6 
#
# 1 0.011972 -0.001636 -0.001572 0.000000 0.000000 0.000000
# 2 -0.001636 0.013475 -0.003922 0.000000 0.000000 0.000000
# 3 -0.001572 -0.003922 0.012087 0.000000 0.000000 0.000000
# 4 0.000000 0.000000 0.000000 -0.009332 0.000000 0.000000
# 5 0.000000 0.000000 0.000000 0.000000 0.078522 0.000000
# 6 0.000000 0.000000 0.000000 0.000000 0.000000 0.033572
#
#
# Mechanical properties :
#
#
# Convention : Reuss Voigt Hill
#
# Bulk Modulus (GPa) = 42.96537 43.28770 43.12654
# Shear Modulus (GPa) = 30.80449 0.77646 15.79048
#
# Velocity S-wave (km/s) = 4.01987 0.63821 2.87808
# Velocity P-wave (km/s) = 6.63961 4.82191 5.80238
#
# Compressibility (1/GPa) = 0.02327456
#
# Stress axis : x y z
#
# Youngs Moduli (GPa) = 83.52850 74.21066 82.73085
#
# Poissons Ratio (x) = 0.12142 0.13002
# Poissons Ratio (y) = 0.13667 0.32449
# Poissons Ratio (z) = 0.13127 0.29107
#
# Static dielectric constant tensor:
#      x y z
#    x 1.686770 0.000000 0.000000 
#    y 0.000000 1.713550 0.000000 
#    z 0.000000 0.000000 1.667090 
# 
# From -- ./inp_files/17090.got.cif
#   From: 2010.05.17/outbox.cif.g08.bks.cpg/sg50_9_cif.got.tgz:17090.got - 2010.06.03 11:33:33.
