data_PCOD9396526
_publ_section_title
;
Structure prediction by ZEFSAII (Michael W. Deem and Ramdas Pophale) SiO2 
 PCOD9396526
Probable space group: P B A N
;
_chemical_formula_sum "Si O2"
_cell_formula_units_Z 58
_cell_length_a 8.463119
_cell_length_b 23.533914
_cell_length_c 13.762747
_cell_angle_alpha 90.000000
_cell_angle_beta 90.000000
_cell_angle_gamma 90.000000
_cell_volume 2741.130651
_symmetry_space_group_name_H-M "P B A N"
_symmetry_group_IT_number 50
_space_group.IT_coordinate_system_code '2'
_symmetry_cell_setting 'orthorhombic'
loop_
_space_group_symop_operation_xyz
x,y,z
1/2-x,1/2-y,z
x,1/2-y,-z
1/2-x,y,-z
-x,-y,-z
1/2+x,1/2+y,-z
-x,1/2+y,z
1/2+x,-y,z
loop_
_atom_site_type_symbol
_atom_site_label
_atom_site_fract_x
_atom_site_fract_y
_atom_site_fract_z
Si Si1 0.250000 0.750000 0.500000
Si Si2 0.422925 0.093284 0.456980
Si Si3 0.231493 0.182758 0.685542
Si Si4 0.674640 0.603814 0.146182
Si Si5 0.917276 0.345899 0.622847
Si Si6 0.504084 0.021685 0.282844
Si Si7 0.178995 0.920852 0.782280
Si Si8 0.991390 0.566815 0.032199
O O1 0.146869 0.709911 0.430031
O O2 0.250000 0.078818 0.500000
O O3 0.385226 0.149572 0.389486
O O4 0.553271 0.109234 0.536411
O O5 0.488374 0.042499 0.392000
O O6 0.250000 0.250000 0.673336
O O7 0.189465 0.162036 0.794276
O O8 0.407383 0.161425 0.664165
O O9 0.628791 0.557179 0.225550
O O10 0.833642 0.582512 0.093619
O O11 0.536059 0.602370 0.065894
O O12 0.810890 0.365893 0.713505
O O13 0.665626 0.042914 0.236691
O O14 0.465578 0.956728 0.264639
O O15 0.134450 0.917523 0.895646
O O16 0.000000 0.500000 0.000000
#
# Coordination Sequence:
#
# PCOD9396526 Si02
#       8
#     2   8   8   8   8   8   8   8
#     4  12  24  40  62  88 128 182 224 278 306 396
#     4   9  21  40  63  91 129 170 215 267 319 390
#     4  10  20  39  68  96 123 165 217 275 323 373
#     4  10  22  40  63  94 129 159 215 262 319 392
#     4  11  23  41  63  91 129 169 223 265 321 374
#     4  11  24  39  60  94 133 170 210 258 330 390
#     4  12  25  39  63  95 132 171 209 265 323 393
#     4  11  22  38  66  91 124 164 205 260 320 391
#
# _framework density 21.159151999999999
#
# number of rings (size 3 to 8) (size 9 to 14) (size 15 to 20)
#    0.000    1.379    2.759    2.483    5.793    4.138 
#    1.241    1.379    0.000    0.000    0.000    0.000 
#    0.000    0.000    0.000    0.000    0.000    0.000 
#
# Total GULP energy -323991.299196 kJ/mol
# GULP energy per Si atom -5586.056883 kJ/mol
# Density = 2.111099 g / cm^3
# Si number density = 21.159152 Si / 1000 Ang^3
#
#
#
# Elastic Constant Matrix: (Units=GPa)
#
#
# Indices 1 2 3 4 5 6 
#
# 1 49.3927 -13.5094 -1.0775 0.0000 0.0000 0.0000
# 2 -13.5094 38.8049 9.5428 0.0000 0.0000 0.0000
# 3 -1.0775 9.5428 96.9835 0.0000 0.0000 0.0000
# 4 0.0000 0.0000 0.0000 25.0131 0.0000 0.0000
# 5 0.0000 0.0000 0.0000 0.0000 27.5939 0.0000
# 6 0.0000 0.0000 0.0000 0.0000 0.0000 24.4744
#
#
#
# Elastic Compliance Matrix: (Units=1/GPa)
#
#
# Indices 1 2 3 4 5 6 
#
# 1 0.022403 0.007930 -0.000531 0.000000 0.000000 0.000000
# 2 0.007930 0.029216 -0.002787 0.000000 0.000000 0.000000
# 3 -0.000531 -0.002787 0.010579 0.000000 0.000000 0.000000
# 4 0.000000 0.000000 0.000000 0.039979 0.000000 0.000000
# 5 0.000000 0.000000 0.000000 0.000000 0.036240 0.000000
# 6 0.000000 0.000000 0.000000 0.000000 0.000000 0.040859
#
#
# Mechanical properties :
#
#
# Convention : Reuss Voigt Hill
#
# Bulk Modulus (GPa) = 14.00117 19.45478 16.72797
# Shear Modulus (GPa) = 25.79181 28.09796 26.94488
#
# Velocity S-wave (km/s) = 3.49512 3.64804 3.57240
# Velocity P-wave (km/s) = 4.78741 5.19217 4.99390
#
# Compressibility (1/GPa) = 0.07142261
#
# Stress axis : x y z
#
# Youngs Moduli (GPa) = 44.63635 34.22785 94.52399
#
# Poissons Ratio (x) = -0.27143 0.05023
# Poissons Ratio (y) = -0.35397 0.26340
# Poissons Ratio (z) = 0.02372 0.09538
#
# Static dielectric constant tensor:
#      x y z
#    x 1.832380 0.000000 0.000000 
#    y 0.000000 1.778490 0.000000 
#    z 0.000000 0.000000 2.005300 
# 
# From -- ./inp_files/25380.got.cif
#   From: 2010.05.17/outbox.cif.g08.bks.cpg/sg50_13_cif.got.tgz:25380.got - 2010.06.03 11:33:33.
