data_PCOD9396248
_publ_section_title
;
Structure prediction by ZEFSAII (Michael W. Deem and Ramdas Pophale) SiO2 
 PCOD9396248
Probable space group: P B A N
;
_chemical_formula_sum "Si O2"
_cell_formula_units_Z 40
_cell_length_a 8.738948
_cell_length_b 25.504192
_cell_length_c 7.579043
_cell_angle_alpha 90.000000
_cell_angle_beta 90.000000
_cell_angle_gamma 90.000000
_cell_volume 1689.215646
_symmetry_space_group_name_H-M "P B A N"
_symmetry_group_IT_number 50
_space_group.IT_coordinate_system_code '2'
_symmetry_cell_setting 'orthorhombic'
loop_
_space_group_symop_operation_xyz
x,y,z
1/2-x,1/2-y,z
x,1/2-y,-z
1/2-x,y,-z
-x,-y,-z
1/2+x,1/2+y,-z
-x,1/2+y,z
1/2+x,-y,z
loop_
_atom_site_type_symbol
_atom_site_label
_atom_site_fract_x
_atom_site_fract_y
_atom_site_fract_z
Si Si1 0.859921 0.059752 0.668164
Si Si2 0.059470 0.977240 0.814412
Si Si3 0.415143 0.135608 0.797594
Si Si4 0.923378 0.241648 0.214816
Si Si5 0.427396 0.152279 0.222705
O O1 0.750000 0.062997 0.500000
O O2 0.738765 0.034963 0.805937
O O3 0.934844 0.115353 0.713751
O O4 0.004840 0.021024 0.675976
O O5 0.981757 0.921806 0.769579
O O6 0.000000 0.000000 0.000000
O O7 0.515679 0.184565 0.732560
O O8 0.244140 0.137849 0.722036
O O9 0.418745 0.144650 0.010006
O O10 0.750000 0.250000 0.274500
O O11 0.033768 0.288390 0.274189
O O12 0.922061 0.250000 0.000000
#
# Coordination Sequence:
#
# PCOD9396248 Si02
#       5
#     8   8   8   8   8
#     4  12  26  43  63  94 136 181 223 278 348 420
#     4  12  24  40  66  92 127 170 228 281 336 402
#     4  10  20  35  61  95 126 167 217 287 333 393
#     4   9  17  31  56  92 131 163 207 275 345 393
#     4  10  20  36  60  92 132 168 216 271 345 402
#
# _framework density 23.679632000000002
#
# number of rings (size 3 to 8) (size 9 to 14) (size 15 to 20)
#    0.000    1.400    2.000    4.200    2.800    4.000 
#    0.000    0.000    0.000    5.400    0.000    5.600 
#    0.000    0.000    0.000    0.000    0.000    0.000 
#
# Total GULP energy -223631.599047 kJ/mol
# GULP energy per Si atom -5590.789976 kJ/mol
# Density = 2.362574 g / cm^3
# Si number density = 23.679632 Si / 1000 Ang^3
#
#
#
# Elastic Constant Matrix: (Units=GPa)
#
#
# Indices 1 2 3 4 5 6 
#
# 1 153.1457 53.0283 9.1049 0.0000 0.0000 0.0000
# 2 53.0283 155.0634 -4.1744 0.0000 0.0000 0.0000
# 3 9.1049 -4.1744 79.1147 0.0000 0.0000 0.0000
# 4 0.0000 0.0000 0.0000 -89.1615 0.0000 0.0000
# 5 0.0000 0.0000 0.0000 0.0000 21.9932 0.0000
# 6 0.0000 0.0000 0.0000 0.0000 0.0000 56.9993
#
#
#
# Elastic Compliance Matrix: (Units=1/GPa)
#
#
# Indices 1 2 3 4 5 6 
#
# 1 0.007485 -0.002586 -0.000998 0.000000 0.000000 0.000000
# 2 -0.002586 0.007352 0.000686 0.000000 0.000000 0.000000
# 3 -0.000998 0.000686 0.012791 0.000000 0.000000 0.000000
# 4 0.000000 0.000000 0.000000 -0.011216 0.000000 0.000000
# 5 0.000000 0.000000 0.000000 0.000000 0.045469 0.000000
# 6 0.000000 0.000000 0.000000 0.000000 0.000000 0.017544
#
#
# Mechanical properties :
#
#
# Convention : Reuss Voigt Hill
#
# Bulk Modulus (GPa) = 45.80845 55.91573 50.86209
# Shear Modulus (GPa) = 54.05488 19.92388 36.98938
#
# Velocity S-wave (km/s) = 4.78301 2.90382 3.95660
# Velocity P-wave (km/s) = 7.06328 5.90827 6.51143
#
# Compressibility (1/GPa) = 0.02183004
#
# Stress axis : x y z
#
# Youngs Moduli (GPa) = 133.60703 136.01859 78.18071
#
# Poissons Ratio (x) = 0.35180 0.07801
# Poissons Ratio (y) = 0.34557 -0.05360
# Poissons Ratio (z) = 0.13332 -0.09325
#
# Static dielectric constant tensor:
#      x y z
#    x 1.862430 0.000000 0.000000 
#    y 0.000000 1.841610 0.000000 
#    z 0.000000 0.000000 2.007140 
# 
# From -- ./inp_files/9559.got.cif
#   From: 2010.05.17/outbox.cif.g08.bks.cpg/sg50_5_cif.got.tgz:9559.got - 2010.06.03 11:33:33.
