data_PCOD9396408
_publ_section_title
;
Structure prediction by ZEFSAII (Michael W. Deem and Ramdas Pophale) SiO2 
 PCOD9396408
Probable space group: P B A N
;
_chemical_formula_sum "Si O2"
_cell_formula_units_Z 42
_cell_length_a 24.236282
_cell_length_b 18.110660
_cell_length_c 4.965587
_cell_angle_alpha 90.000000
_cell_angle_beta 90.000000
_cell_angle_gamma 90.000000
_cell_volume 2179.570243
_symmetry_space_group_name_H-M "P B A N"
_symmetry_group_IT_number 50
_space_group.IT_coordinate_system_code '2'
_symmetry_cell_setting 'orthorhombic'
loop_
_space_group_symop_operation_xyz
x,y,z
1/2-x,1/2-y,z
x,1/2-y,-z
1/2-x,y,-z
-x,-y,-z
1/2+x,1/2+y,-z
-x,1/2+y,z
1/2+x,-y,z
loop_
_atom_site_type_symbol
_atom_site_label
_atom_site_fract_x
_atom_site_fract_y
_atom_site_fract_z
Si Si1 0.750000 0.250000 0.000000
Si Si2 0.018700 0.250000 0.500000
Si Si3 0.942166 0.250000 0.000000
Si Si4 0.815961 0.027921 0.522369
Si Si5 0.149777 0.819460 0.697504
Si Si6 0.184544 0.065305 0.986021
Si Si7 0.378164 0.299579 0.262475
O O1 0.791163 0.301471 0.831609
O O2 0.980650 0.270901 0.250214
O O3 0.062087 0.187196 0.400593
O O4 0.900194 0.185744 0.092030
O O5 0.750000 0.039625 0.500000
O O6 0.846397 0.102417 0.443836
O O7 0.826724 0.005376 0.827429
O O8 0.829382 0.960128 0.317078
O O9 0.140354 0.750000 0.500000
O O10 0.153460 0.131679 0.135511
O O11 0.250000 0.081565 0.000000
O O12 0.348948 0.250000 0.500000
O O13 0.388816 0.250000 0.000000
#
# Coordination Sequence:
#
# PCOD9396408 Si02
#       7
#     2   4   4   8   8   8   8
#     4  10  22  32  56  90 120 154 208 246 286 358
#     4  10  20  40  62  88 112 150 208 258 318 348
#     4  11  22  37  62  92 111 152 209 272 296 348
#     4  10  22  36  57  81 129 170 191 234 297 369
#     4  11  23  36  59  88 124 158 210 251 298 348
#     4  10  22  38  57  91 124 159 196 234 300 372
#     4  10  20  37  67  89 112 158 196 254 301 360
#
# _framework density 19.269853999999999
#
# number of rings (size 3 to 8) (size 9 to 14) (size 15 to 20)
#    0.571    1.143    1.905    2.571    9.333    0.381 
#    0.000    0.952    0.000    6.857    0.000    0.000 
#    0.000    0.000    0.000    0.000    0.000    0.000 
#
# Total GULP energy -234083.873671 kJ/mol
# GULP energy per Si atom -5573.425564 kJ/mol
# Density = 1.922600 g / cm^3
# Si number density = 19.269854 Si / 1000 Ang^3
#
#
#
# Elastic Constant Matrix: (Units=GPa)
#
#
# Indices 1 2 3 4 5 6 
#
# 1 98.7493 48.1033 42.3344 0.0000 0.0000 0.0000
# 2 48.1033 69.4279 19.9151 0.0000 0.0000 0.0000
# 3 42.3344 19.9151 106.8461 0.0000 0.0000 0.0000
# 4 0.0000 0.0000 0.0000 23.3085 0.0000 0.0000
# 5 0.0000 0.0000 0.0000 0.0000 26.3353 0.0000
# 6 0.0000 0.0000 0.0000 0.0000 0.0000 -9.0521
#
#
#
# Elastic Compliance Matrix: (Units=1/GPa)
#
#
# Indices 1 2 3 4 5 6 
#
# 1 0.017431 -0.010666 -0.004918 0.000000 0.000000 0.000000
# 2 -0.010666 0.021744 0.000173 0.000000 0.000000 0.000000
# 3 -0.004918 0.000173 0.011276 0.000000 0.000000 0.000000
# 4 0.000000 0.000000 0.000000 0.042903 0.000000 0.000000
# 5 0.000000 0.000000 0.000000 0.000000 0.037972 0.000000
# 6 0.000000 0.000000 0.000000 0.000000 0.000000 -0.110472
#
#
# Mechanical properties :
#
#
# Convention : Reuss Voigt Hill
#
# Bulk Modulus (GPa) = 50.94793 55.08097 53.01445
# Shear Modulus (GPa) = 85.88268 19.09639 52.48953
#
# Velocity S-wave (km/s) = 6.68320 3.15143 5.22478
# Velocity P-wave (km/s) = 9.27632 6.47210 7.99807
#
# Compressibility (1/GPa) = 0.01962788
#
# Stress axis : x y z
#
# Youngs Moduli (GPa) = 57.36902 45.99000 88.68628
#
# Poissons Ratio (x) = 0.49054 0.43619
# Poissons Ratio (y) = 0.61191 -0.01537
# Poissons Ratio (z) = 0.28216 -0.00797
#
# Static dielectric constant tensor:
#      x y z
#    x 1.681790 0.000000 0.000000 
#    y 0.000000 1.672770 0.000000 
#    z 0.000000 0.000000 1.718910 
# 
# From -- ./inp_files/5980.got.cif
#   From: 2010.05.17/outbox.cif.g08.bks.cpg/sg50_3_cif.got.tgz:5980.got - 2010.06.03 11:33:33.
