data_PCOD9396984
_publ_section_title
;
Structure prediction by ZEFSAII (Michael W. Deem and Ramdas Pophale) SiO2 
 PCOD9396984
Probable space group: P B A N
;
_chemical_formula_sum "Si O2"
_cell_formula_units_Z 26
_cell_length_a 5.442427
_cell_length_b 13.068395
_cell_length_c 15.504921
_cell_angle_alpha 90.000000
_cell_angle_beta 90.000000
_cell_angle_gamma 90.000000
_cell_volume 1102.768680
_symmetry_space_group_name_H-M "P B A N"
_symmetry_group_IT_number 50
_space_group.IT_coordinate_system_code '2'
_symmetry_cell_setting 'orthorhombic'
loop_
_space_group_symop_operation_xyz
x,y,z
1/2-x,1/2-y,z
x,1/2-y,-z
1/2-x,y,-z
-x,-y,-z
1/2+x,1/2+y,-z
-x,1/2+y,z
1/2+x,-y,z
loop_
_atom_site_type_symbol
_atom_site_label
_atom_site_fract_x
_atom_site_fract_y
_atom_site_fract_z
Si Si1 0.001571 0.458666 0.402017
Si Si2 0.959746 0.064473 0.890801
Si Si3 0.497496 0.190811 0.274307
Si Si4 0.250000 0.750000 0.000000
O O1 0.743499 0.491707 0.363514
O O2 0.000000 0.500000 0.500000
O O3 0.023725 0.341528 0.375115
O O4 0.980444 0.096347 0.790921
O O5 0.715313 0.995729 0.907870
O O6 0.914685 0.171571 0.942522
O O7 0.250000 0.250000 0.250720
O O8 0.750000 0.250000 0.263161
#
# Coordination Sequence:
#
# PCOD9396984 Si02
#       4
#     8   8   8   2
#     4  10  21  41  65  94 136 181 235 295 362 431
#     4  12  27  48  76 108 150 200 236 308 380 432
#     4  12  24  44  71 104 142 189 249 304 360 448
#     4  12  28  50  76 116 156 180 272 298 364 472
#
# _framework density 23.577020999999998
#
# number of rings (size 3 to 8) (size 9 to 14) (size 15 to 20)
#    0.000    0.615    1.538    6.462    0.000    1.231 
#    0.000   18.462    0.000    0.000    0.000    0.000 
#    0.000    0.000    0.000    0.000    0.000    0.000 
#
# Total GULP energy -145042.854714 kJ/mol
# GULP energy per Si atom -5578.571335 kJ/mol
# Density = 2.352336 g / cm^3
# Si number density = 23.577021 Si / 1000 Ang^3
#
#
#
# Elastic Constant Matrix: (Units=GPa)
#
#
# Indices 1 2 3 4 5 6 
#
# 1 226.4022 75.5752 44.9220 0.0000 0.0000 0.0000
# 2 75.5752 100.5018 62.2570 0.0000 0.0000 0.0000
# 3 44.9220 62.2570 140.4239 0.0000 0.0000 0.0000
# 4 0.0000 0.0000 0.0000 69.9026 0.0000 0.0000
# 5 0.0000 0.0000 0.0000 0.0000 4.1867 0.0000
# 6 0.0000 0.0000 0.0000 0.0000 0.0000 43.7640
#
#
#
# Elastic Compliance Matrix: (Units=1/GPa)
#
#
# Indices 1 2 3 4 5 6 
#
# 1 0.005898 -0.004503 0.000110 0.000000 0.000000 0.000000
# 2 -0.004503 0.017156 -0.006165 0.000000 0.000000 0.000000
# 3 0.000110 -0.006165 0.009820 0.000000 0.000000 0.000000
# 4 0.000000 0.000000 0.000000 0.014306 0.000000 0.000000
# 5 0.000000 0.000000 0.000000 0.000000 0.238850 0.000000
# 6 0.000000 0.000000 0.000000 0.000000 0.000000 0.022850
#
#
# Mechanical properties :
#
#
# Convention : Reuss Voigt Hill
#
# Bulk Modulus (GPa) = 85.06593 92.53738 88.80165
# Shear Modulus (GPa) = 14.97384 42.54225 28.75804
#
# Velocity S-wave (km/s) = 2.52286 4.25242 3.49628
# Velocity P-wave (km/s) = 6.68167 7.96524 7.35152
#
# Compressibility (1/GPa) = 0.01175559
#
# Stress axis : x y z
#
# Youngs Moduli (GPa) = 169.53601 58.28946 101.83692
#
# Poissons Ratio (x) = 0.26250 -0.01117
# Poissons Ratio (y) = 0.76350 0.62786
# Poissons Ratio (z) = -0.01859 0.35937
#
# Static dielectric constant tensor:
#      x y z
#    x 1.789100 0.000000 0.000000 
#    y 0.000000 1.966240 0.000000 
#    z 0.000000 0.000000 1.818500 
# 
# From -- ./inp_files/23580.got.cif
#   From: 2010.05.17/outbox.cif.g08.bks.cpg/sg50_12_cif.got.tgz:23580.got - 2010.06.03 11:33:33.
