data_PCOD9396918
_publ_section_title
;
Structure prediction by ZEFSAII (Michael W. Deem and Ramdas Pophale) SiO2 
 PCOD9396918
Probable space group: P B A N
;
_chemical_formula_sum "Si O2"
_cell_formula_units_Z 32
_cell_length_a 27.843658
_cell_length_b 5.788987
_cell_length_c 9.292408
_cell_angle_alpha 90.000000
_cell_angle_beta 90.000000
_cell_angle_gamma 90.000000
_cell_volume 1497.811412
_symmetry_space_group_name_H-M "P B A N"
_symmetry_group_IT_number 50
_space_group.IT_coordinate_system_code '2'
_symmetry_cell_setting 'orthorhombic'
loop_
_space_group_symop_operation_xyz
x,y,z
1/2-x,1/2-y,z
x,1/2-y,-z
1/2-x,y,-z
-x,-y,-z
1/2+x,1/2+y,-z
-x,1/2+y,z
1/2+x,-y,z
loop_
_atom_site_type_symbol
_atom_site_label
_atom_site_fract_x
_atom_site_fract_y
_atom_site_fract_z
Si Si1 0.683728 0.250000 0.000000
Si Si2 0.630449 0.959144 0.251829
Si Si3 0.706372 0.926867 0.747489
Si Si4 0.676894 0.250000 0.500000
Si Si5 0.555049 0.998169 0.054674
O O1 0.710025 0.426780 0.106990
O O2 0.655316 0.090915 0.116197
O O3 0.655567 0.709285 0.253809
O O4 0.645246 0.087694 0.396823
O O5 0.573685 0.979906 0.218646
O O6 0.750000 0.750000 0.738480
O O7 0.706263 0.091454 0.609763
O O8 0.571677 0.250000 0.000000
O O9 0.575132 0.750000 0.000000
O O10 0.500000 0.000000 0.000000
#
# Coordination Sequence:
#
# PCOD9396918 Si02
#       5
#     4   8   8   4   8
#     4  10  22  39  64  94 128 166 222 288 335 410
#     4  11  22  40  66  97 133 180 225 283 353 417
#     4  11  25  43  64  94 134 183 234 288 349 414
#     4  10  26  43  64  92 136 186 242 284 341 434
#     4  10  21  39  69 106 136 172 228 293 365 433
#
# _framework density 21.364507
#
# number of rings (size 3 to 8) (size 9 to 14) (size 15 to 20)
#    0.000    1.500    1.250    3.000    3.500   10.000 
#    0.000    3.750    0.000    6.000    0.000    0.000 
#    0.000    0.000    0.000    0.000    0.000    0.000 
#
# Total GULP energy -178464.600880 kJ/mol
# GULP energy per Si atom -5577.018778 kJ/mol
# Density = 2.131588 g / cm^3
# Si number density = 21.364507 Si / 1000 Ang^3
#
#
#
# Elastic Constant Matrix: (Units=GPa)
#
#
# Indices 1 2 3 4 5 6 
#
# 1 97.8259 37.0980 57.5580 0.0000 0.0000 0.0000
# 2 37.0980 151.8190 61.7533 0.0000 0.0000 0.0000
# 3 57.5580 61.7533 174.1360 0.0000 0.0000 0.0000
# 4 0.0000 0.0000 0.0000 23.1582 0.0000 0.0000
# 5 0.0000 0.0000 0.0000 0.0000 31.0018 0.0000
# 6 0.0000 0.0000 0.0000 0.0000 0.0000 -5.1563
#
#
#
# Elastic Compliance Matrix: (Units=1/GPa)
#
#
# Indices 1 2 3 4 5 6 
#
# 1 0.013045 -0.001675 -0.003718 0.000000 0.000000 0.000000
# 2 -0.001675 0.007912 -0.002252 0.000000 0.000000 0.000000
# 3 -0.003718 -0.002252 0.007770 0.000000 0.000000 0.000000
# 4 0.000000 0.000000 0.000000 0.043181 0.000000 0.000000
# 5 0.000000 0.000000 0.000000 0.000000 0.032256 0.000000
# 6 0.000000 0.000000 0.000000 0.000000 0.000000 -0.193939
#
#
# Mechanical properties :
#
#
# Convention : Reuss Voigt Hill
#
# Bulk Modulus (GPa) = 74.42182 81.84440 78.13311
# Shear Modulus (GPa) = -71.42390 27.62553 -21.89918
#
# Velocity S-wave (km/s) = -5.78824 3.59981 -3.20508
# Velocity P-wave (km/s) = 3.12436 7.46123 4.79105
#
# Compressibility (1/GPa) = 0.01343692
#
# Stress axis : x y z
#
# Youngs Moduli (GPa) = 76.65786 126.38621 128.69826
#
# Poissons Ratio (x) = 0.21175 0.47846
# Poissons Ratio (y) = 0.12844 0.28984
# Poissons Ratio (z) = 0.28499 0.28464
#
# Static dielectric constant tensor:
#      x y z
#    x 1.978270 0.000000 0.000000 
#    y 0.000000 1.811670 0.000000 
#    z 0.000000 0.000000 1.735860 
# 
# From -- ./inp_files/8017.got.cif
#   From: 2010.05.17/outbox.cif.g08.bks.cpg/sg50_5_cif.got.tgz:8017.got - 2010.06.03 11:33:33.
