data_PCOD9396125
_publ_section_title
;
Structure prediction by ZEFSAII (Michael W. Deem and Ramdas Pophale) SiO2 
 PCOD9396125
Probable space group: P B A N
;
_chemical_formula_sum "Si O2"
_cell_formula_units_Z 56
_cell_length_a 15.810395
_cell_length_b 9.287790
_cell_length_c 17.178905
_cell_angle_alpha 90.000000
_cell_angle_beta 90.000000
_cell_angle_gamma 90.000000
_cell_volume 2522.612745
_symmetry_space_group_name_H-M "P B A N"
_symmetry_group_IT_number 50
_space_group.IT_coordinate_system_code '2'
_symmetry_cell_setting 'orthorhombic'
loop_
_space_group_symop_operation_xyz
x,y,z
1/2-x,1/2-y,z
x,1/2-y,-z
1/2-x,y,-z
-x,-y,-z
1/2+x,1/2+y,-z
-x,1/2+y,z
1/2+x,-y,z
loop_
_atom_site_type_symbol
_atom_site_label
_atom_site_fract_x
_atom_site_fract_y
_atom_site_fract_z
Si Si1 0.840734 0.040928 0.675400
Si Si2 0.353321 0.917377 0.505280
Si Si3 0.899978 0.784670 0.758544
Si Si4 0.411945 0.837083 0.072922
Si Si5 0.596098 0.306266 0.244795
Si Si6 0.403139 0.316934 0.923684
Si Si7 0.852029 0.552590 0.654674
O O1 0.879816 0.022922 0.589371
O O2 0.850517 0.206748 0.698283
O O3 0.882663 0.952669 0.745818
O O4 0.743883 0.996660 0.667161
O O5 0.379285 0.750000 0.500000
O O6 0.250000 0.918549 0.500000
O O7 0.381544 0.010270 0.431252
O O8 0.864455 0.721151 0.839337
O O9 0.859662 0.715546 0.681439
O O10 0.999512 0.755056 0.755559
O O11 0.370841 0.806789 0.156717
O O12 0.506854 0.769567 0.078921
O O13 0.414941 0.011024 0.064928
O O14 0.373312 0.750000 0.000000
O O15 0.595742 0.464510 0.281027
O O16 0.359022 0.250000 0.000000
#
# Coordination Sequence:
#
# PCOD9396125 Si02
#       7
#     8   8   8   8   8   8   8
#     4  11  23  38  65  87 113 166 200 244 297 352
#     4   9  18  36  61  86 112 154 209 246 280 352
#     4  11  24  38  58  93 126 149 193 252 308 346
#     4  10  20  33  57  87 119 156 201 246 289 351
#     4  11  22  38  62  90 120 155 199 246 298 351
#     4  10  20  34  57  85 120 158 198 245 291 354
#     4  11  21  42  62  86 120 155 205 244 289 366
#
# _framework density 22.199206
#
# number of rings (size 3 to 8) (size 9 to 14) (size 15 to 20)
#    0.000    1.571    2.857    3.429    8.000    0.571 
#    0.000    6.429    0.000    5.143    0.000    0.000 
#    0.000    0.000    0.000    0.000    0.000    0.000 
#
# Total GULP energy -312526.106613 kJ/mol
# GULP energy per Si atom -5580.823332 kJ/mol
# Density = 2.214868 g / cm^3
# Si number density = 22.199206 Si / 1000 Ang^3
#
#
#
# Elastic Constant Matrix: (Units=GPa)
#
#
# Indices 1 2 3 4 5 6 
#
# 1 31.2823 5.1288 6.8425 0.0000 0.0000 0.0000
# 2 5.1288 95.6122 36.3154 0.0000 0.0000 0.0000
# 3 6.8425 36.3154 169.2450 0.0000 0.0000 0.0000
# 4 0.0000 0.0000 0.0000 39.8357 0.0000 0.0000
# 5 0.0000 0.0000 0.0000 0.0000 17.1881 0.0000
# 6 0.0000 0.0000 0.0000 0.0000 0.0000 26.5422
#
#
#
# Elastic Compliance Matrix: (Units=1/GPa)
#
#
# Indices 1 2 3 4 5 6 
#
# 1 0.032412 -0.001351 -0.001020 0.000000 0.000000 0.000000
# 2 -0.001351 0.011443 -0.002401 0.000000 0.000000 0.000000
# 3 -0.001020 -0.002401 0.006465 0.000000 0.000000 0.000000
# 4 0.000000 0.000000 0.000000 0.025103 0.000000 0.000000
# 5 0.000000 0.000000 0.000000 0.000000 0.058180 0.000000
# 6 0.000000 0.000000 0.000000 0.000000 0.000000 0.037676
#
#
# Mechanical properties :
#
#
# Convention : Reuss Voigt Hill
#
# Bulk Modulus (GPa) = 24.52462 43.63476 34.07969
# Shear Modulus (GPa) = 25.71817 33.23672 29.47744
#
# Velocity S-wave (km/s) = 3.40739 3.87357 3.64794
# Velocity P-wave (km/s) = 5.15286 6.30117 5.75572
#
# Compressibility (1/GPa) = 0.04077535
#
# Stress axis : x y z
#
# Youngs Moduli (GPa) = 30.85307 87.38766 154.67908
#
# Poissons Ratio (x) = 0.11806 0.15785
# Poissons Ratio (y) = 0.04168 0.37135
# Poissons Ratio (z) = 0.03149 0.20980
#
# Static dielectric constant tensor:
#      x y z
#    x 1.825740 0.000000 0.000000 
#    y 0.000000 1.762330 0.000000 
#    z 0.000000 0.000000 1.880890 
# 
# From -- ./inp_files/27270.got.cif
#   From: 2010.05.17/outbox.cif.g08.bks.cpg/sg50_14_cif.got.tgz:27270.got - 2010.06.03 11:33:33.
