data_PCOD9396451
_publ_section_title
;
Structure prediction by ZEFSAII (Michael W. Deem and Ramdas Pophale) SiO2 
 PCOD9396451
Probable space group: P B A N
;
_chemical_formula_sum "Si O2"
_cell_formula_units_Z 30
_cell_length_a 5.615260
_cell_length_b 21.525077
_cell_length_c 10.827187
_cell_angle_alpha 90.000000
_cell_angle_beta 90.000000
_cell_angle_gamma 90.000000
_cell_volume 1308.670225
_symmetry_space_group_name_H-M "P B A N"
_symmetry_group_IT_number 50
_space_group.IT_coordinate_system_code '2'
_symmetry_cell_setting 'orthorhombic'
loop_
_space_group_symop_operation_xyz
x,y,z
1/2-x,1/2-y,z
x,1/2-y,-z
1/2-x,y,-z
-x,-y,-z
1/2+x,1/2+y,-z
-x,1/2+y,z
1/2+x,-y,z
loop_
_atom_site_type_symbol
_atom_site_label
_atom_site_fract_x
_atom_site_fract_y
_atom_site_fract_z
Si Si1 0.250000 0.557586 0.000000
Si Si2 0.558300 0.853974 0.824623
Si Si3 0.208927 0.479702 0.239797
Si Si4 0.250000 0.250000 0.000000
Si Si5 0.504685 0.321748 0.547432
O O1 0.395985 0.604430 0.086771
O O2 0.150647 0.512382 0.107064
O O3 0.752698 0.906450 0.784656
O O4 0.475800 0.826831 0.694510
O O5 0.617255 0.795989 0.908561
O O6 0.445147 0.510131 0.300019
O O7 0.503614 0.250000 0.500000
O O8 0.250000 0.347971 0.500000
O O9 0.750000 0.351468 0.500000
#
# Coordination Sequence:
#
# PCOD9396451 Si02
#       5
#     4   8   8   2   8
#     4  10  21  39  64  95 127 166 208 268 340 386
#     4  11  23  38  65  96 134 170 213 270 329 395
#     4  10  20  38  62  91 125 163 204 255 326 388
#     4  12  22  34  58 104 138 162 208 270 344 402
#     4  10  23  43  63  85 123 178 223 255 304 377
#
# _framework density 22.924033000000001
#
# number of rings (size 3 to 8) (size 9 to 14) (size 15 to 20)
#    0.000    1.600    0.000    7.200    0.000   11.200 
#    0.000    0.000    0.000   19.200    0.000    0.000 
#    0.000    0.000    0.000    0.000    0.000    0.000 
#
# Total GULP energy -167016.969954 kJ/mol
# GULP energy per Si atom -5567.232332 kJ/mol
# Density = 2.287186 g / cm^3
# Si number density = 22.924033 Si / 1000 Ang^3
#
#
#
# Elastic Constant Matrix: (Units=GPa)
#
#
# Indices 1 2 3 4 5 6 
#
# 1 148.0475 15.3437 43.6979 0.0000 0.0000 0.0000
# 2 15.3437 144.1561 57.8583 0.0000 0.0000 0.0000
# 3 43.6979 57.8583 141.9867 0.0000 0.0000 0.0000
# 4 0.0000 0.0000 0.0000 72.6225 0.0000 0.0000
# 5 0.0000 0.0000 0.0000 0.0000 37.9000 0.0000
# 6 0.0000 0.0000 0.0000 0.0000 0.0000 17.3836
#
#
#
# Elastic Compliance Matrix: (Units=1/GPa)
#
#
# Indices 1 2 3 4 5 6 
#
# 1 0.007432 0.000152 -0.002349 0.000000 0.000000 0.000000
# 2 0.000152 0.008296 -0.003427 0.000000 0.000000 0.000000
# 3 -0.002349 -0.003427 0.009163 0.000000 0.000000 0.000000
# 4 0.000000 0.000000 0.000000 0.013770 0.000000 0.000000
# 5 0.000000 0.000000 0.000000 0.000000 0.026385 0.000000
# 6 0.000000 0.000000 0.000000 0.000000 0.000000 0.057525
#
#
# Mechanical properties :
#
#
# Convention : Reuss Voigt Hill
#
# Bulk Modulus (GPa) = 73.30557 74.22113 73.76335
# Shear Modulus (GPa) = 36.13538 46.73392 41.43465
#
# Velocity S-wave (km/s) = 3.97458 4.52003 4.25605
# Velocity P-wave (km/s) = 7.28767 7.72581 7.50994
#
# Compressibility (1/GPa) = 0.01364153
#
# Stress axis : x y z
#
# Youngs Moduli (GPa) = 134.54877 120.53429 109.13993
#
# Poissons Ratio (x) = -0.01830 0.25639
# Poissons Ratio (y) = -0.02042 0.37407
# Poissons Ratio (z) = 0.31608 0.41312
#
# Static dielectric constant tensor:
#      x y z
#    x 2.108460 0.000000 0.000000 
#    y 0.000000 2.041670 0.000000 
#    z 0.000000 0.000000 1.787230 
# 
# From -- ./inp_files/17508.got.cif
#   From: 2010.05.17/outbox.cif.g08.bks.cpg/sg50_9_cif.got.tgz:17508.got - 2010.06.03 11:33:33.
