data_PCOD9396188
_publ_section_title
;
Structure prediction by ZEFSAII (Michael W. Deem and Ramdas Pophale) SiO2 
 PCOD9396188
Probable space group: P B A N
;
_chemical_formula_sum "Si O2"
_cell_formula_units_Z 40
_cell_length_a 17.006026
_cell_length_b 14.039619
_cell_length_c 7.577603
_cell_angle_alpha 90.000000
_cell_angle_beta 90.000000
_cell_angle_gamma 90.000000
_cell_volume 1809.214290
_symmetry_space_group_name_H-M "P B A N"
_symmetry_group_IT_number 50
_space_group.IT_coordinate_system_code '2'
_symmetry_cell_setting 'orthorhombic'
loop_
_space_group_symop_operation_xyz
x,y,z
1/2-x,1/2-y,z
x,1/2-y,-z
1/2-x,y,-z
-x,-y,-z
1/2+x,1/2+y,-z
-x,1/2+y,z
1/2+x,-y,z
loop_
_atom_site_type_symbol
_atom_site_label
_atom_site_fract_x
_atom_site_fract_y
_atom_site_fract_z
Si Si1 0.664143 0.412762 0.556839
Si Si2 0.332572 0.131586 0.586569
Si Si3 0.570908 0.728756 0.274613
Si Si4 0.451676 0.906278 0.846028
Si Si5 0.544084 0.404742 0.239372
O O1 0.750000 0.375549 0.500000
O O2 0.673825 0.520805 0.627373
O O3 0.611405 0.364090 0.708436
O O4 0.609623 0.420394 0.385371
O O5 0.250000 0.154260 0.500000
O O6 0.355302 0.200626 0.748044
O O7 0.398710 0.161007 0.437787
O O8 0.532468 0.654718 0.141353
O O9 0.500656 0.806959 0.286653
O O10 0.481367 0.008333 0.772176
O O11 0.419645 0.906084 0.043331
#
# Coordination Sequence:
#
# PCOD9396188 Si02
#       5
#     8   8   8   8   8
#     4  11  22  41  65  89 126 168 201 250 313 365
#     4  10  20  34  61  97 130 160 198 250 313 382
#     4  11  19  36  64  87 122 158 204 252 308 354
#     4  11  23  40  62  90 123 162 210 255 298 362
#     4  11  23  40  62  90 123 162 210 255 298 362
#
# _framework density 22.109044000000001
#
# number of rings (size 3 to 8) (size 9 to 14) (size 15 to 20)
#    0.000    1.200    4.000    4.800    0.000    0.800 
#    0.000    2.000    0.000   12.000    0.000    0.000 
#    0.000    0.000    0.000    0.000    0.000    0.000 
#
# Total GULP energy -222676.680460 kJ/mol
# GULP energy per Si atom -5566.917011 kJ/mol
# Density = 2.205872 g / cm^3
# Si number density = 22.109044 Si / 1000 Ang^3
#
#
#
# Elastic Constant Matrix: (Units=GPa)
#
#
# Indices 1 2 3 4 5 6 
#
# 1 99.1526 11.0207 61.7202 0.0000 0.0000 0.0000
# 2 11.0207 70.1366 -27.9509 0.0000 0.0000 0.0000
# 3 61.7202 -27.9509 107.4220 0.0000 0.0000 0.0000
# 4 0.0000 0.0000 0.0000 11.1560 0.0000 0.0000
# 5 0.0000 0.0000 0.0000 0.0000 7.0962 0.0000
# 6 0.0000 0.0000 0.0000 0.0000 0.0000 25.2767
#
#
#
# Elastic Compliance Matrix: (Units=1/GPa)
#
#
# Indices 1 2 3 4 5 6 
#
# 1 0.019221 -0.008280 -0.013198 0.000000 0.000000 0.000000
# 2 -0.008280 0.019474 0.009825 0.000000 0.000000 0.000000
# 3 -0.013198 0.009825 0.019449 0.000000 0.000000 0.000000
# 4 0.000000 0.000000 0.000000 0.089638 0.000000 0.000000
# 5 0.000000 0.000000 0.000000 0.000000 0.140921 0.000000
# 6 0.000000 0.000000 0.000000 0.000000 0.000000 0.039562
#
#
# Mechanical properties :
#
#
# Convention : Reuss Voigt Hill
#
# Bulk Modulus (GPa) = 28.70545 40.69902 34.70223
# Shear Modulus (GPa) = 13.76710 24.16718 18.96714
#
# Velocity S-wave (km/s) = 2.49808 3.30978 2.93215
# Velocity P-wave (km/s) = 4.61869 5.74930 5.21473
#
# Compressibility (1/GPa) = 0.03483660
#
# Stress axis : x y z
#
# Youngs Moduli (GPa) = 52.02528 51.34982 51.41760
#
# Poissons Ratio (x) = 0.42518 0.67862
# Poissons Ratio (y) = 0.43077 -0.50515
# Poissons Ratio (z) = 0.68664 -0.50449
#
# Static dielectric constant tensor:
#      x y z
#    x 1.819430 0.000000 0.000000 
#    y 0.000000 1.904090 0.000000 
#    z 0.000000 0.000000 1.940750 
# 
# From -- ./inp_files/12573.got.cif
#   From: 2010.05.17/outbox.cif.g08.bks.cpg/sg50_7_cif.got.tgz:12573.got - 2010.06.03 11:33:33.
