data_PCOD9396808
_publ_section_title
;
Structure prediction by ZEFSAII (Michael W. Deem and Ramdas Pophale) SiO2 
 PCOD9396808
Probable space group: P B A N
;
_chemical_formula_sum "Si O2"
_cell_formula_units_Z 40
_cell_length_a 25.707004
_cell_length_b 9.677546
_cell_length_c 8.883234
_cell_angle_alpha 90.000000
_cell_angle_beta 90.000000
_cell_angle_gamma 90.000000
_cell_volume 2209.977295
_symmetry_space_group_name_H-M "P B A N"
_symmetry_group_IT_number 50
_space_group.IT_coordinate_system_code '2'
_symmetry_cell_setting 'orthorhombic'
loop_
_space_group_symop_operation_xyz
x,y,z
1/2-x,1/2-y,z
x,1/2-y,-z
1/2-x,y,-z
-x,-y,-z
1/2+x,1/2+y,-z
-x,1/2+y,z
1/2+x,-y,z
loop_
_atom_site_type_symbol
_atom_site_label
_atom_site_fract_x
_atom_site_fract_y
_atom_site_fract_z
Si Si1 0.689667 0.288468 0.163932
Si Si2 0.151928 0.959562 0.338458
Si Si3 0.351668 0.468292 0.666654
Si Si4 0.189389 0.283441 0.825415
Si Si5 0.053444 0.582946 0.497076
O O1 0.750000 0.250000 0.162303
O O2 0.678776 0.445020 0.207820
O O3 0.665159 0.195928 0.295144
O O4 0.667915 0.250000 0.000000
O O5 0.173271 0.005066 0.502077
O O6 0.175611 0.059497 0.214016
O O7 0.089832 0.963314 0.362252
O O8 0.346468 0.311076 0.717503
O O9 0.409675 0.529966 0.641213
O O10 0.250000 0.250000 0.794071
O O11 0.179764 0.250000 0.000000
O O12 0.047698 0.750000 0.500000
O O13 0.000000 0.500000 0.500000
#
# Coordination Sequence:
#
# PCOD9396808 Si02
#       5
#     8   8   8   8   8
#     4  11  21  35  57  84 122 162 185 225 293 351
#     4  10  21  38  57  89 113 152 199 246 279 341
#     4  10  21  38  57  89 113 152 199 246 279 341
#     4  11  23  37  55  86 128 166 193 227 287 349
#     4  10  22  40  65  90 112 144 195 252 309 346
#
# _framework density 18.099733000000001
#
# number of rings (size 3 to 8) (size 9 to 14) (size 15 to 20)
#    1.200    0.400    2.000    3.600    2.800    8.000 
#    0.000    0.000    0.000    7.200    0.000    0.000 
#    0.000    0.000    0.000    0.000    0.000    0.000 
#
# Total GULP energy -222817.679270 kJ/mol
# GULP energy per Si atom -5570.441982 kJ/mol
# Density = 1.805854 g / cm^3
# Si number density = 18.099733 Si / 1000 Ang^3
#
#
#
# Elastic Constant Matrix: (Units=GPa)
#
#
# Indices 1 2 3 4 5 6 
#
# 1 88.3107 13.3277 7.2925 0.0000 0.0000 0.0000
# 2 13.3277 59.2948 -6.5388 0.0000 0.0000 0.0000
# 3 7.2925 -6.5388 63.1654 0.0000 0.0000 0.0000
# 4 0.0000 0.0000 0.0000 32.6832 0.0000 0.0000
# 5 0.0000 0.0000 0.0000 0.0000 -623.2737 0.0000
# 6 0.0000 0.0000 0.0000 0.0000 0.0000 30.7147
#
#
#
# Elastic Compliance Matrix: (Units=1/GPa)
#
#
# Indices 1 2 3 4 5 6 
#
# 1 0.011893 -0.002857 -0.001669 0.000000 0.000000 0.000000
# 2 -0.002857 0.017746 0.002167 0.000000 0.000000 0.000000
# 3 -0.001669 0.002167 0.016248 0.000000 0.000000 0.000000
# 4 0.000000 0.000000 0.000000 0.030597 0.000000 0.000000
# 5 0.000000 0.000000 0.000000 0.000000 -0.001604 0.000000
# 6 0.000000 0.000000 0.000000 0.000000 0.000000 0.032558
#
#
# Mechanical properties :
#
#
# Convention : Reuss Voigt Hill
#
# Bulk Modulus (GPa) = 24.29009 26.54821 25.41915
# Shear Modulus (GPa) = 39.72093 -98.86252 -29.57080
#
# Velocity S-wave (km/s) = 4.68969 -7.39862 -4.04638
# Velocity P-wave (km/s) = 6.54015 7.63456 2.78504
#
# Compressibility (1/GPa) = 0.04116906
#
# Stress axis : x y z
#
# Youngs Moduli (GPa) = 84.08550 56.35055 61.54442
#
# Poissons Ratio (x) = 0.16100 0.10270
# Poissons Ratio (y) = 0.24024 -0.13336
# Poissons Ratio (z) = 0.14032 -0.12211
#
# Static dielectric constant tensor:
#      x y z
#    x 1.469190 0.000000 0.000000 
#    y 0.000000 1.587950 0.000000 
#    z 0.000000 0.000000 1.650160 
# 
# From -- ./inp_files/16795.got.cif
#   From: 2010.05.17/outbox.cif.g08.bks.cpg/sg50_9_cif.got.tgz:16795.got - 2010.06.03 11:33:33.
