data_PCOD9396338
_publ_section_title
;
Structure prediction by ZEFSAII (Michael W. Deem and Ramdas Pophale) SiO2 
 PCOD9396338
Probable space group: P B A N
;
_chemical_formula_sum "Si O2"
_cell_formula_units_Z 34
_cell_length_a 13.670498
_cell_length_b 25.781534
_cell_length_c 4.946763
_cell_angle_alpha 90.000000
_cell_angle_beta 90.000000
_cell_angle_gamma 90.000000
_cell_volume 1743.468855
_symmetry_space_group_name_H-M "P B A N"
_symmetry_group_IT_number 50
_space_group.IT_coordinate_system_code '2'
_symmetry_cell_setting 'orthorhombic'
loop_
_space_group_symop_operation_xyz
x,y,z
1/2-x,1/2-y,z
x,1/2-y,-z
1/2-x,y,-z
-x,-y,-z
1/2+x,1/2+y,-z
-x,1/2+y,z
1/2+x,-y,z
loop_
_atom_site_type_symbol
_atom_site_label
_atom_site_fract_x
_atom_site_fract_y
_atom_site_fract_z
Si Si1 0.750000 0.750000 0.500000
Si Si2 0.611826 0.994869 0.916160
Si Si3 0.939631 0.613627 0.695119
Si Si4 0.149395 0.935610 0.402025
Si Si5 0.651218 0.661261 0.840758
O O1 0.683051 0.714009 0.690782
O O2 0.621229 0.029836 0.655311
O O3 0.618771 0.935226 0.826802
O O4 0.667521 0.022098 0.164558
O O5 0.500000 0.000000 0.000000
O O6 0.891279 0.626535 0.405400
O O7 0.054263 0.598747 0.666943
O O8 0.925993 0.659581 0.913595
O O9 0.250000 0.908385 0.500000
O O10 0.750000 0.645201 0.000000
#
# Coordination Sequence:
#
# PCOD9396338 Si02
#       5
#     2   8   8   8   8
#     4  12  26  48  62  92 132 148 198 252 366 396
#     4  10  20  37  54  78 123 168 211 256 286 331
#     4  11  22  38  60  92 121 162 217 253 300 370
#     4  11  22  38  58  84 128 176 210 249 297 340
#     4  12  24  41  64  88 125 154 192 259 321 401
#
# _framework density 19.501353000000002
#
# number of rings (size 3 to 8) (size 9 to 14) (size 15 to 20)
#    0.000    0.941    2.353    8.118    0.000    3.765 
#    2.118    0.000    0.000    0.000    0.000    0.824 
#    7.059    0.000    0.000    0.000    0.000    0.000 
#
# Total GULP energy -189533.354896 kJ/mol
# GULP energy per Si atom -5574.510438 kJ/mol
# Density = 1.945697 g / cm^3
# Si number density = 19.501353 Si / 1000 Ang^3
#
#
#
# Elastic Constant Matrix: (Units=GPa)
#
#
# Indices 1 2 3 4 5 6 
#
# 1 132.4267 57.2573 66.2713 0.0000 0.0000 0.0000
# 2 57.2573 58.3826 32.6097 0.0000 0.0000 0.0000
# 3 66.2713 32.6097 169.8075 0.0000 0.0000 0.0000
# 4 0.0000 0.0000 0.0000 44.6988 0.0000 0.0000
# 5 0.0000 0.0000 0.0000 0.0000 45.8632 0.0000
# 6 0.0000 0.0000 0.0000 0.0000 0.0000 75.9604
#
#
#
# Elastic Compliance Matrix: (Units=1/GPa)
#
#
# Indices 1 2 3 4 5 6 
#
# 1 0.014595 -0.012470 -0.003301 0.000000 0.000000 0.000000
# 2 -0.012470 0.029840 -0.000864 0.000000 0.000000 0.000000
# 3 -0.003301 -0.000864 0.007343 0.000000 0.000000 0.000000
# 4 0.000000 0.000000 0.000000 0.022372 0.000000 0.000000
# 5 0.000000 0.000000 0.000000 0.000000 0.021804 0.000000
# 6 0.000000 0.000000 0.000000 0.000000 0.000000 0.013165
#
#
# Mechanical properties :
#
#
# Convention : Reuss Voigt Hill
#
# Bulk Modulus (GPa) = 54.02867 74.76592 64.39730
# Shear Modulus (GPa) = 33.65667 46.93637 40.29652
#
# Velocity S-wave (km/s) = 4.15886 4.91126 4.55064
# Velocity P-wave (km/s) = 7.12928 8.40135 7.79132
#
# Compressibility (1/GPa) = 0.01850869
#
# Stress axis : x y z
#
# Youngs Moduli (GPa) = 68.51664 33.51170 136.17749
#
# Poissons Ratio (x) = 0.41788 0.44957
# Poissons Ratio (y) = 0.85438 0.11765
# Poissons Ratio (z) = 0.22620 0.02895
#
# Static dielectric constant tensor:
#      x y z
#    x 1.982570 0.000000 0.000000 
#    y 0.000000 0.552320 0.000000 
#    z 0.000000 0.000000 1.722280 
# 
# From -- ./inp_files/3446.got.cif
#   From: 2010.05.17/outbox.cif.g08.bks.cpg/sg50_2_cif.got.tgz:3446.got - 2010.06.03 11:33:33.
