data_PCOD9396171
_publ_section_title
;
Structure prediction by ZEFSAII (Michael W. Deem and Ramdas Pophale) SiO2 
 PCOD9396171
Probable space group: P B A N
;
_chemical_formula_sum "Si O2"
_cell_formula_units_Z 56
_cell_length_a 12.568596
_cell_length_b 18.688590
_cell_length_c 11.621839
_cell_angle_alpha 90.000000
_cell_angle_beta 90.000000
_cell_angle_gamma 90.000000
_cell_volume 2729.846063
_symmetry_space_group_name_H-M "P B A N"
_symmetry_group_IT_number 50
_space_group.IT_coordinate_system_code '2'
_symmetry_cell_setting 'orthorhombic'
loop_
_space_group_symop_operation_xyz
x,y,z
1/2-x,1/2-y,z
x,1/2-y,-z
1/2-x,y,-z
-x,-y,-z
1/2+x,1/2+y,-z
-x,1/2+y,z
1/2+x,-y,z
loop_
_atom_site_type_symbol
_atom_site_label
_atom_site_fract_x
_atom_site_fract_y
_atom_site_fract_z
Si Si1 0.383391 0.185549 0.321965
Si Si2 0.909445 0.843329 0.580508
Si Si3 0.794502 0.599026 0.214995
Si Si4 0.301313 0.945798 0.228651
Si Si5 0.135497 0.896996 0.530640
Si Si6 0.425544 0.915320 0.720437
Si Si7 0.508490 0.955656 0.116344
O O1 0.386782 0.268820 0.353746
O O2 0.365210 0.153162 0.450785
O O3 0.292561 0.160623 0.233718
O O4 0.493984 0.151233 0.279110
O O5 0.857654 0.901807 0.663092
O O6 0.036931 0.848175 0.568411
O O7 0.730730 0.526002 0.194470
O O8 0.890793 0.597721 0.123447
O O9 0.340530 0.946760 0.360771
O O10 0.191480 0.901655 0.226733
O O11 0.397254 0.919243 0.149696
O O12 0.250000 0.861827 0.500000
O O13 0.095433 0.933352 0.413623
O O14 0.473006 0.982586 0.787621
O O15 0.500000 0.000000 0.000000
#
# Coordination Sequence:
#
# PCOD9396171 Si02
#       7
#     8   8   8   8   8   8   8
#     4  10  20  36  54  90 123 158 199 230 300 370
#     4  10  20  34  58  87 125 166 194 241 292 377
#     4  11  21  34  58  83 119 151 197 249 303 362
#     4  10  20  37  56  87 115 152 195 249 310 370
#     4   9  18  35  56  86 122 153 198 233 303 368
#     4   9  20  35  54  83 117 155 187 251 297 365
#     4  11  23  39  59  83 113 154 204 257 311 358
#
# _framework density 20.513977000000001
#
# number of rings (size 3 to 8) (size 9 to 14) (size 15 to 20)
#    0.000    2.000    2.857    0.857    0.000    9.714 
#    0.000   12.143    0.000    0.857    3.714    0.000 
#   12.857    0.000    0.000    0.000    0.000    0.000 
#
# Total GULP energy -312125.771584 kJ/mol
# GULP energy per Si atom -5573.674493 kJ/mol
# Density = 2.046729 g / cm^3
# Si number density = 20.513977 Si / 1000 Ang^3
#
#
#
# Elastic Constant Matrix: (Units=GPa)
#
#
# Indices 1 2 3 4 5 6 
#
# 1 155.0309 23.7759 35.5735 0.0000 0.0000 0.0000
# 2 23.7759 36.0023 9.4724 0.0000 0.0000 0.0000
# 3 35.5735 9.4724 41.5308 0.0000 0.0000 0.0000
# 4 0.0000 0.0000 0.0000 18.2920 0.0000 0.0000
# 5 0.0000 0.0000 0.0000 0.0000 9.6042 0.0000
# 6 0.0000 0.0000 0.0000 0.0000 0.0000 27.3802
#
#
#
# Elastic Compliance Matrix: (Units=1/GPa)
#
#
# Indices 1 2 3 4 5 6 
#
# 1 0.008524 -0.003945 -0.006402 0.000000 0.000000 0.000000
# 2 -0.003945 0.031375 -0.003777 0.000000 0.000000 0.000000
# 3 -0.006402 -0.003777 0.030423 0.000000 0.000000 0.000000
# 4 0.000000 0.000000 0.000000 0.054669 0.000000 0.000000
# 5 0.000000 0.000000 0.000000 0.000000 0.104121 0.000000
# 6 0.000000 0.000000 0.000000 0.000000 0.000000 0.036523
#
#
# Mechanical properties :
#
#
# Convention : Reuss Voigt Hill
#
# Bulk Modulus (GPa) = 23.76689 41.13419 32.45054
# Shear Modulus (GPa) = 16.23862 21.97143 19.10503
#
# Velocity S-wave (km/s) = 2.81657 3.27624 3.05506
# Velocity P-wave (km/s) = 4.71044 5.86574 5.31955
#
# Compressibility (1/GPa) = 0.04207534
#
# Stress axis : x y z
#
# Youngs Moduli (GPa) = 117.31156 31.87242 32.86941
#
# Poissons Ratio (x) = 0.12574 0.21042
# Poissons Ratio (y) = 0.46281 0.12414
# Poissons Ratio (z) = 0.75100 0.12038
#
# Static dielectric constant tensor:
#      x y z
#    x 1.844790 0.000000 0.000000 
#    y 0.000000 1.718470 0.000000 
#    z 0.000000 0.000000 1.722860 
# 
# From -- ./inp_files/20378.got.cif
#   From: 2010.05.17/outbox.cif.g08.bks.cpg/sg50_11_cif.got.tgz:20378.got - 2010.06.03 11:33:33.
