data_PCOD9396939
_publ_section_title
;
Structure prediction by ZEFSAII (Michael W. Deem and Ramdas Pophale) SiO2 
 PCOD9396939
Probable space group: P B A N
;
_chemical_formula_sum "Si O2"
_cell_formula_units_Z 40
_cell_length_a 7.195905
_cell_length_b 22.248967
_cell_length_c 9.268504
_cell_angle_alpha 90.000000
_cell_angle_beta 90.000000
_cell_angle_gamma 90.000000
_cell_volume 1483.900956
_symmetry_space_group_name_H-M "P B A N"
_symmetry_group_IT_number 50
_space_group.IT_coordinate_system_code '2'
_symmetry_cell_setting 'orthorhombic'
loop_
_space_group_symop_operation_xyz
x,y,z
1/2-x,1/2-y,z
x,1/2-y,-z
1/2-x,y,-z
-x,-y,-z
1/2+x,1/2+y,-z
-x,1/2+y,z
1/2+x,-y,z
loop_
_atom_site_type_symbol
_atom_site_label
_atom_site_fract_x
_atom_site_fract_y
_atom_site_fract_z
Si Si1 0.948712 0.783111 0.139124
Si Si2 0.063527 0.162988 0.567235
Si Si3 0.580409 0.085721 0.681224
Si Si4 0.993881 0.953779 0.287763
Si Si5 0.975027 0.090498 0.998080
O O1 0.750000 0.750000 0.154438
O O2 0.017122 0.794598 0.304847
O O3 0.042594 0.750000 0.000000
O O4 0.947375 0.850200 0.078027
O O5 0.250000 0.188787 0.500000
O O6 0.945879 0.139351 0.430959
O O7 0.124411 0.098690 0.639730
O O8 0.800172 0.074093 0.699683
O O9 0.481405 0.096280 0.834120
O O10 0.512371 0.018850 0.642610
O O11 0.954031 0.959790 0.115884
O O12 0.750000 0.089907 0.000000
#
# Coordination Sequence:
#
# PCOD9396939 Si02
#       5
#     8   8   8   8   8
#     4  10  24  45  67  93 128 166 230 296 350 403
#     4  11  24  40  64  98 130 176 222 279 346 406
#     4  11  21  38  66 101 143 184 224 274 329 414
#     4  10  21  40  63 102 148 184 223 266 337 412
#     4   9  21  41  68 100 136 184 229 276 339 412
#
# _framework density 26.955978000000002
#
# number of rings (size 3 to 8) (size 9 to 14) (size 15 to 20)
#    0.000    1.800    0.000    3.000    5.600    0.800 
#    0.000    0.000    4.400    0.000    0.000    0.000 
#    0.000    0.000    0.000    0.000    0.000    0.000 
#
# Total GULP energy -223318.506669 kJ/mol
# GULP energy per Si atom -5582.962667 kJ/mol
# Density = 2.689462 g / cm^3
# Si number density = 26.955978 Si / 1000 Ang^3
#
#
#
# Elastic Constant Matrix: (Units=GPa)
#
#
# Indices 1 2 3 4 5 6 
#
# 1 85.5194 21.4158 34.2932 0.0000 0.0000 0.0000
# 2 21.4158 97.2084 54.5538 0.0000 0.0000 0.0000
# 3 34.2932 54.5538 241.2987 0.0000 0.0000 0.0000
# 4 0.0000 0.0000 0.0000 50.7297 0.0000 0.0000
# 5 0.0000 0.0000 0.0000 0.0000 28.2221 0.0000
# 6 0.0000 0.0000 0.0000 0.0000 0.0000 42.9047
#
#
#
# Elastic Compliance Matrix: (Units=1/GPa)
#
#
# Indices 1 2 3 4 5 6 
#
# 1 0.012748 -0.002052 -0.001348 0.000000 0.000000 0.000000
# 2 -0.002052 0.012112 -0.002447 0.000000 0.000000 0.000000
# 3 -0.001348 -0.002447 0.004889 0.000000 0.000000 0.000000
# 4 0.000000 0.000000 0.000000 0.019712 0.000000 0.000000
# 5 0.000000 0.000000 0.000000 0.000000 0.035433 0.000000
# 6 0.000000 0.000000 0.000000 0.000000 0.000000 0.023307
#
#
# Mechanical properties :
#
#
# Convention : Reuss Voigt Hill
#
# Bulk Modulus (GPa) = 55.38385 71.61691 63.50038
# Shear Modulus (GPa) = 39.70973 45.28887 42.49930
#
# Velocity S-wave (km/s) = 3.84230 4.10335 3.97497
# Velocity P-wave (km/s) = 6.34626 7.00541 6.68397
#
# Compressibility (1/GPa) = 0.01805580
#
# Stress axis : x y z
#
# Youngs Moduli (GPa) = 78.44631 82.55996 204.54232
#
# Poissons Ratio (x) = 0.16942 0.27567
# Poissons Ratio (y) = 0.16097 0.50047
# Poissons Ratio (z) = 0.10573 0.20201
#
# Static dielectric constant tensor:
#      x y z
#    x 2.175630 0.000000 0.000000 
#    y 0.000000 2.128570 0.000000 
#    z 0.000000 0.000000 2.242920 
# 
# From -- ./inp_files/9550.got.cif
#   From: 2010.05.17/outbox.cif.g08.bks.cpg/sg50_5_cif.got.tgz:9550.got - 2010.06.03 11:33:33.
