data_PCOD9396651
_publ_section_title
;
Structure prediction by ZEFSAII (Michael W. Deem and Ramdas Pophale) SiO2 
 PCOD9396651
Probable space group: P B A N
;
_chemical_formula_sum "Si O2"
_cell_formula_units_Z 44
_cell_length_a 7.408976
_cell_length_b 17.755035
_cell_length_c 14.217541
_cell_angle_alpha 90.000000
_cell_angle_beta 90.000000
_cell_angle_gamma 90.000000
_cell_volume 1870.269580
_symmetry_space_group_name_H-M "P B A N"
_symmetry_group_IT_number 50
_space_group.IT_coordinate_system_code '2'
_symmetry_cell_setting 'orthorhombic'
loop_
_space_group_symop_operation_xyz
x,y,z
1/2-x,1/2-y,z
x,1/2-y,-z
1/2-x,y,-z
-x,-y,-z
1/2+x,1/2+y,-z
-x,1/2+y,z
1/2+x,-y,z
loop_
_atom_site_type_symbol
_atom_site_label
_atom_site_fract_x
_atom_site_fract_y
_atom_site_fract_z
Si Si1 0.449789 0.786172 0.594016
Si Si2 0.677887 0.939367 0.790805
Si Si3 0.446352 0.825469 0.041888
Si Si4 0.018343 0.321618 0.751307
Si Si5 0.250000 0.446208 0.000000
Si Si6 0.816295 0.078882 0.692403
O O1 0.250000 0.750000 0.596651
O O2 0.532939 0.750000 0.500000
O O3 0.542864 0.749647 0.684726
O O4 0.417748 0.875905 0.607212
O O5 0.707142 0.978036 0.894238
O O6 0.470189 0.918254 0.773403
O O7 0.802693 0.866415 0.780357
O O8 0.746541 0.993598 0.705964
O O9 0.426334 0.804840 0.150243
O O10 0.530353 0.750000 0.000000
O O11 0.250000 0.839334 0.000000
O O12 0.574969 0.894990 0.020144
O O13 0.871319 0.376769 0.704060
#
# Coordination Sequence:
#
# PCOD9396651 Si02
#       6
#     8   8   8   8   4   8
#     4   9  21  42  72  94 122 163 211 268 325 383
#     4  11  23  40  62  93 128 179 205 265 313 380
#     4  10  21  34  56  89 123 169 218 263 315 371
#     4  10  22  41  63  92 125 165 215 265 319 374
#     4  10  23  38  52  86 133 170 220 256 310 374
#     4  11  22  41  65  90 129 163 212 258 322 377
#
# _framework density 23.526019000000002
#
# number of rings (size 3 to 8) (size 9 to 14) (size 15 to 20)
#    0.000    1.818    1.818    1.364   10.182    1.455 
#    1.636    2.727    4.000    0.000    0.000    0.000 
#    0.000    0.000    0.000    0.000    0.000    0.000 
#
# Total GULP energy -245223.348707 kJ/mol
# GULP energy per Si atom -5573.257925 kJ/mol
# Density = 2.347247 g / cm^3
# Si number density = 23.526019 Si / 1000 Ang^3
#
#
#
# Elastic Constant Matrix: (Units=GPa)
#
#
# Indices 1 2 3 4 5 6 
#
# 1 115.3393 0.9882 -2.8058 0.0000 0.0000 0.0000
# 2 0.9882 54.9872 25.4030 0.0000 0.0000 0.0000
# 3 -2.8058 25.4030 101.2781 0.0000 0.0000 0.0000
# 4 0.0000 0.0000 0.0000 18.1283 0.0000 0.0000
# 5 0.0000 0.0000 0.0000 0.0000 11.8318 0.0000
# 6 0.0000 0.0000 0.0000 0.0000 0.0000 31.9086
#
#
#
# Elastic Compliance Matrix: (Units=1/GPa)
#
#
# Indices 1 2 3 4 5 6 
#
# 1 0.008680 -0.000302 0.000316 0.000000 0.000000 0.000000
# 2 -0.000302 0.020580 -0.005170 0.000000 0.000000 0.000000
# 3 0.000316 -0.005170 0.011179 0.000000 0.000000 0.000000
# 4 0.000000 0.000000 0.000000 0.055163 0.000000 0.000000
# 5 0.000000 0.000000 0.000000 0.000000 0.084518 0.000000
# 6 0.000000 0.000000 0.000000 0.000000 0.000000 0.031340
#
#
# Mechanical properties :
#
#
# Convention : Reuss Voigt Hill
#
# Bulk Modulus (GPa) = 33.19233 35.41950 34.30591
# Shear Modulus (GPa) = 21.56896 28.90834 25.23865
#
# Velocity S-wave (km/s) = 3.03118 3.50920 3.27891
# Velocity P-wave (km/s) = 5.13713 5.61315 5.38041
#
# Compressibility (1/GPa) = 0.03012744
#
# Stress axis : x y z
#
# Youngs Moduli (GPa) = 115.20270 48.59069 89.45018
#
# Poissons Ratio (x) = 0.01468 -0.02829
# Poissons Ratio (y) = 0.03480 0.46249
# Poissons Ratio (z) = -0.03643 0.25123
#
# Static dielectric constant tensor:
#      x y z
#    x 1.881970 0.000000 0.000000 
#    y 0.000000 1.955930 0.000000 
#    z 0.000000 0.000000 1.955630 
# 
# From -- ./inp_files/24887.got.cif
#   From: 2010.05.17/outbox.cif.g08.bks.cpg/sg50_13_cif.got.tgz:24887.got - 2010.06.03 11:33:33.
