data_PCOD9396446
_publ_section_title
;
Structure prediction by ZEFSAII (Michael W. Deem and Ramdas Pophale) SiO2 
 PCOD9396446
Probable space group: P B A N
;
_chemical_formula_sum "Si O2"
_cell_formula_units_Z 52
_cell_length_a 18.452084
_cell_length_b 23.069161
_cell_length_c 5.905765
_cell_angle_alpha 90.000000
_cell_angle_beta 90.000000
_cell_angle_gamma 90.000000
_cell_volume 2513.931181
_symmetry_space_group_name_H-M "P B A N"
_symmetry_group_IT_number 50
_space_group.IT_coordinate_system_code '2'
_symmetry_cell_setting 'orthorhombic'
loop_
_space_group_symop_operation_xyz
x,y,z
1/2-x,1/2-y,z
x,1/2-y,-z
1/2-x,y,-z
-x,-y,-z
1/2+x,1/2+y,-z
-x,1/2+y,z
1/2+x,-y,z
loop_
_atom_site_type_symbol
_atom_site_label
_atom_site_fract_x
_atom_site_fract_y
_atom_site_fract_z
Si Si1 0.250000 0.563555 0.000000
Si Si2 0.018408 0.594024 0.920864
Si Si3 0.470230 0.818011 0.531710
Si Si4 0.596585 0.612928 0.736366
Si Si5 0.624251 0.486272 0.692254
Si Si6 0.832689 0.729235 0.246609
Si Si7 0.861697 0.107009 0.308600
O O1 0.312965 0.525582 0.120371
O O2 0.213929 0.605744 0.183180
O O3 0.025140 0.653527 0.779557
O O4 0.046171 0.539351 0.775168
O O5 0.076593 0.595415 0.121806
O O6 0.938823 0.592700 0.025976
O O7 0.479272 0.750000 0.500000
O O8 0.533049 0.852585 0.395247
O O9 0.391822 0.837244 0.437342
O O10 0.619441 0.553003 0.624669
O O11 0.659168 0.660024 0.759055
O O12 0.641793 0.445948 0.481352
O O13 0.750000 0.750000 0.241538
O O14 0.859621 0.750000 0.500000
O O15 0.865865 0.750000 0.000000
#
# Coordination Sequence:
#
# PCOD9396446 Si02
#       7
#     4   8   8   8   8   8   8
#     4  10  20  38  62  83 121 162 208 260 328 400
#     4   9  21  38  61  90 126 158 211 273 337 390
#     4  10  22  38  62  91 126 165 213 269 334 399
#     4  11  23  35  63  93 126 172 218 279 331 401
#     4  10  21  39  59  92 124 165 214 268 338 400
#     4  10  24  46  63  87 132 182 232 280 328 393
#     4   9  20  39  61  87 123 160 204 273 327 398
#
# _framework density 20.684733999999999
#
# number of rings (size 3 to 8) (size 9 to 14) (size 15 to 20)
#    0.000    2.154    0.000    1.385    4.308   11.077 
#    5.538    0.000    0.000   26.769    0.000    0.000 
#    0.000    0.000    0.000    0.000    0.000    0.000 
#
# Total GULP energy -289800.470939 kJ/mol
# GULP energy per Si atom -5573.085980 kJ/mol
# Density = 2.063765 g / cm^3
# Si number density = 20.684734 Si / 1000 Ang^3
#
#
#
# Elastic Constant Matrix: (Units=GPa)
#
#
# Indices 1 2 3 4 5 6 
#
# 1 79.2036 59.0084 14.4133 0.0000 0.0000 0.0000
# 2 59.0084 142.5081 42.1471 0.0000 0.0000 0.0000
# 3 14.4133 42.1471 94.4551 0.0000 0.0000 0.0000
# 4 0.0000 0.0000 0.0000 -23.6914 0.0000 0.0000
# 5 0.0000 0.0000 0.0000 0.0000 -2.5692 0.0000
# 6 0.0000 0.0000 0.0000 0.0000 0.0000 2.7313
#
#
#
# Elastic Compliance Matrix: (Units=1/GPa)
#
#
# Indices 1 2 3 4 5 6 
#
# 1 0.018296 -0.007776 0.000678 0.000000 0.000000 0.000000
# 2 -0.007776 0.011389 -0.003895 0.000000 0.000000 0.000000
# 3 0.000678 -0.003895 0.012222 0.000000 0.000000 0.000000
# 4 0.000000 0.000000 0.000000 -0.042209 0.000000 0.000000
# 5 0.000000 0.000000 0.000000 0.000000 -0.389230 0.000000
# 6 0.000000 0.000000 0.000000 0.000000 0.000000 0.366127
#
#
# Mechanical properties :
#
#
# Convention : Reuss Voigt Hill
#
# Bulk Modulus (GPa) = 50.20213 60.81161 55.50687
# Shear Modulus (GPa) = 957.76266 8.66734 483.21500
#
# Velocity S-wave (km/s) = 21.54145 2.04922 15.30087
# Velocity P-wave (km/s) = 25.35813 5.92133 18.41327
#
# Compressibility (1/GPa) = 0.01991947
#
# Stress axis : x y z
#
# Youngs Moduli (GPa) = 54.65739 87.80293 81.82137
#
# Poissons Ratio (x) = 0.68278 -0.05548
# Poissons Ratio (y) = 0.42503 0.31873
# Poissons Ratio (z) = -0.03706 0.34203
#
# Static dielectric constant tensor:
#      x y z
#    x 1.774960 0.000000 0.000000 
#    y 0.000000 1.712620 0.000000 
#    z 0.000000 0.000000 1.826530 
# 
# From -- ./inp_files/5339.got.cif
#   From: 2010.05.17/outbox.cif.g08.bks.cpg/sg50_3_cif.got.tgz:5339.got - 2010.06.03 11:33:33.
