data_PCOD9396584
_publ_section_title
;
Structure prediction by ZEFSAII (Michael W. Deem and Ramdas Pophale) SiO2 
 PCOD9396584
Probable space group: P B A N
;
_chemical_formula_sum "Si O2"
_cell_formula_units_Z 32
_cell_length_a 15.105629
_cell_length_b 11.448619
_cell_length_c 7.766156
_cell_angle_alpha 90.000000
_cell_angle_beta 90.000000
_cell_angle_gamma 90.000000
_cell_volume 1343.068077
_symmetry_space_group_name_H-M "P B A N"
_symmetry_group_IT_number 50
_space_group.IT_coordinate_system_code '2'
_symmetry_cell_setting 'orthorhombic'
loop_
_space_group_symop_operation_xyz
x,y,z
1/2-x,1/2-y,z
x,1/2-y,-z
1/2-x,y,-z
-x,-y,-z
1/2+x,1/2+y,-z
-x,1/2+y,z
1/2+x,-y,z
loop_
_atom_site_type_symbol
_atom_site_label
_atom_site_fract_x
_atom_site_fract_y
_atom_site_fract_z
Si Si1 0.525708 0.090399 0.785625
Si Si2 0.644300 0.493933 0.628735
Si Si3 0.093851 0.250000 0.000000
Si Si4 0.178211 0.424030 0.247522
Si Si5 0.891615 0.250000 0.500000
O O1 0.472105 0.149541 0.937025
O O2 0.549910 0.189943 0.647480
O O3 0.454806 0.004360 0.697635
O O4 0.616270 0.025640 0.830924
O O5 0.718567 0.542798 0.757450
O O6 0.653425 0.567792 0.451110
O O7 0.660761 0.358644 0.582660
O O8 0.151822 0.194805 0.846594
#
# Coordination Sequence:
#
# PCOD9396584 Si02
#       5
#     8   8   4   8   4
#     4  11  22  39  63  95 131 173 219 262 320 392
#     4  10  22  41  65  96 126 164 224 271 318 387
#     4  12  24  41  62  93 140 180 206 265 334 387
#     4  10  23  40  63  93 127 169 219 268 319 388
#     4  10  20  41  70  95 128 174 216 281 326 367
#
# _framework density 23.826046000000002
#
# number of rings (size 3 to 8) (size 9 to 14) (size 15 to 20)
#    0.000    1.500    0.000    6.750    0.000   11.000 
#    0.000    2.500    0.000    6.000    0.000    0.000 
#    0.000    0.000    0.000    0.000    0.000    0.000 
#
# Total GULP energy -179123.504508 kJ/mol
# GULP energy per Si atom -5597.609516 kJ/mol
# Density = 2.377182 g / cm^3
# Si number density = 23.826046 Si / 1000 Ang^3
#
#
#
# Elastic Constant Matrix: (Units=GPa)
#
#
# Indices 1 2 3 4 5 6 
#
# 1 133.3301 46.4410 27.8649 0.0000 0.0000 0.0000
# 2 46.4410 109.5089 49.5071 0.0000 0.0000 0.0000
# 3 27.8649 49.5071 51.2097 0.0000 0.0000 0.0000
# 4 0.0000 0.0000 0.0000 32.8970 0.0000 0.0000
# 5 0.0000 0.0000 0.0000 0.0000 14.9359 0.0000
# 6 0.0000 0.0000 0.0000 0.0000 0.0000 17.7233
#
#
#
# Elastic Compliance Matrix: (Units=1/GPa)
#
#
# Indices 1 2 3 4 5 6 
#
# 1 0.008929 -0.002825 -0.002128 0.000000 0.000000 0.000000
# 2 -0.002825 0.017115 -0.015009 0.000000 0.000000 0.000000
# 3 -0.002128 -0.015009 0.035195 0.000000 0.000000 0.000000
# 4 0.000000 0.000000 0.000000 0.030398 0.000000 0.000000
# 5 0.000000 0.000000 0.000000 0.000000 0.066953 0.000000
# 6 0.000000 0.000000 0.000000 0.000000 0.000000 0.056423
#
#
# Mechanical properties :
#
#
# Convention : Reuss Voigt Hill
#
# Bulk Modulus (GPa) = 46.91232 60.18607 53.54919
# Shear Modulus (GPa) = 19.08110 24.46029 21.77069
#
# Velocity S-wave (km/s) = 2.83300 3.20757 3.02608
# Velocity P-wave (km/s) = 5.51665 6.24767 5.89351
#
# Compressibility (1/GPa) = 0.02131636
#
# Stress axis : x y z
#
# Youngs Moduli (GPa) = 111.99813 58.42916 28.41313
#
# Poissons Ratio (x) = 0.16504 0.06045
# Poissons Ratio (y) = 0.31635 0.42644
# Poissons Ratio (z) = 0.23830 0.87695
#
# Static dielectric constant tensor:
#      x y z
#    x 1.864110 0.000000 0.000000 
#    y 0.000000 1.895100 0.000000 
#    z 0.000000 0.000000 1.970350 
# 
# From -- ./inp_files/12219.got.cif
#   From: 2010.05.17/outbox.cif.g08.bks.cpg/sg50_7_cif.got.tgz:12219.got - 2010.06.03 11:33:33.
