data_PCOD9396826
_publ_section_title
;
Structure prediction by ZEFSAII (Michael W. Deem and Ramdas Pophale) SiO2 
 PCOD9396826
Probable space group: P B A N
;
_chemical_formula_sum "Si O2"
_cell_formula_units_Z 48
_cell_length_a 13.254514
_cell_length_b 15.271326
_cell_length_c 11.514817
_cell_angle_alpha 90.000000
_cell_angle_beta 90.000000
_cell_angle_gamma 90.000000
_cell_volume 2330.760217
_symmetry_space_group_name_H-M "P B A N"
_symmetry_group_IT_number 50
_space_group.IT_coordinate_system_code '2'
_symmetry_cell_setting 'orthorhombic'
loop_
_space_group_symop_operation_xyz
x,y,z
1/2-x,1/2-y,z
x,1/2-y,-z
1/2-x,y,-z
-x,-y,-z
1/2+x,1/2+y,-z
-x,1/2+y,z
1/2+x,-y,z
loop_
_atom_site_type_symbol
_atom_site_label
_atom_site_fract_x
_atom_site_fract_y
_atom_site_fract_z
Si Si1 0.930633 0.889339 0.259180
Si Si2 0.287594 0.158368 0.739542
Si Si3 0.531117 0.146138 0.477816
Si Si4 0.701582 0.024349 0.374649
Si Si5 0.409240 0.581004 0.729910
Si Si6 0.985247 0.724826 0.133528
O O1 0.818715 0.873929 0.208735
O O2 0.998622 0.814007 0.206032
O O3 0.932782 0.874239 0.399309
O O4 0.956961 0.988620 0.233071
O O5 0.250000 0.250000 0.679105
O O6 0.376535 0.185771 0.826489
O O7 0.325004 0.072896 0.670276
O O8 0.543308 0.250000 0.500000
O O9 0.615243 0.096050 0.399653
O O10 0.542001 0.105986 0.605470
O O11 0.750000 0.010138 0.500000
O O12 0.790879 0.064386 0.295015
O O13 0.433485 0.655014 0.822626
O O14 0.987662 0.750000 0.000000
#
# Coordination Sequence:
#
# PCOD9396826 Si02
#       6
#     8   8   8   8   8   8
#     4  10  21  38  60  92 121 161 200 248 314 362
#     4   9  20  37  56  84 122 159 203 252 302 355
#     4  11  20  37  63  92 124 162 197 245 308 376
#     4   9  20  36  59  93 121 165 199 244 309 374
#     4  10  21  39  59  88 130 155 204 252 300 373
#     4  11  23  40  63  88 117 163 214 258 304 352
#
# _framework density 20.594138000000001
#
# number of rings (size 3 to 8) (size 9 to 14) (size 15 to 20)
#    0.000    2.000    1.667    1.500    0.000    9.667 
#    0.000    0.000    0.000    4.000    0.000    0.000 
#    0.000    0.000    0.000    0.000    0.000    0.000 
#
# Total GULP energy -267548.259511 kJ/mol
# GULP energy per Si atom -5573.922073 kJ/mol
# Density = 2.054727 g / cm^3
# Si number density = 20.594138 Si / 1000 Ang^3
#
#
#
# Elastic Constant Matrix: (Units=GPa)
#
#
# Indices 1 2 3 4 5 6 
#
# 1 78.3043 49.2766 36.5461 0.0000 0.0000 0.0000
# 2 49.2766 183.2028 48.8095 0.0000 0.0000 0.0000
# 3 36.5461 48.8095 85.6394 0.0000 0.0000 0.0000
# 4 0.0000 0.0000 0.0000 16.1272 0.0000 0.0000
# 5 0.0000 0.0000 0.0000 0.0000 8.7423 0.0000
# 6 0.0000 0.0000 0.0000 0.0000 0.0000 25.0565
#
#
#
# Elastic Compliance Matrix: (Units=1/GPa)
#
#
# Indices 1 2 3 4 5 6 
#
# 1 0.017391 -0.003184 -0.005607 0.000000 0.000000 0.000000
# 2 -0.003184 0.007019 -0.002641 0.000000 0.000000 0.000000
# 3 -0.005607 -0.002641 0.015575 0.000000 0.000000 0.000000
# 4 0.000000 0.000000 0.000000 0.062007 0.000000 0.000000
# 5 0.000000 0.000000 0.000000 0.000000 0.114386 0.000000
# 6 0.000000 0.000000 0.000000 0.000000 0.000000 0.039910
#
#
# Mechanical properties :
#
#
# Convention : Reuss Voigt Hill
#
# Bulk Modulus (GPa) = 58.41055 68.49008 63.45032
# Shear Modulus (GPa) = 17.55253 24.15284 20.85268
#
# Velocity S-wave (km/s) = 2.92260 3.42833 3.18552
# Velocity P-wave (km/s) = 6.30976 7.00004 6.66384
#
# Compressibility (1/GPa) = 0.01712019
#
# Stress axis : x y z
#
# Youngs Moduli (GPa) = 57.50042 142.47921 64.20522
#
# Poissons Ratio (x) = 0.45365 0.35999
# Poissons Ratio (y) = 0.18308 0.16959
# Poissons Ratio (z) = 0.32240 0.37635
#
# Static dielectric constant tensor:
#      x y z
#    x 1.818980 0.000000 0.000000 
#    y 0.000000 1.769580 0.000000 
#    z 0.000000 0.000000 1.728530 
# 
# From -- ./inp_files/21084.got.cif
#   From: 2010.05.17/outbox.cif.g08.bks.cpg/sg50_11_cif.got.tgz:21084.got - 2010.06.03 11:33:33.
