data_PCOD9396605
_publ_section_title
;
Structure prediction by ZEFSAII (Michael W. Deem and Ramdas Pophale) SiO2 
 PCOD9396605
Probable space group: P B A N
;
_chemical_formula_sum "Si O2"
_cell_formula_units_Z 32
_cell_length_a 17.664511
_cell_length_b 7.752668
_cell_length_c 11.249643
_cell_angle_alpha 90.000000
_cell_angle_beta 90.000000
_cell_angle_gamma 90.000000
_cell_volume 1540.605863
_symmetry_space_group_name_H-M "P B A N"
_symmetry_group_IT_number 50
_space_group.IT_coordinate_system_code '2'
_symmetry_cell_setting 'orthorhombic'
loop_
_space_group_symop_operation_xyz
x,y,z
1/2-x,1/2-y,z
x,1/2-y,-z
1/2-x,y,-z
-x,-y,-z
1/2+x,1/2+y,-z
-x,1/2+y,z
1/2+x,-y,z
loop_
_atom_site_type_symbol
_atom_site_label
_atom_site_fract_x
_atom_site_fract_y
_atom_site_fract_z
Si Si1 0.586864 0.660905 0.622931
Si Si2 0.052141 0.805315 0.256045
Si Si3 0.750000 0.750000 0.705636
Si Si4 0.398373 0.750000 0.000000
Si Si5 0.311634 0.598235 0.805819
O O1 0.561531 0.750000 0.500000
O O2 0.533160 0.751173 0.719714
O O3 0.573552 0.460602 0.655727
O O4 0.675456 0.696702 0.634353
O O5 0.059915 0.834942 0.113232
O O6 0.114859 0.652929 0.273578
O O7 0.775350 0.582749 0.778205
O O8 0.345011 0.891094 0.061778
O O9 0.250000 0.750000 0.791116
#
# Coordination Sequence:
#
# PCOD9396605 Si02
#       5
#     8   8   4   4   8
#     4  12  25  44  68 100 142 189 249 301 359 438
#     4  10  23  44  70 100 146 186 240 306 364 446
#     4  12  23  44  73 102 138 187 245 296 368 444
#     4   8  21  42  72  97 146 178 234 295 380 438
#     4  10  20  43  70 103 143 176 229 299 364 439
#
# _framework density 20.771048
#
# number of rings (size 3 to 8) (size 9 to 14) (size 15 to 20)
#    1.500    0.000    2.500    3.000    0.000    1.000 
#    0.000    8.750    0.000    0.000    0.000    0.000 
#    0.000    0.000    0.000    0.000    0.000    0.000 
#
# Total GULP energy -178157.739006 kJ/mol
# GULP energy per Si atom -5567.429344 kJ/mol
# Density = 2.072377 g / cm^3
# Si number density = 20.771048 Si / 1000 Ang^3
#
#
#
# Elastic Constant Matrix: (Units=GPa)
#
#
# Indices 1 2 3 4 5 6 
#
# 1 112.9232 30.4635 20.4111 0.0000 0.0000 0.0000
# 2 30.4635 135.6820 47.5652 0.0000 0.0000 0.0000
# 3 20.4111 47.5652 88.0802 0.0000 0.0000 0.0000
# 4 0.0000 0.0000 0.0000 -31.0259 0.0000 0.0000
# 5 0.0000 0.0000 0.0000 0.0000 28.2742 0.0000
# 6 0.0000 0.0000 0.0000 0.0000 0.0000 -27.7406
#
#
#
# Elastic Compliance Matrix: (Units=1/GPa)
#
#
# Indices 1 2 3 4 5 6 
#
# 1 0.009546 -0.001687 -0.001301 0.000000 0.000000 0.000000
# 2 -0.001687 0.009389 -0.004680 0.000000 0.000000 0.000000
# 3 -0.001301 -0.004680 0.014182 0.000000 0.000000 0.000000
# 4 0.000000 0.000000 0.000000 -0.032231 0.000000 0.000000
# 5 0.000000 0.000000 0.000000 0.000000 0.035368 0.000000
# 6 0.000000 0.000000 0.000000 0.000000 0.000000 -0.036048
#
#
# Mechanical properties :
#
#
# Convention : Reuss Voigt Hill
#
# Bulk Modulus (GPa) = 56.23739 59.28502 57.76120
# Shear Modulus (GPa) = 232.90065 9.78457 121.34261
#
# Velocity S-wave (km/s) = 10.60052 2.17276 7.65153
# Velocity P-wave (km/s) = 13.30269 5.90751 10.29224
#
# Compressibility (1/GPa) = 0.01778176
#
# Stress axis : x y z
#
# Youngs Moduli (GPa) = 104.75716 106.50244 70.51282
#
# Poissons Ratio (x) = 0.17969 0.09174
# Poissons Ratio (y) = 0.17674 0.32997
# Poissons Ratio (z) = 0.13629 0.49838
#
# Static dielectric constant tensor:
#      x y z
#    x 1.755220 0.000000 0.000000 
#    y 0.000000 1.767520 0.000000 
#    z 0.000000 0.000000 1.760020 
# 
# From -- ./inp_files/20736.got.cif
#   From: 2010.05.17/outbox.cif.g08.bks.cpg/sg50_11_cif.got.tgz:20736.got - 2010.06.03 11:33:33.
