data_PCOD9396551
_publ_section_title
;
Structure prediction by ZEFSAII (Michael W. Deem and Ramdas Pophale) SiO2 
 PCOD9396551
Probable space group: P B A N
;
_chemical_formula_sum "Si O2"
_cell_formula_units_Z 46
_cell_length_a 18.379798
_cell_length_b 10.063493
_cell_length_c 10.984333
_cell_angle_alpha 90.000000
_cell_angle_beta 90.000000
_cell_angle_gamma 90.000000
_cell_volume 2031.716807
_symmetry_space_group_name_H-M "P B A N"
_symmetry_group_IT_number 50
_space_group.IT_coordinate_system_code '2'
_symmetry_cell_setting 'orthorhombic'
loop_
_space_group_symop_operation_xyz
x,y,z
1/2-x,1/2-y,z
x,1/2-y,-z
1/2-x,y,-z
-x,-y,-z
1/2+x,1/2+y,-z
-x,1/2+y,z
1/2+x,-y,z
loop_
_atom_site_type_symbol
_atom_site_label
_atom_site_fract_x
_atom_site_fract_y
_atom_site_fract_z
Si Si1 0.755707 0.564858 0.781583
Si Si2 0.625144 0.058456 0.135782
Si Si3 0.650588 0.328402 0.283339
Si Si4 0.037432 0.750000 0.000000
Si Si5 0.485244 0.143423 0.754648
Si Si6 0.844770 0.782983 0.638732
Si Si7 0.750000 0.250000 0.500000
O O1 0.692141 0.543846 0.883299
O O2 0.805442 0.437204 0.791887
O O3 0.811545 0.682574 0.741788
O O4 0.698315 0.580615 0.668621
O O5 0.651080 0.185395 0.216070
O O6 0.558152 0.987684 0.204407
O O7 0.589368 0.122584 0.016563
O O8 0.566497 0.370423 0.295080
O O9 0.694765 0.324621 0.409277
O O10 0.992030 0.729230 0.121566
O O11 0.430152 0.209594 0.660566
O O12 0.830029 0.750000 0.500000
#
# Coordination Sequence:
#
# PCOD9396551 Si02
#       7
#     8   8   8   4   8   8   2
#     4  10  20  40  64  93 135 167 224 271 331 395
#     4  10  21  44  64  98 126 173 226 274 338 399
#     4  11  24  37  62  94 130 173 212 270 328 403
#     4  10  22  42  73  91 130 172 218 288 342 387
#     4  10  24  43  68  96 133 171 231 273 339 408
#     4  10  23  40  70 100 133 182 220 274 342 406
#     4  12  24  40  60  92 140 174 216 260 348 380
#
# _framework density 22.640951000000001
#
# number of rings (size 3 to 8) (size 9 to 14) (size 15 to 20)
#    0.000    1.739    1.739    1.565    8.522    0.000 
#    0.000    8.696    7.652    1.043    0.000    0.000 
#    0.000    0.000    0.000    0.000    0.000    0.000 
#
# Total GULP energy -256127.438918 kJ/mol
# GULP energy per Si atom -5567.987803 kJ/mol
# Density = 2.258942 g / cm^3
# Si number density = 22.640951 Si / 1000 Ang^3
#
#
#
# Elastic Constant Matrix: (Units=GPa)
#
#
# Indices 1 2 3 4 5 6 
#
# 1 204.2387 34.1898 23.0632 0.0000 0.0000 0.0000
# 2 34.1898 81.0322 7.1679 0.0000 0.0000 0.0000
# 3 23.0632 7.1679 47.8986 0.0000 0.0000 0.0000
# 4 0.0000 0.0000 0.0000 11.2414 0.0000 0.0000
# 5 0.0000 0.0000 0.0000 0.0000 43.8569 0.0000
# 6 0.0000 0.0000 0.0000 0.0000 0.0000 50.3748
#
#
#
# Elastic Compliance Matrix: (Units=1/GPa)
#
#
# Indices 1 2 3 4 5 6 
#
# 1 0.005515 -0.002120 -0.002338 0.000000 0.000000 0.000000
# 2 -0.002120 0.013321 -0.000973 0.000000 0.000000 0.000000
# 3 -0.002338 -0.000973 0.022149 0.000000 0.000000 0.000000
# 4 0.000000 0.000000 0.000000 0.088957 0.000000 0.000000
# 5 0.000000 0.000000 0.000000 0.000000 0.022801 0.000000
# 6 0.000000 0.000000 0.000000 0.000000 0.000000 0.019851
#
#
# Mechanical properties :
#
#
# Convention : Reuss Voigt Hill
#
# Bulk Modulus (GPa) = 33.19697 51.33458 42.26578
# Shear Modulus (GPa) = 25.84006 39.01121 32.42564
#
# Velocity S-wave (km/s) = 3.38197 4.15545 3.78850
# Velocity P-wave (km/s) = 5.47216 6.76360 6.15186
#
# Compressibility (1/GPa) = 0.03012323
#
# Stress axis : x y z
#
# Youngs Moduli (GPa) = 181.31718 75.06734 45.14904
#
# Poissons Ratio (x) = 0.15916 0.10557
# Poissons Ratio (y) = 0.38443 0.04391
# Poissons Ratio (z) = 0.42397 0.07301
#
# Static dielectric constant tensor:
#      x y z
#    x 1.853690 0.000000 0.000000 
#    y 0.000000 1.971340 0.000000 
#    z 0.000000 0.000000 1.868940 
# 
# From -- ./inp_files/21819.got.cif
#   From: 2010.05.17/outbox.cif.g08.bks.cpg/sg50_11_cif.got.tgz:21819.got - 2010.06.03 11:33:33.
