data_PCOD9396503
_publ_section_title
;
Structure prediction by ZEFSAII (Michael W. Deem and Ramdas Pophale) SiO2 
 PCOD9396503
Probable space group: P B A N
;
_chemical_formula_sum "Si O2"
_cell_formula_units_Z 54
_cell_length_a 15.989831
_cell_length_b 11.204633
_cell_length_c 14.861971
_cell_angle_alpha 90.000000
_cell_angle_beta 90.000000
_cell_angle_gamma 90.000000
_cell_volume 2662.673520
_symmetry_space_group_name_H-M "P B A N"
_symmetry_group_IT_number 50
_space_group.IT_coordinate_system_code '2'
_symmetry_cell_setting 'orthorhombic'
loop_
_space_group_symop_operation_xyz
x,y,z
1/2-x,1/2-y,z
x,1/2-y,-z
1/2-x,y,-z
-x,-y,-z
1/2+x,1/2+y,-z
-x,1/2+y,z
1/2+x,-y,z
loop_
_atom_site_type_symbol
_atom_site_label
_atom_site_fract_x
_atom_site_fract_y
_atom_site_fract_z
Si Si1 0.724870 0.616660 0.103639
Si Si2 0.552669 0.629834 0.200717
Si Si3 0.296535 0.989352 0.736028
Si Si4 0.858779 0.921156 0.383268
Si Si5 0.532438 0.610617 0.748927
Si Si6 0.750000 0.250000 0.341014
Si Si7 0.581284 0.343803 0.426345
Si Si8 0.750000 0.750000 0.500000
O O1 0.750000 0.750000 0.135445
O O2 0.628408 0.605060 0.131888
O O3 0.775495 0.521634 0.161853
O O4 0.750000 0.607777 0.000000
O O5 0.580859 0.628088 0.306103
O O6 0.528648 0.769587 0.189997
O O7 0.494881 0.511582 0.199402
O O8 0.298846 0.848608 0.718495
O O9 0.216126 0.023343 0.676621
O O10 0.376113 0.071208 0.712529
O O11 0.812085 0.825069 0.440013
O O12 0.902579 0.017105 0.449306
O O13 0.472560 0.641857 0.664644
O O14 0.674516 0.299008 0.401497
O O15 0.547560 0.250000 0.500000
#
# Coordination Sequence:
#
# PCOD9396503 Si02
#       8
#     8   8   8   8   8   4   8   2
#     4  10  20  39  70  91 112 151 207 244 287 367
#     4  10  21  41  61  91 121 162 204 244 309 376
#     4  10  20  39  63  89 120 159 200 251 312 368
#     4   9  22  36  57  82 113 159 215 256 295 360
#     4  11  21  38  61  88 127 163 194 253 320 363
#     4  10  21  38  65  82 116 172 212 242 309 371
#     4  10  22  39  55  84 118 164 213 256 298 364
#     4  12  20  32  54  84 106 144 216 272 300 316
#
# _framework density 20.280370000000001
#
# number of rings (size 3 to 8) (size 9 to 14) (size 15 to 20)
#    0.000    1.926    1.481    2.889    6.222    0.000 
#    8.000    3.333    0.000    0.000    1.926    0.000 
#    0.000    0.000    0.000    0.000    0.000    0.000 
#
# Total GULP energy -300822.439730 kJ/mol
# GULP energy per Si atom -5570.785921 kJ/mol
# Density = 2.023421 g / cm^3
# Si number density = 20.280370 Si / 1000 Ang^3
#
#
#
# Elastic Constant Matrix: (Units=GPa)
#
#
# Indices 1 2 3 4 5 6 
#
# 1 45.6493 11.3313 -6.8857 0.0000 0.0000 0.0000
# 2 11.3313 115.1107 27.3671 0.0000 0.0000 0.0000
# 3 -6.8857 27.3671 50.9329 0.0000 0.0000 0.0000
# 4 0.0000 0.0000 0.0000 6.4681 0.0000 0.0000
# 5 0.0000 0.0000 0.0000 0.0000 6.7735 0.0000
# 6 0.0000 0.0000 0.0000 0.0000 0.0000 28.9738
#
#
#
# Elastic Compliance Matrix: (Units=1/GPa)
#
#
# Indices 1 2 3 4 5 6 
#
# 1 0.023547 -0.003525 0.005077 0.000000 0.000000 0.000000
# 2 -0.003525 0.010487 -0.006112 0.000000 0.000000 0.000000
# 3 0.005077 -0.006112 0.023604 0.000000 0.000000 0.000000
# 4 0.000000 0.000000 0.000000 0.154604 0.000000 0.000000
# 5 0.000000 0.000000 0.000000 0.000000 0.147633 0.000000
# 6 0.000000 0.000000 0.000000 0.000000 0.000000 0.034514
#
#
# Mechanical properties :
#
#
# Convention : Reuss Voigt Hill
#
# Bulk Modulus (GPa) = 20.61013 30.59093 25.60053
# Shear Modulus (GPa) = 11.91381 20.43511 16.17446
#
# Velocity S-wave (km/s) = 2.42638 3.17776 2.82714
# Velocity P-wave (km/s) = 4.24669 5.34612 4.82780
#
# Compressibility (1/GPa) = 0.04851984
#
# Stress axis : x y z
#
# Youngs Moduli (GPa) = 42.46826 95.35353 42.36579
#
# Poissons Ratio (x) = 0.33613 -0.21511
# Poissons Ratio (y) = 0.14970 0.25892
# Poissons Ratio (z) = -0.21563 0.58276
#
# Static dielectric constant tensor:
#      x y z
#    x 1.760190 0.000000 0.000000 
#    y 0.000000 1.869790 0.000000 
#    z 0.000000 0.000000 1.672540 
# 
# From -- ./inp_files/25983.got.cif
#   From: 2010.05.17/outbox.cif.g08.bks.cpg/sg50_13_cif.got.tgz:25983.got - 2010.06.03 11:33:33.
