data_PCOD9396726
_publ_section_title
;
Structure prediction by ZEFSAII (Michael W. Deem and Ramdas Pophale) SiO2 
 PCOD9396726
Probable space group: P B A N
;
_chemical_formula_sum "Si O2"
_cell_formula_units_Z 58
_cell_length_a 18.079679
_cell_length_b 8.651457
_cell_length_c 15.077427
_cell_angle_alpha 90.000000
_cell_angle_beta 90.000000
_cell_angle_gamma 90.000000
_cell_volume 2358.344270
_symmetry_space_group_name_H-M "P B A N"
_symmetry_group_IT_number 50
_space_group.IT_coordinate_system_code '2'
_symmetry_cell_setting 'orthorhombic'
loop_
_space_group_symop_operation_xyz
x,y,z
1/2-x,1/2-y,z
x,1/2-y,-z
1/2-x,y,-z
-x,-y,-z
1/2+x,1/2+y,-z
-x,1/2+y,z
1/2+x,-y,z
loop_
_atom_site_type_symbol
_atom_site_label
_atom_site_fract_x
_atom_site_fract_y
_atom_site_fract_z
Si Si1 0.418322 0.463004 0.083290
Si Si2 0.074901 0.384807 0.110154
Si Si3 0.618914 0.455391 0.586653
Si Si4 0.600915 0.996373 0.704225
Si Si5 0.740080 0.931275 0.283481
Si Si6 0.016048 0.222635 0.384649
Si Si7 0.272290 0.582386 0.104004
Si Si8 0.250000 0.750000 0.500000
O O1 0.422670 0.297101 0.130382
O O2 0.493285 0.555071 0.089925
O O3 0.359718 0.584552 0.114037
O O4 0.389969 0.418040 0.984789
O O5 0.102302 0.486620 0.190179
O O6 0.662325 0.504314 0.678015
O O7 0.550307 0.335258 0.582478
O O8 0.572464 0.611275 0.559500
O O9 0.688389 0.372996 0.538876
O O10 0.686689 0.018756 0.676876
O O11 0.571235 0.832356 0.669370
O O12 0.536324 0.110599 0.673826
O O13 0.750000 0.750000 0.304980
O O14 0.745977 0.951662 0.176635
O O15 0.250000 0.750000 0.136779
O O16 0.250000 0.566587 0.000000
#
# Coordination Sequence:
#
# PCOD9396726 Si02
#       8
#     8   8   8   8   8   8   8   2
#     4  10  22  39  55  86 124 174 240 307 366 456
#     4  10  21  36  62  87 126 174 236 300 377 427
#     4  11  26  51  77 123 149 212 242 315 377 460
#     4  11  21  37  65 100 137 193 233 315 357 450
#     4  12  25  44  73 106 149 196 260 317 390 458
#     4  10  24  43  75 107 155 184 255 289 369 452
#     4  11  27  43  62  93 140 198 257 321 389 454
#     4  12  28  52  90 116 174 190 250 304 384 452
#
# _framework density 24.593526000000001
#
# number of rings (size 3 to 8) (size 9 to 14) (size 15 to 20)
#    0.000    1.241    1.379    3.310    6.759    7.448 
#    0.000    0.345    0.000    0.000    0.000    0.000 
#    0.000    0.000    0.000    0.000    0.000    0.000 
#
# Total GULP energy -323032.787303 kJ/mol
# GULP energy per Si atom -5569.530816 kJ/mol
# Density = 2.453755 g / cm^3
# Si number density = 24.593526 Si / 1000 Ang^3
#
#
#
# Elastic Constant Matrix: (Units=GPa)
#
#
# Indices 1 2 3 4 5 6 
#
# 1 156.8420 39.8061 20.6415 0.0000 0.0000 0.0000
# 2 39.8061 100.6639 19.2930 0.0000 0.0000 0.0000
# 3 20.6415 19.2930 67.2963 0.0000 0.0000 0.0000
# 4 0.0000 0.0000 0.0000 -0.9089 0.0000 0.0000
# 5 0.0000 0.0000 0.0000 0.0000 15.4232 0.0000
# 6 0.0000 0.0000 0.0000 0.0000 0.0000 45.6982
#
#
#
# Elastic Compliance Matrix: (Units=1/GPa)
#
#
# Indices 1 2 3 4 5 6 
#
# 1 0.007223 -0.002573 -0.001478 0.000000 0.000000 0.000000
# 2 -0.002573 0.011428 -0.002487 0.000000 0.000000 0.000000
# 3 -0.001478 -0.002487 0.016026 0.000000 0.000000 0.000000
# 4 0.000000 0.000000 0.000000 -1.100239 0.000000 0.000000
# 5 0.000000 0.000000 0.000000 0.000000 0.064837 0.000000
# 6 0.000000 0.000000 0.000000 0.000000 0.000000 0.021883
#
#
# Mechanical properties :
#
#
# Convention : Reuss Voigt Hill
#
# Bulk Modulus (GPa) = 46.29339 53.80925 50.05132
# Shear Modulus (GPa) = -5.21613 28.37994 11.58190
#
# Velocity S-wave (km/s) = -1.45792 3.40068 2.17245
# Velocity P-wave (km/s) = 4.00378 6.11118 5.16608
#
# Compressibility (1/GPa) = 0.02160135
#
# Stress axis : x y z
#
# Youngs Moduli (GPa) = 138.43890 87.50270 62.39865
#
# Poissons Ratio (x) = 0.22516 0.09222
# Poissons Ratio (y) = 0.35622 0.15519
# Poissons Ratio (z) = 0.20460 0.21763
#
# Static dielectric constant tensor:
#      x y z
#    x 1.859600 0.000000 0.000000 
#    y 0.000000 1.905460 0.000000 
#    z 0.000000 0.000000 2.071960 
# 
# From -- ./inp_files/29704.got.cif
#   From: 2010.05.17/outbox.cif.g08.bks.cpg/sg50_15_cif.got.tgz:29704.got - 2010.06.03 11:33:33.
