data_PCOD9396820
_publ_section_title
;
Structure prediction by ZEFSAII (Michael W. Deem and Ramdas Pophale) SiO2 
 PCOD9396820
Probable space group: P B A N
;
_chemical_formula_sum "Si O2"
_cell_formula_units_Z 44
_cell_length_a 13.595399
_cell_length_b 26.616703
_cell_length_c 5.528479
_cell_angle_alpha 90.000000
_cell_angle_beta 90.000000
_cell_angle_gamma 90.000000
_cell_volume 2000.561380
_symmetry_space_group_name_H-M "P B A N"
_symmetry_group_IT_number 50
_space_group.IT_coordinate_system_code '2'
_symmetry_cell_setting 'orthorhombic'
loop_
_space_group_symop_operation_xyz
x,y,z
1/2-x,1/2-y,z
x,1/2-y,-z
1/2-x,y,-z
-x,-y,-z
1/2+x,1/2+y,-z
-x,1/2+y,z
1/2+x,-y,z
loop_
_atom_site_type_symbol
_atom_site_label
_atom_site_fract_x
_atom_site_fract_y
_atom_site_fract_z
Si Si1 0.131638 0.419807 0.004172
Si Si2 0.132223 0.908664 0.458100
Si Si3 0.956363 0.250000 0.500000
Si Si4 0.354516 0.679815 0.128507
Si Si5 0.630786 0.525708 0.507670
Si Si6 0.492069 0.337745 0.230592
O O1 0.101687 0.452975 0.770174
O O2 0.087495 0.365897 0.931617
O O3 0.250000 0.417834 0.000000
O O4 0.100028 0.443356 0.264618
O O5 0.250000 0.904250 0.500000
O O6 0.123385 0.878114 0.206928
O O7 0.063286 0.878318 0.641348
O O8 0.105238 0.966868 0.486652
O O9 0.877480 0.215776 0.649450
O O10 0.032386 0.205320 0.421181
O O11 0.250000 0.683740 0.000000
O O12 0.436319 0.693893 0.937735
O O13 0.750000 0.527972 0.500000
#
# Coordination Sequence:
#
# PCOD9396820 Si02
#       6
#     8   8   4   8   8   8
#     4  10  23  43  66  97 128 175 221 277 335 397
#     4  10  21  38  59  94 136 172 215 261 319 402
#     4  10  26  43  60  95 124 170 228 281 342 411
#     4  11  23  41  63  91 131 173 216 268 335 407
#     4   9  21  39  65  94 133 175 218 267 328 394
#     4  11  24  40  65  90 127 173 217 277 337 399
#
# _framework density 21.993825000000001
#
# number of rings (size 3 to 8) (size 9 to 14) (size 15 to 20)
#    0.000    1.818    1.818    0.545    7.636    4.364 
#    0.000    0.000    0.000    3.273    0.000    0.000 
#    0.000    0.000    0.000    0.000    0.000    0.000 
#
# Total GULP energy -245192.009693 kJ/mol
# GULP energy per Si atom -5572.545675 kJ/mol
# Density = 2.194377 g / cm^3
# Si number density = 21.993825 Si / 1000 Ang^3
#
#
#
# Elastic Constant Matrix: (Units=GPa)
#
#
# Indices 1 2 3 4 5 6 
#
# 1 57.8464 33.6232 26.0139 0.0000 0.0000 0.0000
# 2 33.6232 161.6647 52.0754 0.0000 0.0000 0.0000
# 3 26.0139 52.0754 96.8122 0.0000 0.0000 0.0000
# 4 0.0000 0.0000 0.0000 -91.2254 0.0000 0.0000
# 5 0.0000 0.0000 0.0000 0.0000 19.4080 0.0000
# 6 0.0000 0.0000 0.0000 0.0000 0.0000 44.7865
#
#
#
# Elastic Compliance Matrix: (Units=1/GPa)
#
#
# Indices 1 2 3 4 5 6 
#
# 1 0.020845 -0.003062 -0.003954 0.000000 0.000000 0.000000
# 2 -0.003062 0.007932 -0.003444 0.000000 0.000000 0.000000
# 3 -0.003954 -0.003444 0.013244 0.000000 0.000000 0.000000
# 4 0.000000 0.000000 0.000000 -0.010962 0.000000 0.000000
# 5 0.000000 0.000000 0.000000 0.000000 0.051525 0.000000
# 6 0.000000 0.000000 0.000000 0.000000 0.000000 0.022328
#
#
# Mechanical properties :
#
#
# Convention : Reuss Voigt Hill
#
# Bulk Modulus (GPa) = 47.38998 59.97203 53.68100
# Shear Modulus (GPa) = 37.63200 8.23454 22.93327
#
# Velocity S-wave (km/s) = 4.14094 1.93705 3.23261
# Velocity P-wave (km/s) = 6.66760 5.68592 6.19624
#
# Compressibility (1/GPa) = 0.02110151
#
# Stress axis : x y z
#
# Youngs Moduli (GPa) = 47.97321 126.07606 75.50445
#
# Poissons Ratio (x) = 0.38599 0.29857
# Poissons Ratio (y) = 0.14687 0.26002
# Poissons Ratio (z) = 0.18970 0.43418
#
# Static dielectric constant tensor:
#      x y z
#    x 1.897940 0.000000 0.000000 
#    y 0.000000 1.847860 0.000000 
#    z 0.000000 0.000000 1.710110 
# 
# From -- ./inp_files/3485.got.cif
#   From: 2010.05.17/outbox.cif.g08.bks.cpg/sg50_2_cif.got.tgz:3485.got - 2010.06.03 11:33:33.
