data_PCOD9396020
_publ_section_title
;
Structure prediction by ZEFSAII (Michael W. Deem and Ramdas Pophale) SiO2 
 PCOD9396020
Probable space group: P B A N
;
_chemical_formula_sum "Si O2"
_cell_formula_units_Z 32
_cell_length_a 25.971283
_cell_length_b 11.316091
_cell_length_c 5.380220
_cell_angle_alpha 90.000000
_cell_angle_beta 90.000000
_cell_angle_gamma 90.000000
_cell_volume 1581.211158
_symmetry_space_group_name_H-M "P B A N"
_symmetry_group_IT_number 50
_space_group.IT_coordinate_system_code '2'
_symmetry_cell_setting 'orthorhombic'
loop_
_space_group_symop_operation_xyz
x,y,z
1/2-x,1/2-y,z
x,1/2-y,-z
1/2-x,y,-z
-x,-y,-z
1/2+x,1/2+y,-z
-x,1/2+y,z
1/2+x,-y,z
loop_
_atom_site_type_symbol
_atom_site_label
_atom_site_fract_x
_atom_site_fract_y
_atom_site_fract_z
Si Si1 0.061808 0.627541 0.398831
Si Si2 0.108103 0.410656 0.171875
Si Si3 0.771871 0.884108 0.248514
Si Si4 0.052757 0.392740 0.667386
O O1 0.083025 0.750000 0.500000
O O2 0.097223 0.550802 0.214826
O O3 0.051203 0.536042 0.626115
O O4 0.005209 0.648211 0.282793
O O5 0.166836 0.381571 0.231318
O O6 0.072929 0.356765 0.392506
O O7 0.090491 0.373083 0.898388
O O8 0.750000 0.750000 0.249061
O O9 0.750000 0.939908 0.500000
O O10 0.750000 0.942603 0.000000
#
# Coordination Sequence:
#
# PCOD9396020 Si02
#       4
#     8   8   8   8
#     4   9  20  36  56  86 117 152 192 234 281 357
#     4  10  19  38  56  78 116 156 185 241 293 336
#     4  10  21  38  57  84 113 145 196 240 292 344
#     4   9  20  36  54  86 117 151 189 232 284 353
#
# _framework density 20.237649999999999
#
# number of rings (size 3 to 8) (size 9 to 14) (size 15 to 20)
#    1.500    1.000    0.000    2.250    0.000    1.000 
#   13.500    0.000    0.000    0.750    0.000    0.000 
#    0.000    0.000    0.000    0.000    0.000    0.000 
#
# Total GULP energy -178341.291519 kJ/mol
# GULP energy per Si atom -5573.165360 kJ/mol
# Density = 2.019159 g / cm^3
# Si number density = 20.237650 Si / 1000 Ang^3
#
#
#
# Elastic Constant Matrix: (Units=GPa)
#
#
# Indices 1 2 3 4 5 6 
#
# 1 142.3693 -0.9361 41.8682 0.0000 0.0000 0.0000
# 2 -0.9361 39.4435 8.8246 0.0000 0.0000 0.0000
# 3 41.8682 8.8246 147.0921 0.0000 0.0000 0.0000
# 4 0.0000 0.0000 0.0000 12.6666 0.0000 0.0000
# 5 0.0000 0.0000 0.0000 0.0000 37.3185 0.0000
# 6 0.0000 0.0000 0.0000 0.0000 0.0000 19.7730
#
#
#
# Elastic Compliance Matrix: (Units=1/GPa)
#
#
# Indices 1 2 3 4 5 6 
#
# 1 0.007684 0.000681 -0.002228 0.000000 0.000000 0.000000
# 2 0.000681 0.025758 -0.001739 0.000000 0.000000 0.000000
# 3 -0.002228 -0.001739 0.007537 0.000000 0.000000 0.000000
# 4 0.000000 0.000000 0.000000 0.078948 0.000000 0.000000
# 5 0.000000 0.000000 0.000000 0.000000 0.026796 0.000000
# 6 0.000000 0.000000 0.000000 0.000000 0.000000 0.050574
#
#
# Mechanical properties :
#
#
# Convention : Reuss Voigt Hill
#
# Bulk Modulus (GPa) = 29.06459 47.60204 38.33332
# Shear Modulus (GPa) = 23.21931 32.56149 27.89040
#
# Velocity S-wave (km/s) = 3.39090 4.01553 3.71636
# Velocity P-wave (km/s) = 5.45195 6.71356 6.11538
#
# Compressibility (1/GPa) = 0.03440612
#
# Stress axis : x y z
#
# Youngs Moduli (GPa) = 130.14647 38.82296 132.67970
#
# Poissons Ratio (x) = -0.02643 0.29560
# Poissons Ratio (y) = -0.08860 0.23074
# Poissons Ratio (z) = 0.28995 0.06752
#
# Static dielectric constant tensor:
#      x y z
#    x 1.686410 0.000000 0.000000 
#    y 0.000000 1.803490 0.000000 
#    z 0.000000 0.000000 1.713960 
# 
# From -- ./inp_files/1991.got.cif
#   From: 2010.05.17/outbox.cif.g08.bks.cpg/sg50_1_cif.got.tgz:1991.got - 2010.06.03 11:33:33.
