data_PCOD9396524
_publ_section_title
;
Structure prediction by ZEFSAII (Michael W. Deem and Ramdas Pophale) SiO2 
 PCOD9396524
Probable space group: P B A N
;
_chemical_formula_sum "Si O2"
_cell_formula_units_Z 56
_cell_length_a 12.126240
_cell_length_b 14.772270
_cell_length_c 14.561338
_cell_angle_alpha 90.000000
_cell_angle_beta 90.000000
_cell_angle_gamma 90.000000
_cell_volume 2608.402929
_symmetry_space_group_name_H-M "P B A N"
_symmetry_group_IT_number 50
_space_group.IT_coordinate_system_code '2'
_symmetry_cell_setting 'orthorhombic'
loop_
_space_group_symop_operation_xyz
x,y,z
1/2-x,1/2-y,z
x,1/2-y,-z
1/2-x,y,-z
-x,-y,-z
1/2+x,1/2+y,-z
-x,1/2+y,z
1/2+x,-y,z
loop_
_atom_site_type_symbol
_atom_site_label
_atom_site_fract_x
_atom_site_fract_y
_atom_site_fract_z
Si Si1 0.125592 0.895653 0.456340
Si Si2 0.867058 0.877727 0.792757
Si Si3 0.651034 0.183911 0.271356
Si Si4 0.474693 0.012174 0.104446
Si Si5 0.193419 0.513908 0.241213
Si Si6 0.987330 0.775885 0.107297
Si Si7 0.005851 0.068734 0.374391
O O1 0.250000 0.892234 0.500000
O O2 0.097063 0.831309 0.370601
O O3 0.046866 0.878990 0.541743
O O4 0.090916 0.994992 0.416323
O O5 0.746977 0.914609 0.766968
O O6 0.892308 0.792448 0.857323
O O7 0.932973 0.868102 0.698039
O O8 0.926040 0.963449 0.842496
O O9 0.750000 0.250000 0.289544
O O10 0.584380 0.224314 0.184762
O O11 0.711476 0.087510 0.254792
O O12 0.366696 0.965042 0.144986
O O13 0.457484 0.118819 0.114996
O O14 0.500000 0.000000 0.000000
O O15 0.097007 0.522205 0.318121
O O16 0.014213 0.750000 0.000000
#
# Coordination Sequence:
#
# PCOD9396524 Si02
#       7
#     8   8   8   8   8   8   8
#     4  11  21  39  68 102 135 179 229 281 349 430
#     4  11  22  44  67  96 140 179 231 285 349 416
#     4  12  24  42  64 104 140 172 231 288 358 419
#     4  11  23  43  65  94 134 175 229 292 345 412
#     4  11  22  43  69  95 137 183 221 289 357 411
#     4  12  26  45  66  98 135 186 236 288 348 421
#     4  10  20  39  68 102 135 181 227 280 352 427
#
# _framework density 21.469075
#
# number of rings (size 3 to 8) (size 9 to 14) (size 15 to 20)
#    0.000    0.857    5.714    2.571    0.000    1.714 
#    0.000    0.714    0.000    0.000    0.000    0.000 
#    0.000    0.000    0.000    0.000    0.000    0.000 
#
# Total GULP energy -312198.793888 kJ/mol
# GULP energy per Si atom -5574.978462 kJ/mol
# Density = 2.142021 g / cm^3
# Si number density = 21.469075 Si / 1000 Ang^3
#
#
#
# Elastic Constant Matrix: (Units=GPa)
#
#
# Indices 1 2 3 4 5 6 
#
# 1 41.5121 1.8133 26.9569 0.0000 0.0000 0.0000
# 2 1.8133 83.9018 12.4834 0.0000 0.0000 0.0000
# 3 26.9569 12.4834 156.2250 0.0000 0.0000 0.0000
# 4 0.0000 0.0000 0.0000 76.1477 0.0000 0.0000
# 5 0.0000 0.0000 0.0000 0.0000 28.6300 0.0000
# 6 0.0000 0.0000 0.0000 0.0000 0.0000 22.1410
#
#
#
# Elastic Compliance Matrix: (Units=1/GPa)
#
#
# Indices 1 2 3 4 5 6 
#
# 1 0.027130 0.000112 -0.004690 0.000000 0.000000 0.000000
# 2 0.000112 0.012063 -0.000983 0.000000 0.000000 0.000000
# 3 -0.004690 -0.000983 0.007289 0.000000 0.000000 0.000000
# 4 0.000000 0.000000 0.000000 0.013132 0.000000 0.000000
# 5 0.000000 0.000000 0.000000 0.000000 0.034928 0.000000
# 6 0.000000 0.000000 0.000000 0.000000 0.000000 0.045165
#
#
# Mechanical properties :
#
#
# Convention : Reuss Voigt Hill
#
# Bulk Modulus (GPa) = 28.28222 40.46070 34.37146
# Shear Modulus (GPa) = 30.74703 41.40942 36.07822
#
# Velocity S-wave (km/s) = 3.78849 4.39657 4.10381
# Velocity P-wave (km/s) = 5.68673 6.68282 6.20479
#
# Compressibility (1/GPa) = 0.03535790
#
# Stress axis : x y z
#
# Youngs Moduli (GPa) = 36.85924 82.90116 137.19490
#
# Poissons Ratio (x) = -0.00924 0.64348
# Poissons Ratio (y) = -0.00411 0.13488
# Poissons Ratio (z) = 0.17288 0.08150
#
# Static dielectric constant tensor:
#      x y z
#    x 1.808550 0.000000 0.000000 
#    y 0.000000 1.839660 0.000000 
#    z 0.000000 0.000000 1.778900 
# 
# From -- ./inp_files/25961.got.cif
#   From: 2010.05.17/outbox.cif.g08.bks.cpg/sg50_13_cif.got.tgz:25961.got - 2010.06.03 11:33:33.
