data_PCOD9396973
_publ_section_title
;
Structure prediction by ZEFSAII (Michael W. Deem and Ramdas Pophale) SiO2 
 PCOD9396973
Probable space group: P B A N
;
_chemical_formula_sum "Si O2"
_cell_formula_units_Z 64
_cell_length_a 24.994015
_cell_length_b 8.984076
_cell_length_c 14.848779
_cell_angle_alpha 90.000000
_cell_angle_beta 90.000000
_cell_angle_gamma 90.000000
_cell_volume 3334.265562
_symmetry_space_group_name_H-M "P B A N"
_symmetry_group_IT_number 50
_space_group.IT_coordinate_system_code '2'
_symmetry_cell_setting 'orthorhombic'
loop_
_space_group_symop_operation_xyz
x,y,z
1/2-x,1/2-y,z
x,1/2-y,-z
1/2-x,y,-z
-x,-y,-z
1/2+x,1/2+y,-z
-x,1/2+y,z
1/2+x,-y,z
loop_
_atom_site_type_symbol
_atom_site_label
_atom_site_fract_x
_atom_site_fract_y
_atom_site_fract_z
Si Si1 0.807569 0.667553 0.301330
Si Si2 0.108812 0.410804 0.833294
Si Si3 0.746308 0.084027 0.607474
Si Si4 0.035420 0.932332 0.302234
Si Si5 0.537819 0.141042 0.585423
Si Si6 0.568589 0.914207 0.819458
Si Si7 0.632529 0.941389 0.639102
Si Si8 0.059252 0.927060 0.998649
O O1 0.750000 0.750000 0.294031
O O2 0.832802 0.637172 0.202890
O O3 0.792763 0.516822 0.351910
O O4 0.848657 0.767710 0.361845
O O5 0.085392 0.493615 0.745577
O O6 0.076895 0.256795 0.847305
O O7 0.096129 0.510611 0.920244
O O8 0.750000 0.250000 0.641947
O O9 0.750000 0.081367 0.500000
O O10 0.687854 0.025248 0.630485
O O11 0.046083 0.765616 0.336625
O O12 0.989915 0.929287 0.224665
O O13 0.011629 0.037969 0.381711
O O14 0.529583 0.250000 0.500000
O O15 0.587672 0.024825 0.578291
O O16 0.607904 0.952116 0.738199
O O17 0.580476 0.018873 0.902650
O O18 0.054859 0.750000 0.000000
O O19 0.000000 0.000000 0.000000
#
# Coordination Sequence:
#
# PCOD9396973 Si02
#       8
#     8   8   8   8   8   8   8   8
#     4   9  21  43  63  90 120 163 213 263 322 379
#     4  11  22  38  65  90 121 169 208 253 322 373
#     4  10  22  38  63  94 124 153 211 272 322 365
#     4  11  22  37  58  84 122 172 207 250 311 375
#     4  11  24  39  58  85 129 169 214 261 308 386
#     4  10  21  41  58  86 128 159 207 244 311 374
#     4   9  22  38  62  84 117 168 200 258 320 368
#     4  12  25  35  59  96 128 163 202 254 302 382
#
# _framework density 19.194631999999999
#
# number of rings (size 3 to 8) (size 9 to 14) (size 15 to 20)
#    0.000    1.625    2.500    1.500    7.000    2.250 
#    0.000    1.250    0.000   12.750    0.000    8.750 
#    0.000    0.000    0.000    0.000    0.000    0.000 
#
# Total GULP energy -356936.817273 kJ/mol
# GULP energy per Si atom -5577.137770 kJ/mol
# Density = 1.915094 g / cm^3
# Si number density = 19.194632 Si / 1000 Ang^3
#
#
#
# Elastic Constant Matrix: (Units=GPa)
#
#
# Indices 1 2 3 4 5 6 
#
# 1 44.8069 17.3859 9.7051 0.0000 0.0000 0.0000
# 2 17.3859 134.0826 34.7948 0.0000 0.0000 0.0000
# 3 9.7051 34.7948 38.4921 0.0000 0.0000 0.0000
# 4 0.0000 0.0000 0.0000 33.9917 0.0000 0.0000
# 5 0.0000 0.0000 0.0000 0.0000 3.0157 0.0000
# 6 0.0000 0.0000 0.0000 0.0000 0.0000 20.2393
#
#
#
# Elastic Compliance Matrix: (Units=1/GPa)
#
#
# Indices 1 2 3 4 5 6 
#
# 1 0.024017 -0.002016 -0.004233 0.000000 0.000000 0.000000
# 2 -0.002016 0.009913 -0.008453 0.000000 0.000000 0.000000
# 3 -0.004233 -0.008453 0.034687 0.000000 0.000000 0.000000
# 4 0.000000 0.000000 0.000000 0.029419 0.000000 0.000000
# 5 0.000000 0.000000 0.000000 0.000000 0.331593 0.000000
# 6 0.000000 0.000000 0.000000 0.000000 0.000000 0.049409
#
#
# Mechanical properties :
#
#
# Convention : Reuss Voigt Hill
#
# Bulk Modulus (GPa) = 25.50099 37.90590 31.70345
# Shear Modulus (GPa) = 9.58750 21.81574 15.70162
#
# Velocity S-wave (km/s) = 2.23735 3.37494 2.86321
# Velocity P-wave (km/s) = 4.47086 5.91422 5.24245
#
# Compressibility (1/GPa) = 0.03921416
#
# Stress axis : x y z
#
# Youngs Moduli (GPa) = 41.63710 100.87862 28.82889
#
# Poissons Ratio (x) = 0.20333 0.12205
# Poissons Ratio (y) = 0.08392 0.24368
# Poissons Ratio (z) = 0.17627 0.85268
#
# Static dielectric constant tensor:
#      x y z
#    x 1.663530 0.000000 0.000000 
#    y 0.000000 1.717630 0.000000 
#    z 0.000000 0.000000 1.683610 
# 
# From -- ./inp_files/27495.got.cif
#   From: 2010.05.17/outbox.cif.g08.bks.cpg/sg50_14_cif.got.tgz:27495.got - 2010.06.03 11:33:33.
