data_PCOD9396951
_publ_section_title
;
Structure prediction by ZEFSAII (Michael W. Deem and Ramdas Pophale) SiO2 
 PCOD9396951
Probable space group: P B A N
;
_chemical_formula_sum "Si O2"
_cell_formula_units_Z 56
_cell_length_a 20.188638
_cell_length_b 9.641863
_cell_length_c 14.784841
_cell_angle_alpha 90.000000
_cell_angle_beta 90.000000
_cell_angle_gamma 90.000000
_cell_volume 2877.959218
_symmetry_space_group_name_H-M "P B A N"
_symmetry_group_IT_number 50
_space_group.IT_coordinate_system_code '2'
_symmetry_cell_setting 'orthorhombic'
loop_
_space_group_symop_operation_xyz
x,y,z
1/2-x,1/2-y,z
x,1/2-y,-z
1/2-x,y,-z
-x,-y,-z
1/2+x,1/2+y,-z
-x,1/2+y,z
1/2+x,-y,z
loop_
_atom_site_type_symbol
_atom_site_label
_atom_site_fract_x
_atom_site_fract_y
_atom_site_fract_z
Si Si1 0.524025 0.620188 0.064235
Si Si2 0.918749 0.913811 0.357654
Si Si3 0.533071 0.285919 0.396345
Si Si4 0.770123 0.087826 0.768154
Si Si5 0.728082 0.910078 0.595947
Si Si6 0.088440 0.812275 0.206953
Si Si7 0.135627 0.994411 0.835977
O O1 0.475821 0.633317 0.152476
O O2 0.599352 0.585233 0.090009
O O3 0.519003 0.750000 0.000000
O O4 0.500000 0.500000 0.000000
O O5 0.850919 0.913270 0.411341
O O6 0.960760 0.777335 0.377089
O O7 0.961830 0.049072 0.382863
O O8 0.891040 0.936381 0.256700
O O9 0.552176 0.250000 0.500000
O O10 0.575160 0.217301 0.313807
O O11 0.750000 0.250000 0.754986
O O12 0.846427 0.091039 0.799183
O O13 0.714751 0.022261 0.834785
O O14 0.757470 0.003429 0.676082
O O15 0.750000 0.750000 0.608337
O O16 0.750000 0.965781 0.500000
O O17 0.106794 0.662319 0.164577
#
# Coordination Sequence:
#
# PCOD9396951 Si02
#       7
#     8   8   8   8   8   8   8
#     4  12  23  40  68  98 126 167 211 267 332 401
#     4  10  22  40  59  91 126 168 215 266 320 379
#     4  11  23  36  62  95 131 167 210 270 318 385
#     4   9  20  41  68  89 126 170 213 269 327 379
#     4  10  23  40  58  85 129 176 222 267 317 397
#     4  10  21  40  64  97 126 170 210 266 329 383
#     4   9  19  42  63  94 129 160 215 264 319 396
#
# _framework density 19.458231000000001
#
# number of rings (size 3 to 8) (size 9 to 14) (size 15 to 20)
#    0.000    1.857    2.857    1.286    4.000    1.429 
#    5.143    0.714    0.000    0.857    0.000    0.000 
#    0.000    0.000    0.000    0.000    0.000    0.000 
#
# Total GULP energy -312177.447504 kJ/mol
# GULP energy per Si atom -5574.597277 kJ/mol
# Density = 1.941394 g / cm^3
# Si number density = 19.458231 Si / 1000 Ang^3
#
#
#
# Elastic Constant Matrix: (Units=GPa)
#
#
# Indices 1 2 3 4 5 6 
#
# 1 138.1180 43.6436 31.7727 0.0000 0.0000 0.0000
# 2 43.6436 66.8362 23.8896 0.0000 0.0000 0.0000
# 3 31.7727 23.8896 57.4980 0.0000 0.0000 0.0000
# 4 0.0000 0.0000 0.0000 32.6679 0.0000 0.0000
# 5 0.0000 0.0000 0.0000 0.0000 61.4984 0.0000
# 6 0.0000 0.0000 0.0000 0.0000 0.0000 29.0808
#
#
#
# Elastic Compliance Matrix: (Units=1/GPa)
#
#
# Indices 1 2 3 4 5 6 
#
# 1 0.009590 -0.005130 -0.003168 0.000000 0.000000 0.000000
# 2 -0.005130 0.020316 -0.005606 0.000000 0.000000 0.000000
# 3 -0.003168 -0.005606 0.021472 0.000000 0.000000 0.000000
# 4 0.000000 0.000000 0.000000 0.030611 0.000000 0.000000
# 5 0.000000 0.000000 0.000000 0.000000 0.016261 0.000000
# 6 0.000000 0.000000 0.000000 0.000000 0.000000 0.034387
#
#
# Mechanical properties :
#
#
# Convention : Reuss Voigt Hill
#
# Bulk Modulus (GPa) = 42.42781 51.22933 46.82857
# Shear Modulus (GPa) = 29.70884 35.52581 32.61732
#
# Velocity S-wave (km/s) = 3.91167 4.27751 4.09867
# Velocity P-wave (km/s) = 6.50026 7.12609 6.82036
#
# Compressibility (1/GPa) = 0.02356944
#
# Stress axis : x y z
#
# Youngs Moduli (GPa) = 104.27643 49.22340 46.57286
#
# Poissons Ratio (x) = 0.25251 0.14754
# Poissons Ratio (y) = 0.53492 0.26109
# Poissons Ratio (z) = 0.33034 0.27595
#
# Static dielectric constant tensor:
#      x y z
#    x 1.688260 0.000000 0.000000 
#    y 0.000000 1.662200 0.000000 
#    z 0.000000 0.000000 1.711120 
# 
# From -- ./inp_files/27259.got.cif
#   From: 2010.05.17/outbox.cif.g08.bks.cpg/sg50_14_cif.got.tgz:27259.got - 2010.06.03 11:33:33.
