data_PCOD9396043
_publ_section_title
;
Structure prediction by ZEFSAII (Michael W. Deem and Ramdas Pophale) SiO2 
 PCOD9396043
Probable space group: P B A N
;
_chemical_formula_sum "Si O2"
_cell_formula_units_Z 58
_cell_length_a 27.658219
_cell_length_b 5.673819
_cell_length_c 18.259780
_cell_angle_alpha 90.000000
_cell_angle_beta 90.000000
_cell_angle_gamma 90.000000
_cell_volume 2865.465798
_symmetry_space_group_name_H-M "P B A N"
_symmetry_group_IT_number 50
_space_group.IT_coordinate_system_code '2'
_symmetry_cell_setting 'orthorhombic'
loop_
_space_group_symop_operation_xyz
x,y,z
1/2-x,1/2-y,z
x,1/2-y,-z
1/2-x,y,-z
-x,-y,-z
1/2+x,1/2+y,-z
-x,1/2+y,z
1/2+x,-y,z
loop_
_atom_site_type_symbol
_atom_site_label
_atom_site_fract_x
_atom_site_fract_y
_atom_site_fract_z
Si Si1 0.301701 0.156602 0.765102
Si Si2 0.818454 0.075076 0.614353
Si Si3 0.131361 0.968464 0.685188
Si Si4 0.474516 0.428928 0.283402
Si Si5 0.750000 0.250000 0.500000
Si Si6 0.608150 0.090017 0.192769
Si Si7 0.973266 0.242506 0.912124
Si Si8 0.418952 0.301302 0.415071
O O1 0.250000 0.250000 0.792223
O O2 0.335074 0.363032 0.732946
O O3 0.294802 0.002853 0.691145
O O4 0.338065 0.014260 0.818753
O O5 0.834783 0.342910 0.626036
O O6 0.781620 0.078368 0.549511
O O7 0.867064 0.930814 0.595646
O O8 0.113034 0.777369 0.742115
O O9 0.088369 0.073987 0.636899
O O10 0.495665 0.690090 0.267556
O O11 0.427003 0.400898 0.231947
O O12 0.459345 0.438995 0.369180
O O13 0.578611 0.200646 0.126017
O O14 0.996213 0.500905 0.892956
O O15 0.968771 0.250000 0.000000
O O16 0.428157 0.250000 0.500000
#
# Coordination Sequence:
#
# PCOD9396043 Si02
#       8
#     8   8   8   8   2   8   8   8
#     4  10  21  36  59  88 123 161 215 274 322 388
#     4  10  21  36  52  81 112 154 207 268 345 400
#     4  10  19  39  60  82 122 162 215 270 328 401
#     4  12  25  41  62  88 115 160 218 265 318 389
#     4  12  20  32  58  84 104 162 206 276 358 420
#     4  11  22  39  65  94 127 173 210 262 330 391
#     4  10  23  42  69 109 150 177 213 264 329 400
#     4  11  23  39  56  78 114 162 208 280 336 387
#
# _framework density 20.241036999999999
#
# number of rings (size 3 to 8) (size 9 to 14) (size 15 to 20)
#    0.000    1.379    4.138    3.310    1.931    3.310 
#    0.000    2.759    0.000    0.000    0.000    2.897 
#    0.000    0.000    0.000    0.000    0.000    0.000 
#
# Total GULP energy -323501.645741 kJ/mol
# GULP energy per Si atom -5577.614582 kJ/mol
# Density = 2.019497 g / cm^3
# Si number density = 20.241037 Si / 1000 Ang^3
#
#
#
# Elastic Constant Matrix: (Units=GPa)
#
#
# Indices 1 2 3 4 5 6 
#
# 1 111.9535 40.5395 33.7476 0.0000 0.0000 0.0000
# 2 40.5395 84.4169 20.3033 0.0000 0.0000 0.0000
# 3 33.7476 20.3033 66.7080 0.0000 0.0000 0.0000
# 4 0.0000 0.0000 0.0000 15.5032 0.0000 0.0000
# 5 0.0000 0.0000 0.0000 0.0000 33.0097 0.0000
# 6 0.0000 0.0000 0.0000 0.0000 0.0000 27.1215
#
#
#
# Elastic Compliance Matrix: (Units=1/GPa)
#
#
# Indices 1 2 3 4 5 6 
#
# 1 0.012023 -0.004652 -0.004667 0.000000 0.000000 0.000000
# 2 -0.004652 0.014581 -0.002085 0.000000 0.000000 0.000000
# 3 -0.004667 -0.002085 0.017986 0.000000 0.000000 0.000000
# 4 0.000000 0.000000 0.000000 0.064503 0.000000 0.000000
# 5 0.000000 0.000000 0.000000 0.000000 0.030294 0.000000
# 6 0.000000 0.000000 0.000000 0.000000 0.000000 0.036871
#
#
# Mechanical properties :
#
#
# Convention : Reuss Voigt Hill
#
# Bulk Modulus (GPa) = 45.90427 50.25102 48.07764
# Shear Modulus (GPa) = 24.23339 26.35942 25.29640
#
# Velocity S-wave (km/s) = 3.46387 3.61262 3.53903
# Velocity P-wave (km/s) = 6.22301 6.50243 6.36425
#
# Compressibility (1/GPa) = 0.02178447
#
# Stress axis : x y z
#
# Youngs Moduli (GPa) = 83.17063 68.58154 55.59814
#
# Poissons Ratio (x) = 0.31901 0.25947
# Poissons Ratio (y) = 0.38687 0.11591
# Poissons Ratio (z) = 0.38815 0.14297
#
# Static dielectric constant tensor:
#      x y z
#    x 1.779320 0.000000 0.000000 
#    y 0.000000 1.847290 0.000000 
#    z 0.000000 0.000000 1.703040 
# 
# From -- ./inp_files/28379.got.cif
#   From: 2010.05.17/outbox.cif.g08.bks.cpg/sg50_15_cif.got.tgz:28379.got - 2010.06.03 11:33:33.
