data_PCOD9396506
_publ_section_title
;
Structure prediction by ZEFSAII (Michael W. Deem and Ramdas Pophale) SiO2 
 PCOD9396506
Probable space group: P B A N
;
_chemical_formula_sum "Si O2"
_cell_formula_units_Z 60
_cell_length_a 22.472658
_cell_length_b 5.471528
_cell_length_c 23.106891
_cell_angle_alpha 90.000000
_cell_angle_beta 90.000000
_cell_angle_gamma 90.000000
_cell_volume 2841.218176
_symmetry_space_group_name_H-M "P B A N"
_symmetry_group_IT_number 50
_space_group.IT_coordinate_system_code '2'
_symmetry_cell_setting 'orthorhombic'
loop_
_space_group_symop_operation_xyz
x,y,z
1/2-x,1/2-y,z
x,1/2-y,-z
1/2-x,y,-z
-x,-y,-z
1/2+x,1/2+y,-z
-x,1/2+y,z
1/2+x,-y,z
loop_
_atom_site_type_symbol
_atom_site_label
_atom_site_fract_x
_atom_site_fract_y
_atom_site_fract_z
Si Si1 0.321698 0.730449 0.371315
Si Si2 0.250000 0.250000 0.234977
Si Si3 0.817716 0.493656 0.023858
Si Si4 0.969111 0.968455 0.826442
Si Si5 0.645995 0.425251 0.258458
Si Si6 0.663964 0.429093 0.841508
Si Si7 0.177509 0.236288 0.567418
Si Si8 0.015657 0.477897 0.301456
O O1 0.250000 0.750000 0.373345
O O2 0.341857 0.713901 0.304816
O O3 0.342902 0.485632 0.402374
O O4 0.342434 0.984508 0.401521
O O5 0.199183 0.386745 0.270078
O O6 0.285013 0.440643 0.195120
O O7 0.816314 0.448701 0.092346
O O8 0.843604 0.750000 0.000000
O O9 0.750000 0.495484 0.000000
O O10 0.848850 0.250000 0.000000
O O11 0.899830 0.938683 0.839209
O O12 0.994956 0.229913 0.847461
O O13 0.975812 0.997250 0.756951
O O14 0.651432 0.325663 0.192849
O O15 0.582162 0.527870 0.275669
O O16 0.250000 0.250000 0.569934
O O17 0.161091 0.250000 0.500000
O O18 0.003566 0.732618 0.333138
#
# Coordination Sequence:
#
# PCOD9396506 Si02
#       8
#     8   4   8   8   8   8   8   8
#     4  10  21  34  51  83 131 159 203 265 304 378
#     4  12  26  36  57  94 131 174 198 234 314 428
#     4  10  24  43  62  85 118 155 206 261 293 367
#     4  10  20  39  63  92 114 157 206 264 303 378
#     4  12  26  37  60  95 135 170 204 257 340 398
#     4  12  25  40  68  89 126 168 208 254 330 390
#     4   9  18  34  56  76 111 175 225 254 292 353
#     4  10  20  40  60  85 118 165 211 263 301 384
#
# _framework density 21.117702999999999
#
# number of rings (size 3 to 8) (size 9 to 14) (size 15 to 20)
#    0.000    1.467    2.667    4.000   10.267    1.600 
#    0.000    0.000    0.000    2.400    0.000    0.000 
#    0.000   10.667    0.000    0.000    0.000    0.000 
#
# Total GULP energy -334946.153547 kJ/mol
# GULP energy per Si atom -5582.435892 kJ/mol
# Density = 2.106964 g / cm^3
# Si number density = 21.117703 Si / 1000 Ang^3
#
#
#
# Elastic Constant Matrix: (Units=GPa)
#
#
# Indices 1 2 3 4 5 6 
#
# 1 70.9231 32.0486 -0.3887 0.0000 0.0000 0.0000
# 2 32.0486 165.0673 34.2573 0.0000 0.0000 0.0000
# 3 -0.3887 34.2573 100.2662 0.0000 0.0000 0.0000
# 4 0.0000 0.0000 0.0000 23.5471 0.0000 0.0000
# 5 0.0000 0.0000 0.0000 0.0000 -6.8564 0.0000
# 6 0.0000 0.0000 0.0000 0.0000 0.0000 7.4196
#
#
#
# Elastic Compliance Matrix: (Units=1/GPa)
#
#
# Indices 1 2 3 4 5 6 
#
# 1 0.015584 -0.003270 0.001178 0.000000 0.000000 0.000000
# 2 -0.003270 0.007207 -0.002475 0.000000 0.000000 0.000000
# 3 0.001178 -0.002475 0.010824 0.000000 0.000000 0.000000
# 4 0.000000 0.000000 0.000000 0.042468 0.000000 0.000000
# 5 0.000000 0.000000 0.000000 0.000000 -0.145849 0.000000
# 6 0.000000 0.000000 0.000000 0.000000 0.000000 0.134778
#
#
# Mechanical properties :
#
#
# Convention : Reuss Voigt Hill
#
# Bulk Modulus (GPa) = 40.85050 52.01011 46.43031
# Shear Modulus (GPa) = 60.74967 22.84469 41.79718
#
# Velocity S-wave (km/s) = 5.36932 3.29261 4.45370
# Velocity P-wave (km/s) = 7.60432 6.25597 6.96286
#
# Compressibility (1/GPa) = 0.02447950
#
# Stress axis : x y z
#
# Youngs Moduli (GPa) = 64.16871 138.76018 92.39061
#
# Poissons Ratio (x) = 0.45376 -0.10881
# Poissons Ratio (y) = 0.20984 0.22866
# Poissons Ratio (z) = -0.07557 0.34342
#
# Static dielectric constant tensor:
#      x y z
#    x 1.773090 0.000000 0.000000 
#    y 0.000000 1.909280 0.000000 
#    z 0.000000 0.000000 1.826380 
# 
# From -- ./inp_files/31888.got.cif
#   From: 2010.05.17/outbox.cif.g08.bks.cpg/sg50_16_cif.got.tgz:31888.got - 2010.06.03 11:33:33.
