data_PCOD9396074
_publ_section_title
;
Structure prediction by ZEFSAII (Michael W. Deem and Ramdas Pophale) SiO2 
 PCOD9396074
Probable space group: P B A N
;
_chemical_formula_sum "Si O2"
_cell_formula_units_Z 40
_cell_length_a 12.965237
_cell_length_b 34.527038
_cell_length_c 5.158626
_cell_angle_alpha 90.000000
_cell_angle_beta 90.000000
_cell_angle_gamma 90.000000
_cell_volume 2309.265277
_symmetry_space_group_name_H-M "P B A N"
_symmetry_group_IT_number 50
_space_group.IT_coordinate_system_code '2'
_symmetry_cell_setting 'orthorhombic'
loop_
_space_group_symop_operation_xyz
x,y,z
1/2-x,1/2-y,z
x,1/2-y,-z
1/2-x,y,-z
-x,-y,-z
1/2+x,1/2+y,-z
-x,1/2+y,z
1/2+x,-y,z
loop_
_atom_site_type_symbol
_atom_site_label
_atom_site_fract_x
_atom_site_fract_y
_atom_site_fract_z
Si Si1 0.185916 0.445906 0.742892
Si Si2 0.125444 0.657345 0.991851
Si Si3 0.906477 0.474660 0.380613
Si Si4 0.048391 0.927306 0.858510
Si Si5 0.875282 0.294357 0.511594
O O1 0.250000 0.430392 0.500000
O O2 0.173913 0.492324 0.700864
O O3 0.070887 0.429164 0.770138
O O4 0.250000 0.438699 0.000000
O O5 0.080857 0.615411 0.056844
O O6 0.094681 0.686663 0.218505
O O7 0.250000 0.653822 0.000000
O O8 0.093899 0.677073 0.721593
O O9 0.885532 0.444351 0.614578
O O10 0.000000 0.500000 0.500000
O O11 0.938681 0.453571 0.115441
O O12 0.911614 0.250000 0.500000
O O13 0.750000 0.292930 0.500000
#
# Coordination Sequence:
#
# PCOD9396074 Si02
#       5
#     8   8   8   8   8
#     4  11  21  34  51  71  94 130 175 212 250 293
#     4  10  20  32  48  73 101 131 161 195 244 292
#     4  10  20  35  50  66  92 130 169 209 252 288
#     4  11  21  35  51  72 102 129 164 214 253 290
#     4   9  17  31  50  71  98 130 161 191 230 291
#
# _framework density 17.321525999999999
#
# number of rings (size 3 to 8) (size 9 to 14) (size 15 to 20)
#    0.000    1.800    0.000    7.800    0.000    4.800 
#    0.000    0.000    0.000    0.000    0.000    0.000 
#    0.000   12.000    0.000    0.000    0.000    0.000 
#
# Total GULP energy -223159.114488 kJ/mol
# GULP energy per Si atom -5578.977862 kJ/mol
# Density = 1.728210 g / cm^3
# Si number density = 17.321526 Si / 1000 Ang^3
#
#
#
# Elastic Constant Matrix: (Units=GPa)
#
#
# Indices 1 2 3 4 5 6 
#
# 1 32.7220 22.9413 26.6311 0.0000 0.0000 0.0000
# 2 22.9413 99.8896 28.7001 0.0000 0.0000 0.0000
# 3 26.6311 28.7001 126.2086 0.0000 0.0000 0.0000
# 4 0.0000 0.0000 0.0000 31.9555 0.0000 0.0000
# 5 0.0000 0.0000 0.0000 0.0000 16.0290 0.0000
# 6 0.0000 0.0000 0.0000 0.0000 0.0000 7.8579
#
#
#
# Elastic Compliance Matrix: (Units=1/GPa)
#
#
# Indices 1 2 3 4 5 6 
#
# 1 0.041582 -0.007520 -0.007064 0.000000 0.000000 0.000000
# 2 -0.007520 0.012071 -0.001158 0.000000 0.000000 0.000000
# 3 -0.007064 -0.001158 0.009677 0.000000 0.000000 0.000000
# 4 0.000000 0.000000 0.000000 0.031294 0.000000 0.000000
# 5 0.000000 0.000000 0.000000 0.000000 0.062387 0.000000
# 6 0.000000 0.000000 0.000000 0.000000 0.000000 0.127260
#
#
# Mechanical properties :
#
#
# Convention : Reuss Voigt Hill
#
# Bulk Modulus (GPa) = 31.40175 46.15168 38.77672
# Shear Modulus (GPa) = 15.31999 23.20500 19.26250
#
# Velocity S-wave (km/s) = 2.97719 3.66411 3.33837
# Velocity P-wave (km/s) = 5.47598 6.67854 6.10693
#
# Compressibility (1/GPa) = 0.03184536
#
# Stress axis : x y z
#
# Youngs Moduli (GPa) = 24.04884 82.84342 103.33451
#
# Poissons Ratio (x) = 0.62301 0.72996
# Poissons Ratio (y) = 0.18086 0.11967
# Poissons Ratio (z) = 0.16988 0.09594
#
# Static dielectric constant tensor:
#      x y z
#    x 2.000600 0.000000 0.000000 
#    y 0.000000 1.586980 0.000000 
#    z 0.000000 0.000000 1.446080 
# 
# From -- ./inp_files/2549.got.cif
#   From: 2010.05.17/outbox.cif.g08.bks.cpg/sg50_2_cif.got.tgz:2549.got - 2010.06.03 11:33:33.
