data_PCOD9396177
_publ_section_title
;
Structure prediction by ZEFSAII (Michael W. Deem and Ramdas Pophale) SiO2 
 PCOD9396177
Probable space group: P B A N
;
_chemical_formula_sum "Si O2"
_cell_formula_units_Z 44
_cell_length_a 8.883473
_cell_length_b 18.205082
_cell_length_c 13.643078
_cell_angle_alpha 90.000000
_cell_angle_beta 90.000000
_cell_angle_gamma 90.000000
_cell_volume 2206.417982
_symmetry_space_group_name_H-M "P B A N"
_symmetry_group_IT_number 50
_space_group.IT_coordinate_system_code '2'
_symmetry_cell_setting 'orthorhombic'
loop_
_space_group_symop_operation_xyz
x,y,z
1/2-x,1/2-y,z
x,1/2-y,-z
1/2-x,y,-z
-x,-y,-z
1/2+x,1/2+y,-z
-x,1/2+y,z
1/2+x,-y,z
loop_
_atom_site_type_symbol
_atom_site_label
_atom_site_fract_x
_atom_site_fract_y
_atom_site_fract_z
Si Si1 0.281548 0.048866 0.343363
Si Si2 0.469263 0.477846 0.206034
Si Si3 0.750000 0.432292 0.500000
Si Si4 0.250000 0.750000 0.761057
Si Si5 0.750000 0.840985 0.500000
Si Si6 0.250264 0.602038 0.115841
Si Si7 0.552952 0.195586 0.585243
O O1 0.419605 0.018372 0.281737
O O2 0.336420 0.108953 0.420660
O O3 0.150989 0.070359 0.267058
O O4 0.204574 0.986195 0.411588
O O5 0.370947 0.539022 0.148043
O O6 0.584235 0.428611 0.143876
O O7 0.873701 0.381554 0.553139
O O8 0.282825 0.822296 0.825836
O O9 0.384275 0.725182 0.687512
O O10 0.625966 0.805256 0.429962
O O11 0.250000 0.614269 0.000000
O O12 0.601856 0.250000 0.500000
#
# Coordination Sequence:
#
# PCOD9396177 Si02
#       7
#     8   8   4   4   4   8   8
#     4  10  20  34  59  91 119 160 194 254 292 366
#     4  10  21  38  65  92 122 155 209 253 322 367
#     4  11  19  36  58  84 127 163 210 232 292 358
#     4  12  24  42  68  90 128 168 212 256 310 370
#     4  11  23  34  54  88 129 157 206 236 294 354
#     4  11  24  43  68  94 119 158 211 271 322 372
#     4  12  23  37  55  83 123 167 199 236 287 366
#
# _framework density 19.941824
#
# number of rings (size 3 to 8) (size 9 to 14) (size 15 to 20)
#    0.000    1.091    1.818    6.545    2.545    2.909 
#    0.000    0.000    0.000    0.000    0.000   11.455 
#    0.000    0.000    0.000    0.000    0.000    0.000 
#
# Total GULP energy -245433.985051 kJ/mol
# GULP energy per Si atom -5578.045115 kJ/mol
# Density = 1.989644 g / cm^3
# Si number density = 19.941824 Si / 1000 Ang^3
#
#
#
# Elastic Constant Matrix: (Units=GPa)
#
#
# Indices 1 2 3 4 5 6 
#
# 1 121.8878 30.7679 52.6534 0.0000 0.0000 0.0000
# 2 30.7679 88.5604 52.8735 0.0000 0.0000 0.0000
# 3 52.6534 52.8735 152.3179 0.0000 0.0000 0.0000
# 4 0.0000 0.0000 0.0000 32.5265 0.0000 0.0000
# 5 0.0000 0.0000 0.0000 0.0000 25.1231 0.0000
# 6 0.0000 0.0000 0.0000 0.0000 0.0000 16.8406
#
#
#
# Elastic Compliance Matrix: (Units=1/GPa)
#
#
# Indices 1 2 3 4 5 6 
#
# 1 0.009856 -0.001753 -0.002798 0.000000 0.000000 0.000000
# 2 -0.001753 0.014556 -0.004447 0.000000 0.000000 0.000000
# 3 -0.002798 -0.004447 0.009076 0.000000 0.000000 0.000000
# 4 0.000000 0.000000 0.000000 0.030744 0.000000 0.000000
# 5 0.000000 0.000000 0.000000 0.000000 0.039804 0.000000
# 6 0.000000 0.000000 0.000000 0.000000 0.000000 0.059380
#
#
# Mechanical properties :
#
#
# Convention : Reuss Voigt Hill
#
# Bulk Modulus (GPa) = 64.55393 70.59509 67.57451
# Shear Modulus (GPa) = 26.79877 29.99614 28.39746
#
# Velocity S-wave (km/s) = 3.66983 3.88259 3.77771
# Velocity P-wave (km/s) = 7.09917 7.45498 7.27925
#
# Compressibility (1/GPa) = 0.01549092
#
# Stress axis : x y z
#
# Youngs Moduli (GPa) = 101.46433 68.70202 110.18044
#
# Poissons Ratio (x) = 0.12046 0.30831
# Poissons Ratio (y) = 0.17791 0.48992
# Poissons Ratio (z) = 0.28392 0.30548
#
# Static dielectric constant tensor:
#      x y z
#    x 1.731610 0.000000 0.000000 
#    y 0.000000 1.544210 0.000000 
#    z 0.000000 0.000000 1.261870 
# 
# From -- ./inp_files/24939.got.cif
#   From: 2010.05.17/outbox.cif.g08.bks.cpg/sg50_13_cif.got.tgz:24939.got - 2010.06.03 11:33:33.
