data_PCOD9396325
_publ_section_title
;
Structure prediction by ZEFSAII (Michael W. Deem and Ramdas Pophale) SiO2 
 PCOD9396325
Probable space group: P B A N
;
_chemical_formula_sum "Si O2"
_cell_formula_units_Z 40
_cell_length_a 17.541270
_cell_length_b 11.370483
_cell_length_c 8.250544
_cell_angle_alpha 90.000000
_cell_angle_beta 90.000000
_cell_angle_gamma 90.000000
_cell_volume 1645.593379
_symmetry_space_group_name_H-M "P B A N"
_symmetry_group_IT_number 50
_space_group.IT_coordinate_system_code '2'
_symmetry_cell_setting 'orthorhombic'
loop_
_space_group_symop_operation_xyz
x,y,z
1/2-x,1/2-y,z
x,1/2-y,-z
1/2-x,y,-z
-x,-y,-z
1/2+x,1/2+y,-z
-x,1/2+y,z
1/2+x,-y,z
loop_
_atom_site_type_symbol
_atom_site_label
_atom_site_fract_x
_atom_site_fract_y
_atom_site_fract_z
Si Si1 0.400531 0.142590 0.390501
Si Si2 0.606796 0.507502 0.696893
Si Si3 0.740450 0.889539 0.820546
Si Si4 0.506252 0.307179 0.178965
Si Si5 0.163184 0.744410 0.805946
O O1 0.366282 0.250000 0.500000
O O2 0.419714 0.040372 0.516641
O O3 0.340620 0.095110 0.261202
O O4 0.468186 0.210550 0.298763
O O5 0.691010 0.562555 0.714922
O O6 0.548046 0.578684 0.811084
O O7 0.623210 0.375450 0.747867
O O8 0.750000 0.750000 0.834786
O O9 0.750000 0.943135 0.000000
O O10 0.593614 0.334254 0.228710
O O11 0.504573 0.250000 0.000000
O O12 0.250000 0.750000 0.739302
O O13 0.171082 0.750000 0.000000
#
# Coordination Sequence:
#
# PCOD9396325 Si02
#       5
#     8   8   8   8   8
#     4  10  20  36  64 101 148 175 228 300 355 433
#     4  11  23  39  70  99 136 196 228 296 389 403
#     4  11  20  33  62 106 142 172 232 294 356 434
#     4  10  21  41  69 105 138 180 248 298 353 444
#     4  10  25  48  67  97 146 190 246 302 357 444
#
# _framework density 24.30734
#
# number of rings (size 3 to 8) (size 9 to 14) (size 15 to 20)
#    0.000    1.600    4.000    1.800    2.800    4.000 
#    3.600    0.000   13.200    0.000    0.000    0.000 
#    0.000    0.000    0.000    0.000    0.000    0.000 
#
# Total GULP energy -223523.019277 kJ/mol
# GULP energy per Si atom -5588.075482 kJ/mol
# Density = 2.425202 g / cm^3
# Si number density = 24.307340 Si / 1000 Ang^3
#
#
#
# Elastic Constant Matrix: (Units=GPa)
#
#
# Indices 1 2 3 4 5 6 
#
# 1 201.0426 46.2723 26.8314 0.0000 0.0000 0.0000
# 2 46.2723 107.5666 33.9096 0.0000 0.0000 0.0000
# 3 26.8314 33.9096 111.2380 0.0000 0.0000 0.0000
# 4 0.0000 0.0000 0.0000 22.6082 0.0000 0.0000
# 5 0.0000 0.0000 0.0000 0.0000 -10.1402 0.0000
# 6 0.0000 0.0000 0.0000 0.0000 0.0000 21.9545
#
#
#
# Elastic Compliance Matrix: (Units=1/GPa)
#
#
# Indices 1 2 3 4 5 6 
#
# 1 0.005566 -0.002181 -0.000678 0.000000 0.000000 0.000000
# 2 -0.002181 0.011139 -0.002870 0.000000 0.000000 0.000000
# 3 -0.000678 -0.002870 0.010028 0.000000 0.000000 0.000000
# 4 0.000000 0.000000 0.000000 0.044232 0.000000 0.000000
# 5 0.000000 0.000000 0.000000 0.000000 -0.098618 0.000000
# 6 0.000000 0.000000 0.000000 0.000000 0.000000 0.045549
#
#
# Mechanical properties :
#
#
# Convention : Reuss Voigt Hill
#
# Bulk Modulus (GPa) = 65.45752 70.43044 67.94398
# Shear Modulus (GPa) = 145.15606 27.74011 86.44808
#
# Velocity S-wave (km/s) = 7.73606 3.38186 5.97008
# Velocity P-wave (km/s) = 10.33359 6.65486 8.69109
#
# Compressibility (1/GPa) = 0.01527708
#
# Stress axis : x y z
#
# Youngs Moduli (GPa) = 179.64636 89.77183 99.72057
#
# Poissons Ratio (x) = 0.19578 0.06760
# Poissons Ratio (y) = 0.39178 0.28616
# Poissons Ratio (z) = 0.12178 0.25761
#
# Static dielectric constant tensor:
#      x y z
#    x 2.008320 0.000000 0.000000 
#    y 0.000000 1.985830 0.000000 
#    z 0.000000 0.000000 1.947210 
# 
# From -- ./inp_files/13920.got.cif
#   From: 2010.05.17/outbox.cif.g08.bks.cpg/sg50_7_cif.got.tgz:13920.got - 2010.06.03 11:33:33.
