data_PCOD9396699
_publ_section_title
;
Structure prediction by ZEFSAII (Michael W. Deem and Ramdas Pophale) SiO2 
 PCOD9396699
Probable space group: P B A N
;
_chemical_formula_sum "Si O2"
_cell_formula_units_Z 56
_cell_length_a 15.719051
_cell_length_b 18.124400
_cell_length_c 10.378066
_cell_angle_alpha 90.000000
_cell_angle_beta 90.000000
_cell_angle_gamma 90.000000
_cell_volume 2956.694066
_symmetry_space_group_name_H-M "P B A N"
_symmetry_group_IT_number 50
_space_group.IT_coordinate_system_code '2'
_symmetry_cell_setting 'orthorhombic'
loop_
_space_group_symop_operation_xyz
x,y,z
1/2-x,1/2-y,z
x,1/2-y,-z
1/2-x,y,-z
-x,-y,-z
1/2+x,1/2+y,-z
-x,1/2+y,z
1/2+x,-y,z
loop_
_atom_site_type_symbol
_atom_site_label
_atom_site_fract_x
_atom_site_fract_y
_atom_site_fract_z
Si Si1 0.789567 0.480830 0.855780
Si Si2 0.987324 0.054688 0.150644
Si Si3 0.967752 0.105481 0.876593
Si Si4 0.283311 0.827608 0.852934
Si Si5 0.944047 0.653965 0.367397
Si Si6 0.075217 0.325244 0.344957
Si Si7 0.252590 0.396335 0.353666
O O1 0.891273 0.474669 0.864123
O O2 0.757800 0.402326 0.799134
O O3 0.764805 0.544739 0.757502
O O4 0.750000 0.490493 0.000000
O O5 0.999533 0.102830 0.277124
O O6 0.000636 0.104609 0.023620
O O7 0.046947 0.982027 0.151224
O O8 0.883906 0.155659 0.859259
O O9 0.036844 0.133168 0.776119
O O10 0.250000 0.750000 0.795424
O O11 0.250000 0.826409 0.000000
O O12 0.957356 0.641291 0.519561
O O13 0.953598 0.740682 0.341796
O O14 0.845946 0.636142 0.336327
O O15 0.177095 0.335852 0.348413
O O16 0.250000 0.427981 0.500000
#
# Coordination Sequence:
#
# PCOD9396699 Si02
#       7
#     8   8   8   8   8   8   8
#     4  11  21  41  60  87 123 157 206 254 299 364
#     4  11  23  39  60  94 121 159 203 258 308 355
#     4  11  22  39  61  90 122 155 209 252 301 360
#     4  10  21  36  58  82 114 161 200 240 294 360
#     4  10  23  39  64  88 124 159 198 252 306 367
#     4  10  22  41  61  93 121 158 199 252 307 366
#     4  10  21  41  64  89 119 160 201 243 308 374
#
# _framework density 18.940072000000001
#
# number of rings (size 3 to 8) (size 9 to 14) (size 15 to 20)
#    0.000    1.571    4.286    1.286    4.000    2.857 
#    2.571    0.000    0.000    3.000    0.000    0.000 
#    0.000    0.000    0.000    0.000    0.000    0.000 
#
# Total GULP energy -312380.666020 kJ/mol
# GULP energy per Si atom -5578.226179 kJ/mol
# Density = 1.889696 g / cm^3
# Si number density = 18.940072 Si / 1000 Ang^3
#
#
#
# Elastic Constant Matrix: (Units=GPa)
#
#
# Indices 1 2 3 4 5 6 
#
# 1 83.3509 16.8849 42.2474 0.0000 0.0000 0.0000
# 2 16.8849 49.4835 28.1974 0.0000 0.0000 0.0000
# 3 42.2474 28.1974 97.6519 0.0000 0.0000 0.0000
# 4 0.0000 0.0000 0.0000 14.5879 0.0000 0.0000
# 5 0.0000 0.0000 0.0000 0.0000 24.9910 0.0000
# 6 0.0000 0.0000 0.0000 0.0000 0.0000 31.5710
#
#
#
# Elastic Compliance Matrix: (Units=1/GPa)
#
#
# Indices 1 2 3 4 5 6 
#
# 1 0.015494 -0.001756 -0.006196 0.000000 0.000000 0.000000
# 2 -0.001756 0.024388 -0.006282 0.000000 0.000000 0.000000
# 3 -0.006196 -0.006282 0.014735 0.000000 0.000000 0.000000
# 4 0.000000 0.000000 0.000000 0.068550 0.000000 0.000000
# 5 0.000000 0.000000 0.000000 0.000000 0.040014 0.000000
# 6 0.000000 0.000000 0.000000 0.000000 0.000000 0.031675
#
#
# Mechanical properties :
#
#
# Convention : Reuss Voigt Hill
#
# Bulk Modulus (GPa) = 38.24416 45.01619 41.63018
# Shear Modulus (GPa) = 21.54796 23.77375 22.66085
#
# Velocity S-wave (km/s) = 3.37663 3.54674 3.46273
# Velocity P-wave (km/s) = 5.95300 6.37117 6.16563
#
# Compressibility (1/GPa) = 0.02614778
#
# Stress axis : x y z
#
# Youngs Moduli (GPa) = 64.54217 41.00393 67.86514
#
# Poissons Ratio (x) = 0.07201 0.42049
# Poissons Ratio (y) = 0.11334 0.42635
# Poissons Ratio (z) = 0.39990 0.25760
#
# Static dielectric constant tensor:
#      x y z
#    x 1.681840 0.000000 0.000000 
#    y 0.000000 1.688420 0.000000 
#    z 0.000000 0.000000 1.657860 
# 
# From -- ./inp_files/13295.got.cif
#   From: 2010.05.17/outbox.cif.g08.bks.cpg/sg50_7_cif.got.tgz:13295.got - 2010.06.03 11:33:33.
