data_PCOD9396442
_publ_section_title
;
Structure prediction by ZEFSAII (Michael W. Deem and Ramdas Pophale) SiO2 
 PCOD9396442
Probable space group: P B A N
;
_chemical_formula_sum "Si O2"
_cell_formula_units_Z 56
_cell_length_a 24.081508
_cell_length_b 8.621186
_cell_length_c 12.568488
_cell_angle_alpha 90.000000
_cell_angle_beta 90.000000
_cell_angle_gamma 90.000000
_cell_volume 2609.358368
_symmetry_space_group_name_H-M "P B A N"
_symmetry_group_IT_number 50
_space_group.IT_coordinate_system_code '2'
_symmetry_cell_setting 'orthorhombic'
loop_
_space_group_symop_operation_xyz
x,y,z
1/2-x,1/2-y,z
x,1/2-y,-z
1/2-x,y,-z
-x,-y,-z
1/2+x,1/2+y,-z
-x,1/2+y,z
1/2+x,-y,z
loop_
_atom_site_type_symbol
_atom_site_label
_atom_site_fract_x
_atom_site_fract_y
_atom_site_fract_z
Si Si1 0.355933 0.666569 0.893669
Si Si2 0.260235 0.433313 0.873641
Si Si3 0.075168 0.522139 0.571073
Si Si4 0.846077 0.465041 0.245544
Si Si5 0.972537 0.345099 0.633496
Si Si6 0.031848 0.981353 0.868022
Si Si7 0.577407 0.685441 0.893066
O O1 0.318831 0.520432 0.857108
O O2 0.361199 0.796992 0.802971
O O3 0.416078 0.601607 0.922892
O O4 0.332468 0.750000 0.000000
O O5 0.250000 0.250000 0.856756
O O6 0.216864 0.512127 0.792500
O O7 0.250000 0.458675 0.000000
O O8 0.133772 0.517924 0.632355
O O9 0.069765 0.566780 0.447384
O O10 0.042810 0.665724 0.626700
O O11 0.035292 0.376863 0.593480
O O12 0.880711 0.598039 0.183146
O O13 0.968671 0.410872 0.750024
O O14 0.972565 0.933974 0.915964
O O15 0.045526 0.161881 0.853667
O O16 0.606473 0.750000 0.000000
#
# Coordination Sequence:
#
# PCOD9396442 Si02
#       7
#     8   8   8   8   8   8   8
#     4  12  23  40  63  91 123 172 214 261 313 387
#     4  11  25  43  64  89 123 167 220 266 313 377
#     4  10  21  38  61  93 124 163 208 267 320 382
#     4  12  23  39  63  91 127 162 217 269 318 382
#     4  10  20  38  61  89 128 160 209 261 322 385
#     4  12  22  39  60  88 130 170 214 257 327 389
#     4  12  25  38  56  92 134 177 208 258 321 393
#
# _framework density 21.461213000000001
#
# number of rings (size 3 to 8) (size 9 to 14) (size 15 to 20)
#    0.000    0.714    4.286    4.714    2.000    0.000 
#    0.000    0.000    0.000    0.857    0.000    1.000 
#    0.000    0.000    0.000    0.000    0.000    0.000 
#
# Total GULP energy -312908.957345 kJ/mol
# GULP energy per Si atom -5587.659953 kJ/mol
# Density = 2.141237 g / cm^3
# Si number density = 21.461213 Si / 1000 Ang^3
#
#
#
# Elastic Constant Matrix: (Units=GPa)
#
#
# Indices 1 2 3 4 5 6 
#
# 1 84.5063 11.8558 15.9782 0.0000 0.0000 0.0000
# 2 11.8558 90.9756 17.6902 0.0000 0.0000 0.0000
# 3 15.9782 17.6902 54.6409 0.0000 0.0000 0.0000
# 4 0.0000 0.0000 0.0000 14.4117 0.0000 0.0000
# 5 0.0000 0.0000 0.0000 0.0000 29.2305 0.0000
# 6 0.0000 0.0000 0.0000 0.0000 0.0000 33.6376
#
#
#
# Elastic Compliance Matrix: (Units=1/GPa)
#
#
# Indices 1 2 3 4 5 6 
#
# 1 0.012609 -0.000988 -0.003367 0.000000 0.000000 0.000000
# 2 -0.000988 0.011808 -0.003534 0.000000 0.000000 0.000000
# 3 -0.003367 -0.003534 0.020430 0.000000 0.000000 0.000000
# 4 0.000000 0.000000 0.000000 0.069388 0.000000 0.000000
# 5 0.000000 0.000000 0.000000 0.000000 0.034211 0.000000
# 6 0.000000 0.000000 0.000000 0.000000 0.000000 0.029729
#
#
# Mechanical properties :
#
#
# Convention : Reuss Voigt Hill
#
# Bulk Modulus (GPa) = 34.40204 35.68567 35.04385
# Shear Modulus (GPa) = 24.55288 27.76254 26.15771
#
# Velocity S-wave (km/s) = 3.38606 3.60059 3.49497
# Velocity P-wave (km/s) = 5.59928 5.82664 5.71409
#
# Compressibility (1/GPa) = 0.02906805
#
# Stress axis : x y z
#
# Youngs Moduli (GPa) = 79.31001 84.68891 48.94761
#
# Poissons Ratio (x) = 0.08371 0.16481
# Poissons Ratio (y) = 0.07839 0.17297
# Poissons Ratio (z) = 0.26704 0.29927
#
# Static dielectric constant tensor:
#      x y z
#    x 1.795020 0.000000 0.000000 
#    y 0.000000 1.814250 0.000000 
#    z 0.000000 0.000000 1.813580 
# 
# From -- ./inp_files/27265.got.cif
#   From: 2010.05.17/outbox.cif.g08.bks.cpg/sg50_14_cif.got.tgz:27265.got - 2010.06.03 11:33:33.
