data_PCOD9396390
_publ_section_title
;
Structure prediction by ZEFSAII (Michael W. Deem and Ramdas Pophale) SiO2 
 PCOD9396390
Probable space group: P B A N
;
_chemical_formula_sum "Si O2"
_cell_formula_units_Z 38
_cell_length_a 13.248531
_cell_length_b 20.021712
_cell_length_c 7.552982
_cell_angle_alpha 90.000000
_cell_angle_beta 90.000000
_cell_angle_gamma 90.000000
_cell_volume 2003.490955
_symmetry_space_group_name_H-M "P B A N"
_symmetry_group_IT_number 50
_space_group.IT_coordinate_system_code '2'
_symmetry_cell_setting 'orthorhombic'
loop_
_space_group_symop_operation_xyz
x,y,z
1/2-x,1/2-y,z
x,1/2-y,-z
1/2-x,y,-z
-x,-y,-z
1/2+x,1/2+y,-z
-x,1/2+y,z
1/2+x,-y,z
loop_
_atom_site_type_symbol
_atom_site_label
_atom_site_fract_x
_atom_site_fract_y
_atom_site_fract_z
Si Si1 0.402283 0.862697 0.973908
Si Si2 0.239844 0.411648 0.702315
Si Si3 0.568029 0.822249 0.707578
Si Si4 0.464004 0.333088 0.297739
Si Si5 0.750000 0.018834 0.000000
Si Si6 0.750000 0.250000 0.000000
O O1 0.440520 0.849539 0.174564
O O2 0.343601 0.931933 0.965437
O O3 0.327081 0.802848 0.911042
O O4 0.499419 0.858912 0.850645
O O5 0.250000 0.435218 0.500000
O O6 0.319703 0.351292 0.716059
O O7 0.128682 0.382920 0.741699
O O8 0.266782 0.470578 0.834460
O O9 0.566893 0.743267 0.743033
O O10 0.523620 0.834953 0.510474
#
# Coordination Sequence:
#
# PCOD9396390 Si02
#       6
#     8   8   8   8   4   2
#     4  11  22  39  59  82 117 153 198 239 276 340
#     4  10  22  39  59  87 122 150 187 236 287 350
#     4  10  20  37  63  91 114 146 189 242 297 339
#     4  10  20  37  63  91 114 146 189 242 297 339
#     4  11  26  39  55  80 119 166 198 226 283 334
#     4  10  20  40  58  78 114 150 186 248 276 314
#
# _framework density 18.966892999999999
#
# number of rings (size 3 to 8) (size 9 to 14) (size 15 to 20)
#    0.000    1.684    2.105    1.895    0.000    7.579 
#    0.000   11.579    0.000    0.000    0.000    0.000 
#    0.000    0.000    0.000    0.000    0.000    0.000 
#
# Total GULP energy -212055.973765 kJ/mol
# GULP energy per Si atom -5580.420362 kJ/mol
# Density = 1.892372 g / cm^3
# Si number density = 18.966893 Si / 1000 Ang^3
#
#
#
# Elastic Constant Matrix: (Units=GPa)
#
#
# Indices 1 2 3 4 5 6 
#
# 1 32.2592 -5.3722 15.6960 0.0000 0.0000 0.0000
# 2 -5.3722 73.8037 34.0655 0.0000 0.0000 0.0000
# 3 15.6960 34.0655 51.4049 0.0000 0.0000 0.0000
# 4 0.0000 0.0000 0.0000 61.8636 0.0000 0.0000
# 5 0.0000 0.0000 0.0000 0.0000 3.2580 0.0000
# 6 0.0000 0.0000 0.0000 0.0000 0.0000 -1.1428
#
#
#
# Elastic Compliance Matrix: (Units=1/GPa)
#
#
# Indices 1 2 3 4 5 6 
#
# 1 0.044229 0.013618 -0.022530 0.000000 0.000000 0.000000
# 2 0.013618 0.023713 -0.019873 0.000000 0.000000 0.000000
# 3 -0.022530 -0.019873 0.039502 0.000000 0.000000 0.000000
# 4 0.000000 0.000000 0.000000 0.016165 0.000000 0.000000
# 5 0.000000 0.000000 0.000000 0.000000 0.306938 0.000000
# 6 0.000000 0.000000 0.000000 0.000000 0.000000 -0.875058
#
#
# Mechanical properties :
#
#
# Convention : Reuss Voigt Hill
#
# Bulk Modulus (GPa) = 20.04967 27.36072 23.70519
# Shear Modulus (GPa) = -13.50194 20.33433 3.41619
#
# Velocity S-wave (km/s) = -2.67098 3.27784 1.34352
# Velocity P-wave (km/s) = 1.04002 5.36493 3.86420
#
# Compressibility (1/GPa) = 0.04987614
#
# Stress axis : x y z
#
# Youngs Moduli (GPa) = 22.60971 42.17009 25.31503
#
# Poissons Ratio (x) = -0.57429 0.57034
# Poissons Ratio (y) = -0.30791 0.50308
# Poissons Ratio (z) = 0.50939 0.83804
#
# Static dielectric constant tensor:
#      x y z
#    x 1.645850 0.000000 0.000000 
#    y 0.000000 1.629500 0.000000 
#    z 0.000000 0.000000 1.669000 
# 
# From -- ./inp_files/11076.got.cif
#   From: 2010.05.17/outbox.cif.g08.bks.cpg/sg50_6_cif.got.tgz:11076.got - 2010.06.03 11:33:33.
