data_PCOD9396090
_publ_section_title
;
Structure prediction by ZEFSAII (Michael W. Deem and Ramdas Pophale) SiO2 
 PCOD9396090
Probable space group: P B A N
;
_chemical_formula_sum "Si O2"
_cell_formula_units_Z 40
_cell_length_a 13.765601
_cell_length_b 11.478412
_cell_length_c 12.162298
_cell_angle_alpha 90.000000
_cell_angle_beta 90.000000
_cell_angle_gamma 90.000000
_cell_volume 1921.731135
_symmetry_space_group_name_H-M "P B A N"
_symmetry_group_IT_number 50
_space_group.IT_coordinate_system_code '2'
_symmetry_cell_setting 'orthorhombic'
loop_
_space_group_symop_operation_xyz
x,y,z
1/2-x,1/2-y,z
x,1/2-y,-z
1/2-x,y,-z
-x,-y,-z
1/2+x,1/2+y,-z
-x,1/2+y,z
1/2+x,-y,z
loop_
_atom_site_type_symbol
_atom_site_label
_atom_site_fract_x
_atom_site_fract_y
_atom_site_fract_z
Si Si1 0.897080 0.563436 0.502904
Si Si2 0.653477 0.502014 0.732248
Si Si3 0.002534 0.301041 0.311908
Si Si4 0.819055 0.359942 0.646185
Si Si5 0.139805 0.213902 0.125079
O O1 0.855090 0.581514 0.379743
O O2 0.834810 0.460631 0.557902
O O3 0.000000 0.500000 0.500000
O O4 0.923531 0.666529 0.588579
O O5 0.568289 0.409309 0.712526
O O6 0.755131 0.430827 0.736380
O O7 0.635477 0.578804 0.839435
O O8 0.925747 0.195509 0.332838
O O9 0.065563 0.276836 0.205379
O O10 0.750000 0.250000 0.617597
O O11 0.250000 0.250000 0.150623
O O12 0.120489 0.250000 0.000000
#
# Coordination Sequence:
#
# PCOD9396090 Si02
#       5
#     8   8   8   8   8
#     4  10  20  32  55  92 126 159 201 243 294 367
#     4  10  22  38  60  92 123 160 208 253 308 379
#     4  10  21  39  64  91 125 162 204 255 310 373
#     4  10  21  37  60  91 132 173 203 249 314 377
#     4  11  25  43  61  83 114 158 208 261 321 372
#
# _framework density 20.814565000000002
#
# number of rings (size 3 to 8) (size 9 to 14) (size 15 to 20)
#    0.000    1.800    0.000    4.200    0.000   16.000 
#    0.000    3.000    0.000    4.200    0.000    0.000 
#    0.000    0.000    0.000    0.000    0.000    0.000 
#
# Total GULP energy -222988.518849 kJ/mol
# GULP energy per Si atom -5574.712971 kJ/mol
# Density = 2.076719 g / cm^3
# Si number density = 20.814565 Si / 1000 Ang^3
#
#
#
# Elastic Constant Matrix: (Units=GPa)
#
#
# Indices 1 2 3 4 5 6 
#
# 1 113.7095 44.1933 72.5872 0.0000 0.0000 0.0000
# 2 44.1933 114.4278 70.9768 0.0000 0.0000 0.0000
# 3 72.5872 70.9768 115.1920 0.0000 0.0000 0.0000
# 4 0.0000 0.0000 0.0000 224.5067 0.0000 0.0000
# 5 0.0000 0.0000 0.0000 0.0000 25.6503 0.0000
# 6 0.0000 0.0000 0.0000 0.0000 0.0000 6.6851
#
#
#
# Elastic Compliance Matrix: (Units=1/GPa)
#
#
# Indices 1 2 3 4 5 6 
#
# 1 0.014713 0.000111 -0.009340 0.000000 0.000000 0.000000
# 2 0.000111 0.014146 -0.008786 0.000000 0.000000 0.000000
# 3 -0.009340 -0.008786 0.019980 0.000000 0.000000 0.000000
# 4 0.000000 0.000000 0.000000 0.004454 0.000000 0.000000
# 5 0.000000 0.000000 0.000000 0.000000 0.038986 0.000000
# 6 0.000000 0.000000 0.000000 0.000000 0.000000 0.149587
#
#
# Mechanical properties :
#
#
# Convention : Reuss Voigt Hill
#
# Bulk Modulus (GPa) = 78.06694 79.87156 78.96925
# Shear Modulus (GPa) = 17.71999 61.73990 39.72994
#
# Velocity S-wave (km/s) = 2.92092 5.45218 4.37367
# Velocity P-wave (km/s) = 6.99736 8.83692 7.97039
#
# Compressibility (1/GPa) = 0.01280952
#
# Stress axis : x y z
#
# Youngs Moduli (GPa) = 67.96532 70.69049 50.04963
#
# Poissons Ratio (x) = -0.00783 0.46745
# Poissons Ratio (y) = -0.00753 0.43974
# Poissons Ratio (z) = 0.63478 0.62109
#
# Static dielectric constant tensor:
#      x y z
#    x 1.840610 0.000000 0.000000 
#    y 0.000000 1.833310 0.000000 
#    z 0.000000 0.000000 1.728180 
# 
# From -- ./inp_files/20010.got.cif
#   From: 2010.05.17/outbox.cif.g08.bks.cpg/sg50_11_cif.got.tgz:20010.got - 2010.06.03 11:33:33.
