data_PCOD9396717
_publ_section_title
;
Structure prediction by ZEFSAII (Michael W. Deem and Ramdas Pophale) SiO2 
 PCOD9396717
Probable space group: P B A N
;
_chemical_formula_sum "Si O2"
_cell_formula_units_Z 58
_cell_length_a 18.004745
_cell_length_b 9.406879
_cell_length_c 15.306607
_cell_angle_alpha 90.000000
_cell_angle_beta 90.000000
_cell_angle_gamma 90.000000
_cell_volume 2592.456419
_symmetry_space_group_name_H-M "P B A N"
_symmetry_group_IT_number 50
_space_group.IT_coordinate_system_code '2'
_symmetry_cell_setting 'orthorhombic'
loop_
_space_group_symop_operation_xyz
x,y,z
1/2-x,1/2-y,z
x,1/2-y,-z
1/2-x,y,-z
-x,-y,-z
1/2+x,1/2+y,-z
-x,1/2+y,z
1/2+x,-y,z
loop_
_atom_site_type_symbol
_atom_site_label
_atom_site_fract_x
_atom_site_fract_y
_atom_site_fract_z
Si Si1 0.132241 0.939130 0.103760
Si Si2 0.096058 0.044076 0.916138
Si Si3 0.890550 0.095712 0.466462
Si Si4 0.740113 0.904414 0.827339
Si Si5 0.250000 0.750000 0.000000
Si Si6 0.679928 0.838983 0.636757
Si Si7 0.549890 0.854130 0.416231
Si Si8 0.012311 0.730603 0.104144
O O1 0.194188 0.841090 0.058659
O O2 0.071283 0.838271 0.146229
O O3 0.178838 0.028857 0.172067
O O4 0.098390 0.029023 0.021742
O O5 0.178211 0.014433 0.882990
O O6 0.067463 0.197395 0.884174
O O7 0.038924 0.927665 0.877990
O O8 0.862941 0.250000 0.500000
O O9 0.961801 0.123481 0.401785
O O10 0.838277 0.980968 0.418352
O O11 0.919769 0.006299 0.550846
O O12 0.750000 0.750000 0.870246
O O13 0.706111 0.885705 0.732263
O O14 0.750000 0.750000 0.599743
O O15 0.608394 0.732499 0.643171
O O16 0.550051 0.750000 0.500000
O O17 0.026948 0.750000 0.000000
#
# Coordination Sequence:
#
# PCOD9396717 Si02
#       8
#     8   8   8   8   2   8   8   8
#     4  11  19  37  62  85 111 159 213 268 315 380
#     4  11  22  38  60  92 118 155 213 272 323 377
#     4   9  17  35  71 105 123 157 219 263 303 375
#     4  11  25  39  59  84 126 173 217 249 313 398
#     4  12  16  36  62  80 104 148 216 258 328 360
#     4  10  22  42  60  92 139 177 205 257 327 389
#     4   8  16  34  66 100 130 165 205 256 307 372
#     4  10  21  36  60  90 119 144 203 283 327 365
#
# _framework density 22.372605
#
# number of rings (size 3 to 8) (size 9 to 14) (size 15 to 20)
#    0.000    1.931    3.448    2.483    3.862    3.034 
#    2.483    1.379   18.207    0.000    0.000    0.000 
#    0.000    0.000    0.000    0.000    0.000    0.000 
#
# Total GULP energy -323374.548753 kJ/mol
# GULP energy per Si atom -5575.423254 kJ/mol
# Density = 2.232168 g / cm^3
# Si number density = 22.372605 Si / 1000 Ang^3
#
#
#
# Elastic Constant Matrix: (Units=GPa)
#
#
# Indices 1 2 3 4 5 6 
#
# 1 109.8156 54.8332 22.1869 0.0000 0.0000 0.0000
# 2 54.8332 145.3465 18.9459 0.0000 0.0000 0.0000
# 3 22.1869 18.9459 40.0514 0.0000 0.0000 0.0000
# 4 0.0000 0.0000 0.0000 15.6904 0.0000 0.0000
# 5 0.0000 0.0000 0.0000 0.0000 66.5118 0.0000
# 6 0.0000 0.0000 0.0000 0.0000 0.0000 58.1920
#
#
#
# Elastic Compliance Matrix: (Units=1/GPa)
#
#
# Indices 1 2 3 4 5 6 
#
# 1 0.012032 -0.003912 -0.004815 0.000000 0.000000 0.000000
# 2 -0.003912 0.008604 -0.001903 0.000000 0.000000 0.000000
# 3 -0.004815 -0.001903 0.028535 0.000000 0.000000 0.000000
# 4 0.000000 0.000000 0.000000 0.063733 0.000000 0.000000
# 5 0.000000 0.000000 0.000000 0.000000 0.015035 0.000000
# 6 0.000000 0.000000 0.000000 0.000000 0.000000 0.017185
#
#
# Mechanical properties :
#
#
# Convention : Reuss Voigt Hill
#
# Bulk Modulus (GPa) = 35.82677 54.12730 44.97703
# Shear Modulus (GPa) = 28.45965 41.36200 34.91083
#
# Velocity S-wave (km/s) = 3.57049 4.30441 3.95451
# Velocity P-wave (km/s) = 5.74859 6.99643 6.40298
#
# Compressibility (1/GPa) = 0.02791209
#
# Stress axis : x y z
#
# Youngs Moduli (GPa) = 83.11094 116.22691 35.04414
#
# Poissons Ratio (x) = 0.45463 0.16874
# Poissons Ratio (y) = 0.32510 0.06669
# Poissons Ratio (z) = 0.40018 0.22119
#
# Static dielectric constant tensor:
#      x y z
#    x 1.890470 0.000000 0.000000 
#    y 0.000000 1.910710 0.000000 
#    z 0.000000 0.000000 1.825060 
# 
# From -- ./inp_files/29713.got.cif
#   From: 2010.05.17/outbox.cif.g08.bks.cpg/sg50_15_cif.got.tgz:29713.got - 2010.06.03 11:33:33.
