data_PCOD9396192
_publ_section_title
;
Structure prediction by ZEFSAII (Michael W. Deem and Ramdas Pophale) SiO2 
 PCOD9396192
Probable space group: P B A N
;
_chemical_formula_sum "Si O2"
_cell_formula_units_Z 30
_cell_length_a 13.043691
_cell_length_b 12.314522
_cell_length_c 8.613539
_cell_angle_alpha 90.000000
_cell_angle_beta 90.000000
_cell_angle_gamma 90.000000
_cell_volume 1383.565377
_symmetry_space_group_name_H-M "P B A N"
_symmetry_group_IT_number 50
_space_group.IT_coordinate_system_code '2'
_symmetry_cell_setting 'orthorhombic'
loop_
_space_group_symop_operation_xyz
x,y,z
1/2-x,1/2-y,z
x,1/2-y,-z
1/2-x,y,-z
-x,-y,-z
1/2+x,1/2+y,-z
-x,1/2+y,z
1/2+x,-y,z
loop_
_atom_site_type_symbol
_atom_site_label
_atom_site_fract_x
_atom_site_fract_y
_atom_site_fract_z
Si Si1 0.371054 0.114802 0.248209
Si Si2 0.750000 0.750000 0.500000
Si Si3 0.750000 0.750000 0.000000
Si Si4 0.910495 0.418765 0.572327
Si Si5 0.902593 0.310967 0.265984
Si Si6 0.250000 0.750000 0.000000
O O1 0.325196 0.179916 0.394182
O O2 0.491313 0.132065 0.222423
O O3 0.353473 0.991771 0.300642
O O4 0.315945 0.168986 0.104210
O O5 0.857884 0.374613 0.415475
O O6 0.935616 0.308443 0.667645
O O7 0.000000 0.500000 0.500000
O O8 0.826152 0.309104 0.121518
#
# Coordination Sequence:
#
# PCOD9396192 Si02
#       6
#     8   2   2   8   8   2
#     4  10  20  39  62  91 126 159 205 263 320 378
#     4  10  20  34  64  94 120 162 208 262 320 378
#     4  10  22  36  60  96 132 160 194 264 340 390
#     4   9  19  39  67  88 116 163 213 264 314 373
#     4  10  22  41  61  90 125 166 214 259 311 385
#     4  12  26  40  60  86 136 180 202 258 324 384
#
# _framework density 21.683109000000002
#
# number of rings (size 3 to 8) (size 9 to 14) (size 15 to 20)
#    0.000    2.133    0.000    4.000    0.000    5.333 
#    0.000   17.333    0.000    0.000    0.000    0.000 
#    0.000    0.000    0.000    0.000    0.000    0.000 
#
# Total GULP energy -167182.980194 kJ/mol
# GULP energy per Si atom -5572.766006 kJ/mol
# Density = 2.163376 g / cm^3
# Si number density = 21.683109 Si / 1000 Ang^3
#
#
#
# Elastic Constant Matrix: (Units=GPa)
#
#
# Indices 1 2 3 4 5 6 
#
# 1 108.7575 20.9612 57.0429 0.0000 0.0000 0.0000
# 2 20.9612 116.2262 50.4156 0.0000 0.0000 0.0000
# 3 57.0429 50.4156 154.4740 0.0000 0.0000 0.0000
# 4 0.0000 0.0000 0.0000 41.5329 0.0000 0.0000
# 5 0.0000 0.0000 0.0000 0.0000 40.1072 0.0000
# 6 0.0000 0.0000 0.0000 0.0000 0.0000 0.8327
#
#
#
# Elastic Compliance Matrix: (Units=1/GPa)
#
#
# Indices 1 2 3 4 5 6 
#
# 1 0.011411 -0.000268 -0.004126 0.000000 0.000000 0.000000
# 2 -0.000268 0.010029 -0.003174 0.000000 0.000000 0.000000
# 3 -0.004126 -0.003174 0.009033 0.000000 0.000000 0.000000
# 4 0.000000 0.000000 0.000000 0.024077 0.000000 0.000000
# 5 0.000000 0.000000 0.000000 0.000000 0.024933 0.000000
# 6 0.000000 0.000000 0.000000 0.000000 0.000000 1.200925
#
#
# Mechanical properties :
#
#
# Convention : Reuss Voigt Hill
#
# Bulk Modulus (GPa) = 65.20562 70.69969 67.95266
# Shear Modulus (GPa) = 3.84421 33.23043 18.53732
#
# Velocity S-wave (km/s) = 1.33295 3.91903 2.92707
# Velocity P-wave (km/s) = 5.70144 7.29075 6.54452
#
# Compressibility (1/GPa) = 0.01533610
#
# Stress axis : x y z
#
# Youngs Moduli (GPa) = 87.63807 99.70945 110.70277
#
# Poissons Ratio (x) = 0.02673 0.45677
# Poissons Ratio (y) = 0.02350 0.35139
# Poissons Ratio (z) = 0.36160 0.31650
#
# Static dielectric constant tensor:
#      x y z
#    x 1.800360 0.000000 0.000000 
#    y 0.000000 1.894340 0.000000 
#    z 0.000000 0.000000 1.979810 
# 
# From -- ./inp_files/10639.got.cif
#   From: 2010.05.17/outbox.cif.g08.bks.cpg/sg50_6_cif.got.tgz:10639.got - 2010.06.03 11:33:33.
