data_PCOD9396839
_publ_section_title
;
Structure prediction by ZEFSAII (Michael W. Deem and Ramdas Pophale) SiO2 
 PCOD9396839
Probable space group: P B A N
;
_chemical_formula_sum "Si O2"
_cell_formula_units_Z 64
_cell_length_a 9.699984
_cell_length_b 28.837084
_cell_length_c 12.389575
_cell_angle_alpha 90.000000
_cell_angle_beta 90.000000
_cell_angle_gamma 90.000000
_cell_volume 3465.602669
_symmetry_space_group_name_H-M "P B A N"
_symmetry_group_IT_number 50
_space_group.IT_coordinate_system_code '2'
_symmetry_cell_setting 'orthorhombic'
loop_
_space_group_symop_operation_xyz
x,y,z
1/2-x,1/2-y,z
x,1/2-y,-z
1/2-x,y,-z
-x,-y,-z
1/2+x,1/2+y,-z
-x,1/2+y,z
1/2+x,-y,z
loop_
_atom_site_type_symbol
_atom_site_label
_atom_site_fract_x
_atom_site_fract_y
_atom_site_fract_z
Si Si1 0.925752 0.319134 0.291813
Si Si2 0.381189 0.478811 0.572878
Si Si3 0.813955 0.057573 0.253527
Si Si4 0.598578 0.162080 0.715033
Si Si5 0.911564 0.805926 0.510913
Si Si6 0.624716 0.985891 0.925491
Si Si7 0.994986 0.581991 0.749396
Si Si8 0.585612 0.259771 0.122074
O O1 0.759097 0.322704 0.307789
O O2 0.986408 0.363901 0.231249
O O3 0.961379 0.275319 0.216855
O O4 0.997752 0.320390 0.407777
O O5 0.250000 0.469780 0.500000
O O6 0.500000 0.500000 0.500000
O O7 0.353782 0.519625 0.658231
O O8 0.422397 0.432982 0.638356
O O9 0.891644 0.106487 0.269470
O O10 0.651369 0.064884 0.262296
O O11 0.839502 0.032303 0.140718
O O12 0.493124 0.176960 0.619091
O O13 0.562373 0.189382 0.826186
O O14 0.910793 0.750000 0.500000
O O15 0.750000 0.820961 0.500000
O O16 0.580842 0.945728 0.843414
O O17 0.750000 0.970925 0.000000
O O18 0.500000 0.000000 0.000000
O O19 0.750000 0.250000 0.115505
O O20 0.532207 0.250000 0.000000
#
# Coordination Sequence:
#
# PCOD9396839 Si02
#       8
#     8   8   8   8   8   8   8   8
#     4  10  21  38  63  90 122 154 209 255 299 369
#     4  11  22  37  57  81 123 163 195 243 305 363
#     4  10  22  38  59  91 118 155 207 253 299 369
#     4  10  21  38  63  92 118 158 208 252 308 363
#     4  11  23  39  60  85 127 165 198 250 306 367
#     4  11  22  41  64  84 120 164 204 257 308 363
#     4  10  22  38  59  91 118 156 207 252 303 365
#     4   9  18  35  60  91 120 148 192 259 312 355
#
# _framework density 18.467206999999998
#
# number of rings (size 3 to 8) (size 9 to 14) (size 15 to 20)
#    0.000    1.750    3.750    0.375    1.750    2.000 
#    4.500    0.000    0.000    0.750    0.000    0.000 
#    0.000    0.000    0.000    0.000    0.000    0.000 
#
# Total GULP energy -356788.334535 kJ/mol
# GULP energy per Si atom -5574.817727 kJ/mol
# Density = 1.842517 g / cm^3
# Si number density = 18.467207 Si / 1000 Ang^3
#
#
#
# Elastic Constant Matrix: (Units=GPa)
#
#
# Indices 1 2 3 4 5 6 
#
# 1 80.3242 23.3010 37.9447 0.0000 0.0000 0.0000
# 2 23.3010 77.3226 16.1592 0.0000 0.0000 0.0000
# 3 37.9447 16.1592 101.4421 0.0000 0.0000 0.0000
# 4 0.0000 0.0000 0.0000 17.0221 0.0000 0.0000
# 5 0.0000 0.0000 0.0000 0.0000 23.7092 0.0000
# 6 0.0000 0.0000 0.0000 0.0000 0.0000 19.1969
#
#
#
# Elastic Compliance Matrix: (Units=1/GPa)
#
#
# Indices 1 2 3 4 5 6 
#
# 1 0.016091 -0.003715 -0.005427 0.000000 0.000000 0.000000
# 2 -0.003715 0.014236 -0.000878 0.000000 0.000000 0.000000
# 3 -0.005427 -0.000878 0.012028 0.000000 0.000000 0.000000
# 4 0.000000 0.000000 0.000000 0.058747 0.000000 0.000000
# 5 0.000000 0.000000 0.000000 0.000000 0.042178 0.000000
# 6 0.000000 0.000000 0.000000 0.000000 0.000000 0.052092
#
#
# Mechanical properties :
#
#
# Convention : Reuss Voigt Hill
#
# Bulk Modulus (GPa) = 44.81421 45.98874 45.40147
# Shear Modulus (GPa) = 22.43669 24.09791 23.26730
#
# Velocity S-wave (km/s) = 3.48939 3.61626 3.55339
# Velocity P-wave (km/s) = 6.36821 6.51103 6.44001
#
# Compressibility (1/GPa) = 0.02231435
#
# Stress axis : x y z
#
# Youngs Moduli (GPa) = 62.14700 70.24553 83.14113
#
# Poissons Ratio (x) = 0.26095 0.45121
# Poissons Ratio (y) = 0.23086 0.07301
# Poissons Ratio (z) = 0.33728 0.06169
#
# Static dielectric constant tensor:
#      x y z
#    x 1.622530 0.000000 0.000000 
#    y 0.000000 1.635140 0.000000 
#    z 0.000000 0.000000 1.632050 
# 
# From -- ./inp_files/19562.got.cif
#   From: 2010.05.17/outbox.cif.g08.bks.cpg/sg50_10_cif.got.tgz:19562.got - 2010.06.03 11:33:33.
