data_PCOD9396049
_publ_section_title
;
Structure prediction by ZEFSAII (Michael W. Deem and Ramdas Pophale) SiO2 
 PCOD9396049
Probable space group: P B A N
;
_chemical_formula_sum "Si O2"
_cell_formula_units_Z 36
_cell_length_a 12.809120
_cell_length_b 26.844612
_cell_length_c 5.155062
_cell_angle_alpha 90.000000
_cell_angle_beta 90.000000
_cell_angle_gamma 90.000000
_cell_volume 1772.598259
_symmetry_space_group_name_H-M "P B A N"
_symmetry_group_IT_number 50
_space_group.IT_coordinate_system_code '2'
_symmetry_cell_setting 'orthorhombic'
loop_
_space_group_symop_operation_xyz
x,y,z
1/2-x,1/2-y,z
x,1/2-y,-z
1/2-x,y,-z
-x,-y,-z
1/2+x,1/2+y,-z
-x,1/2+y,z
1/2+x,-y,z
loop_
_atom_site_type_symbol
_atom_site_label
_atom_site_fract_x
_atom_site_fract_y
_atom_site_fract_z
Si Si1 0.464343 0.867812 0.432113
Si Si2 0.840162 0.926438 0.687635
Si Si3 0.750000 0.494618 0.000000
Si Si4 0.750000 0.424560 0.500000
Si Si5 0.479229 0.305398 0.926344
Si Si6 0.750000 0.663985 0.000000
O O1 0.550815 0.912154 0.441067
O O2 0.352677 0.890587 0.495613
O O3 0.488178 0.826162 0.647478
O O4 0.478172 0.843062 0.148028
O O5 0.750000 0.946388 0.500000
O O6 0.792620 0.874051 0.784023
O O7 0.842781 0.966323 0.922061
O O8 0.739537 0.458501 0.244408
O O9 0.514333 0.250000 0.000000
O O10 0.352548 0.306297 0.921597
#
# Coordination Sequence:
#
# PCOD9396049 Si02
#       6
#     8   8   4   4   8   4
#     4  11  25  42  65  87 132 167 202 259 316 364
#     4  10  19  40  63  95 128 161 197 248 324 373
#     4  11  24  40  67  94 122 160 221 256 302 379
#     4  12  26  46  59  90 124 172 219 258 302 356
#     4  11  22  40  65  97 122 161 210 256 313 379
#     4   9  19  34  63  96 134 158 185 252 321 381
#
# _framework density 20.309170000000002
#
# number of rings (size 3 to 8) (size 9 to 14) (size 15 to 20)
#    0.000    1.333    3.333    2.333    0.000    1.778 
#    0.000    5.556    0.000    0.000    0.000    0.000 
#    0.000    0.000    0.000    0.000    0.000    0.000 
#
# Total GULP energy -200827.902606 kJ/mol
# GULP energy per Si atom -5578.552850 kJ/mol
# Density = 2.026295 g / cm^3
# Si number density = 20.309170 Si / 1000 Ang^3
#
#
#
# Elastic Constant Matrix: (Units=GPa)
#
#
# Indices 1 2 3 4 5 6 
#
# 1 132.4311 38.2517 16.5889 0.0000 0.0000 0.0000
# 2 38.2517 72.8173 3.4664 0.0000 0.0000 0.0000
# 3 16.5889 3.4664 76.6212 0.0000 0.0000 0.0000
# 4 0.0000 0.0000 0.0000 57.6180 0.0000 0.0000
# 5 0.0000 0.0000 0.0000 0.0000 13.0989 0.0000
# 6 0.0000 0.0000 0.0000 0.0000 0.0000 -17.9487
#
#
#
# Elastic Compliance Matrix: (Units=1/GPa)
#
#
# Indices 1 2 3 4 5 6 
#
# 1 0.009134 -0.004714 -0.001764 0.000000 0.000000 0.000000
# 2 -0.004714 0.016196 0.000288 0.000000 0.000000 0.000000
# 3 -0.001764 0.000288 0.013420 0.000000 0.000000 0.000000
# 4 0.000000 0.000000 0.000000 0.017356 0.000000 0.000000
# 5 0.000000 0.000000 0.000000 0.000000 0.076342 0.000000
# 6 0.000000 0.000000 0.000000 0.000000 0.000000 -0.055714
#
#
# Mechanical properties :
#
#
# Convention : Reuss Voigt Hill
#
# Bulk Modulus (GPa) = 37.92364 44.27596 41.09980
# Shear Modulus (GPa) = 51.07090 25.45783 38.26436
#
# Velocity S-wave (km/s) = 5.02009 3.54434 4.34532
# Velocity P-wave (km/s) = 7.23294 6.21274 6.74216
#
# Compressibility (1/GPa) = 0.02636878
#
# Stress axis : x y z
#
# Youngs Moduli (GPa) = 109.48457 61.74502 74.51471
#
# Poissons Ratio (x) = 0.29107 0.13146
# Poissons Ratio (y) = 0.51612 -0.02145
# Poissons Ratio (z) = 0.19316 -0.01778
#
# Static dielectric constant tensor:
#      x y z
#    x 1.737120 0.000000 0.000000 
#    y 0.000000 1.721100 0.000000 
#    z 0.000000 0.000000 1.776460 
# 
# From -- ./inp_files/2296.got.cif
#   From: 2010.05.17/outbox.cif.g08.bks.cpg/sg50_2_cif.got.tgz:2296.got - 2010.06.03 11:33:33.
