data_PCOD9396613
_publ_section_title
;
Structure prediction by ZEFSAII (Michael W. Deem and Ramdas Pophale) SiO2 
 PCOD9396613
Probable space group: P B A N
;
_chemical_formula_sum "Si O2"
_cell_formula_units_Z 52
_cell_length_a 17.747738
_cell_length_b 18.525814
_cell_length_c 8.570764
_cell_angle_alpha 90.000000
_cell_angle_beta 90.000000
_cell_angle_gamma 90.000000
_cell_volume 2817.992578
_symmetry_space_group_name_H-M "P B A N"
_symmetry_group_IT_number 50
_space_group.IT_coordinate_system_code '2'
_symmetry_cell_setting 'orthorhombic'
loop_
_space_group_symop_operation_xyz
x,y,z
1/2-x,1/2-y,z
x,1/2-y,-z
1/2-x,y,-z
-x,-y,-z
1/2+x,1/2+y,-z
-x,1/2+y,z
1/2+x,-y,z
loop_
_atom_site_type_symbol
_atom_site_label
_atom_site_fract_x
_atom_site_fract_y
_atom_site_fract_z
Si Si1 0.998511 0.241133 0.813828
Si Si2 0.856989 0.824086 0.736488
Si Si3 0.589763 0.105142 0.183339
Si Si4 0.467742 0.037762 0.661719
Si Si5 0.250000 0.250000 0.500000
Si Si6 0.743876 0.332985 0.685929
Si Si7 0.601990 0.374917 0.186513
Si Si8 0.250000 0.250000 0.000000
O O1 0.975705 0.161101 0.770742
O O2 0.930378 0.295257 0.773704
O O3 0.074938 0.267171 0.739336
O O4 0.008057 0.250000 0.000000
O O5 0.902486 0.898833 0.689502
O O6 0.800787 0.802614 0.601735
O O7 0.805402 0.802633 0.893006
O O8 0.666082 0.131774 0.262945
O O9 0.565549 0.027112 0.237012
O O10 0.599822 0.112869 0.998165
O O11 0.543067 0.071468 0.735351
O O12 0.500000 0.000000 0.500000
O O13 0.750000 0.250000 0.744024
O O14 0.750000 0.331723 0.500000
O O15 0.813600 0.377956 0.752999
#
# Coordination Sequence:
#
# PCOD9396613 Si02
#       8
#     8   8   8   8   2   8   8   2
#     4   9  18  35  66  91 118 159 214 267 309 376
#     4  10  22  43  67  95 125 167 222 277 338 384
#     4  11  22  39  65  94 126 171 214 262 326 388
#     4  11  25  44  61  96 138 173 210 264 344 412
#     4  10  24  42  64  98 116 168 222 278 332 382
#     4  11  22  38  61  95 131 167 209 263 323 383
#     4  10  21  41  62  90 124 167 223 264 305 384
#     4  10  20  46  76  90 124 164 242 298 308 390
#
# _framework density 18.452850999999999
#
# number of rings (size 3 to 8) (size 9 to 14) (size 15 to 20)
#    0.000    1.692    2.308    1.846    2.154    0.615 
#    6.923    0.000    0.000    0.000    0.000    0.000 
#    0.000    0.000    0.000    0.000    0.000    0.000 
#
# Total GULP energy -289506.463738 kJ/mol
# GULP energy per Si atom -5567.431995 kJ/mol
# Density = 1.841085 g / cm^3
# Si number density = 18.452851 Si / 1000 Ang^3
#
#
#
# Elastic Constant Matrix: (Units=GPa)
#
#
# Indices 1 2 3 4 5 6 
#
# 1 126.7311 76.2639 43.8871 0.0000 0.0000 0.0000
# 2 76.2639 143.9822 45.6859 0.0000 0.0000 0.0000
# 3 43.8871 45.6859 72.3596 0.0000 0.0000 0.0000
# 4 0.0000 0.0000 0.0000 18.9020 0.0000 0.0000
# 5 0.0000 0.0000 0.0000 0.0000 21.0049 0.0000
# 6 0.0000 0.0000 0.0000 0.0000 0.0000 18.3546
#
#
#
# Elastic Compliance Matrix: (Units=1/GPa)
#
#
# Indices 1 2 3 4 5 6 
#
# 1 0.012557 -0.005295 -0.004273 0.000000 0.000000 0.000000
# 2 -0.005295 0.010918 -0.003682 0.000000 0.000000 0.000000
# 3 -0.004273 -0.003682 0.018736 0.000000 0.000000 0.000000
# 4 0.000000 0.000000 0.000000 0.052904 0.000000 0.000000
# 5 0.000000 0.000000 0.000000 0.000000 0.047608 0.000000
# 6 0.000000 0.000000 0.000000 0.000000 0.000000 0.054482
#
#
# Mechanical properties :
#
#
# Convention : Reuss Voigt Hill
#
# Bulk Modulus (GPa) = 63.64746 74.97183 69.30964
# Shear Modulus (GPa) = 21.83953 23.46805 22.65379
#
# Velocity S-wave (km/s) = 3.44398 3.57008 3.50760
# Velocity P-wave (km/s) = 7.09799 7.59678 7.35162
#
# Compressibility (1/GPa) = 0.01571155
#
# Stress axis : x y z
#
# Youngs Moduli (GPa) = 79.63680 91.58829 53.37355
#
# Poissons Ratio (x) = 0.48500 0.22804
# Poissons Ratio (y) = 0.42171 0.19651
# Poissons Ratio (z) = 0.34026 0.33721
#
# Static dielectric constant tensor:
#      x y z
#    x 1.610990 0.000000 0.000000 
#    y 0.000000 1.620910 0.000000 
#    z 0.000000 0.000000 1.664240 
# 
# From -- ./inp_files/14462.got.cif
#   From: 2010.05.17/outbox.cif.g08.bks.cpg/sg50_8_cif.got.tgz:14462.got - 2010.06.03 11:33:33.
