data_PCOD9396197
_publ_section_title
;
Structure prediction by ZEFSAII (Michael W. Deem and Ramdas Pophale) SiO2 
 PCOD9396197
Probable space group: P B A N
;
_chemical_formula_sum "Si O2"
_cell_formula_units_Z 58
_cell_length_a 8.809514
_cell_length_b 12.069886
_cell_length_c 23.724900
_cell_angle_alpha 90.000000
_cell_angle_beta 90.000000
_cell_angle_gamma 90.000000
_cell_volume 2522.664577
_symmetry_space_group_name_H-M "P B A N"
_symmetry_group_IT_number 50
_space_group.IT_coordinate_system_code '2'
_symmetry_cell_setting 'orthorhombic'
loop_
_space_group_symop_operation_xyz
x,y,z
1/2-x,1/2-y,z
x,1/2-y,-z
1/2-x,y,-z
-x,-y,-z
1/2+x,1/2+y,-z
-x,1/2+y,z
1/2+x,-y,z
loop_
_atom_site_type_symbol
_atom_site_label
_atom_site_fract_x
_atom_site_fract_y
_atom_site_fract_z
Si Si1 0.656157 0.351162 0.761292
Si Si2 0.250000 0.250000 0.000000
Si Si3 0.293580 0.983230 0.865632
Si Si4 0.461521 0.072742 0.055304
Si Si5 0.091928 0.439450 0.688530
Si Si6 0.620209 0.430638 0.538055
Si Si7 0.911378 0.808309 0.801820
Si Si8 0.864418 0.553359 0.615186
O O1 0.750000 0.250000 0.736646
O O2 0.746935 0.424815 0.806820
O O3 0.604676 0.434902 0.713004
O O4 0.529731 0.292867 0.800811
O O5 0.362881 0.323510 0.963381
O O6 0.147288 0.013076 0.900623
O O7 0.388053 0.094563 0.848123
O O8 0.387746 0.907913 0.909090
O O9 0.500000 0.000000 0.000000
O O10 0.055412 0.367242 0.742381
O O11 0.254440 0.399793 0.663865
O O12 0.957992 0.450762 0.642817
O O13 0.750000 0.370633 0.500000
O O14 0.500000 0.500000 0.500000
O O15 0.733941 0.510782 0.572640
O O16 0.498391 0.378528 0.582872
O O17 0.750000 0.750000 0.800131
#
# Coordination Sequence:
#
# PCOD9396197 Si02
#       8
#     8   2   8   8   8   8   8   8
#     4  11  23  38  59  87 121 160 199 246 297 366
#     4  12  28  44  74  94 128 168 198 264 324 358
#     4  11  25  42  68  94 126 160 208 253 307 370
#     4  12  25  47  68  97 128 161 207 262 311 375
#     4  10  20  35  52  84 121 153 197 245 299 367
#     4   8  14  25  44  77 114 148 201 256 297 357
#     4  11  23  39  62  90 122 164 200 248 302 370
#     4   9  16  28  50  73 118 160 184 254 313 341
#
# _framework density 22.991562999999999
#
# number of rings (size 3 to 8) (size 9 to 14) (size 15 to 20)
#    0.000    1.655    1.379    3.310    2.897    5.517 
#    0.000    0.690    0.000    0.000    0.000    0.000 
#    0.000 1019.586    0.000    0.000    0.000    0.000 
#
# Total GULP energy -323243.495064 kJ/mol
# GULP energy per Si atom -5573.163708 kJ/mol
# Density = 2.293923 g / cm^3
# Si number density = 22.991563 Si / 1000 Ang^3
#
#
#
# Elastic Constant Matrix: (Units=GPa)
#
#
# Indices 1 2 3 4 5 6 
#
# 1 127.1220 24.5222 37.2851 0.0000 0.0000 0.0000
# 2 24.5222 73.5242 22.9188 0.0000 0.0000 0.0000
# 3 37.2851 22.9188 98.4938 0.0000 0.0000 0.0000
# 4 0.0000 0.0000 0.0000 -40.4713 0.0000 0.0000
# 5 0.0000 0.0000 0.0000 0.0000 47.5090 0.0000
# 6 0.0000 0.0000 0.0000 0.0000 0.0000 156.9040
#
#
#
# Elastic Compliance Matrix: (Units=1/GPa)
#
#
# Indices 1 2 3 4 5 6 
#
# 1 0.009147 -0.002126 -0.002968 0.000000 0.000000 0.000000
# 2 -0.002126 0.015159 -0.002723 0.000000 0.000000 0.000000
# 3 -0.002968 -0.002723 0.011910 0.000000 0.000000 0.000000
# 4 0.000000 0.000000 0.000000 -0.024709 0.000000 0.000000
# 5 0.000000 0.000000 0.000000 0.000000 0.021049 0.000000
# 6 0.000000 0.000000 0.000000 0.000000 0.000000 0.006373
#
#
# Mechanical properties :
#
#
# Convention : Reuss Voigt Hill
#
# Bulk Modulus (GPa) = 48.58350 52.06581 50.32465
# Shear Modulus (GPa) = 81.40369 47.08260 64.24314
#
# Velocity S-wave (km/s) = 5.95674 4.53019 5.29176
# Velocity P-wave (km/s) = 8.27570 7.07519 7.69888
#
# Compressibility (1/GPa) = 0.02058312
#
# Stress axis : x y z
#
# Youngs Moduli (GPa) = 109.32529 65.96914 83.96292
#
# Poissons Ratio (x) = 0.14022 0.24920
# Poissons Ratio (y) = 0.23238 0.22860
# Poissons Ratio (z) = 0.32448 0.17961
#
# Static dielectric constant tensor:
#      x y z
#    x 1.812150 0.000000 0.000000 
#    y 0.000000 1.839540 0.000000 
#    z 0.000000 0.000000 1.764640 
# 
# From -- ./inp_files/32141.got.cif
#   From: 2010.05.17/outbox.cif.g08.bks.cpg/sg50_17_cif.got.tgz:32141.got - 2010.06.03 11:33:33.
