data_PCOD9396413
_publ_section_title
;
Structure prediction by ZEFSAII (Michael W. Deem and Ramdas Pophale) SiO2 
 PCOD9396413
Probable space group: P B A N
;
_chemical_formula_sum "Si O2"
_cell_formula_units_Z 56
_cell_length_a 13.883785
_cell_length_b 8.586342
_cell_length_c 21.004254
_cell_angle_alpha 90.000000
_cell_angle_beta 90.000000
_cell_angle_gamma 90.000000
_cell_volume 2503.936575
_symmetry_space_group_name_H-M "P B A N"
_symmetry_group_IT_number 50
_space_group.IT_coordinate_system_code '2'
_symmetry_cell_setting 'orthorhombic'
loop_
_space_group_symop_operation_xyz
x,y,z
1/2-x,1/2-y,z
x,1/2-y,-z
1/2-x,y,-z
-x,-y,-z
1/2+x,1/2+y,-z
-x,1/2+y,z
1/2+x,-y,z
loop_
_atom_site_type_symbol
_atom_site_label
_atom_site_fract_x
_atom_site_fract_y
_atom_site_fract_z
Si Si1 0.137654 0.430232 0.015770
Si Si2 0.712023 0.075869 0.427288
Si Si3 0.750000 0.750000 0.351053
Si Si4 0.539512 0.164446 0.809631
Si Si5 0.984813 0.980228 0.410957
Si Si6 0.979265 0.750000 0.500000
Si Si7 0.421109 0.103230 0.275869
Si Si8 0.533704 0.066463 0.102150
O O1 0.084935 0.536002 0.963923
O O2 0.119619 0.250000 0.000000
O O3 0.250000 0.457023 0.000000
O O4 0.081004 0.442770 0.083259
O O5 0.750000 0.250000 0.404463
O O6 0.750000 0.064574 0.500000
O O7 0.595586 0.069380 0.422314
O O8 0.737422 0.915609 0.388828
O O9 0.660857 0.712652 0.304396
O O10 0.497463 0.283597 0.757745
O O11 0.573253 0.277238 0.866100
O O12 0.603252 0.033906 0.774372
O O13 0.454707 0.067683 0.845084
O O14 0.922670 0.851053 0.448572
O O15 0.963833 0.984515 0.337555
O O16 0.968024 0.132424 0.452438
#
# Coordination Sequence:
#
# PCOD9396413 Si02
#       8
#     8   8   4   8   8   4   8   8
#     4  10  20  37  70 108 144 180 226 290 356 419
#     4  11  26  42  67 100 138 171 219 295 379 448
#     4  12  27  46  68 102 134 179 234 312 354 426
#     4  10  22  43  69  92 135 191 233 279 334 414
#     4  11  23  41  66  98 126 174 223 282 363 443
#     4  10  22  34  68  96 124 158 220 282 346 444
#     4  11  25  45  71  95 135 185 241 286 350 426
#     4  10  20  41  67 103 141 187 230 285 351 417
#
# _framework density 22.364782999999999
#
# number of rings (size 3 to 8) (size 9 to 14) (size 15 to 20)
#    0.000    1.429    1.429    3.643   10.000    0.000 
#    5.143    1.429    6.286    0.000    0.000    0.000 
#    0.000    0.000    0.000    0.000    0.000    0.000 
#
# Total GULP energy -311837.025431 kJ/mol
# GULP energy per Si atom -5568.518311 kJ/mol
# Density = 2.231388 g / cm^3
# Si number density = 22.364783 Si / 1000 Ang^3
#
#
#
# Elastic Constant Matrix: (Units=GPa)
#
#
# Indices 1 2 3 4 5 6 
#
# 1 76.8061 14.9864 24.7110 0.0000 0.0000 0.0000
# 2 14.9864 144.4311 58.4956 0.0000 0.0000 0.0000
# 3 24.7110 58.4956 133.8504 0.0000 0.0000 0.0000
# 4 0.0000 0.0000 0.0000 46.5341 0.0000 0.0000
# 5 0.0000 0.0000 0.0000 0.0000 24.9117 0.0000
# 6 0.0000 0.0000 0.0000 0.0000 0.0000 13.5999
#
#
#
# Elastic Compliance Matrix: (Units=1/GPa)
#
#
# Indices 1 2 3 4 5 6 
#
# 1 0.013870 -0.000489 -0.002347 0.000000 0.000000 0.000000
# 2 -0.000489 0.008430 -0.003594 0.000000 0.000000 0.000000
# 3 -0.002347 -0.003594 0.009475 0.000000 0.000000 0.000000
# 4 0.000000 0.000000 0.000000 0.021490 0.000000 0.000000
# 5 0.000000 0.000000 0.000000 0.000000 0.040142 0.000000
# 6 0.000000 0.000000 0.000000 0.000000 0.000000 0.073530
#
#
# Mechanical properties :
#
#
# Convention : Reuss Voigt Hill
#
# Bulk Modulus (GPa) = 52.86540 61.27481 57.07010
# Shear Modulus (GPa) = 26.86714 34.13546 30.50130
#
# Velocity S-wave (km/s) = 3.46976 3.91103 3.69699
# Velocity P-wave (km/s) = 6.30408 6.91753 6.61792
#
# Compressibility (1/GPa) = 0.01891596
#
# Stress axis : x y z
#
# Youngs Moduli (GPa) = 72.09652 118.62455 105.54136
#
# Poissons Ratio (x) = 0.05796 0.24772
# Poissons Ratio (y) = 0.03523 0.37930
# Poissons Ratio (z) = 0.16922 0.42632
#
# Static dielectric constant tensor:
#      x y z
#    x 1.968950 0.000000 0.000000 
#    y 0.000000 1.927470 0.000000 
#    z 0.000000 0.000000 1.838810 
# 
# From -- ./inp_files/31015.got.cif
#   From: 2010.05.17/outbox.cif.g08.bks.cpg/sg50_16_cif.got.tgz:31015.got - 2010.06.03 11:33:33.
