data_PCOD9396772
_publ_section_title
;
Structure prediction by ZEFSAII (Michael W. Deem and Ramdas Pophale) SiO2 
 PCOD9396772
Probable space group: P B A N
;
_chemical_formula_sum "Si O2"
_cell_formula_units_Z 34
_cell_length_a 8.309498
_cell_length_b 23.671665
_cell_length_c 8.414681
_cell_angle_alpha 90.000000
_cell_angle_beta 90.000000
_cell_angle_gamma 90.000000
_cell_volume 1655.164833
_symmetry_space_group_name_H-M "P B A N"
_symmetry_group_IT_number 50
_space_group.IT_coordinate_system_code '2'
_symmetry_cell_setting 'orthorhombic'
loop_
_space_group_symop_operation_xyz
x,y,z
1/2-x,1/2-y,z
x,1/2-y,-z
1/2-x,y,-z
-x,-y,-z
1/2+x,1/2+y,-z
-x,1/2+y,z
1/2+x,-y,z
loop_
_atom_site_type_symbol
_atom_site_label
_atom_site_fract_x
_atom_site_fract_y
_atom_site_fract_z
Si Si1 0.640769 0.410350 0.852252
Si Si2 0.938926 0.815531 0.971549
Si Si3 0.582144 0.146791 0.653710
Si Si4 0.568937 0.942555 0.571026
Si Si5 0.250000 0.750000 0.500000
O O1 0.774860 0.391389 0.725238
O O2 0.497314 0.442167 0.754753
O O3 0.750000 0.435345 0.000000
O O4 0.552880 0.354843 0.921456
O O5 0.961923 0.839912 0.795521
O O6 0.984247 0.750000 0.000000
O O7 0.750000 0.820613 0.000000
O O8 0.506977 0.113234 0.508266
O O9 0.645749 0.207638 0.603529
O O10 0.750000 0.941538 0.500000
O O11 0.500000 0.000000 0.500000
#
# Coordination Sequence:
#
# PCOD9396772 Si02
#       5
#     8   8   8   8   2
#     4  10  21  41  65  94 130 170 227 271 342 407
#     4  10  21  37  59  92 134 171 216 273 339 406
#     4  11  22  39  64  95 127 175 217 271 335 402
#     4  12  25  45  68  94 134 177 230 288 340 409
#     4  12  20  36  68  96 136 160 232 262 340 408
#
# _framework density 20.54176
#
# number of rings (size 3 to 8) (size 9 to 14) (size 15 to 20)
#    0.000    1.176    2.353    4.235    0.000    3.294 
#    0.000   11.765    0.000    0.000    0.000    0.000 
#    0.000    0.000    0.000    0.000    0.000    0.000 
#
# Total GULP energy -189469.579662 kJ/mol
# GULP energy per Si atom -5572.634696 kJ/mol
# Density = 2.049501 g / cm^3
# Si number density = 20.541760 Si / 1000 Ang^3
#
#
#
# Elastic Constant Matrix: (Units=GPa)
#
#
# Indices 1 2 3 4 5 6 
#
# 1 109.8367 16.5706 49.2164 0.0000 0.0000 0.0000
# 2 16.5706 59.9014 16.7615 0.0000 0.0000 0.0000
# 3 49.2164 16.7615 87.6299 0.0000 0.0000 0.0000
# 4 0.0000 0.0000 0.0000 28.7340 0.0000 0.0000
# 5 0.0000 0.0000 0.0000 0.0000 98.5671 0.0000
# 6 0.0000 0.0000 0.0000 0.0000 0.0000 92.4146
#
#
#
# Elastic Compliance Matrix: (Units=1/GPa)
#
#
# Indices 1 2 3 4 5 6 
#
# 1 0.012301 -0.001553 -0.006612 0.000000 0.000000 0.000000
# 2 -0.001553 0.017834 -0.002539 0.000000 0.000000 0.000000
# 3 -0.006612 -0.002539 0.015611 0.000000 0.000000 0.000000
# 4 0.000000 0.000000 0.000000 0.034802 0.000000 0.000000
# 5 0.000000 0.000000 0.000000 0.000000 0.010145 0.000000
# 6 0.000000 0.000000 0.000000 0.000000 0.000000 0.010821
#
#
# Mechanical properties :
#
#
# Convention : Reuss Voigt Hill
#
# Bulk Modulus (GPa) = 41.08693 46.94055 44.01374
# Shear Modulus (GPa) = 38.15769 55.59778 46.87773
#
# Velocity S-wave (km/s) = 4.31463 5.20812 4.78228
# Velocity P-wave (km/s) = 6.69824 7.68550 7.20879
#
# Compressibility (1/GPa) = 0.02433864
#
# Stress axis : x y z
#
# Youngs Moduli (GPa) = 81.29142 56.07221 64.05806
#
# Poissons Ratio (x) = 0.08707 0.42355
# Poissons Ratio (y) = 0.12623 0.16265
# Poissons Ratio (z) = 0.53749 0.14237
#
# Static dielectric constant tensor:
#      x y z
#    x 1.772340 0.000000 0.000000 
#    y 0.000000 1.676410 0.000000 
#    z 0.000000 0.000000 1.766840 
# 
# From -- ./inp_files/9268.got.cif
#   From: 2010.05.17/outbox.cif.g08.bks.cpg/sg50_5_cif.got.tgz:9268.got - 2010.06.03 11:33:33.
