data_PCOD9396869
_publ_section_title
;
Structure prediction by ZEFSAII (Michael W. Deem and Ramdas Pophale) SiO2 
 PCOD9396869
Probable space group: P B A N
;
_chemical_formula_sum "Si O2"
_cell_formula_units_Z 42
_cell_length_a 23.716347
_cell_length_b 7.286211
_cell_length_c 10.980003
_cell_angle_alpha 90.000000
_cell_angle_beta 90.000000
_cell_angle_gamma 90.000000
_cell_volume 1897.369865
_symmetry_space_group_name_H-M "P B A N"
_symmetry_group_IT_number 50
_space_group.IT_coordinate_system_code '2'
_symmetry_cell_setting 'orthorhombic'
loop_
_space_group_symop_operation_xyz
x,y,z
1/2-x,1/2-y,z
x,1/2-y,-z
1/2-x,y,-z
-x,-y,-z
1/2+x,1/2+y,-z
-x,1/2+y,z
1/2+x,-y,z
loop_
_atom_site_type_symbol
_atom_site_label
_atom_site_fract_x
_atom_site_fract_y
_atom_site_fract_z
Si Si1 0.348935 0.025285 0.511072
Si Si2 0.369490 0.034050 0.240465
Si Si3 0.122451 0.453256 0.763262
Si Si4 0.933649 0.530651 0.996167
Si Si5 0.246968 0.970392 0.142083
Si Si6 0.250000 0.750000 0.500000
O O1 0.338168 0.250000 0.500000
O O2 0.370941 0.962391 0.378743
O O3 0.388589 0.983942 0.626070
O O4 0.294545 0.902807 0.547296
O O5 0.392448 0.239672 0.245342
O O6 0.303144 0.038701 0.207916
O O7 0.402457 0.953197 0.123928
O O8 0.091264 0.541958 0.876940
O O9 0.188592 0.466873 0.798955
O O10 0.922066 0.750000 0.000000
O O11 0.000000 0.500000 0.000000
O O12 0.250000 0.750000 0.148739
O O13 0.250000 0.024621 0.000000
#
# Coordination Sequence:
#
# PCOD9396869 Si02
#       6
#     8   8   8   8   8   2
#     4  10  23  39  56  85 127 167 201 246 291 363
#     4  10  21  39  59  81 117 159 199 235 298 365
#     4  10  21  39  59  81 117 159 199 235 298 365
#     4  10  22  41  64  87 111 152 200 258 311 359
#     4  11  22  32  51  87 122 151 187 242 293 345
#     4  12  22  36  60  92 128 168 214 226 308 356
#
# _framework density 22.135907
#
# number of rings (size 3 to 8) (size 9 to 14) (size 15 to 20)
#    0.000    1.714    1.905    2.000    5.333    5.333 
#    0.000    0.952    0.000    0.000    0.000    0.000 
#    0.000    0.000    0.000    0.000    0.000    0.000 
#
# Total GULP energy -234012.631829 kJ/mol
# GULP energy per Si atom -5571.729329 kJ/mol
# Density = 2.208552 g / cm^3
# Si number density = 22.135907 Si / 1000 Ang^3
#
#
#
# Elastic Constant Matrix: (Units=GPa)
#
#
# Indices 1 2 3 4 5 6 
#
# 1 92.3480 -14.8495 69.4229 0.0000 0.0000 0.0000
# 2 -14.8495 105.7848 3.5300 0.0000 0.0000 0.0000
# 3 69.4229 3.5300 253.7436 0.0000 0.0000 0.0000
# 4 0.0000 0.0000 0.0000 -2.8885 0.0000 0.0000
# 5 0.0000 0.0000 0.0000 0.0000 -5.9020 0.0000
# 6 0.0000 0.0000 0.0000 0.0000 0.0000 19.0025
#
#
#
# Elastic Compliance Matrix: (Units=1/GPa)
#
#
# Indices 1 2 3 4 5 6 
#
# 1 0.014087 0.002107 -0.003883 0.000000 0.000000 0.000000
# 2 0.002107 0.009773 -0.000712 0.000000 0.000000 0.000000
# 3 -0.003883 -0.000712 0.005013 0.000000 0.000000 0.000000
# 4 0.000000 0.000000 0.000000 -0.346202 0.000000 0.000000
# 5 0.000000 0.000000 0.000000 0.000000 -0.169435 0.000000
# 6 0.000000 0.000000 0.000000 0.000000 0.000000 0.052625
#
#
# Mechanical properties :
#
#
# Convention : Reuss Voigt Hill
#
# Bulk Modulus (GPa) = 41.84933 63.12036 52.48484
# Shear Modulus (GPa) = -11.87092 28.29395 8.21151
#
# Velocity S-wave (km/s) = -2.31827 3.57906 1.92812
# Velocity P-wave (km/s) = 3.43232 6.75695 5.35897
#
# Compressibility (1/GPa) = 0.02389525
#
# Stress axis : x y z
#
# Youngs Moduli (GPa) = 70.98869 102.32589 199.46671
#
# Poissons Ratio (x) = -0.21560 0.77460
# Poissons Ratio (y) = -0.14957 0.14210
# Poissons Ratio (z) = 0.27568 0.07290
#
# Static dielectric constant tensor:
#      x y z
#    x 1.752080 0.000000 0.000000 
#    y 0.000000 1.843830 0.000000 
#    z 0.000000 0.000000 1.893700 
# 
# From -- ./inp_files/22697.got.cif
#   From: 2010.05.17/outbox.cif.g08.bks.cpg/sg50_12_cif.got.tgz:22697.got - 2010.06.03 11:33:33.
