data_PCOD9396042
_publ_section_title
;
Structure prediction by ZEFSAII (Michael W. Deem and Ramdas Pophale) SiO2 
 PCOD9396042
Probable space group: P B A N
;
_chemical_formula_sum "Si O2"
_cell_formula_units_Z 44
_cell_length_a 15.534695
_cell_length_b 19.963233
_cell_length_c 5.647582
_cell_angle_alpha 90.000000
_cell_angle_beta 90.000000
_cell_angle_gamma 90.000000
_cell_volume 1751.443581
_symmetry_space_group_name_H-M "P B A N"
_symmetry_group_IT_number 50
_space_group.IT_coordinate_system_code '2'
_symmetry_cell_setting 'orthorhombic'
loop_
_space_group_symop_operation_xyz
x,y,z
1/2-x,1/2-y,z
x,1/2-y,-z
1/2-x,y,-z
-x,-y,-z
1/2+x,1/2+y,-z
-x,1/2+y,z
1/2+x,-y,z
loop_
_atom_site_type_symbol
_atom_site_label
_atom_site_fract_x
_atom_site_fract_y
_atom_site_fract_z
Si Si1 0.750000 0.750000 0.500000
Si Si2 0.660802 0.675763 0.114130
Si Si3 0.153414 0.978946 0.577575
Si Si4 0.908480 0.330241 0.628785
Si Si5 0.097966 0.989718 0.078613
Si Si6 0.250000 0.750000 0.500000
Si Si7 0.470207 0.652980 0.124201
O O1 0.687058 0.698042 0.373401
O O2 0.571941 0.636284 0.113617
O O3 0.646485 0.750000 0.000000
O O4 0.750000 0.648821 0.000000
O O5 0.250000 0.962939 0.500000
O O6 0.099341 0.910972 0.613309
O O7 0.153828 0.007776 0.845942
O O8 0.116575 0.017740 0.344144
O O9 0.813919 0.297853 0.643188
O O10 0.950724 0.312415 0.375401
O O11 0.955762 0.313299 0.870752
O O12 0.097518 0.909019 0.119344
O O13 0.000000 0.000000 0.000000
#
# Coordination Sequence:
#
# PCOD9396042 Si02
#       7
#     2   8   8   8   8   2   8
#     4   8  18  34  56  78 102 158 182 244 268 336
#     4   9  20  35  55  80 110 148 192 233 280 338
#     4  10  19  39  59  85 114 155 192 230 293 347
#     4  10  24  36  57  85 121 156 189 243 272 352
#     4  10  21  38  62  84 116 147 191 244 292 348
#     4  12  24  40  56  90 128 154 208 234 294 326
#     4  10  23  39  58  86 114 156 192 235 301 338
#
# _framework density 25.122135
#
# number of rings (size 3 to 8) (size 9 to 14) (size 15 to 20)
#    0.000    2.364    0.909    1.091    7.636    1.455 
#    0.000    1.818    2.000    0.000    0.000    0.000 
#    0.000    0.000    0.000    0.000    0.000    0.000 
#
# Total GULP energy -245282.577223 kJ/mol
# GULP energy per Si atom -5574.604028 kJ/mol
# Density = 2.506496 g / cm^3
# Si number density = 25.122135 Si / 1000 Ang^3
#
#
#
# Elastic Constant Matrix: (Units=GPa)
#
#
# Indices 1 2 3 4 5 6 
#
# 1 127.4024 5.2951 69.2990 0.0000 0.0000 0.0000
# 2 5.2951 43.3250 33.4595 0.0000 0.0000 0.0000
# 3 69.2990 33.4595 234.3288 0.0000 0.0000 0.0000
# 4 0.0000 0.0000 0.0000 -0.6961 0.0000 0.0000
# 5 0.0000 0.0000 0.0000 0.0000 70.6336 0.0000
# 6 0.0000 0.0000 0.0000 0.0000 0.0000 160.3174
#
#
#
# Elastic Compliance Matrix: (Units=1/GPa)
#
#
# Indices 1 2 3 4 5 6 
#
# 1 0.009402 0.001122 -0.002941 0.000000 0.000000 0.000000
# 2 0.001122 0.026076 -0.004055 0.000000 0.000000 0.000000
# 3 -0.002941 -0.004055 0.005716 0.000000 0.000000 0.000000
# 4 0.000000 0.000000 0.000000 -1.436567 0.000000 0.000000
# 5 0.000000 0.000000 0.000000 0.000000 0.014158 0.000000
# 6 0.000000 0.000000 0.000000 0.000000 0.000000 0.006238
#
#
# Mechanical properties :
#
#
# Convention : Reuss Voigt Hill
#
# Bulk Modulus (GPa) = 33.95986 69.01816 51.48901
# Shear Modulus (GPa) = -3.69436 65.85115 31.07839
#
# Velocity S-wave (km/s) = -1.21398 5.12536 3.52105
# Velocity P-wave (km/s) = 3.40327 7.90939 6.08854
#
# Compressibility (1/GPa) = 0.02944653
#
# Stress axis : x y z
#
# Youngs Moduli (GPa) = 106.35938 38.34939 174.94098
#
# Poissons Ratio (x) = -0.04303 0.51445
# Poissons Ratio (y) = -0.11934 0.70942
# Poissons Ratio (z) = 0.31277 0.15551
#
# Static dielectric constant tensor:
#      x y z
#    x 1.911320 0.000000 0.000000 
#    y 0.000000 2.080930 0.000000 
#    z 0.000000 0.000000 2.070540 
# 
# From -- ./inp_files/3531.got.cif
#   From: 2010.05.17/outbox.cif.g08.bks.cpg/sg50_2_cif.got.tgz:3531.got - 2010.06.03 11:33:33.
