data_PCOD9396370
_publ_section_title
;
Structure prediction by ZEFSAII (Michael W. Deem and Ramdas Pophale) SiO2 
 PCOD9396370
Probable space group: P B A N
;
_chemical_formula_sum "Si O2"
_cell_formula_units_Z 36
_cell_length_a 9.138848
_cell_length_b 26.965095
_cell_length_c 7.129244
_cell_angle_alpha 90.000000
_cell_angle_beta 90.000000
_cell_angle_gamma 90.000000
_cell_volume 1756.858918
_symmetry_space_group_name_H-M "P B A N"
_symmetry_group_IT_number 50
_space_group.IT_coordinate_system_code '2'
_symmetry_cell_setting 'orthorhombic'
loop_
_space_group_symop_operation_xyz
x,y,z
1/2-x,1/2-y,z
x,1/2-y,-z
1/2-x,y,-z
-x,-y,-z
1/2+x,1/2+y,-z
-x,1/2+y,z
1/2+x,-y,z
loop_
_atom_site_type_symbol
_atom_site_label
_atom_site_fract_x
_atom_site_fract_y
_atom_site_fract_z
Si Si1 0.416352 0.243370 0.726230
Si Si2 0.750000 0.495834 0.000000
Si Si3 0.498741 0.071141 0.054728
Si Si4 0.084947 0.658453 0.716701
Si Si5 0.075035 0.857881 0.730229
O O1 0.250000 0.250000 0.792096
O O2 0.410538 0.250000 0.500000
O O3 0.529583 0.287158 0.771882
O O4 0.478713 0.190073 0.783697
O O5 0.854639 0.458642 0.113556
O O6 0.632555 0.533207 0.087407
O O7 0.484150 0.119694 0.176416
O O8 0.520835 0.093055 0.842434
O O9 0.253860 0.651209 0.774336
O O10 0.070195 0.644383 0.496762
#
# Coordination Sequence:
#
# PCOD9396370 Si02
#       5
#     8   4   8   8   8
#     4   9  19  34  55  88 125 150 183 233 278 333
#     4  10  24  42  62  80 116 146 192 250 300 316
#     4  11  22  43  60  84 113 151 189 246 286 341
#     4  10  20  37  61  87 117 155 189 225 282 347
#     4  10  20  37  61  87 117 155 189 225 282 347
#
# _framework density 20.491116000000002
#
# number of rings (size 3 to 8) (size 9 to 14) (size 15 to 20)
#    0.000    2.000    2.222    0.667    3.111    3.556 
#    0.000   10.000    0.000    0.000    0.000    0.000 
#    0.000    0.000    0.000    0.000    0.000    0.000 
#
# Total GULP energy -200555.455492 kJ/mol
# GULP energy per Si atom -5570.984875 kJ/mol
# Density = 2.044448 g / cm^3
# Si number density = 20.491116 Si / 1000 Ang^3
#
#
#
# Elastic Constant Matrix: (Units=GPa)
#
#
# Indices 1 2 3 4 5 6 
#
# 1 82.2652 36.3525 7.0012 0.0000 0.0000 0.0000
# 2 36.3525 103.3464 5.3740 0.0000 0.0000 0.0000
# 3 7.0012 5.3740 74.6977 0.0000 0.0000 0.0000
# 4 0.0000 0.0000 0.0000 31.0788 0.0000 0.0000
# 5 0.0000 0.0000 0.0000 0.0000 -4.5915 0.0000
# 6 0.0000 0.0000 0.0000 0.0000 0.0000 68.9861
#
#
#
# Elastic Compliance Matrix: (Units=1/GPa)
#
#
# Indices 1 2 3 4 5 6 
#
# 1 0.014466 -0.005037 -0.000994 0.000000 0.000000 0.000000
# 2 -0.005037 0.011466 -0.000353 0.000000 0.000000 0.000000
# 3 -0.000994 -0.000353 0.013506 0.000000 0.000000 0.000000
# 4 0.000000 0.000000 0.000000 0.032176 0.000000 0.000000
# 5 0.000000 0.000000 0.000000 0.000000 -0.217795 0.000000
# 6 0.000000 0.000000 0.000000 0.000000 0.000000 0.014496
#
#
# Mechanical properties :
#
#
# Convention : Reuss Voigt Hill
#
# Bulk Modulus (GPa) = 37.49276 39.75163 38.62220
# Shear Modulus (GPa) = -45.44293 33.20012 -6.12140
#
# Velocity S-wave (km/s) = -4.71434 4.02956 -1.73027
# Velocity P-wave (km/s) = 3.36104 6.41026 3.85972
#
# Compressibility (1/GPa) = 0.02667182
#
# Stress axis : x y z
#
# Youngs Moduli (GPa) = 69.12705 87.21233 74.04229
#
# Poissons Ratio (x) = 0.43928 0.07356
# Poissons Ratio (y) = 0.34818 0.02612
# Poissons Ratio (z) = 0.06868 0.03077
#
# Static dielectric constant tensor:
#      x y z
#    x 1.782410 0.000000 0.000000 
#    y 0.000000 1.722840 0.000000 
#    z 0.000000 0.000000 1.774320 
# 
# From -- ./inp_files/9676.got.cif
#   From: 2010.05.17/outbox.cif.g08.bks.cpg/sg50_5_cif.got.tgz:9676.got - 2010.06.03 11:33:33.
