data_PCOD9396933
_publ_section_title
;
Structure prediction by ZEFSAII (Michael W. Deem and Ramdas Pophale) SiO2 
 PCOD9396933
Probable space group: P B A N
;
_chemical_formula_sum "Si O2"
_cell_formula_units_Z 32
_cell_length_a 18.610181
_cell_length_b 13.658196
_cell_length_c 5.197013
_cell_angle_alpha 90.000000
_cell_angle_beta 90.000000
_cell_angle_gamma 90.000000
_cell_volume 1320.984558
_symmetry_space_group_name_H-M "P B A N"
_symmetry_group_IT_number 50
_space_group.IT_coordinate_system_code '2'
_symmetry_cell_setting 'orthorhombic'
loop_
_space_group_symop_operation_xyz
x,y,z
1/2-x,1/2-y,z
x,1/2-y,-z
1/2-x,y,-z
-x,-y,-z
1/2+x,1/2+y,-z
-x,1/2+y,z
1/2+x,-y,z
loop_
_atom_site_type_symbol
_atom_site_label
_atom_site_fract_x
_atom_site_fract_y
_atom_site_fract_z
Si Si1 0.061427 0.358498 0.111031
Si Si2 0.717213 0.860441 0.742073
Si Si3 0.596936 0.435821 0.869764
Si Si4 0.332443 0.856939 0.400930
O O1 0.131984 0.355854 0.290195
O O2 0.979283 0.381542 0.174647
O O3 0.061994 0.250000 0.000000
O O4 0.081746 0.451737 0.936749
O O5 0.750000 0.750000 0.747563
O O6 0.750000 0.912974 0.500000
O O7 0.750000 0.907111 0.000000
O O8 0.631547 0.432636 0.591890
O O9 0.643358 0.384432 0.106214
O O10 0.359862 0.750000 0.500000
O O11 0.250000 0.855947 0.500000
#
# Coordination Sequence:
#
# PCOD9396933 Si02
#       4
#     8   8   8   8
#     4  11  24  47  70 102 152 190 236 297 357 435
#     4  10  21  40  61  97 131 185 227 272 345 422
#     4  11  27  45  71 111 136 191 245 292 359 434
#     4  11  24  49  76 103 140 183 241 307 359 417
#
# _framework density 24.224357000000001
#
# number of rings (size 3 to 8) (size 9 to 14) (size 15 to 20)
#    0.000    1.250    2.500    3.000    0.000   13.000 
#    4.500    0.000    0.000    0.000    0.000    0.000 
#    0.000    0.000    0.000    0.000    0.000    0.000 
#
# Total GULP energy -178448.844748 kJ/mol
# GULP energy per Si atom -5576.526398 kJ/mol
# Density = 2.416922 g / cm^3
# Si number density = 24.224357 Si / 1000 Ang^3
#
#
#
# Elastic Constant Matrix: (Units=GPa)
#
#
# Indices 1 2 3 4 5 6 
#
# 1 177.8187 29.6627 30.8045 0.0000 0.0000 0.0000
# 2 29.6627 132.4522 -6.4483 0.0000 0.0000 0.0000
# 3 30.8045 -6.4483 105.6110 0.0000 0.0000 0.0000
# 4 0.0000 0.0000 0.0000-7878.9815 0.0000 0.0000
# 5 0.0000 0.0000 0.0000 0.0000 61.9253 0.0000
# 6 0.0000 0.0000 0.0000 0.0000 0.0000 35.5226
#
#
#
# Elastic Compliance Matrix: (Units=1/GPa)
#
#
# Indices 1 2 3 4 5 6 
#
# 1 0.006200 -0.001481 -0.001899 0.000000 0.000000 0.000000
# 2 -0.001481 0.007926 0.000916 0.000000 0.000000 0.000000
# 3 -0.001899 0.000916 0.010078 0.000000 0.000000 0.000000
# 4 0.000000 0.000000 0.000000 -0.000127 0.000000 0.000000
# 5 0.000000 0.000000 0.000000 0.000000 0.016148 0.000000
# 6 0.000000 0.000000 0.000000 0.000000 0.000000 0.028151
#
#
# Mechanical properties :
#
#
# Convention : Reuss Voigt Hill
#
# Bulk Modulus (GPa) = 51.87574 58.21328 55.04451
# Shear Modulus (GPa) = 62.71173 -1532.18253 -734.73540
#
# Velocity S-wave (km/s) = 5.09353 -25.17677 -17.43453
# Velocity P-wave (km/s) = 7.48688 28.65443 19.55791
#
# Compressibility (1/GPa) = 0.01927683
#
# Stress axis : x y z
#
# Youngs Moduli (GPa) = 161.29915 126.16510 99.22161
#
# Poissons Ratio (x) = 0.18683 0.18839
# Poissons Ratio (y) = 0.23886 -0.09088
# Poissons Ratio (z) = 0.30626 -0.11555
#
# Static dielectric constant tensor:
#      x y z
#    x 2.407280 0.000000 0.000000 
#    y 0.000000 1.660480 0.000000 
#    z 0.000000 0.000000 2.242860 
# 
# From -- ./inp_files/3999.got.cif
#   From: 2010.05.17/outbox.cif.g08.bks.cpg/sg50_2_cif.got.tgz:3999.got - 2010.06.03 11:33:33.
