data_PCOD9396314
_publ_section_title
;
Structure prediction by ZEFSAII (Michael W. Deem and Ramdas Pophale) SiO2 
 PCOD9396314
Probable space group: P B A N
;
_chemical_formula_sum "Si O2"
_cell_formula_units_Z 36
_cell_length_a 13.437709
_cell_length_b 8.809536
_cell_length_c 14.580017
_cell_angle_alpha 90.000000
_cell_angle_beta 90.000000
_cell_angle_gamma 90.000000
_cell_volume 1725.982138
_symmetry_space_group_name_H-M "P B A N"
_symmetry_group_IT_number 50
_space_group.IT_coordinate_system_code '2'
_symmetry_cell_setting 'orthorhombic'
loop_
_space_group_symop_operation_xyz
x,y,z
1/2-x,1/2-y,z
x,1/2-y,-z
1/2-x,y,-z
-x,-y,-z
1/2+x,1/2+y,-z
-x,1/2+y,z
1/2+x,-y,z
loop_
_atom_site_type_symbol
_atom_site_label
_atom_site_fract_x
_atom_site_fract_y
_atom_site_fract_z
Si Si1 0.196854 0.465256 0.787737
Si Si2 0.069403 0.989448 0.369300
Si Si3 0.588807 0.639336 0.224954
Si Si4 0.491684 0.250000 0.500000
Si Si5 0.436011 0.612102 0.063067
O O1 0.162304 0.549639 0.695726
O O2 0.314462 0.459596 0.798039
O O3 0.141215 0.304416 0.764580
O O4 0.150261 0.528853 0.880800
O O5 0.060051 0.871389 0.450635
O O6 0.973284 0.948549 0.304267
O O7 0.066819 0.153177 0.421375
O O8 0.512069 0.664470 0.142422
O O9 0.401208 0.750000 0.000000
O O10 0.500000 0.500000 0.000000
#
# Coordination Sequence:
#
# PCOD9396314 Si02
#       5
#     8   8   8   4   8
#     4  10  21  39  63  88 118 164 200 243 300 370
#     4  10  20  39  60  90 119 161 194 254 295 365
#     4  10  21  39  63  87 119 162 203 241 305 364
#     4  10  20  36  62  86 124 156 198 244 312 346
#     4  11  22  40  62  89 122 156 198 252 301 355
#
# _framework density 20.857690000000002
#
# number of rings (size 3 to 8) (size 9 to 14) (size 15 to 20)
#    0.000    1.778    4.444    0.000    0.000    0.889 
#    0.000   12.222    0.000    0.000    0.000    0.000 
#    0.000    0.000    0.000    0.000    0.000    0.000 
#
# Total GULP energy -200522.908843 kJ/mol
# GULP energy per Si atom -5570.080801 kJ/mol
# Density = 2.081022 g / cm^3
# Si number density = 20.857690 Si / 1000 Ang^3
#
#
#
# Elastic Constant Matrix: (Units=GPa)
#
#
# Indices 1 2 3 4 5 6 
#
# 1 86.3765 5.1858 27.4535 0.0000 0.0000 0.0000
# 2 5.1858 64.3917 33.8833 0.0000 0.0000 0.0000
# 3 27.4535 33.8833 110.7111 0.0000 0.0000 0.0000
# 4 0.0000 0.0000 0.0000 42.8778 0.0000 0.0000
# 5 0.0000 0.0000 0.0000 0.0000 -0.4590 0.0000
# 6 0.0000 0.0000 0.0000 0.0000 0.0000 17.6218
#
#
#
# Elastic Compliance Matrix: (Units=1/GPa)
#
#
# Indices 1 2 3 4 5 6 
#
# 1 0.012598 0.000750 -0.003354 0.000000 0.000000 0.000000
# 2 0.000750 0.018556 -0.005865 0.000000 0.000000 0.000000
# 3 -0.003354 -0.005865 0.011659 0.000000 0.000000 0.000000
# 4 0.000000 0.000000 0.000000 0.023322 0.000000 0.000000
# 5 0.000000 0.000000 0.000000 0.000000 -2.178777 0.000000
# 6 0.000000 0.000000 0.000000 0.000000 0.000000 0.056748
#
#
# Mechanical properties :
#
#
# Convention : Reuss Voigt Hill
#
# Bulk Modulus (GPa) = 38.64596 43.83606 41.24101
# Shear Modulus (GPa) = -2.46265 25.00524 11.27130
#
# Velocity S-wave (km/s) = -1.08778 3.46620 2.32715
# Velocity P-wave (km/s) = 4.12201 6.08948 5.19965
#
# Compressibility (1/GPa) = 0.02587593
#
# Stress axis : x y z
#
# Youngs Moduli (GPa) = 79.37723 53.89169 85.76988
#
# Poissons Ratio (x) = -0.04042 0.28763
# Poissons Ratio (y) = -0.05954 0.50304
# Poissons Ratio (z) = 0.26620 0.31608
#
# Static dielectric constant tensor:
#      x y z
#    x 1.724820 0.000000 0.000000 
#    y 0.000000 1.826770 0.000000 
#    z 0.000000 0.000000 1.798400 
# 
# From -- ./inp_files/24564.got.cif
#   From: 2010.05.17/outbox.cif.g08.bks.cpg/sg50_13_cif.got.tgz:24564.got - 2010.06.03 11:33:33.
