data_PCOD9396212
_publ_section_title
;
Structure prediction by ZEFSAII (Michael W. Deem and Ramdas Pophale) SiO2 
 PCOD9396212
Probable space group: P B A N
;
_chemical_formula_sum "Si O2"
_cell_formula_units_Z 40
_cell_length_a 19.824212
_cell_length_b 8.532664
_cell_length_c 11.285176
_cell_angle_alpha 90.000000
_cell_angle_beta 90.000000
_cell_angle_gamma 90.000000
_cell_volume 1908.925214
_symmetry_space_group_name_H-M "P B A N"
_symmetry_group_IT_number 50
_space_group.IT_coordinate_system_code '2'
_symmetry_cell_setting 'orthorhombic'
loop_
_space_group_symop_operation_xyz
x,y,z
1/2-x,1/2-y,z
x,1/2-y,-z
1/2-x,y,-z
-x,-y,-z
1/2+x,1/2+y,-z
-x,1/2+y,z
1/2+x,-y,z
loop_
_atom_site_type_symbol
_atom_site_label
_atom_site_fract_x
_atom_site_fract_y
_atom_site_fract_z
Si Si1 0.855158 0.017305 0.273435
Si Si2 0.075944 0.940295 0.488461
Si Si3 0.598496 0.370792 0.766935
Si Si4 0.463344 0.381583 0.909719
Si Si5 0.731541 0.436869 0.872140
O O1 0.878098 0.984014 0.408323
O O2 0.869563 0.202922 0.262658
O O3 0.778253 0.992577 0.231805
O O4 0.904562 0.941599 0.175791
O O5 0.076324 0.750000 0.500000
O O6 0.096145 0.970631 0.352997
O O7 0.000000 0.000000 0.500000
O O8 0.525532 0.337460 0.822414
O O9 0.651842 0.450493 0.853928
O O10 0.438705 0.250000 0.000000
O O11 0.500000 0.500000 0.000000
O O12 0.750000 0.250000 0.875289
O O13 0.750000 0.502888 0.000000
#
# Coordination Sequence:
#
# PCOD9396212 Si02
#       5
#     8   8   8   8   8
#     4  10  20  36  55  84 115 149 193 240 290 344
#     4  10  20  35  56  84 114 145 192 241 290 345
#     4  10  20  35  56  85 113 151 191 240 289 348
#     4  12  22  33  56  85 114 146 195 238 286 343
#     4   9  18  32  54  81 117 148 183 232 293 347
#
# _framework density 20.954201000000001
#
# number of rings (size 3 to 8) (size 9 to 14) (size 15 to 20)
#    0.000    1.800    4.000    1.200    2.800    0.800 
#    0.000    4.000    0.000    5.400    0.000    1.400 
#    0.000    0.000    0.000    0.000    0.000    0.000 
#
# Total GULP energy -223025.914340 kJ/mol
# GULP energy per Si atom -5575.647858 kJ/mol
# Density = 2.090651 g / cm^3
# Si number density = 20.954201 Si / 1000 Ang^3
#
#
#
# Elastic Constant Matrix: (Units=GPa)
#
#
# Indices 1 2 3 4 5 6 
#
# 1 81.4466 -4.0130 23.9447 0.0000 0.0000 0.0000
# 2 -4.0130 13.0379 12.6149 0.0000 0.0000 0.0000
# 3 23.9447 12.6149 131.9414 0.0000 0.0000 0.0000
# 4 0.0000 0.0000 0.0000 25.2110 0.0000 0.0000
# 5 0.0000 0.0000 0.0000 0.0000 28.3044 0.0000
# 6 0.0000 0.0000 0.0000 0.0000 0.0000 17.8939
#
#
#
# Elastic Compliance Matrix: (Units=1/GPa)
#
#
# Indices 1 2 3 4 5 6 
#
# 1 0.013560 0.007223 -0.003152 0.000000 0.000000 0.000000
# 2 0.007223 0.088366 -0.009760 0.000000 0.000000 0.000000
# 3 -0.003152 -0.009760 0.009084 0.000000 0.000000 0.000000
# 4 0.000000 0.000000 0.000000 0.039665 0.000000 0.000000
# 5 0.000000 0.000000 0.000000 0.000000 0.035330 0.000000
# 6 0.000000 0.000000 0.000000 0.000000 0.000000 0.055885
#
#
# Mechanical properties :
#
#
# Convention : Reuss Voigt Hill
#
# Bulk Modulus (GPa) = 10.03669 32.39102 21.21385
# Shear Modulus (GPa) = 17.45335 27.20714 22.33024
#
# Velocity S-wave (km/s) = 2.88918 3.60725 3.26800
# Velocity P-wave (km/s) = 3.99125 5.73073 4.93818
#
# Compressibility (1/GPa) = 0.09963448
#
# Stress axis : x y z
#
# Youngs Moduli (GPa) = 73.74411 11.31661 110.08156
#
# Poissons Ratio (x) = -0.08174 0.34693
# Poissons Ratio (y) = -0.53266 1.07434
# Poissons Ratio (z) = 0.23241 0.11044
#
# Static dielectric constant tensor:
#      x y z
#    x 1.772520 0.000000 0.000000 
#    y 0.000000 1.820740 0.000000 
#    z 0.000000 0.000000 1.867550 
# 
# From -- ./inp_files/18754.got.cif
#   From: 2010.05.17/outbox.cif.g08.bks.cpg/sg50_10_cif.got.tgz:18754.got - 2010.06.03 11:33:33.
