data_PCOD9396815
_publ_section_title
;
Structure prediction by ZEFSAII (Michael W. Deem and Ramdas Pophale) SiO2 
 PCOD9396815
Probable space group: P B A N
;
_chemical_formula_sum "Si O2"
_cell_formula_units_Z 48
_cell_length_a 8.634098
_cell_length_b 25.914866
_cell_length_c 11.997712
_cell_angle_alpha 90.000000
_cell_angle_beta 90.000000
_cell_angle_gamma 90.000000
_cell_volume 2684.505969
_symmetry_space_group_name_H-M "P B A N"
_symmetry_group_IT_number 50
_space_group.IT_coordinate_system_code '2'
_symmetry_cell_setting 'orthorhombic'
loop_
_space_group_symop_operation_xyz
x,y,z
1/2-x,1/2-y,z
x,1/2-y,-z
1/2-x,y,-z
-x,-y,-z
1/2+x,1/2+y,-z
-x,1/2+y,z
1/2+x,-y,z
loop_
_atom_site_type_symbol
_atom_site_label
_atom_site_fract_x
_atom_site_fract_y
_atom_site_fract_z
Si Si1 0.938539 0.690168 0.000467
Si Si2 0.942451 0.852792 0.238109
Si Si3 0.571555 0.842638 0.243211
Si Si4 0.056764 0.939476 0.621983
Si Si5 0.565436 0.244579 0.369146
Si Si6 0.073870 0.551702 0.636457
O O1 0.989838 0.662015 0.887850
O O2 0.989976 0.750000 0.000000
O O3 0.750000 0.691175 0.000000
O O4 0.983625 0.662438 0.115168
O O5 0.756868 0.848382 0.244195
O O6 0.013195 0.810122 0.320685
O O7 0.999592 0.908397 0.277728
O O8 0.501219 0.890851 0.308610
O O9 0.521600 0.789819 0.303213
O O10 0.240906 0.944485 0.636758
O O11 0.022368 0.933612 0.489830
O O12 0.977871 0.993101 0.657503
O O13 0.750000 0.250000 0.354473
O O14 0.530807 0.250000 0.500000
#
# Coordination Sequence:
#
# PCOD9396815 Si02
#       6
#     8   8   8   8   8   8
#     4   9  18  36  57  80 111 148 187 231 278 324
#     4  11  21  36  59  83 110 146 189 231 278 333
#     4  11  21  36  59  83 110 146 189 231 278 333
#     4  10  21  38  59  84 115 148 184 229 280 333
#     4  11  23  36  51  78 116 149 180 227 282 333
#     4  10  21  38  59  84 115 148 184 229 280 333
#
# _framework density 17.880386000000001
#
# number of rings (size 3 to 8) (size 9 to 14) (size 15 to 20)
#    0.000    1.667    1.667    3.500    0.000    7.333 
#    0.000    5.000    0.000    0.000    0.000    0.000 
#    0.000    0.000    0.000    0.000    0.000    0.000 
#
# Total GULP energy -268173.192994 kJ/mol
# GULP energy per Si atom -5586.941521 kJ/mol
# Density = 1.783969 g / cm^3
# Si number density = 17.880386 Si / 1000 Ang^3
#
#
#
# Elastic Constant Matrix: (Units=GPa)
#
#
# Indices 1 2 3 4 5 6 
#
# 1 23.5046 -11.2176 -6.2116 0.0000 0.0000 0.0000
# 2 -11.2176 47.1066 -14.7276 0.0000 0.0000 0.0000
# 3 -6.2116 -14.7276 26.1837 0.0000 0.0000 0.0000
# 4 0.0000 0.0000 0.0000 22.9679 0.0000 0.0000
# 5 0.0000 0.0000 0.0000 0.0000 -3.0209 0.0000
# 6 0.0000 0.0000 0.0000 0.0000 0.0000 36.9283
#
#
#
# Elastic Compliance Matrix: (Units=1/GPa)
#
#
# Indices 1 2 3 4 5 6 
#
# 1 0.060767 0.023027 0.027368 0.000000 0.000000 0.000000
# 2 0.023027 0.034484 0.024859 0.000000 0.000000 0.000000
# 3 0.027368 0.024859 0.058667 0.000000 0.000000 0.000000
# 4 0.000000 0.000000 0.000000 0.043539 0.000000 0.000000
# 5 0.000000 0.000000 0.000000 0.000000 -0.331024 0.000000
# 6 0.000000 0.000000 0.000000 0.000000 0.000000 0.027079
#
#
# Mechanical properties :
#
#
# Convention : Reuss Voigt Hill
#
# Bulk Modulus (GPa) = 3.28486 3.60902 3.44694
# Shear Modulus (GPa) = -32.15010 19.97184 -6.08913
#
# Velocity S-wave (km/s) = -4.24496 3.34573 -1.84740
# Velocity P-wave (km/s) = 4.71011 4.11680 1.61819
#
# Compressibility (1/GPa) = 0.30442705
#
# Stress axis : x y z
#
# Youngs Moduli (GPa) = 16.45621 28.99896 17.04540
#
# Poissons Ratio (x) = -0.66776 -0.46650
# Poissons Ratio (y) = -0.37894 -0.42373
# Poissons Ratio (z) = -0.45038 -0.72089
#
# Static dielectric constant tensor:
#      x y z
#    x 1.608070 0.000000 0.000000 
#    y 0.000000 1.568130 0.000000 
#    z 0.000000 0.000000 1.609320 
# 
# From -- ./inp_files/19181.got.cif
#   From: 2010.05.17/outbox.cif.g08.bks.cpg/sg50_10_cif.got.tgz:19181.got - 2010.06.03 11:33:33.
