data_PCOD9396238
_publ_section_title
;
Structure prediction by ZEFSAII (Michael W. Deem and Ramdas Pophale) SiO2 
 PCOD9396238
Probable space group: P B A N
;
_chemical_formula_sum "Si O2"
_cell_formula_units_Z 52
_cell_length_a 15.196050
_cell_length_b 8.163265
_cell_length_c 20.815953
_cell_angle_alpha 90.000000
_cell_angle_beta 90.000000
_cell_angle_gamma 90.000000
_cell_volume 2582.206128
_symmetry_space_group_name_H-M "P B A N"
_symmetry_group_IT_number 50
_space_group.IT_coordinate_system_code '2'
_symmetry_cell_setting 'orthorhombic'
loop_
_space_group_symop_operation_xyz
x,y,z
1/2-x,1/2-y,z
x,1/2-y,-z
1/2-x,y,-z
-x,-y,-z
1/2+x,1/2+y,-z
-x,1/2+y,z
1/2+x,-y,z
loop_
_atom_site_type_symbol
_atom_site_label
_atom_site_fract_x
_atom_site_fract_y
_atom_site_fract_z
Si Si1 0.113315 0.521847 0.163121
Si Si2 0.591405 0.636994 0.692393
Si Si3 0.920493 0.631033 0.159555
Si Si4 0.765438 0.948433 0.926498
Si Si5 0.750000 0.250000 0.500000
Si Si6 0.894171 0.030437 0.309482
Si Si7 0.259664 0.509756 0.399858
Si Si8 0.250000 0.250000 0.500000
O O1 0.097709 0.325232 0.161529
O O2 0.195418 0.543965 0.116985
O O3 0.128483 0.577315 0.236261
O O4 0.021970 0.603157 0.143213
O O5 0.599148 0.576235 0.766716
O O6 0.603490 0.832479 0.690464
O O7 0.491194 0.594572 0.673469
O O8 0.665893 0.561778 0.646660
O O9 0.859745 0.539358 0.107978
O O10 0.750000 0.750000 0.924445
O O11 0.750000 0.997428 0.000000
O O12 0.698229 0.365854 0.548911
O O13 0.817293 0.084783 0.356743
O O14 0.211814 0.376109 0.446885
#
# Coordination Sequence:
#
# PCOD9396238 Si02
#       8
#     8   8   8   8   2   8   8   2
#     4   9  18  33  53  80 108 136 179 226 267 309
#     4  10  20  35  60  84 105 139 182 227 271 317
#     4   9  18  33  53  80 108 136 179 226 267 309
#     4   9  17  30  51  77 107 148 187 213 255 320
#     4  10  28  38  58  82 112 144 174 218 270 318
#     4  10  20  35  60  84 105 139 182 227 271 317
#     4  11  21  42  57  76 111 143 178 217 266 323
#     4  10  20  38  62  74 100 148 178 202 258 334
#
# _framework density 20.137820000000001
#
# number of rings (size 3 to 8) (size 9 to 14) (size 15 to 20)
#    0.000    2.308    1.538    0.923    2.154    3.077 
#    0.000    5.385    0.000    0.923    0.000    0.000 
#    0.000    0.000    0.000    0.000    0.000    0.000 
#
# Total GULP energy -289624.655262 kJ/mol
# GULP energy per Si atom -5569.704909 kJ/mol
# Density = 2.009199 g / cm^3
# Si number density = 20.137820 Si / 1000 Ang^3
#
#
#
# Elastic Constant Matrix: (Units=GPa)
#
#
# Indices 1 2 3 4 5 6 
#
# 1 62.0816 2.2632 36.7035 0.0000 0.0000 0.0000
# 2 2.2632 15.2571 9.7936 0.0000 0.0000 0.0000
# 3 36.7035 9.7936 54.7572 0.0000 0.0000 0.0000
# 4 0.0000 0.0000 0.0000 15.0260 0.0000 0.0000
# 5 0.0000 0.0000 0.0000 0.0000 -2.8800 0.0000
# 6 0.0000 0.0000 0.0000 0.0000 0.0000 25.0673
#
#
#
# Elastic Compliance Matrix: (Units=1/GPa)
#
#
# Indices 1 2 3 4 5 6 
#
# 1 0.027694 0.008820 -0.020140 0.000000 0.000000 0.000000
# 2 0.008820 0.076853 -0.019658 0.000000 0.000000 0.000000
# 3 -0.020140 -0.019658 0.035278 0.000000 0.000000 0.000000
# 4 0.000000 0.000000 0.000000 0.066551 0.000000 0.000000
# 5 0.000000 0.000000 0.000000 0.000000 -0.347220 0.000000
# 6 0.000000 0.000000 0.000000 0.000000 0.000000 0.039893
#
#
# Mechanical properties :
#
#
# Convention : Reuss Voigt Hill
#
# Bulk Modulus (GPa) = 12.84206 25.51297 19.17751
# Shear Modulus (GPa) = -383.47789 12.99835 -185.23977
#
# Velocity S-wave (km/s) = -13.81449 2.54337 -9.60134
# Velocity P-wave (km/s) = 15.75000 4.61754 10.64756
#
# Compressibility (1/GPa) = 0.07786913
#
# Stress axis : x y z
#
# Youngs Moduli (GPa) = 36.10946 13.01183 28.34598
#
# Poissons Ratio (x) = -0.11477 0.57090
# Poissons Ratio (y) = -0.31849 0.55722
# Poissons Ratio (z) = 0.72726 0.25578
#
# Static dielectric constant tensor:
#      x y z
#    x 1.666630 0.000000 0.000000 
#    y 0.000000 1.788350 0.000000 
#    z 0.000000 0.000000 1.719220 
# 
# From -- ./inp_files/30971.got.cif
#   From: 2010.05.17/outbox.cif.g08.bks.cpg/sg50_16_cif.got.tgz:30971.got - 2010.06.03 11:33:33.
