data_PCOD9396173
_publ_section_title
;
Structure prediction by ZEFSAII (Michael W. Deem and Ramdas Pophale) SiO2 
 PCOD9396173
Probable space group: P B A N
;
_chemical_formula_sum "Si O2"
_cell_formula_units_Z 64
_cell_length_a 8.789909
_cell_length_b 13.797667
_cell_length_c 21.863081
_cell_angle_alpha 90.000000
_cell_angle_beta 90.000000
_cell_angle_gamma 90.000000
_cell_volume 2651.559653
_symmetry_space_group_name_H-M "P B A N"
_symmetry_group_IT_number 50
_space_group.IT_coordinate_system_code '2'
_symmetry_cell_setting 'orthorhombic'
loop_
_space_group_symop_operation_xyz
x,y,z
1/2-x,1/2-y,z
x,1/2-y,-z
1/2-x,y,-z
-x,-y,-z
1/2+x,1/2+y,-z
-x,1/2+y,z
1/2+x,-y,z
loop_
_atom_site_type_symbol
_atom_site_label
_atom_site_fract_x
_atom_site_fract_y
_atom_site_fract_z
Si Si1 0.406956 0.614325 0.426756
Si Si2 0.401818 0.186223 0.856293
Si Si3 0.523267 0.388167 0.863663
Si Si4 0.555753 0.980079 0.243031
Si Si5 0.266988 0.470470 0.070115
Si Si6 0.301354 0.556866 0.672642
Si Si7 0.097242 0.101170 0.460170
Si Si8 0.310451 0.166936 0.358599
O O1 0.248465 0.611945 0.389477
O O2 0.451175 0.499706 0.429578
O O3 0.461622 0.639625 0.496115
O O4 0.519941 0.672582 0.383990
O O5 0.250000 0.250000 0.852319
O O6 0.527203 0.271824 0.856980
O O7 0.400384 0.107681 0.801786
O O8 0.388483 0.116455 0.915834
O O9 0.471540 0.443518 0.801421
O O10 0.392738 0.422815 0.910322
O O11 0.677945 0.439567 0.887608
O O12 0.671749 0.055127 0.275706
O O13 0.460858 0.925085 0.295841
O O14 0.250000 0.498699 0.000000
O O15 0.304681 0.442034 0.662149
O O16 0.250000 0.075292 0.500000
O O17 0.176691 0.168495 0.410676
O O18 0.250000 0.250000 0.314315
#
# Coordination Sequence:
#
# PCOD9396173 Si02
#       8
#     8   8   8   8   8   8   8   8
#     4   9  17  33  52  85 116 149 197 241 301 374
#     4   9  20  38  62  92 124 167 221 255 303 384
#     4  10  21  39  62  90 126 166 214 257 305 377
#     4  11  22  39  63  87 122 173 210 257 314 361
#     4  10  20  38  65  96 128 166 207 261 317 368
#     4  11  21  37  59  85 121 158 206 259 306 367
#     4   8  16  30  55  84 112 153 190 236 302 382
#     4  10  20  34  58  90 116 146 200 254 310 381
#
# _framework density 24.136737
#
# number of rings (size 3 to 8) (size 9 to 14) (size 15 to 20)
#    0.000    2.250    1.250    2.625    0.000    6.000 
#    0.000    5.625    0.000    3.000    3.250    0.000 
#    0.000    0.000    0.000    0.000    0.000    0.125 
#
# Total GULP energy -356335.719480 kJ/mol
# GULP energy per Si atom -5567.745617 kJ/mol
# Density = 2.408180 g / cm^3
# Si number density = 24.136737 Si / 1000 Ang^3
#
#
#
# Elastic Constant Matrix: (Units=GPa)
#
#
# Indices 1 2 3 4 5 6 
#
# 1 34.1135 13.0722 19.0487 0.0000 0.0000 0.0000
# 2 13.0722 102.3351 4.6262 0.0000 0.0000 0.0000
# 3 19.0487 4.6262 77.5511 0.0000 0.0000 0.0000
# 4 0.0000 0.0000 0.0000 71.1104 0.0000 0.0000
# 5 0.0000 0.0000 0.0000 0.0000 38.0812 0.0000
# 6 0.0000 0.0000 0.0000 0.0000 0.0000 20.6887
#
#
#
# Elastic Compliance Matrix: (Units=1/GPa)
#
#
# Indices 1 2 3 4 5 6 
#
# 1 0.035665 -0.004171 -0.008512 0.000000 0.000000 0.000000
# 2 -0.004171 0.010286 0.000411 0.000000 0.000000 0.000000
# 3 -0.008512 0.000411 0.014961 0.000000 0.000000 0.000000
# 4 0.000000 0.000000 0.000000 0.014063 0.000000 0.000000
# 5 0.000000 0.000000 0.000000 0.000000 0.026260 0.000000
# 6 0.000000 0.000000 0.000000 0.000000 0.000000 0.048336
#
#
# Mechanical properties :
#
#
# Convention : Reuss Voigt Hill
#
# Bulk Modulus (GPa) = 27.49620 31.94377 29.71999
# Shear Modulus (GPa) = 26.84767 37.79291 32.32029
#
# Velocity S-wave (km/s) = 3.33876 3.96129 3.66327
# Velocity P-wave (km/s) = 5.12637 5.84685 5.49842
#
# Compressibility (1/GPa) = 0.03636866
#
# Stress axis : x y z
#
# Youngs Moduli (GPa) = 28.03870 97.21906 66.84097
#
# Poissons Ratio (x) = 0.40551 0.56892
# Poissons Ratio (y) = 0.11695 -0.02747
# Poissons Ratio (z) = 0.23865 -0.03995
#
# Static dielectric constant tensor:
#      x y z
#    x 2.018720 0.000000 0.000000 
#    y 0.000000 1.973660 0.000000 
#    z 0.000000 0.000000 2.006470 
# 
# From -- ./inp_files/31622.got.cif
#   From: 2010.05.17/outbox.cif.g08.bks.cpg/sg50_16_cif.got.tgz:31622.got - 2010.06.03 11:33:33.
