data_PCOD9396080
_publ_section_title
;
Structure prediction by ZEFSAII (Michael W. Deem and Ramdas Pophale) SiO2 
 PCOD9396080
Probable space group: P B A N
;
_chemical_formula_sum "Si O2"
_cell_formula_units_Z 48
_cell_length_a 15.635030
_cell_length_b 26.853628
_cell_length_c 6.887318
_cell_angle_alpha 90.000000
_cell_angle_beta 90.000000
_cell_angle_gamma 90.000000
_cell_volume 2891.690598
_symmetry_space_group_name_H-M "P B A N"
_symmetry_group_IT_number 50
_space_group.IT_coordinate_system_code '2'
_symmetry_cell_setting 'orthorhombic'
loop_
_space_group_symop_operation_xyz
x,y,z
1/2-x,1/2-y,z
x,1/2-y,-z
1/2-x,y,-z
-x,-y,-z
1/2+x,1/2+y,-z
-x,1/2+y,z
1/2+x,-y,z
loop_
_atom_site_type_symbol
_atom_site_label
_atom_site_fract_x
_atom_site_fract_y
_atom_site_fract_z
Si Si1 0.658785 0.054631 0.729675
Si Si2 0.984702 0.405564 0.449606
Si Si3 0.160155 0.457428 0.535859
Si Si4 0.104869 0.807099 0.491946
Si Si5 0.259044 0.844601 0.228089
Si Si6 0.417324 0.979022 0.881107
O O1 0.572139 0.076206 0.632887
O O2 0.730884 0.097101 0.713720
O O3 0.671395 0.004200 0.610875
O O4 0.643856 0.042263 0.953334
O O5 0.968434 0.346801 0.443931
O O6 0.947823 0.435346 0.264005
O O7 0.080834 0.423549 0.474861
O O8 0.250000 0.430118 0.500000
O O9 0.131876 0.480939 0.744173
O O10 0.078868 0.750000 0.500000
O O11 0.179895 0.818761 0.335625
O O12 0.153814 0.819963 0.692909
O O13 0.250000 0.840372 0.000000
O O14 0.500000 0.000000 0.000000
#
# Coordination Sequence:
#
# PCOD9396080 Si02
#       6
#     8   8   8   8   8   8
#     4  10  20  32  50  75 106 148 172 206 257 329
#     4  10  20  37  50  72 104 139 181 225 263 315
#     4  11  23  32  49  77 110 140 178 221 263 322
#     4  10  22  37  54  73 103 143 183 229 276 314
#     4  10  20  32  52  80 110 135 176 219 264 326
#     4  11  18  35  54  74 108 146 181 207 265 332
#
# _framework density 16.599287
#
# number of rings (size 3 to 8) (size 9 to 14) (size 15 to 20)
#    0.000    1.667    3.333    3.000    9.333    1.333 
#    0.000    0.000    0.000    0.500    0.000    0.000 
#    0.000    0.000    2.000    0.000    0.000    0.000 
#
# Total GULP energy -267812.325021 kJ/mol
# GULP energy per Si atom -5579.423438 kJ/mol
# Density = 1.656151 g / cm^3
# Si number density = 16.599287 Si / 1000 Ang^3
#
#
#
# Elastic Constant Matrix: (Units=GPa)
#
#
# Indices 1 2 3 4 5 6 
#
# 1 89.0275 42.9974 33.5684 0.0000 0.0000 0.0000
# 2 42.9974 107.5631 32.6231 0.0000 0.0000 0.0000
# 3 33.5684 32.6231 123.7749 0.0000 0.0000 0.0000
# 4 0.0000 0.0000 0.0000 37.7959 0.0000 0.0000
# 5 0.0000 0.0000 0.0000 0.0000 19.4505 0.0000
# 6 0.0000 0.0000 0.0000 0.0000 0.0000 30.0439
#
#
#
# Elastic Compliance Matrix: (Units=1/GPa)
#
#
# Indices 1 2 3 4 5 6 
#
# 1 0.014676 -0.005064 -0.002645 0.000000 0.000000 0.000000
# 2 -0.005064 0.011852 -0.001750 0.000000 0.000000 0.000000
# 3 -0.002645 -0.001750 0.009258 0.000000 0.000000 0.000000
# 4 0.000000 0.000000 0.000000 0.026458 0.000000 0.000000
# 5 0.000000 0.000000 0.000000 0.000000 0.051413 0.000000
# 6 0.000000 0.000000 0.000000 0.000000 0.000000 0.033285
#
#
# Mechanical properties :
#
#
# Convention : Reuss Voigt Hill
#
# Bulk Modulus (GPa) = 59.29118 59.86036 59.57577
# Shear Modulus (GPa) = 29.15740 31.53648 30.34694
#
# Velocity S-wave (km/s) = 4.19566 4.36348 4.28039
# Velocity P-wave (km/s) = 7.69858 7.84391 7.77158
#
# Compressibility (1/GPa) = 0.01686592
#
# Stress axis : x y z
#
# Youngs Moduli (GPa) = 68.13941 84.37310 108.01489
#
# Poissons Ratio (x) = 0.42728 0.28574
# Poissons Ratio (y) = 0.34507 0.18907
# Poissons Ratio (z) = 0.18026 0.14769
#
# Static dielectric constant tensor:
#      x y z
#    x 1.605940 0.000000 0.000000 
#    y 0.000000 1.575360 0.000000 
#    z 0.000000 0.000000 1.573320 
# 
# From -- ./inp_files/3557.got.cif
#   From: 2010.05.17/outbox.cif.g08.bks.cpg/sg50_2_cif.got.tgz:3557.got - 2010.06.03 11:33:33.
