data_PCOD9396976
_publ_section_title
;
Structure prediction by ZEFSAII (Michael W. Deem and Ramdas Pophale) SiO2 
 PCOD9396976
Probable space group: P B A N
;
_chemical_formula_sum "Si O2"
_cell_formula_units_Z 42
_cell_length_a 16.994641
_cell_length_b 9.440530
_cell_length_c 10.563366
_cell_angle_alpha 90.000000
_cell_angle_beta 90.000000
_cell_angle_gamma 90.000000
_cell_volume 1694.769732
_symmetry_space_group_name_H-M "P B A N"
_symmetry_group_IT_number 50
_space_group.IT_coordinate_system_code '2'
_symmetry_cell_setting 'orthorhombic'
loop_
_space_group_symop_operation_xyz
x,y,z
1/2-x,1/2-y,z
x,1/2-y,-z
1/2-x,y,-z
-x,-y,-z
1/2+x,1/2+y,-z
-x,1/2+y,z
1/2+x,-y,z
loop_
_atom_site_type_symbol
_atom_site_label
_atom_site_fract_x
_atom_site_fract_y
_atom_site_fract_z
Si Si1 0.597811 0.767816 0.292406
Si Si2 0.469719 0.604584 0.390913
Si Si3 0.491592 0.570100 0.864298
Si Si4 0.324190 0.487012 0.812645
Si Si5 0.198336 0.536118 0.625560
Si Si6 0.250000 0.250000 0.000000
O O1 0.520571 0.744785 0.375512
O O2 0.556794 0.807357 0.157636
O O3 0.641246 0.617929 0.294673
O O4 0.657536 0.884260 0.343162
O O5 0.500000 0.500000 0.500000
O O6 0.483015 0.529822 0.253140
O O7 0.377328 0.633313 0.397182
O O8 0.396913 0.587748 0.851052
O O9 0.500000 0.500000 0.000000
O O10 0.251236 0.566222 0.749082
O O11 0.297163 0.365020 0.913213
O O12 0.250000 0.534502 0.500000
#
# Coordination Sequence:
#
# PCOD9396976 Si02
#       6
#     8   8   8   8   8   2
#     4  10  21  41  60  91 122 175 215 264 333 402
#     4  10  23  39  59  89 128 165 216 266 333 406
#     4  10  22  38  61  90 127 168 213 264 326 400
#     4  11  22  35  60  92 121 159 210 267 321 381
#     4  11  22  39  62  94 124 159 213 282 325 382
#     4  12  20  36  58  88 134 148 214 266 336 368
#
# _framework density 24.782126999999999
#
# number of rings (size 3 to 8) (size 9 to 14) (size 15 to 20)
#    0.000    1.524    1.905    3.429    2.667   11.429 
#    0.000    0.952    0.000    1.143    0.000    0.000 
#    0.000    0.000    0.000    0.000    0.000    0.000 
#
# Total GULP energy -234429.846387 kJ/mol
# GULP energy per Si atom -5581.663009 kJ/mol
# Density = 2.472572 g / cm^3
# Si number density = 24.782127 Si / 1000 Ang^3
#
#
#
# Elastic Constant Matrix: (Units=GPa)
#
#
# Indices 1 2 3 4 5 6 
#
# 1 190.3913 4.0984 54.4753 0.0000 0.0000 0.0000
# 2 4.0984 38.9154 13.9967 0.0000 0.0000 0.0000
# 3 54.4753 13.9967 145.6773 0.0000 0.0000 0.0000
# 4 0.0000 0.0000 0.0000 14.1327 0.0000 0.0000
# 5 0.0000 0.0000 0.0000 0.0000 32.9352 0.0000
# 6 0.0000 0.0000 0.0000 0.0000 0.0000 35.8510
#
#
#
# Elastic Compliance Matrix: (Units=1/GPa)
#
#
# Indices 1 2 3 4 5 6 
#
# 1 0.005883 0.000178 -0.002217 0.000000 0.000000 0.000000
# 2 0.000178 0.026622 -0.002624 0.000000 0.000000 0.000000
# 3 -0.002217 -0.002624 0.007946 0.000000 0.000000 0.000000
# 4 0.000000 0.000000 0.000000 0.070758 0.000000 0.000000
# 5 0.000000 0.000000 0.000000 0.000000 0.030363 0.000000
# 6 0.000000 0.000000 0.000000 0.000000 0.000000 0.027893
#
#
# Mechanical properties :
#
#
# Convention : Reuss Voigt Hill
#
# Bulk Modulus (GPa) = 32.13005 57.79164 44.96085
# Shear Modulus (GPa) = 26.43184 36.74469 31.58826
#
# Velocity S-wave (km/s) = 3.26938 3.85477 3.57408
# Velocity P-wave (km/s) = 5.21967 6.57137 5.93413
#
# Compressibility (1/GPa) = 0.03112351
#
# Stress axis : x y z
#
# Youngs Moduli (GPa) = 169.98624 37.56300 125.85510
#
# Poissons Ratio (x) = -0.00668 0.27901
# Poissons Ratio (y) = -0.03023 0.33029
# Poissons Ratio (z) = 0.37685 0.09858
#
# Static dielectric constant tensor:
#      x y z
#    x 2.045360 0.000000 0.000000 
#    y 0.000000 2.185140 0.000000 
#    z 0.000000 0.000000 2.023300 
# 
# From -- ./inp_files/21740.got.cif
#   From: 2010.05.17/outbox.cif.g08.bks.cpg/sg50_11_cif.got.tgz:21740.got - 2010.06.03 11:33:33.
