data_PCOD9396011
_publ_section_title
;
Structure prediction by ZEFSAII (Michael W. Deem and Ramdas Pophale) SiO2 
 PCOD9396011
Probable space group: P B A N
;
_chemical_formula_sum "Si O2"
_cell_formula_units_Z 48
_cell_length_a 7.600524
_cell_length_b 33.840509
_cell_length_c 8.611281
_cell_angle_alpha 90.000000
_cell_angle_beta 90.000000
_cell_angle_gamma 90.000000
_cell_volume 2214.869703
_symmetry_space_group_name_H-M "P B A N"
_symmetry_group_IT_number 50
_space_group.IT_coordinate_system_code '2'
_symmetry_cell_setting 'orthorhombic'
loop_
_space_group_symop_operation_xyz
x,y,z
1/2-x,1/2-y,z
x,1/2-y,-z
1/2-x,y,-z
-x,-y,-z
1/2+x,1/2+y,-z
-x,1/2+y,z
1/2+x,-y,z
loop_
_atom_site_type_symbol
_atom_site_label
_atom_site_fract_x
_atom_site_fract_y
_atom_site_fract_z
Si Si1 0.111459 0.058533 0.706341
Si Si2 0.740016 0.794801 0.188665
Si Si3 0.523905 0.358445 0.825651
Si Si4 0.558265 0.356314 0.195973
Si Si5 0.421396 0.931443 0.397208
Si Si6 0.708587 0.008984 0.179971
O O1 0.070258 0.103133 0.754215
O O2 0.057996 0.054404 0.527360
O O3 0.972792 0.031902 0.800760
O O4 0.287214 0.036030 0.758531
O O5 0.750000 0.750000 0.247150
O O6 0.562929 0.818491 0.234794
O O7 0.909046 0.821278 0.228957
O O8 0.750000 0.793036 0.000000
O O9 0.730048 0.352600 0.787184
O O10 0.519712 0.363734 0.013091
O O11 0.511049 0.393860 0.301212
O O12 0.250000 0.918091 0.500000
O O13 0.338033 0.964852 0.287411
O O14 0.750000 0.010108 0.000000
#
# Coordination Sequence:
#
# PCOD9396011 Si02
#       6
#     8   8   8   8   8   8
#     4  11  23  38  56  84 120 160 207 255 301 368
#     4   9  20  37  61  99 128 149 196 254 307 369
#     4  10  20  37  62  90 120 161 209 242 305 375
#     4  10  19  37  65  86 122 164 196 256 303 359
#     4  10  20  37  60  83 119 162 209 253 303 364
#     4  11  22  37  56  83 118 157 204 259 304 356
#
# _framework density 21.671703999999998
#
# number of rings (size 3 to 8) (size 9 to 14) (size 15 to 20)
#    0.000    1.833    3.333    2.000    0.000    4.000 
#    0.000    5.833    0.000    2.000    0.000    0.000 
#    0.000    0.000    0.000    0.000    0.000    0.000 
#
# Total GULP energy -268263.945425 kJ/mol
# GULP energy per Si atom -5588.832196 kJ/mol
# Density = 2.162238 g / cm^3
# Si number density = 21.671704 Si / 1000 Ang^3
#
#
#
# Elastic Constant Matrix: (Units=GPa)
#
#
# Indices 1 2 3 4 5 6 
#
# 1 83.7369 47.2085 16.7371 0.0000 0.0000 0.0000
# 2 47.2085 184.1006 46.2197 0.0000 0.0000 0.0000
# 3 16.7371 46.2197 92.9776 0.0000 0.0000 0.0000
# 4 0.0000 0.0000 0.0000 -21.1378 0.0000 0.0000
# 5 0.0000 0.0000 0.0000 0.0000 14.4710 0.0000
# 6 0.0000 0.0000 0.0000 0.0000 0.0000 30.9720
#
#
#
# Elastic Compliance Matrix: (Units=1/GPa)
#
#
# Indices 1 2 3 4 5 6 
#
# 1 0.014018 -0.003383 -0.000842 0.000000 0.000000 0.000000
# 2 -0.003383 0.007023 -0.002882 0.000000 0.000000 0.000000
# 3 -0.000842 -0.002882 0.012339 0.000000 0.000000 0.000000
# 4 0.000000 0.000000 0.000000 -0.047309 0.000000 0.000000
# 5 0.000000 0.000000 0.000000 0.000000 0.069104 0.000000
# 6 0.000000 0.000000 0.000000 0.000000 0.000000 0.032287
#
#
# Mechanical properties :
#
#
# Convention : Reuss Voigt Hill
#
# Bulk Modulus (GPa) = 52.17471 64.57174 58.37322
# Shear Modulus (GPa) = 46.26850 21.57104 33.91977
#
# Velocity S-wave (km/s) = 4.62559 3.15835 3.96051
# Velocity P-wave (km/s) = 7.25640 6.56965 6.92155
#
# Compressibility (1/GPa) = 0.01916637
#
# Stress axis : x y z
#
# Youngs Moduli (GPa) = 71.33802 142.39020 81.04066
#
# Poissons Ratio (x) = 0.48175 0.06820
# Poissons Ratio (y) = 0.24136 0.23357
# Poissons Ratio (z) = 0.06003 0.41039
#
# Static dielectric constant tensor:
#      x y z
#    x 2.009750 0.000000 0.000000 
#    y 0.000000 1.753140 0.000000 
#    z 0.000000 0.000000 1.763850 
# 
# From -- ./inp_files/10053.got.cif
#   From: 2010.05.17/outbox.cif.g08.bks.cpg/sg50_6_cif.got.tgz:10053.got - 2010.06.03 11:33:33.
