data_PCOD9396464
_publ_section_title
;
Structure prediction by ZEFSAII (Michael W. Deem and Ramdas Pophale) SiO2 
 PCOD9396464
Probable space group: P B A N
;
_chemical_formula_sum "Si O2"
_cell_formula_units_Z 40
_cell_length_a 14.864004
_cell_length_b 8.011351
_cell_length_c 13.021929
_cell_angle_alpha 90.000000
_cell_angle_beta 90.000000
_cell_angle_gamma 90.000000
_cell_volume 1550.661115
_symmetry_space_group_name_H-M "P B A N"
_symmetry_group_IT_number 50
_space_group.IT_coordinate_system_code '2'
_symmetry_cell_setting 'orthorhombic'
loop_
_space_group_symop_operation_xyz
x,y,z
1/2-x,1/2-y,z
x,1/2-y,-z
1/2-x,y,-z
-x,-y,-z
1/2+x,1/2+y,-z
-x,1/2+y,z
1/2+x,-y,z
loop_
_atom_site_type_symbol
_atom_site_label
_atom_site_fract_x
_atom_site_fract_y
_atom_site_fract_z
Si Si1 0.600654 0.763047 0.219271
Si Si2 0.659102 0.565814 0.948545
Si Si3 0.853851 0.244494 0.695748
Si Si4 0.417745 0.900699 0.121113
Si Si5 0.017978 0.446164 0.616051
O O1 0.675174 0.885326 0.170354
O O2 0.604652 0.577173 0.177249
O O3 0.576811 0.787348 0.338948
O O4 0.516675 0.846983 0.157272
O O5 0.643479 0.750000 0.000000
O O6 0.750000 0.502867 0.000000
O O7 0.590387 0.435716 0.000508
O O8 0.750000 0.250000 0.660537
O O9 0.856143 0.267941 0.819066
O O10 0.917210 0.392962 0.651236
O O11 0.916073 0.087261 0.664297
O O12 0.000000 0.500000 0.500000
#
# Coordination Sequence:
#
# PCOD9396464 Si02
#       5
#     8   8   8   8   8
#     4  10  20  38  64  92 134 180 229 286 357 434
#     4   9  19  34  58  92 133 178 226 283 350 430
#     4  11  25  45  73 104 143 187 246 310 381 448
#     4  10  20  38  63  96 132 179 225 286 357 435
#     4  11  24  44  69  99 139 186 244 309 375 441
#
# _framework density 25.795449000000001
#
# number of rings (size 3 to 8) (size 9 to 14) (size 15 to 20)
#    0.000    1.800    0.000    6.000    2.800    1.600 
#    0.000    6.000    0.000    4.800    0.000    0.000 
#    0.000    0.000    0.000    0.000    0.000    0.000 
#
# Total GULP energy -222723.216791 kJ/mol
# GULP energy per Si atom -5568.080420 kJ/mol
# Density = 2.573674 g / cm^3
# Si number density = 25.795449 Si / 1000 Ang^3
#
#
#
# Elastic Constant Matrix: (Units=GPa)
#
#
# Indices 1 2 3 4 5 6 
#
# 1 148.9965 40.1491 14.4715 0.0000 0.0000 0.0000
# 2 40.1491 116.8267 27.6622 0.0000 0.0000 0.0000
# 3 14.4715 27.6622 142.8855 0.0000 0.0000 0.0000
# 4 0.0000 0.0000 0.0000 31.1298 0.0000 0.0000
# 5 0.0000 0.0000 0.0000 0.0000 22.9064 0.0000
# 6 0.0000 0.0000 0.0000 0.0000 0.0000 28.8634
#
#
#
# Elastic Compliance Matrix: (Units=1/GPa)
#
#
# Indices 1 2 3 4 5 6 
#
# 1 0.007406 -0.002481 -0.000270 0.000000 0.000000 0.000000
# 2 -0.002481 0.009802 -0.001646 0.000000 0.000000 0.000000
# 3 -0.000270 -0.001646 0.007345 0.000000 0.000000 0.000000
# 4 0.000000 0.000000 0.000000 0.032124 0.000000 0.000000
# 5 0.000000 0.000000 0.000000 0.000000 0.043656 0.000000
# 6 0.000000 0.000000 0.000000 0.000000 0.000000 0.034646
#
#
# Mechanical properties :
#
#
# Convention : Reuss Voigt Hill
#
# Bulk Modulus (GPa) = 63.45867 63.69713 63.57790
# Shear Modulus (GPa) = 33.55104 38.34165 35.94635
#
# Velocity S-wave (km/s) = 3.61038 3.85953 3.73703
# Velocity P-wave (km/s) = 6.48335 6.67893 6.58187
#
# Compressibility (1/GPa) = 0.01575829
#
# Stress axis : x y z
#
# Youngs Moduli (GPa) = 135.01792 102.01684 136.15330
#
# Poissons Ratio (x) = 0.25315 0.03672
# Poissons Ratio (y) = 0.33504 0.22416
# Poissons Ratio (z) = 0.03642 0.16796
#
# Static dielectric constant tensor:
#      x y z
#    x 2.251950 0.000000 0.000000 
#    y 0.000000 2.175410 0.000000 
#    z 0.000000 0.000000 2.323210 
# 
# From -- ./inp_files/26285.got.cif
#   From: 2010.05.17/outbox.cif.g08.bks.cpg/sg50_14_cif.got.tgz:26285.got - 2010.06.03 11:33:33.
