data_PCOD9396241
_publ_section_title
;
Structure prediction by ZEFSAII (Michael W. Deem and Ramdas Pophale) SiO2 
 PCOD9396241
Probable space group: P B A N
;
_chemical_formula_sum "Si O2"
_cell_formula_units_Z 64
_cell_length_a 23.050397
_cell_length_b 16.868886
_cell_length_c 8.837578
_cell_angle_alpha 90.000000
_cell_angle_beta 90.000000
_cell_angle_gamma 90.000000
_cell_volume 3436.355393
_symmetry_space_group_name_H-M "P B A N"
_symmetry_group_IT_number 50
_space_group.IT_coordinate_system_code '2'
_symmetry_cell_setting 'orthorhombic'
loop_
_space_group_symop_operation_xyz
x,y,z
1/2-x,1/2-y,z
x,1/2-y,-z
1/2-x,y,-z
-x,-y,-z
1/2+x,1/2+y,-z
-x,1/2+y,z
1/2+x,-y,z
loop_
_atom_site_type_symbol
_atom_site_label
_atom_site_fract_x
_atom_site_fract_y
_atom_site_fract_z
Si Si1 0.013757 0.594787 0.825248
Si Si2 0.986243 0.405213 0.825248
Si Si3 0.184883 0.250000 0.315261
Si Si4 0.606279 0.894413 0.318057
Si Si5 0.250000 0.656089 0.818310
Si Si6 0.865161 0.075541 0.318301
Si Si7 0.393721 0.105587 0.318057
Si Si8 0.865161 0.424459 0.318301
O O1 0.000000 0.500000 0.818913
O O2 0.956360 0.628195 0.747541
O O3 0.074089 0.611792 0.741163
O O4 0.018527 0.617926 0.000000
O O5 0.925911 0.388208 0.741163
O O6 0.043640 0.371805 0.747541
O O7 0.250000 0.250000 0.260265
O O8 0.185538 0.250000 0.500000
O O9 0.151611 0.171353 0.268319
O O10 0.151611 0.328647 0.268319
O O11 0.601476 0.894793 0.500000
O O12 0.628350 0.982317 0.275190
O O13 0.250000 0.750000 0.780850
O O14 0.308075 0.615131 0.752257
O O15 0.191925 0.615131 0.752257
O O16 0.250000 0.648275 0.000000
O O17 0.862224 0.081136 0.500000
O O18 0.871650 0.982317 0.275190
#
# Coordination Sequence:
#
# PCOD9396241 Si02
#       8
#     8   8   8   8   8   8   8   8
#     4   9  17  32  55  81 111 146 185 228 277 329
#     4   9  17  32  55  81 111 146 185 228 277 329
#     4   9  18  32  53  81 117 152 185 228 271 313
#     4   9  18  33  56  85 114 147 189 232 273 321
#     4  11  25  43  59  80 111 144 182 227 283 345
#     4  10  20  35  60  87 111 142 185 232 279 331
#     4   9  18  33  56  85 114 147 189 232 273 321
#     4  10  20  35  60  87 111 142 185 232 279 331
#
# _framework density 18.624383000000002
#
# number of rings (size 3 to 8) (size 9 to 14) (size 15 to 20)
#    0.000    2.500    0.000    1.875    1.750    5.000 
#    2.250    0.625    0.000    0.750    0.000    0.000 
#    0.000    0.000    0.000    0.000    0.000    0.000 
#
# Total GULP energy -356951.323052 kJ/mol
# GULP energy per Si atom -5577.364423 kJ/mol
# Density = 1.858199 g / cm^3
# Si number density = 18.624383 Si / 1000 Ang^3
#
#
#
# Elastic Constant Matrix: (Units=GPa)
#
#
# Indices 1 2 3 4 5 6 
#
# 1 233.1229 91.4322 66.3898 0.0000 0.0000 0.0000
# 2 91.4322 78.0376 38.3217 0.0000 0.0000 0.0000
# 3 66.3898 38.3217 54.5253 0.0000 0.0000 0.0000
# 4 0.0000 0.0000 0.0000 11.3978 0.0000 0.0000
# 5 0.0000 0.0000 0.0000 0.0000 23.8976 0.0000
# 6 0.0000 0.0000 0.0000 0.0000 0.0000 27.9973
#
#
#
# Elastic Compliance Matrix: (Units=1/GPa)
#
#
# Indices 1 2 3 4 5 6 
#
# 1 0.008845 -0.007749 -0.005323 0.000000 0.000000 0.000000
# 2 -0.007749 0.026356 -0.009089 0.000000 0.000000 0.000000
# 3 -0.005323 -0.009089 0.031210 0.000000 0.000000 0.000000
# 4 0.000000 0.000000 0.000000 0.087736 0.000000 0.000000
# 5 0.000000 0.000000 0.000000 0.000000 0.041845 0.000000
# 6 0.000000 0.000000 0.000000 0.000000 0.000000 0.035718
#
#
# Mechanical properties :
#
#
# Convention : Reuss Voigt Hill
#
# Bulk Modulus (GPa) = 45.27217 84.21926 64.74572
# Shear Modulus (GPa) = 17.64321 23.96134 20.80227
#
# Velocity S-wave (km/s) = 3.08119 3.59075 3.34569
# Velocity P-wave (km/s) = 6.08433 7.90629 7.05438
#
# Compressibility (1/GPa) = 0.02208862
#
# Stress axis : x y z
#
# Youngs Moduli (GPa) = 113.06283 37.94140 32.04129
#
# Poissons Ratio (x) = 0.29400 0.17056
# Poissons Ratio (y) = 0.87609 0.29123
# Poissons Ratio (z) = 0.60186 0.34486
#
# Static dielectric constant tensor:
#      x y z
#    x 1.616310 0.000000 0.000000 
#    y 0.000000 1.657870 0.000000 
#    z 0.000000 0.000000 1.626700 
# 
# From -- ./inp_files/15503.got.cif
#   From: 2010.05.17/outbox.cif.g08.bks.cpg/sg50_8_cif.got.tgz:15503.got - 2010.06.03 11:33:33.
