data_PCOD9396018
_publ_section_title
;
Structure prediction by ZEFSAII (Michael W. Deem and Ramdas Pophale) SiO2 
 PCOD9396018
Probable space group: P B A N
;
_chemical_formula_sum "Si O2"
_cell_formula_units_Z 30
_cell_length_a 26.895664
_cell_length_b 5.544298
_cell_length_c 8.624128
_cell_angle_alpha 90.000000
_cell_angle_beta 90.000000
_cell_angle_gamma 90.000000
_cell_volume 1286.009064
_symmetry_space_group_name_H-M "P B A N"
_symmetry_group_IT_number 50
_space_group.IT_coordinate_system_code '2'
_symmetry_cell_setting 'orthorhombic'
loop_
_space_group_symop_operation_xyz
x,y,z
1/2-x,1/2-y,z
x,1/2-y,-z
1/2-x,y,-z
-x,-y,-z
1/2+x,1/2+y,-z
-x,1/2+y,z
1/2+x,-y,z
loop_
_atom_site_type_symbol
_atom_site_label
_atom_site_fract_x
_atom_site_fract_y
_atom_site_fract_z
Si Si1 0.902600 0.414166 0.749285
Si Si2 0.470042 0.750000 0.500000
Si Si3 0.750000 0.750000 0.000000
Si Si4 0.828844 0.020122 0.793933
Si Si5 0.146700 0.250000 0.500000
Si Si6 0.090228 0.250000 0.000000
O O1 0.937206 0.231648 0.656587
O O2 0.849908 0.292883 0.799350
O O3 0.887506 0.594871 0.612733
O O4 0.931517 0.540738 0.891180
O O5 0.500000 0.500000 0.500000
O O6 0.717887 0.571660 0.891148
O O7 0.823893 0.927306 0.616790
O O8 0.874225 0.882671 0.877649
#
# Coordination Sequence:
#
# PCOD9396018 Si02
#       6
#     8   4   2   8   4   4
#     4  11  21  43  71 101 143 200 241 297 390 453
#     4  12  27  44  74 117 149 189 261 332 372 467
#     4  10  24  42  66 114 144 170 250 308 356 440
#     4  10  20  40  67 101 138 188 231 297 362 449
#     4  10  19  37  70  99 130 198 241 278 366 456
#     4   9  22  37  68  96 136 198 232 276 362 463
#
# _framework density 23.327985999999999
#
# number of rings (size 3 to 8) (size 9 to 14) (size 15 to 20)
#    0.000    1.600    2.667    1.600    3.733    0.533 
#    0.000   25.333    0.000   16.000    0.000    0.000 
#    0.000    0.000    0.000    0.000    0.000    0.000 
#
# Total GULP energy -167327.859955 kJ/mol
# GULP energy per Si atom -5577.595332 kJ/mol
# Density = 2.327489 g / cm^3
# Si number density = 23.327986 Si / 1000 Ang^3
#
#
#
# Elastic Constant Matrix: (Units=GPa)
#
#
# Indices 1 2 3 4 5 6 
#
# 1 60.5131 32.7117 36.1829 0.0000 0.0000 0.0000
# 2 32.7117 108.2397 53.3609 0.0000 0.0000 0.0000
# 3 36.1829 53.3609 170.8406 0.0000 0.0000 0.0000
# 4 0.0000 0.0000 0.0000 56.9243 0.0000 0.0000
# 5 0.0000 0.0000 0.0000 0.0000 9.6745 0.0000
# 6 0.0000 0.0000 0.0000 0.0000 0.0000 24.6344
#
#
#
# Elastic Compliance Matrix: (Units=1/GPa)
#
#
# Indices 1 2 3 4 5 6 
#
# 1 0.020901 -0.004887 -0.002900 0.000000 0.000000 0.000000
# 2 -0.004887 0.012063 -0.002733 0.000000 0.000000 0.000000
# 3 -0.002900 -0.002733 0.007321 0.000000 0.000000 0.000000
# 4 0.000000 0.000000 0.000000 0.017567 0.000000 0.000000
# 5 0.000000 0.000000 0.000000 0.000000 0.103364 0.000000
# 6 0.000000 0.000000 0.000000 0.000000 0.000000 0.040594
#
#
# Mechanical properties :
#
#
# Convention : Reuss Voigt Hill
#
# Bulk Modulus (GPa) = 51.96039 64.90050 58.43045
# Shear Modulus (GPa) = 21.80877 32.73585 27.27231
#
# Velocity S-wave (km/s) = 3.06089 3.75011 3.42289
# Velocity P-wave (km/s) = 5.90036 6.82879 6.38148
#
# Compressibility (1/GPa) = 0.01924543
#
# Stress axis : x y z
#
# Youngs Moduli (GPa) = 47.84402 82.89926 136.58874
#
# Poissons Ratio (x) = 0.40511 0.39616
# Poissons Ratio (y) = 0.23381 0.37326
# Poissons Ratio (z) = 0.13877 0.22654
#
# Static dielectric constant tensor:
#      x y z
#    x 1.904740 0.000000 0.000000 
#    y 0.000000 2.282540 0.000000 
#    z 0.000000 0.000000 1.946260 
# 
# From -- ./inp_files/16693.got.cif
#   From: 2010.05.17/outbox.cif.g08.bks.cpg/sg50_9_cif.got.tgz:16693.got - 2010.06.03 11:33:33.
