data_PCOD9396465
_publ_section_title
;
Structure prediction by ZEFSAII (Michael W. Deem and Ramdas Pophale) SiO2 
 PCOD9396465
Probable space group: P B A N
;
_chemical_formula_sum "Si O2"
_cell_formula_units_Z 48
_cell_length_a 19.478739
_cell_length_b 7.879162
_cell_length_c 13.623113
_cell_angle_alpha 90.000000
_cell_angle_beta 90.000000
_cell_angle_gamma 90.000000
_cell_volume 2090.822800
_symmetry_space_group_name_H-M "P B A N"
_symmetry_group_IT_number 50
_space_group.IT_coordinate_system_code '2'
_symmetry_cell_setting 'orthorhombic'
loop_
_space_group_symop_operation_xyz
x,y,z
1/2-x,1/2-y,z
x,1/2-y,-z
1/2-x,y,-z
-x,-y,-z
1/2+x,1/2+y,-z
-x,1/2+y,z
1/2+x,-y,z
loop_
_atom_site_type_symbol
_atom_site_label
_atom_site_fract_x
_atom_site_fract_y
_atom_site_fract_z
Si Si1 0.573645 0.061987 0.962604
Si Si2 0.753208 0.552394 0.285478
Si Si3 0.144930 0.088534 0.131787
Si Si4 0.484777 0.223784 0.615439
Si Si5 0.895831 0.408699 0.313179
Si Si6 0.394699 0.058926 0.241626
O O1 0.575033 0.052807 0.845523
O O2 0.586431 0.250000 0.000000
O O3 0.500000 0.000000 0.000000
O O4 0.628669 0.944303 0.019737
O O5 0.750000 0.750000 0.320602
O O6 0.778399 0.556857 0.171446
O O7 0.814960 0.445790 0.335519
O O8 0.676281 0.487036 0.285210
O O9 0.124471 0.268122 0.179343
O O10 0.101414 0.952231 0.197201
O O11 0.487852 0.250000 0.500000
O O12 0.562599 0.241130 0.656938
O O13 0.443490 0.369414 0.674294
O O14 0.439293 0.057641 0.634627
#
# Coordination Sequence:
#
# PCOD9396465 Si02
#       6
#     8   8   8   8   8   8
#     4  12  24  37  57  92 129 170 220 268 329 393
#     4   8  16  38  63  85 121 166 214 256 322 391
#     4   8  18  36  60  85 116 164 209 258 314 388
#     4  11  21  36  61  96 127 166 209 276 330 396
#     4   9  20  36  61  88 126 160 217 262 327 388
#     4  10  20  38  64  87 127 167 220 265 328 391
#
# _framework density 22.957467999999999
#
# number of rings (size 3 to 8) (size 9 to 14) (size 15 to 20)
#    1.000    1.333    1.667    3.000    0.000    4.667 
#    0.000    5.833    0.000    0.000    0.000    1.167 
#    0.000    0.000    0.000    0.000    0.000    0.000 
#
# Total GULP energy -267641.116102 kJ/mol
# GULP energy per Si atom -5575.856585 kJ/mol
# Density = 2.290522 g / cm^3
# Si number density = 22.957468 Si / 1000 Ang^3
#
#
#
# Elastic Constant Matrix: (Units=GPa)
#
#
# Indices 1 2 3 4 5 6 
#
# 1 165.9569 24.5994 45.6579 0.0000 0.0000 0.0000
# 2 24.5994 68.6035 12.7581 0.0000 0.0000 0.0000
# 3 45.6579 12.7581 124.2935 0.0000 0.0000 0.0000
# 4 0.0000 0.0000 0.0000 17.9776 0.0000 0.0000
# 5 0.0000 0.0000 0.0000 0.0000 -6.2295 0.0000
# 6 0.0000 0.0000 0.0000 0.0000 0.0000 29.7802
#
#
#
# Elastic Compliance Matrix: (Units=1/GPa)
#
#
# Indices 1 2 3 4 5 6 
#
# 1 0.006979 -0.002065 -0.002352 0.000000 0.000000 0.000000
# 2 -0.002065 0.015471 -0.000829 0.000000 0.000000 0.000000
# 3 -0.002352 -0.000829 0.008994 0.000000 0.000000 0.000000
# 4 0.000000 0.000000 0.000000 0.055625 0.000000 0.000000
# 5 0.000000 0.000000 0.000000 0.000000 -0.160526 0.000000
# 6 0.000000 0.000000 0.000000 0.000000 0.000000 0.033579
#
#
# Mechanical properties :
#
#
# Convention : Reuss Voigt Hill
#
# Bulk Modulus (GPa) = 47.72774 58.32051 53.02413
# Shear Modulus (GPa) = -223.19877 26.69491 -98.25193
#
# Velocity S-wave (km/s) = -9.87086 3.41368 -6.54907
# Velocity P-wave (km/s) = 10.44399 6.40285 5.83440
#
# Compressibility (1/GPa) = 0.02095217
#
# Stress axis : x y z
#
# Youngs Moduli (GPa) = 143.29261 64.63604 111.17974
#
# Poissons Ratio (x) = 0.13348 0.26145
# Poissons Ratio (y) = 0.29591 0.09222
# Poissons Ratio (z) = 0.33697 0.05361
#
# Static dielectric constant tensor:
#      x y z
#    x 1.873680 0.000000 0.000000 
#    y 0.000000 1.937520 0.000000 
#    z 0.000000 0.000000 1.826640 
# 
# From -- ./inp_files/25121.got.cif
#   From: 2010.05.17/outbox.cif.g08.bks.cpg/sg50_13_cif.got.tgz:25121.got - 2010.06.03 11:33:33.
