data_PCOD9396843
_publ_section_title
;
Structure prediction by ZEFSAII (Michael W. Deem and Ramdas Pophale) SiO2 
 PCOD9396843
Probable space group: P B A N
;
_chemical_formula_sum "Si O2"
_cell_formula_units_Z 40
_cell_length_a 22.133324
_cell_length_b 9.315065
_cell_length_c 8.410807
_cell_angle_alpha 90.000000
_cell_angle_beta 90.000000
_cell_angle_gamma 90.000000
_cell_volume 1734.084270
_symmetry_space_group_name_H-M "P B A N"
_symmetry_group_IT_number 50
_space_group.IT_coordinate_system_code '2'
_symmetry_cell_setting 'orthorhombic'
loop_
_space_group_symop_operation_xyz
x,y,z
1/2-x,1/2-y,z
x,1/2-y,-z
1/2-x,y,-z
-x,-y,-z
1/2+x,1/2+y,-z
-x,1/2+y,z
1/2+x,-y,z
loop_
_atom_site_type_symbol
_atom_site_label
_atom_site_fract_x
_atom_site_fract_y
_atom_site_fract_z
Si Si1 0.337144 0.976615 0.119431
Si Si2 0.634680 0.199119 0.325177
Si Si3 0.059504 0.453017 0.588248
Si Si4 0.113125 0.205676 0.706694
Si Si5 0.792603 0.536148 0.232506
O O1 0.355181 0.826611 0.200483
O O2 0.386901 0.097841 0.147285
O O3 0.278955 0.044022 0.212146
O O4 0.317381 0.976877 0.937397
O O5 0.617794 0.250000 0.500000
O O6 0.583887 0.077865 0.297689
O O7 0.693665 0.098929 0.343868
O O8 0.055413 0.308707 0.690658
O O9 0.106943 0.399139 0.448674
O O10 0.000000 0.500000 0.500000
O O11 0.169567 0.320273 0.723786
#
# Coordination Sequence:
#
# PCOD9396843 Si02
#       5
#     8   8   8   8   8
#     4  11  21  39  64  90 132 171 204 244 307 387
#     4  11  22  39  60  97 122 167 211 260 307 362
#     4  10  23  42  63  90 121 161 210 269 331 362
#     4  10  21  38  63  92 116 159 214 253 300 376
#     4  10  23  39  60  93 132 175 199 240 315 381
#
# _framework density 23.066928000000001
#
# number of rings (size 3 to 8) (size 9 to 14) (size 15 to 20)
#    0.000    1.600    2.000    2.400    2.800    4.800 
#    0.000    4.000    0.000   21.600    0.000    0.000 
#    0.000    0.000    0.000    0.000    0.000    0.000 
#
# Total GULP energy -222724.992431 kJ/mol
# GULP energy per Si atom -5568.124811 kJ/mol
# Density = 2.301443 g / cm^3
# Si number density = 23.066928 Si / 1000 Ang^3
#
#
#
# Elastic Constant Matrix: (Units=GPa)
#
#
# Indices 1 2 3 4 5 6 
#
# 1 64.6926 47.3326 20.9339 0.0000 0.0000 0.0000
# 2 47.3326 179.1426 40.0933 0.0000 0.0000 0.0000
# 3 20.9339 40.0933 32.0855 0.0000 0.0000 0.0000
# 4 0.0000 0.0000 0.0000 34.7778 0.0000 0.0000
# 5 0.0000 0.0000 0.0000 0.0000 35.2762 0.0000
# 6 0.0000 0.0000 0.0000 0.0000 0.0000 24.9383
#
#
#
# Elastic Compliance Matrix: (Units=1/GPa)
#
#
# Indices 1 2 3 4 5 6 
#
# 1 0.021026 -0.003450 -0.009407 0.000000 0.000000 0.000000
# 2 -0.003450 0.008315 -0.008140 0.000000 0.000000 0.000000
# 3 -0.009407 -0.008140 0.047476 0.000000 0.000000 0.000000
# 4 0.000000 0.000000 0.000000 0.028754 0.000000 0.000000
# 5 0.000000 0.000000 0.000000 0.000000 0.028348 0.000000
# 6 0.000000 0.000000 0.000000 0.000000 0.000000 0.040099
#
#
# Mechanical properties :
#
#
# Convention : Reuss Voigt Hill
#
# Bulk Modulus (GPa) = 28.71657 54.73781 41.72719
# Shear Modulus (GPa) = 21.96650 30.16921 26.06785
#
# Velocity S-wave (km/s) = 3.08927 3.62041 3.36534
# Velocity P-wave (km/s) = 5.02007 6.42324 5.76451
#
# Compressibility (1/GPa) = 0.03482310
#
# Stress axis : x y z
#
# Youngs Moduli (GPa) = 47.56016 120.25779 21.06344
#
# Poissons Ratio (x) = 0.41490 0.19815
# Poissons Ratio (y) = 0.16409 0.17145
# Poissons Ratio (z) = 0.44740 0.97888
#
# Static dielectric constant tensor:
#      x y z
#    x 1.934950 0.000000 0.000000 
#    y 0.000000 1.973690 0.000000 
#    z 0.000000 0.000000 1.943870 
# 
# From -- ./inp_files/15800.got.cif
#   From: 2010.05.17/outbox.cif.g08.bks.cpg/sg50_8_cif.got.tgz:15800.got - 2010.06.03 11:33:33.
