data_PCOD9396592
_publ_section_title
;
Structure prediction by ZEFSAII (Michael W. Deem and Ramdas Pophale) SiO2 
 PCOD9396592
Probable space group: P B A N
;
_chemical_formula_sum "Si O2"
_cell_formula_units_Z 36
_cell_length_a 21.458534
_cell_length_b 10.626242
_cell_length_c 8.458458
_cell_angle_alpha 90.000000
_cell_angle_beta 90.000000
_cell_angle_gamma 90.000000
_cell_volume 1928.727834
_symmetry_space_group_name_H-M "P B A N"
_symmetry_group_IT_number 50
_space_group.IT_coordinate_system_code '2'
_symmetry_cell_setting 'orthorhombic'
loop_
_space_group_symop_operation_xyz
x,y,z
1/2-x,1/2-y,z
x,1/2-y,-z
1/2-x,y,-z
-x,-y,-z
1/2+x,1/2+y,-z
-x,1/2+y,z
1/2+x,-y,z
loop_
_atom_site_type_symbol
_atom_site_label
_atom_site_fract_x
_atom_site_fract_y
_atom_site_fract_z
Si Si1 0.813147 0.798581 0.817193
Si Si2 0.528075 0.471010 0.673567
Si Si3 0.827672 0.409859 0.252079
Si Si4 0.050223 0.242188 0.189068
Si Si5 0.750000 0.250000 0.500000
Si Si6 0.750000 0.250000 0.000000
O O1 0.750000 0.750000 0.740372
O O2 0.878595 0.751514 0.749444
O O3 0.811828 0.947780 0.797458
O O4 0.813197 0.750000 0.000000
O O5 0.500000 0.500000 0.500000
O O6 0.599226 0.420725 0.698815
O O7 0.486922 0.359646 0.744892
O O8 0.524468 0.605433 0.762323
O O9 0.792639 0.343277 0.397001
O O10 0.798273 0.330213 0.106899
O O11 0.050552 0.250000 0.000000
#
# Coordination Sequence:
#
# PCOD9396592 Si02
#       6
#     8   8   8   8   2   2
#     4   9  18  37  62  90 121 152 208 264 326 373
#     4  11  24  41  62  92 133 172 216 268 346 395
#     4  10  23  40  64  94 128 173 215 275 327 395
#     4  10  22  40  62  93 121 166 221 270 319 392
#     4  10  24  42  58  94 136 170 226 248 340 406
#     4  10  20  42  66  94 124 166 230 276 324 382
#
# _framework density 18.665151999999999
#
# number of rings (size 3 to 8) (size 9 to 14) (size 15 to 20)
#    0.000    2.000    0.000    2.667    4.667    1.778 
#    4.000    2.778    0.000    0.000    0.000    0.000 
#    0.000    0.000    0.000    0.000    0.000    0.000 
#
# Total GULP energy -200408.783363 kJ/mol
# GULP energy per Si atom -5566.910649 kJ/mol
# Density = 1.862267 g / cm^3
# Si number density = 18.665152 Si / 1000 Ang^3
#
#
#
# Elastic Constant Matrix: (Units=GPa)
#
#
# Indices 1 2 3 4 5 6 
#
# 1 164.2468 132.8155 70.3175 0.0000 0.0000 0.0000
# 2 132.8155 153.6580 71.3937 0.0000 0.0000 0.0000
# 3 70.3175 71.3937 104.3204 0.0000 0.0000 0.0000
# 4 0.0000 0.0000 0.0000 35.8899 0.0000 0.0000
# 5 0.0000 0.0000 0.0000 0.0000 17.1552 0.0000
# 6 0.0000 0.0000 0.0000 0.0000 0.0000 36.7759
#
#
#
# Elastic Compliance Matrix: (Units=1/GPa)
#
#
# Indices 1 2 3 4 5 6 
#
# 1 0.020659 -0.016695 -0.002499 0.000000 0.000000 0.000000
# 2 -0.016695 0.023034 -0.004510 0.000000 0.000000 0.000000
# 3 -0.002499 -0.004510 0.014357 0.000000 0.000000 0.000000
# 4 0.000000 0.000000 0.000000 0.027863 0.000000 0.000000
# 5 0.000000 0.000000 0.000000 0.000000 0.058291 0.000000
# 6 0.000000 0.000000 0.000000 0.000000 0.000000 0.027192
#
#
# Mechanical properties :
#
#
# Convention : Reuss Voigt Hill
#
# Bulk Modulus (GPa) = 93.98294 107.91984 100.95139
# Shear Modulus (GPa) = 22.48666 27.81077 25.14871
#
# Velocity S-wave (km/s) = 3.47470 3.86422 3.67462
# Velocity P-wave (km/s) = 8.15840 8.82349 8.49745
#
# Compressibility (1/GPa) = 0.01064023
#
# Stress axis : x y z
#
# Youngs Moduli (GPa) = 48.40525 43.41319 69.65050
#
# Poissons Ratio (x) = 0.72480 0.17408
# Poissons Ratio (y) = 0.80815 0.31416
# Poissons Ratio (z) = 0.12098 0.19581
#
# Static dielectric constant tensor:
#      x y z
#    x 1.667980 0.000000 0.000000 
#    y 0.000000 1.591750 0.000000 
#    z 0.000000 0.000000 1.657270 
# 
# From -- ./inp_files/9313.got.cif
#   From: 2010.05.17/outbox.cif.g08.bks.cpg/sg50_5_cif.got.tgz:9313.got - 2010.06.03 11:33:33.
