data_PCOD9396944
_publ_section_title
;
Structure prediction by ZEFSAII (Michael W. Deem and Ramdas Pophale) SiO2 
 PCOD9396944
Probable space group: P B A N
;
_chemical_formula_sum "Si O2"
_cell_formula_units_Z 48
_cell_length_a 20.933246
_cell_length_b 18.920060
_cell_length_c 5.721158
_cell_angle_alpha 90.000000
_cell_angle_beta 90.000000
_cell_angle_gamma 90.000000
_cell_volume 2265.911942
_symmetry_space_group_name_H-M "P B A N"
_symmetry_group_IT_number 50
_space_group.IT_coordinate_system_code '2'
_symmetry_cell_setting 'orthorhombic'
loop_
_space_group_symop_operation_xyz
x,y,z
1/2-x,1/2-y,z
x,1/2-y,-z
1/2-x,y,-z
-x,-y,-z
1/2+x,1/2+y,-z
-x,1/2+y,z
1/2+x,-y,z
loop_
_atom_site_type_symbol
_atom_site_label
_atom_site_fract_x
_atom_site_fract_y
_atom_site_fract_z
Si Si1 0.218637 0.640960 0.747478
Si Si2 0.923734 0.318842 0.162505
Si Si3 0.997451 0.419337 0.846621
Si Si4 0.087474 0.469188 0.238032
Si Si5 0.549124 0.675200 0.477009
Si Si6 0.734949 0.981099 0.750962
O O1 0.250000 0.663661 0.500000
O O2 0.145834 0.666263 0.735978
O O3 0.226355 0.555270 0.750535
O O4 0.250000 0.663491 0.000000
O O5 0.982816 0.311341 0.339484
O O6 0.920245 0.250000 0.000000
O O7 0.943746 0.387480 0.014427
O O8 0.958914 0.469000 0.667529
O O9 0.029932 0.352516 0.729341
O O10 0.054253 0.457963 0.985140
O O11 0.082575 0.392552 0.358648
O O12 0.159365 0.494874 0.242643
O O13 0.584182 0.750000 0.500000
O O14 0.750000 0.945771 0.500000
O O15 0.750000 0.944412 0.000000
#
# Coordination Sequence:
#
# PCOD9396944 Si02
#       6
#     8   8   8   8   8   8
#     4  10  23  40  61  90 127 182 225 267 315 389
#     4  11  23  39  62  92 134 179 218 279 334 409
#     4  10  21  40  63  96 130 168 222 276 346 401
#     4  10  23  38  64  97 130 170 222 283 336 410
#     4  11  23  39  66  96 129 170 215 279 349 408
#     4  10  22  39  64  95 131 171 220 277 332 392
#
# _framework density 21.183526000000001
#
# number of rings (size 3 to 8) (size 9 to 14) (size 15 to 20)
#    0.000    1.667    1.667    2.500    9.333    0.333 
#    0.000    0.833    0.000    0.500    0.000    0.000 
#    0.000    0.000    0.000    0.000    0.000    0.000 
#
# Total GULP energy -267668.296158 kJ/mol
# GULP energy per Si atom -5576.422837 kJ/mol
# Density = 2.113531 g / cm^3
# Si number density = 21.183526 Si / 1000 Ang^3
#
#
#
# Elastic Constant Matrix: (Units=GPa)
#
#
# Indices 1 2 3 4 5 6 
#
# 1 66.3914 -2.6021 16.0720 0.0000 0.0000 0.0000
# 2 -2.6021 96.1570 -3.6429 0.0000 0.0000 0.0000
# 3 16.0720 -3.6429 98.3059 0.0000 0.0000 0.0000
# 4 0.0000 0.0000 0.0000 31.5239 0.0000 0.0000
# 5 0.0000 0.0000 0.0000 0.0000 18.2361 0.0000
# 6 0.0000 0.0000 0.0000 0.0000 0.0000 222.5355
#
#
#
# Elastic Compliance Matrix: (Units=1/GPa)
#
#
# Indices 1 2 3 4 5 6 
#
# 1 0.015693 0.000328 -0.002554 0.000000 0.000000 0.000000
# 2 0.000328 0.010421 0.000333 0.000000 0.000000 0.000000
# 3 -0.002554 0.000333 0.010602 0.000000 0.000000 0.000000
# 4 0.000000 0.000000 0.000000 0.031722 0.000000 0.000000
# 5 0.000000 0.000000 0.000000 0.000000 0.054836 0.000000
# 6 0.000000 0.000000 0.000000 0.000000 0.000000 0.004494
#
#
# Mechanical properties :
#
#
# Convention : Reuss Voigt Hill
#
# Bulk Modulus (GPa) = 30.36708 31.16759 30.76734
# Shear Modulus (GPa) = 35.07999 71.19424 53.13711
#
# Velocity S-wave (km/s) = 4.07382 5.80356 5.01384
# Velocity P-wave (km/s) = 6.04105 7.72356 6.93353
#
# Compressibility (1/GPa) = 0.03293039
#
# Stress axis : x y z
#
# Youngs Moduli (GPa) = 63.72185 95.95891 94.32064
#
# Poissons Ratio (x) = -0.03147 0.24085
# Poissons Ratio (y) = -0.02090 -0.03137
# Poissons Ratio (z) = 0.16272 -0.03191
#
# Static dielectric constant tensor:
#      x y z
#    x 1.722770 0.000000 0.000000 
#    y 0.000000 1.851260 0.000000 
#    z 0.000000 0.000000 1.886020 
# 
# From -- ./inp_files/4525.got.cif
#   From: 2010.05.17/outbox.cif.g08.bks.cpg/sg50_3_cif.got.tgz:4525.got - 2010.06.03 11:33:33.
