data_PCOD9396450
_publ_section_title
;
Structure prediction by ZEFSAII (Michael W. Deem and Ramdas Pophale) SiO2 
 PCOD9396450
Probable space group: P B A N
;
_chemical_formula_sum "Si O2"
_cell_formula_units_Z 64
_cell_length_a 17.205362
_cell_length_b 13.230674
_cell_length_c 13.840093
_cell_angle_alpha 90.000000
_cell_angle_beta 90.000000
_cell_angle_gamma 90.000000
_cell_volume 3150.538504
_symmetry_space_group_name_H-M "P B A N"
_symmetry_group_IT_number 50
_space_group.IT_coordinate_system_code '2'
_symmetry_cell_setting 'orthorhombic'
loop_
_space_group_symop_operation_xyz
x,y,z
1/2-x,1/2-y,z
x,1/2-y,-z
1/2-x,y,-z
-x,-y,-z
1/2+x,1/2+y,-z
-x,1/2+y,z
1/2+x,-y,z
loop_
_atom_site_type_symbol
_atom_site_label
_atom_site_fract_x
_atom_site_fract_y
_atom_site_fract_z
Si Si1 0.945999 0.219534 0.654562
Si Si2 0.438203 0.586604 0.531040
Si Si3 0.317143 0.974616 0.323541
Si Si4 0.150899 0.357266 0.052401
Si Si5 0.891782 0.982799 0.870435
Si Si6 0.545661 0.920620 0.787337
Si Si7 0.801229 0.166819 0.784751
Si Si8 0.229518 0.135447 0.218503
O O1 0.920925 0.152604 0.562974
O O2 0.965693 0.330902 0.612723
O O3 0.874144 0.216939 0.729226
O O4 0.013795 0.153658 0.704304
O O5 0.500000 0.500000 0.500000
O O6 0.358967 0.541409 0.574965
O O7 0.389985 0.001294 0.252692
O O8 0.263496 0.071794 0.306430
O O9 0.260299 0.884846 0.289501
O O10 0.085263 0.349296 0.133655
O O11 0.226335 0.388962 0.115681
O O12 0.162239 0.250000 0.000000
O O13 0.119572 0.439891 0.977254
O O14 0.835961 0.078356 0.850179
O O15 0.976113 0.017938 0.837055
O O16 0.858647 0.895191 0.800156
O O17 0.750000 0.250000 0.838703
O O18 0.250000 0.250000 0.234821
#
# Coordination Sequence:
#
# PCOD9396450 Si02
#       8
#     8   8   8   8   8   8   8   8
#     4  10  22  39  63  92 121 166 210 253 318 385
#     4  11  21  39  64  90 124 157 207 259 317 381
#     4  10  21  38  62  90 120 158 205 256 313 368
#     4  11  21  36  62  89 123 162 213 258 308 373
#     4  10  21  36  61  89 124 160 208 260 309 371
#     4  10  22  40  58  89 125 161 203 260 320 376
#     4  10  20  40  62  90 125 165 212 254 310 385
#     4  10  20  38  62  88 119 163 212 254 310 378
#
# _framework density 20.313987999999998
#
# number of rings (size 3 to 8) (size 9 to 14) (size 15 to 20)
#    0.000    1.750    3.750    0.750    0.000    1.500 
#    0.000    0.000    0.000    3.000    0.000    0.875 
#    0.000    0.000    0.000    0.000    0.000    0.000 
#
# Total GULP energy -356878.623850 kJ/mol
# GULP energy per Si atom -5576.228498 kJ/mol
# Density = 2.026775 g / cm^3
# Si number density = 20.313988 Si / 1000 Ang^3
#
#
#
# Elastic Constant Matrix: (Units=GPa)
#
#
# Indices 1 2 3 4 5 6 
#
# 1 72.8438 5.7859 7.9128 0.0000 0.0000 0.0000
# 2 5.7859 67.9601 13.1489 0.0000 0.0000 0.0000
# 3 7.9128 13.1489 72.9807 0.0000 0.0000 0.0000
# 4 0.0000 0.0000 0.0000 35.5555 0.0000 0.0000
# 5 0.0000 0.0000 0.0000 0.0000 26.7109 0.0000
# 6 0.0000 0.0000 0.0000 0.0000 0.0000 26.7985
#
#
#
# Elastic Compliance Matrix: (Units=1/GPa)
#
#
# Indices 1 2 3 4 5 6 
#
# 1 0.013948 -0.000927 -0.001345 0.000000 0.000000 0.000000
# 2 -0.000927 0.015308 -0.002657 0.000000 0.000000 0.000000
# 3 -0.001345 -0.002657 0.014327 0.000000 0.000000 0.000000
# 4 0.000000 0.000000 0.000000 0.028125 0.000000 0.000000
# 5 0.000000 0.000000 0.000000 0.000000 0.037438 0.000000
# 6 0.000000 0.000000 0.000000 0.000000 0.000000 0.037316
#
#
# Mechanical properties :
#
#
# Convention : Reuss Voigt Hill
#
# Bulk Modulus (GPa) = 29.65370 29.71997 29.68684
# Shear Modulus (GPa) = 29.83982 30.27545 30.05763
#
# Velocity S-wave (km/s) = 3.83682 3.86472 3.85080
# Velocity P-wave (km/s) = 5.85300 5.88021 5.86662
#
# Compressibility (1/GPa) = 0.03372260
#
# Stress axis : x y z
#
# Youngs Moduli (GPa) = 71.69606 65.32694 69.79877
#
# Poissons Ratio (x) = 0.06057 0.09389
# Poissons Ratio (y) = 0.06648 0.18549
# Poissons Ratio (z) = 0.09645 0.17360
#
# Static dielectric constant tensor:
#      x y z
#    x 1.750610 0.000000 0.000000 
#    y 0.000000 1.759370 0.000000 
#    z 0.000000 0.000000 1.730410 
# 
# From -- ./inp_files/27014.got.cif
#   From: 2010.05.17/outbox.cif.g08.bks.cpg/sg50_14_cif.got.tgz:27014.got - 2010.06.03 11:33:33.
