data_PCOD9396032
_publ_section_title
;
Structure prediction by ZEFSAII (Michael W. Deem and Ramdas Pophale) SiO2 
 PCOD9396032
Probable space group: P B A N
;
_chemical_formula_sum "Si O2"
_cell_formula_units_Z 56
_cell_length_a 15.372834
_cell_length_b 20.399912
_cell_length_c 7.877149
_cell_angle_alpha 90.000000
_cell_angle_beta 90.000000
_cell_angle_gamma 90.000000
_cell_volume 2470.309065
_symmetry_space_group_name_H-M "P B A N"
_symmetry_group_IT_number 50
_space_group.IT_coordinate_system_code '2'
_symmetry_cell_setting 'orthorhombic'
loop_
_space_group_symop_operation_xyz
x,y,z
1/2-x,1/2-y,z
x,1/2-y,-z
1/2-x,y,-z
-x,-y,-z
1/2+x,1/2+y,-z
-x,1/2+y,z
1/2+x,-y,z
loop_
_atom_site_type_symbol
_atom_site_label
_atom_site_fract_x
_atom_site_fract_y
_atom_site_fract_z
Si Si1 0.011146 0.016381 0.800506
Si Si2 0.284367 0.039111 0.189501
Si Si3 0.592109 0.137869 0.164275
Si Si4 0.266647 0.603732 0.689475
Si Si5 0.785716 0.817114 0.308870
Si Si6 0.539677 0.757688 0.796993
Si Si7 0.534140 0.124639 0.772988
O O1 0.111289 0.037571 0.789419
O O2 0.947695 0.073947 0.742552
O O3 0.995539 0.945420 0.718094
O O4 0.000000 0.000000 0.000000
O O5 0.257613 0.113227 0.233083
O O6 0.255251 0.975261 0.293965
O O7 0.250000 0.025701 0.000000
O O8 0.695184 0.133939 0.183269
O O9 0.552096 0.205592 0.226969
O O10 0.550142 0.130725 0.976868
O O11 0.250000 0.625513 0.500000
O O12 0.365848 0.623551 0.718659
O O13 0.750000 0.750000 0.224793
O O14 0.750000 0.817865 0.500000
O O15 0.888225 0.803302 0.289447
O O16 0.527065 0.684933 0.723580
O O17 0.558716 0.750000 0.000000
#
# Coordination Sequence:
#
# PCOD9396032 Si02
#       7
#     8   8   8   8   8   8   8
#     4   9  17  33  60  93 123 159 213 277 327 370
#     4  11  22  39  68  95 129 170 222 278 324 391
#     4  10  19  38  65  91 128 165 221 280 326 384
#     4  11  23  41  61  97 134 174 214 268 337 408
#     4  11  26  44  61  95 139 174 209 268 336 399
#     4  10  22  41  69  97 128 172 227 279 323 388
#     4   9  20  38  63  96 127 169 223 275 328 382
#
# _framework density 22.669229999999999
#
# number of rings (size 3 to 8) (size 9 to 14) (size 15 to 20)
#    0.000    1.857    1.429    3.429    2.000    1.714 
#    5.143    5.714    0.000    0.000    0.000    0.000 
#    0.000    0.000    0.000    0.000    0.000    0.000 
#
# Total GULP energy -312458.614426 kJ/mol
# GULP energy per Si atom -5579.618115 kJ/mol
# Density = 2.261763 g / cm^3
# Si number density = 22.669230 Si / 1000 Ang^3
#
#
#
# Elastic Constant Matrix: (Units=GPa)
#
#
# Indices 1 2 3 4 5 6 
#
# 1 41.1305 2.7021 4.5250 0.0000 0.0000 0.0000
# 2 2.7021 78.8739 17.8750 0.0000 0.0000 0.0000
# 3 4.5250 17.8750 31.6798 0.0000 0.0000 0.0000
# 4 0.0000 0.0000 0.0000 6.0984 0.0000 0.0000
# 5 0.0000 0.0000 0.0000 0.0000 -0.4203 0.0000
# 6 0.0000 0.0000 0.0000 0.0000 0.0000 22.0827
#
#
#
# Elastic Compliance Matrix: (Units=1/GPa)
#
#
# Indices 1 2 3 4 5 6 
#
# 1 0.024701 -0.000053 -0.003498 0.000000 0.000000 0.000000
# 2 -0.000053 0.014538 -0.008195 0.000000 0.000000 0.000000
# 3 -0.003498 -0.008195 0.036689 0.000000 0.000000 0.000000
# 4 0.000000 0.000000 0.000000 0.163978 0.000000 0.000000
# 5 0.000000 0.000000 0.000000 0.000000 -2.379329 0.000000
# 6 0.000000 0.000000 0.000000 0.000000 0.000000 0.045284
#
#
# Mechanical properties :
#
#
# Convention : Reuss Voigt Hill
#
# Bulk Modulus (GPa) = 19.07118 22.43205 20.75162
# Shear Modulus (GPa) = -2.43526 13.99096 5.77785
#
# Velocity S-wave (km/s) = -1.03759 2.48700 1.59822
# Velocity P-wave (km/s) = 2.64492 4.26190 3.54679
#
# Compressibility (1/GPa) = 0.05243513
#
# Stress axis : x y z
#
# Youngs Moduli (GPa) = 40.48381 68.78751 27.25579
#
# Poissons Ratio (x) = 0.00368 0.09534
# Poissons Ratio (y) = 0.00216 0.22336
# Poissons Ratio (z) = 0.14161 0.56372
#
# Static dielectric constant tensor:
#      x y z
#    x 1.912490 0.000000 0.000000 
#    y 0.000000 1.892220 0.000000 
#    z 0.000000 0.000000 1.919480 
# 
# From -- ./inp_files/13274.got.cif
#   From: 2010.05.17/outbox.cif.g08.bks.cpg/sg50_7_cif.got.tgz:13274.got - 2010.06.03 11:33:33.
