data_PCOD9396462
_publ_section_title
;
Structure prediction by ZEFSAII (Michael W. Deem and Ramdas Pophale) SiO2 
 PCOD9396462
Probable space group: P B A N
;
_chemical_formula_sum "Si O2"
_cell_formula_units_Z 52
_cell_length_a 13.426120
_cell_length_b 16.929185
_cell_length_c 12.289164
_cell_angle_alpha 90.000000
_cell_angle_beta 90.000000
_cell_angle_gamma 90.000000
_cell_volume 2793.244263
_symmetry_space_group_name_H-M "P B A N"
_symmetry_group_IT_number 50
_space_group.IT_coordinate_system_code '2'
_symmetry_cell_setting 'orthorhombic'
loop_
_space_group_symop_operation_xyz
x,y,z
1/2-x,1/2-y,z
x,1/2-y,-z
1/2-x,y,-z
-x,-y,-z
1/2+x,1/2+y,-z
-x,1/2+y,z
1/2+x,-y,z
loop_
_atom_site_type_symbol
_atom_site_label
_atom_site_fract_x
_atom_site_fract_y
_atom_site_fract_z
Si Si1 0.653234 0.484348 0.060958
Si Si2 0.980094 0.074086 0.865152
Si Si3 0.819800 0.129318 0.266015
Si Si4 0.630856 0.588870 0.496656
Si Si5 0.017193 0.985189 0.659387
Si Si6 0.890105 0.301092 0.291547
Si Si7 0.980392 0.750000 0.500000
O O1 0.593155 0.560774 0.099766
O O2 0.682688 0.426515 0.160078
O O3 0.750000 0.510840 0.000000
O O4 0.586340 0.438030 0.971963
O O5 0.952424 0.150704 0.797144
O O6 0.972001 0.001929 0.778109
O O7 0.902750 0.086225 0.340536
O O8 0.858171 0.217143 0.241534
O O9 0.709374 0.145889 0.313490
O O10 0.750000 0.583372 0.500000
O O11 0.575540 0.531107 0.581443
O O12 0.582138 0.559663 0.382748
O O13 0.590891 0.675828 0.525383
O O14 0.949727 0.279305 0.400821
#
# Coordination Sequence:
#
# PCOD9396462 Si02
#       7
#     8   8   8   8   8   8   4
#     4  10  20  38  63  93 122 155 208 256 315 379
#     4  10  21  37  62  88 122 161 196 259 308 367
#     4  10  22  37  61  92 124 160 201 256 321 371
#     4  11  24  38  62  83 120 166 209 256 305 373
#     4  10  22  40  58  92 118 157 211 256 307 369
#     4  11  22  39  61  91 127 163 202 258 317 376
#     4  12  23  43  58  90 126 166 208 250 312 374
#
# _framework density 18.616344999999999
#
# number of rings (size 3 to 8) (size 9 to 14) (size 15 to 20)
#    0.000    1.538    4.615    0.231    2.154    1.846 
#    0.000    0.000    0.000    0.000    0.000    1.077 
#    0.000    0.000    0.000    0.000    0.000    0.000 
#
# Total GULP energy -289797.581913 kJ/mol
# GULP energy per Si atom -5573.030421 kJ/mol
# Density = 1.857397 g / cm^3
# Si number density = 18.616345 Si / 1000 Ang^3
#
#
#
# Elastic Constant Matrix: (Units=GPa)
#
#
# Indices 1 2 3 4 5 6 
#
# 1 143.3246 52.3254 45.9031 0.0000 0.0000 0.0000
# 2 52.3254 78.4286 7.3747 0.0000 0.0000 0.0000
# 3 45.9031 7.3747 54.8880 0.0000 0.0000 0.0000
# 4 0.0000 0.0000 0.0000 28.1458 0.0000 0.0000
# 5 0.0000 0.0000 0.0000 0.0000 27.1792 0.0000
# 6 0.0000 0.0000 0.0000 0.0000 0.0000 30.2342
#
#
#
# Elastic Compliance Matrix: (Units=1/GPa)
#
#
# Indices 1 2 3 4 5 6 
#
# 1 0.012916 -0.007699 -0.009767 0.000000 0.000000 0.000000
# 2 -0.007699 0.017503 0.004087 0.000000 0.000000 0.000000
# 3 -0.009767 0.004087 0.025838 0.000000 0.000000 0.000000
# 4 0.000000 0.000000 0.000000 0.035529 0.000000 0.000000
# 5 0.000000 0.000000 0.000000 0.000000 0.036793 0.000000
# 6 0.000000 0.000000 0.000000 0.000000 0.000000 0.033075
#
#
# Mechanical properties :
#
#
# Convention : Reuss Voigt Hill
#
# Bulk Modulus (GPa) = 33.90012 54.20530 44.05271
# Shear Modulus (GPa) = 25.22121 28.51435 26.86778
#
# Velocity S-wave (km/s) = 3.68474 3.91792 3.80312
# Velocity P-wave (km/s) = 6.02930 7.04607 6.55742
#
# Compressibility (1/GPa) = 0.02949842
#
# Stress axis : x y z
#
# Youngs Moduli (GPa) = 77.42252 57.13428 38.70223
#
# Poissons Ratio (x) = 0.43987 0.37802
# Poissons Ratio (y) = 0.59606 -0.15817
# Poissons Ratio (z) = 0.75622 -0.23350
#
# Static dielectric constant tensor:
#      x y z
#    x 1.665030 0.000000 0.000000 
#    y 0.000000 1.641720 0.000000 
#    z 0.000000 0.000000 1.698310 
# 
# From -- ./inp_files/21274.got.cif
#   From: 2010.05.17/outbox.cif.g08.bks.cpg/sg50_11_cif.got.tgz:21274.got - 2010.06.03 11:33:33.
