data_PCOD9396578
_publ_section_title
;
Structure prediction by ZEFSAII (Michael W. Deem and Ramdas Pophale) SiO2 
 PCOD9396578
Probable space group: P B A N
;
_chemical_formula_sum "Si O2"
_cell_formula_units_Z 48
_cell_length_a 30.049228
_cell_length_b 9.234899
_cell_length_c 8.577788
_cell_angle_alpha 90.000000
_cell_angle_beta 90.000000
_cell_angle_gamma 90.000000
_cell_volume 2380.349771
_symmetry_space_group_name_H-M "P B A N"
_symmetry_group_IT_number 50
_space_group.IT_coordinate_system_code '2'
_symmetry_cell_setting 'orthorhombic'
loop_
_space_group_symop_operation_xyz
x,y,z
1/2-x,1/2-y,z
x,1/2-y,-z
1/2-x,y,-z
-x,-y,-z
1/2+x,1/2+y,-z
-x,1/2+y,z
1/2+x,-y,z
loop_
_atom_site_type_symbol
_atom_site_label
_atom_site_fract_x
_atom_site_fract_y
_atom_site_fract_z
Si Si1 0.368822 0.145665 0.361574
Si Si2 0.612885 0.368845 0.229741
Si Si3 0.562015 0.700436 0.832270
Si Si4 0.133515 0.551706 0.870865
Si Si5 0.980559 0.125173 0.385419
Si Si6 0.300885 0.303651 0.166731
O O1 0.384864 0.250000 0.500000
O O2 0.404781 0.176570 0.227794
O O3 0.323455 0.216691 0.305615
O O4 0.365257 0.972794 0.362477
O O5 0.625390 0.198914 0.225775
O O6 0.560422 0.393703 0.265563
O O7 0.629665 0.416400 0.056559
O O8 0.593022 0.558398 0.836617
O O9 0.522089 0.678250 0.714893
O O10 0.545146 0.750000 0.000000
O O11 0.179731 0.467713 0.828329
O O12 0.964146 0.250000 0.500000
O O13 0.000000 0.000000 0.500000
O O14 0.250000 0.250000 0.167147
O O15 0.319533 0.250000 0.000000
#
# Coordination Sequence:
#
# PCOD9396578 Si02
#       6
#     8   8   8   8   8   8
#     4  11  21  39  63  90 125 168 211 265 326 406
#     4  11  22  38  59  90 132 163 220 271 339 391
#     4  11  21  38  61  83 118 169 233 269 317 389
#     4  10  21  38  63  94 122 164 214 279 339 383
#     4  12  26  40  55  86 127 175 228 276 333 388
#     4  10  20  41  68  94 125 158 215 269 316 411
#
# _framework density 20.165105000000001
#
# number of rings (size 3 to 8) (size 9 to 14) (size 15 to 20)
#    0.000    1.167    3.333    4.500    2.333    2.333 
#    0.000    0.833    0.000    0.000    0.000    4.667 
#    0.000    0.000    0.000    0.000    0.000    0.000 
#
# Total GULP energy -267387.962602 kJ/mol
# GULP energy per Si atom -5570.582554 kJ/mol
# Density = 2.011921 g / cm^3
# Si number density = 20.165105 Si / 1000 Ang^3
#
#
#
# Elastic Constant Matrix: (Units=GPa)
#
#
# Indices 1 2 3 4 5 6 
#
# 1 101.0839 34.9423 24.5127 0.0000 0.0000 0.0000
# 2 34.9423 152.8775 19.4510 0.0000 0.0000 0.0000
# 3 24.5127 19.4510 52.4252 0.0000 0.0000 0.0000
# 4 0.0000 0.0000 0.0000 38.9290 0.0000 0.0000
# 5 0.0000 0.0000 0.0000 0.0000 12.3401 0.0000
# 6 0.0000 0.0000 0.0000 0.0000 0.0000 7.6882
#
#
#
# Elastic Compliance Matrix: (Units=1/GPa)
#
#
# Indices 1 2 3 4 5 6 
#
# 1 0.011760 -0.002087 -0.004724 0.000000 0.000000 0.000000
# 2 -0.002087 0.007236 -0.001709 0.000000 0.000000 0.000000
# 3 -0.004724 -0.001709 0.021918 0.000000 0.000000 0.000000
# 4 0.000000 0.000000 0.000000 0.025688 0.000000 0.000000
# 5 0.000000 0.000000 0.000000 0.000000 0.081036 0.000000
# 6 0.000000 0.000000 0.000000 0.000000 0.000000 0.130070
#
#
# Mechanical properties :
#
#
# Convention : Reuss Voigt Hill
#
# Bulk Modulus (GPa) = 41.88789 51.57762 46.73276
# Shear Modulus (GPa) = 16.51776 26.95685 21.73730
#
# Velocity S-wave (km/s) = 2.86514 3.66020 3.28680
# Velocity P-wave (km/s) = 5.63586 6.59515 6.13429
#
# Compressibility (1/GPa) = 0.02387325
#
# Stress axis : x y z
#
# Youngs Moduli (GPa) = 85.03576 138.20621 45.62500
#
# Poissons Ratio (x) = 0.28840 0.21555
# Poissons Ratio (y) = 0.17745 0.07797
# Poissons Ratio (z) = 0.40174 0.23617
#
# Static dielectric constant tensor:
#      x y z
#    x 1.634360 0.000000 0.000000 
#    y 0.000000 1.788750 0.000000 
#    z 0.000000 0.000000 1.789450 
# 
# From -- ./inp_files/10098.got.cif
#   From: 2010.05.17/outbox.cif.g08.bks.cpg/sg50_6_cif.got.tgz:10098.got - 2010.06.03 11:33:33.
