data_PCOD9396943
_publ_section_title
;
Structure prediction by ZEFSAII (Michael W. Deem and Ramdas Pophale) SiO2 
 PCOD9396943
Probable space group: P B A N
;
_chemical_formula_sum "Si O2"
_cell_formula_units_Z 34
_cell_length_a 13.980970
_cell_length_b 5.321579
_cell_length_c 19.269147
_cell_angle_alpha 90.000000
_cell_angle_beta 90.000000
_cell_angle_gamma 90.000000
_cell_volume 1433.640653
_symmetry_space_group_name_H-M "P B A N"
_symmetry_group_IT_number 50
_space_group.IT_coordinate_system_code '2'
_symmetry_cell_setting 'orthorhombic'
loop_
_space_group_symop_operation_xyz
x,y,z
1/2-x,1/2-y,z
x,1/2-y,-z
1/2-x,y,-z
-x,-y,-z
1/2+x,1/2+y,-z
-x,1/2+y,z
1/2+x,-y,z
loop_
_atom_site_type_symbol
_atom_site_label
_atom_site_fract_x
_atom_site_fract_y
_atom_site_fract_z
Si Si1 0.440662 0.801548 0.427135
Si Si2 0.366481 0.243274 0.808020
Si Si3 0.091752 0.058972 0.951158
Si Si4 0.250000 0.750000 0.000000
Si Si5 0.363460 0.742403 0.725960
O O1 0.386755 0.750000 0.500000
O O2 0.525073 0.590996 0.428679
O O3 0.391881 0.745150 0.354186
O O4 0.250000 0.250000 0.821254
O O5 0.422813 0.301399 0.879124
O O6 0.390782 0.473785 0.757449
O O7 0.393562 0.981572 0.772085
O O8 0.149314 0.250000 0.000000
O O9 0.168285 0.839033 0.944134
O O10 0.000000 0.000000 0.000000
O O11 0.250000 0.750000 0.728845
#
# Coordination Sequence:
#
# PCOD9396943 Si02
#       5
#     8   8   8   2   8
#     4  10  21  40  63  95 140 182 221 274 339 408
#     4  10  23  43  71  94 139 180 220 296 365 414
#     4  12  27  48  71 103 137 187 247 298 372 456
#     4  12  26  48  76  92 148 180 232 320 378 414
#     4  10  22  42  68 101 130 177 227 278 348 413
#
# _framework density 23.715845999999999
#
# number of rings (size 3 to 8) (size 9 to 14) (size 15 to 20)
#    0.000    1.412    1.176    3.176    8.235    0.471 
#   12.706    0.000    0.000    8.471    0.000    0.000 
#    0.000    0.000    0.000    0.000    0.000    0.000 
#
# Total GULP energy -189685.104721 kJ/mol
# GULP energy per Si atom -5578.973668 kJ/mol
# Density = 2.366187 g / cm^3
# Si number density = 23.715846 Si / 1000 Ang^3
#
#
#
# Elastic Constant Matrix: (Units=GPa)
#
#
# Indices 1 2 3 4 5 6 
#
# 1 130.8911 24.5183 41.7552 0.0000 0.0000 0.0000
# 2 24.5183 117.0293 53.8840 0.0000 0.0000 0.0000
# 3 41.7552 53.8840 215.4083 0.0000 0.0000 0.0000
# 4 0.0000 0.0000 0.0000 44.8281 0.0000 0.0000
# 5 0.0000 0.0000 0.0000 0.0000 29.8065 0.0000
# 6 0.0000 0.0000 0.0000 0.0000 0.0000 -44.4337
#
#
#
# Elastic Compliance Matrix: (Units=1/GPa)
#
#
# Indices 1 2 3 4 5 6 
#
# 1 0.008272 -0.001124 -0.001322 0.000000 0.000000 0.000000
# 2 -0.001124 0.009810 -0.002236 0.000000 0.000000 0.000000
# 3 -0.001322 -0.002236 0.005458 0.000000 0.000000 0.000000
# 4 0.000000 0.000000 0.000000 0.022307 0.000000 0.000000
# 5 0.000000 0.000000 0.000000 0.000000 0.033550 0.000000
# 6 0.000000 0.000000 0.000000 0.000000 0.000000 -0.022505
#
#
# Mechanical properties :
#
#
# Convention : Reuss Voigt Hill
#
# Bulk Modulus (GPa) = 70.54606 78.18263 74.36435
# Shear Modulus (GPa) = 70.44013 28.91825 49.67919
#
# Velocity S-wave (km/s) = 5.45584 3.49573 4.58183
# Velocity P-wave (km/s) = 8.33662 7.02364 7.70813
#
# Compressibility (1/GPa) = 0.01417514
#
# Stress axis : x y z
#
# Youngs Moduli (GPa) = 120.88450 101.93739 183.21748
#
# Poissons Ratio (x) = 0.11461 0.24227
# Poissons Ratio (y) = 0.13591 0.40968
# Poissons Ratio (z) = 0.15985 0.22793
#
# Static dielectric constant tensor:
#      x y z
#    x 1.902850 0.000000 0.000000 
#    y 0.000000 0.301000 0.000000 
#    z 0.000000 0.000000 1.918270 
# 
# From -- ./inp_files/29343.got.cif
#   From: 2010.05.17/outbox.cif.g08.bks.cpg/sg50_15_cif.got.tgz:29343.got - 2010.06.03 11:33:33.
