data_PCOD9396741
_publ_section_title
;
Structure prediction by ZEFSAII (Michael W. Deem and Ramdas Pophale) SiO2 
 PCOD9396741
Probable space group: P B A N
;
_chemical_formula_sum "Si O2"
_cell_formula_units_Z 64
_cell_length_a 18.511305
_cell_length_b 7.795710
_cell_length_c 22.107315
_cell_angle_alpha 90.000000
_cell_angle_beta 90.000000
_cell_angle_gamma 90.000000
_cell_volume 3190.279336
_symmetry_space_group_name_H-M "P B A N"
_symmetry_group_IT_number 50
_space_group.IT_coordinate_system_code '2'
_symmetry_cell_setting 'orthorhombic'
loop_
_space_group_symop_operation_xyz
x,y,z
1/2-x,1/2-y,z
x,1/2-y,-z
1/2-x,y,-z
-x,-y,-z
1/2+x,1/2+y,-z
-x,1/2+y,z
1/2+x,-y,z
loop_
_atom_site_type_symbol
_atom_site_label
_atom_site_fract_x
_atom_site_fract_y
_atom_site_fract_z
Si Si1 0.414367 0.043016 0.500000
Si Si2 0.084721 0.457171 0.761761
Si Si3 0.085387 0.456573 0.630086
Si Si4 0.168628 0.044902 0.879157
Si Si5 0.584721 0.957170 0.761762
Si Si6 0.668629 0.544901 0.879157
Si Si7 0.085387 0.456571 0.369913
Si Si8 0.583923 0.452293 1.000000
O O1 0.407644 0.250000 0.500000
O O2 0.385315 0.979827 0.565091
O O3 0.385315 0.979827 0.434908
O O4 0.500000 0.000000 0.500000
O O5 0.111868 0.519216 0.695651
O O6 0.089896 0.250001 0.761189
O O7 0.128586 0.523489 0.819380
O O8 0.000000 0.500002 0.767995
O O9 0.092874 0.250001 0.629797
O O10 0.000000 0.500001 0.630136
O O11 0.128585 0.976512 0.819381
O O12 0.250000 0.976933 0.885422
O O13 0.173479 0.250000 0.871507
O O14 0.122998 0.016166 0.939556
O O15 0.611867 0.019215 0.695651
O O16 0.622998 0.516165 0.939556
O O17 0.589818 0.250000 0.000000
O O18 0.500000 0.500000 0.000000
#
# Coordination Sequence:
#
# PCOD9396741 Si02
#       8
#     8   8   8   8   8   8   8   8
#     4   8  12  18  30  50  79 113 145 183 231 278
#     4   9  17  29  46  68  93 123 159 198 239 284
#     4   8  13  21  34  55  83 114 149 188 232 279
#     4  10  21  37  55  75 101 132 164 199 240 285
#     4   9  17  29  46  68  93 123 159 198 239 284
#     4  10  21  37  55  75 101 132 164 199 240 285
#     4   8  13  21  34  55  83 114 149 188 232 279
#     4  12  25  40  59  81 103 127 157 194 237 286
#
# _framework density 20.060939000000001
#
# number of rings (size 3 to 8) (size 9 to 14) (size 15 to 20)
#    0.000    2.750    0.000    2.250    0.000    5.000 
#    0.000    0.000    0.000    0.000    0.000    0.875 
#    0.000    7.000    0.000    0.000    0.000  241.875 
#
# Total GULP energy -356480.876940 kJ/mol
# GULP energy per Si atom -5570.013702 kJ/mol
# Density = 2.001528 g / cm^3
# Si number density = 20.060939 Si / 1000 Ang^3
#
#
#
# Elastic Constant Matrix: (Units=GPa)
#
#
# Indices 1 2 3 4 5 6 
#
# 1 85.9753 0.5278 89.3679 0.0000 0.0000 0.0000
# 2 0.5278 30.7872 3.8966 0.0000 0.0000 0.0000
# 3 89.3679 3.8966 268.3314 0.0000 0.0000 0.0000
# 4 0.0000 0.0000 0.0000 1.4158 0.0000 0.0000
# 5 0.0000 0.0000 0.0000 0.0000 -7.0642 0.0000
# 6 0.0000 0.0000 0.0000 0.0000 0.0000 10.9984
#
#
#
# Elastic Compliance Matrix: (Units=1/GPa)
#
#
# Indices 1 2 3 4 5 6 
#
# 1 0.017796 0.000446 -0.005933 0.000000 0.000000 0.000000
# 2 0.000446 0.032552 -0.000621 0.000000 0.000000 0.000000
# 3 -0.005933 -0.000621 0.005712 0.000000 0.000000 0.000000
# 4 0.000000 0.000000 0.000000 0.706337 0.000000 0.000000
# 5 0.000000 0.000000 0.000000 0.000000 -0.141559 0.000000
# 6 0.000000 0.000000 0.000000 0.000000 0.000000 0.090923
#
#
# Mechanical properties :
#
#
# Convention : Reuss Voigt Hill
#
# Bulk Modulus (GPa) = 22.80898 63.63094 43.21996
# Shear Modulus (GPa) = 6.76964 20.49010 13.62987
#
# Velocity S-wave (km/s) = 1.83898 3.19939 2.60940
# Velocity P-wave (km/s) = 3.98794 6.74061 5.53803
#
# Compressibility (1/GPa) = 0.04384238
#
# Stress axis : x y z
#
# Youngs Moduli (GPa) = 56.19204 30.72012 175.07300
#
# Poissons Ratio (x) = -0.01370 1.03879
# Poissons Ratio (y) = -0.02506 0.10876
# Poissons Ratio (z) = 0.33341 0.01908
#
# Static dielectric constant tensor:
#      x y z
#    x 1.656480 0.000000 0.000000 
#    y 0.000000 1.712330 0.000000 
#    z 0.000000 0.000000 1.837060 
# 
# From -- ./inp_files/31104.got.cif
#   From: 2010.05.17/outbox.cif.g08.bks.cpg/sg50_16_cif.got.tgz:31104.got - 2010.06.03 11:33:33.
