data_PCOD9396693
_publ_section_title
;
Structure prediction by ZEFSAII (Michael W. Deem and Ramdas Pophale) SiO2 
 PCOD9396693
Probable space group: P B A N
;
_chemical_formula_sum "Si O2"
_cell_formula_units_Z 44
_cell_length_a 8.225299
_cell_length_b 13.700576
_cell_length_c 19.483062
_cell_angle_alpha 90.000000
_cell_angle_beta 90.000000
_cell_angle_gamma 90.000000
_cell_volume 2195.572249
_symmetry_space_group_name_H-M "P B A N"
_symmetry_group_IT_number 50
_space_group.IT_coordinate_system_code '2'
_symmetry_cell_setting 'orthorhombic'
loop_
_space_group_symop_operation_xyz
x,y,z
1/2-x,1/2-y,z
x,1/2-y,-z
1/2-x,y,-z
-x,-y,-z
1/2+x,1/2+y,-z
-x,1/2+y,z
1/2+x,-y,z
loop_
_atom_site_type_symbol
_atom_site_label
_atom_site_fract_x
_atom_site_fract_y
_atom_site_fract_z
Si Si1 0.548229 0.653488 0.450217
Si Si2 0.553800 0.762601 0.923317
Si Si3 0.551291 0.906580 0.811554
Si Si4 0.436435 0.376813 0.201072
Si Si5 0.063994 0.770307 0.306751
Si Si6 0.250000 0.982849 0.500000
O O1 0.570597 0.750000 0.500000
O O2 0.526002 0.696226 0.374825
O O3 0.390551 0.590406 0.474379
O O4 0.681133 0.565219 0.447265
O O5 0.750000 0.750000 0.927766
O O6 0.512008 0.864852 0.887129
O O7 0.504845 0.684962 0.865067
O O8 0.488339 0.750000 0.000000
O O9 0.741214 0.882929 0.800377
O O10 0.450558 0.851207 0.752855
O O11 0.515342 0.018755 0.804962
O O12 0.487515 0.323989 0.270781
O O13 0.250000 0.750000 0.324623
#
# Coordination Sequence:
#
# PCOD9396693 Si02
#       6
#     8   8   8   8   8   4
#     4  11  24  43  64  90 123 158 199 251 303 360
#     4   8  16  33  55  80 112 150 193 242 294 351
#     4  10  21  36  57  84 117 153 195 244 294 361
#     4  10  21  37  57  84 116 153 196 241 299 359
#     4  11  23  39  61  85 116 155 196 247 299 352
#     4  10  24  42  64  92 120 156 204 246 302 370
#
# _framework density 20.040333
#
# number of rings (size 3 to 8) (size 9 to 14) (size 15 to 20)
#    0.000    2.000    0.000    4.364    0.000    9.455 
#    0.000    0.000    0.000   18.545    0.000    0.000 
#    0.000    0.000    0.000    0.000    0.000    0.000 
#
# Total GULP energy -245389.892216 kJ/mol
# GULP energy per Si atom -5577.043005 kJ/mol
# Density = 1.999472 g / cm^3
# Si number density = 20.040333 Si / 1000 Ang^3
#
#
#
# Elastic Constant Matrix: (Units=GPa)
#
#
# Indices 1 2 3 4 5 6 
#
# 1 24.8915 15.6566 3.7512 0.0000 0.0000 0.0000
# 2 15.6566 157.3854 60.7614 0.0000 0.0000 0.0000
# 3 3.7512 60.7614 142.1728 0.0000 0.0000 0.0000
# 4 0.0000 0.0000 0.0000 26.7949 0.0000 0.0000
# 5 0.0000 0.0000 0.0000 0.0000-1908.6164 0.0000
# 6 0.0000 0.0000 0.0000 0.0000 0.0000 23.4143
#
#
#
# Elastic Compliance Matrix: (Units=1/GPa)
#
#
# Indices 1 2 3 4 5 6 
#
# 1 0.042938 -0.004592 0.000829 0.000000 0.000000 0.000000
# 2 -0.004592 0.008100 -0.003341 0.000000 0.000000 0.000000
# 3 0.000829 -0.003341 0.008440 0.000000 0.000000 0.000000
# 4 0.000000 0.000000 0.000000 0.037320 0.000000 0.000000
# 5 0.000000 0.000000 0.000000 0.000000 -0.000524 0.000000
# 6 0.000000 0.000000 0.000000 0.000000 0.000000 0.042709
#
#
# Mechanical properties :
#
#
# Convention : Reuss Voigt Hill
#
# Bulk Modulus (GPa) = 22.08891 53.86534 37.97712
# Shear Modulus (GPa) = 29.71250 -355.39606 -162.84178
#
# Velocity S-wave (km/s) = 3.85468 -13.33137 -9.02405
# Velocity P-wave (km/s) = 5.55496 14.49242 9.46501
#
# Compressibility (1/GPa) = 0.04527159
#
# Stress axis : x y z
#
# Youngs Moduli (GPa) = 23.28967 123.45127 118.48939
#
# Poissons Ratio (x) = 0.56684 -0.09828
# Poissons Ratio (y) = 0.10694 0.39584
# Poissons Ratio (z) = -0.01932 0.41242
#
# Static dielectric constant tensor:
#      x y z
#    x 1.765090 0.000000 0.000000 
#    y 0.000000 1.694450 0.000000 
#    z 0.000000 0.000000 1.685330 
# 
# From -- ./inp_files/28631.got.cif
#   From: 2010.05.17/outbox.cif.g08.bks.cpg/sg50_15_cif.got.tgz:28631.got - 2010.06.03 11:33:33.
