data_PCOD9396922
_publ_section_title
;
Structure prediction by ZEFSAII (Michael W. Deem and Ramdas Pophale) SiO2 
 PCOD9396922
Probable space group: P B A N
;
_chemical_formula_sum "Si O2"
_cell_formula_units_Z 38
_cell_length_a 11.481219
_cell_length_b 26.784010
_cell_length_c 5.981359
_cell_angle_alpha 90.000000
_cell_angle_beta 90.000000
_cell_angle_gamma 90.000000
_cell_volume 1839.346156
_symmetry_space_group_name_H-M "P B A N"
_symmetry_group_IT_number 50
_space_group.IT_coordinate_system_code '2'
_symmetry_cell_setting 'orthorhombic'
loop_
_space_group_symop_operation_xyz
x,y,z
1/2-x,1/2-y,z
x,1/2-y,-z
1/2-x,y,-z
-x,-y,-z
1/2+x,1/2+y,-z
-x,1/2+y,z
1/2+x,-y,z
loop_
_atom_site_type_symbol
_atom_site_label
_atom_site_fract_x
_atom_site_fract_y
_atom_site_fract_z
Si Si1 0.750000 0.389524 0.000000
Si Si2 0.120326 0.442360 0.054481
Si Si3 0.632197 0.804157 0.607504
Si Si4 0.575795 0.042256 0.717865
Si Si5 0.750000 0.750000 0.000000
Si Si6 0.554877 0.380147 0.676424
O O1 0.659088 0.424753 0.126521
O O2 0.828946 0.363676 0.190980
O O3 0.121337 0.486166 0.242639
O O4 0.042199 0.398332 0.148304
O O5 0.250000 0.427542 0.000000
O O6 0.052619 0.459912 0.830141
O O7 0.616090 0.750000 0.500000
O O8 0.750000 0.827667 0.500000
O O9 0.517131 0.836162 0.560215
O O10 0.668593 0.787301 0.856536
O O11 0.578540 0.072083 0.484448
#
# Coordination Sequence:
#
# PCOD9396922 Si02
#       6
#     4   8   8   8   2   8
#     4  10  22  40  57  83 118 170 211 239 300 368
#     4  10  22  36  58  91 124 162 212 249 306 373
#     4   9  21  38  62  95 121 151 198 255 332 382
#     4  10  21  40  56  84 125 166 205 255 296 362
#     4   8  18  40  62  84 128 152 172 260 326 382
#     4  11  23  37  64  88 123 165 208 257 307 374
#
# _framework density 20.659514999999999
#
# number of rings (size 3 to 8) (size 9 to 14) (size 15 to 20)
#    0.000    2.316    1.053    1.263    4.421    5.053 
#    3.789    0.000    0.000    9.474    0.000    0.000 
#    0.000    0.000    0.000    0.000    0.000    0.000 
#
# Total GULP energy -211652.914124 kJ/mol
# GULP energy per Si atom -5569.813530 kJ/mol
# Density = 2.061249 g / cm^3
# Si number density = 20.659515 Si / 1000 Ang^3
#
#
#
# Elastic Constant Matrix: (Units=GPa)
#
#
# Indices 1 2 3 4 5 6 
#
# 1 131.0132 16.7685 28.7920 0.0000 0.0000 0.0000
# 2 16.7685 36.0277 3.9563 0.0000 0.0000 0.0000
# 3 28.7920 3.9563 66.2593 0.0000 0.0000 0.0000
# 4 0.0000 0.0000 0.0000 0.1163 0.0000 0.0000
# 5 0.0000 0.0000 0.0000 0.0000 19.5076 0.0000
# 6 0.0000 0.0000 0.0000 0.0000 0.0000 -8.3190
#
#
#
# Elastic Compliance Matrix: (Units=1/GPa)
#
#
# Indices 1 2 3 4 5 6 
#
# 1 0.008915 -0.003748 -0.003650 0.000000 0.000000 0.000000
# 2 -0.003748 0.029516 -0.000134 0.000000 0.000000 0.000000
# 3 -0.003650 -0.000134 0.016686 0.000000 0.000000 0.000000
# 4 0.000000 0.000000 0.000000 8.597612 0.000000 0.000000
# 5 0.000000 0.000000 0.000000 0.000000 0.051262 0.000000
# 6 0.000000 0.000000 0.000000 0.000000 0.000000 -0.120207
#
#
# Mechanical properties :
#
#
# Convention : Reuss Voigt Hill
#
# Bulk Modulus (GPa) = 24.96704 36.92599 30.94651
# Shear Modulus (GPa) = 0.58057 14.51322 7.54690
#
# Velocity S-wave (km/s) = 0.53069 2.65334 1.91335
# Velocity P-wave (km/s) = 3.53366 5.22488 4.46016
#
# Compressibility (1/GPa) = 0.04005281
#
# Stress axis : x y z
#
# Youngs Moduli (GPa) = 112.17427 33.88031 59.92970
#
# Poissons Ratio (x) = 0.12700 0.21874
# Poissons Ratio (y) = 0.42047 0.00801
# Poissons Ratio (z) = 0.40943 0.00453
#
# Static dielectric constant tensor:
#      x y z
#    x 2.117160 0.000000 0.000000 
#    y 0.000000 1.742010 0.000000 
#    z 0.000000 0.000000 1.881990 
# 
# From -- ./inp_files/2417.got.cif
#   From: 2010.05.17/outbox.cif.g08.bks.cpg/sg50_2_cif.got.tgz:2417.got - 2010.06.03 11:33:33.
