data_PCOD9396184
_publ_section_title
;
Structure prediction by ZEFSAII (Michael W. Deem and Ramdas Pophale) SiO2 
 PCOD9396184
Probable space group: P B A N
;
_chemical_formula_sum "Si O2"
_cell_formula_units_Z 64
_cell_length_a 21.824782
_cell_length_b 11.724375
_cell_length_c 11.593807
_cell_angle_alpha 90.000000
_cell_angle_beta 90.000000
_cell_angle_gamma 90.000000
_cell_volume 2966.645693
_symmetry_space_group_name_H-M "P B A N"
_symmetry_group_IT_number 50
_space_group.IT_coordinate_system_code '2'
_symmetry_cell_setting 'orthorhombic'
loop_
_space_group_symop_operation_xyz
x,y,z
1/2-x,1/2-y,z
x,1/2-y,-z
1/2-x,y,-z
-x,-y,-z
1/2+x,1/2+y,-z
-x,1/2+y,z
1/2+x,-y,z
loop_
_atom_site_type_symbol
_atom_site_label
_atom_site_fract_x
_atom_site_fract_y
_atom_site_fract_z
Si Si1 0.508304 0.182445 0.120441
Si Si2 0.188546 0.087335 0.646812
Si Si3 0.612032 0.525439 0.124083
Si Si4 0.317195 0.363201 0.050719
Si Si5 0.960519 0.127097 0.277897
Si Si6 0.324597 0.155755 0.683001
Si Si7 0.131605 0.869711 0.517192
Si Si8 0.070248 0.969716 0.295583
O O1 0.447388 0.106358 0.111445
O O2 0.498860 0.273817 0.223258
O O3 0.561744 0.101162 0.175919
O O4 0.518602 0.250000 0.000000
O O5 0.160110 0.061602 0.774678
O O6 0.262317 0.095774 0.638156
O O7 0.167361 0.219112 0.627347
O O8 0.164679 0.984964 0.564657
O O9 0.584109 0.409031 0.172742
O O10 0.645255 0.531735 0.001133
O O11 0.309836 0.334103 0.182371
O O12 0.348434 0.250000 0.000000
O O13 0.250000 0.374567 0.000000
O O14 0.919125 0.155107 0.385758
O O15 0.002709 0.020959 0.313762
O O16 0.383929 0.076757 0.692399
O O17 0.167885 0.750000 0.500000
O O18 0.096583 0.894970 0.398678
#
# Coordination Sequence:
#
# PCOD9396184 Si02
#       8
#     8   8   8   8   8   8   8   8
#     4  11  24  39  60  97 141 176 215 273 338 417
#     4  10  21  41  66  98 129 172 220 291 340 397
#     4  10  20  34  60  95 127 173 223 259 335 399
#     4  11  18  32  59  92 132 175 206 256 327 408
#     4  10  23  41  65  89 131 173 223 278 331 402
#     4  11  22  39  63 101 142 167 226 279 345 414
#     4  11  23  47  72  92 128 174 236 287 335 406
#     4  11  25  42  64  99 126 182 223 278 348 404
#
# _framework density 21.573186
#
# number of rings (size 3 to 8) (size 9 to 14) (size 15 to 20)
#    0.000    1.375    3.750    2.250    3.500    2.000 
#    2.250    2.500    0.000    0.000    0.000    1.750 
#    0.000    0.000    0.000    0.000    0.000    0.000 
#
# Total GULP energy -356599.725133 kJ/mol
# GULP energy per Si atom -5571.870705 kJ/mol
# Density = 2.152408 g / cm^3
# Si number density = 21.573186 Si / 1000 Ang^3
#
#
#
# Elastic Constant Matrix: (Units=GPa)
#
#
# Indices 1 2 3 4 5 6 
#
# 1 63.9440 53.7002 41.7773 0.0000 0.0000 0.0000
# 2 53.7002 110.5031 36.3885 0.0000 0.0000 0.0000
# 3 41.7773 36.3885 75.0198 0.0000 0.0000 0.0000
# 4 0.0000 0.0000 0.0000 28.0043 0.0000 0.0000
# 5 0.0000 0.0000 0.0000 0.0000 19.6595 0.0000
# 6 0.0000 0.0000 0.0000 0.0000 0.0000 34.7199
#
#
#
# Elastic Compliance Matrix: (Units=1/GPa)
#
#
# Indices 1 2 3 4 5 6 
#
# 1 0.034918 -0.012574 -0.013346 0.000000 0.000000 0.000000
# 2 -0.012574 0.015298 -0.000418 0.000000 0.000000 0.000000
# 3 -0.013346 -0.000418 0.020965 0.000000 0.000000 0.000000
# 4 0.000000 0.000000 0.000000 0.035709 0.000000 0.000000
# 5 0.000000 0.000000 0.000000 0.000000 0.050866 0.000000
# 6 0.000000 0.000000 0.000000 0.000000 0.000000 0.028802
#
#
# Mechanical properties :
#
#
# Convention : Reuss Voigt Hill
#
# Bulk Modulus (GPa) = 54.04165 57.02208 55.53187
# Shear Modulus (GPa) = 20.37482 24.31681 22.34581
#
# Velocity S-wave (km/s) = 3.07653 3.36099 3.22190
# Velocity P-wave (km/s) = 6.14205 6.44600 6.29586
#
# Compressibility (1/GPa) = 0.01850424
#
# Stress axis : x y z
#
# Youngs Moduli (GPa) = 28.63863 65.36992 47.69895
#
# Poissons Ratio (x) = 0.82195 0.63660
# Poissons Ratio (y) = 0.36010 0.01993
# Poissons Ratio (z) = 0.38222 0.02732
#
# Static dielectric constant tensor:
#      x y z
#    x 1.768360 0.000000 0.000000 
#    y 0.000000 1.933380 0.000000 
#    z 0.000000 0.000000 1.983000 
# 
# From -- ./inp_files/22894.got.cif
#   From: 2010.05.17/outbox.cif.g08.bks.cpg/sg50_12_cif.got.tgz:22894.got - 2010.06.03 11:33:33.
