data_PCOD9396917
_publ_section_title
;
Structure prediction by ZEFSAII (Michael W. Deem and Ramdas Pophale) SiO2 
 PCOD9396917
Probable space group: P B A N
;
_chemical_formula_sum "Si O2"
_cell_formula_units_Z 58
_cell_length_a 26.027285
_cell_length_b 9.025723
_cell_length_c 11.716680
_cell_angle_alpha 90.000000
_cell_angle_beta 90.000000
_cell_angle_gamma 90.000000
_cell_volume 2752.424642
_symmetry_space_group_name_H-M "P B A N"
_symmetry_group_IT_number 50
_space_group.IT_coordinate_system_code '2'
_symmetry_cell_setting 'orthorhombic'
loop_
_space_group_symop_operation_xyz
x,y,z
1/2-x,1/2-y,z
x,1/2-y,-z
1/2-x,y,-z
-x,-y,-z
1/2+x,1/2+y,-z
-x,1/2+y,z
1/2+x,-y,z
loop_
_atom_site_type_symbol
_atom_site_label
_atom_site_fract_x
_atom_site_fract_y
_atom_site_fract_z
Si Si1 0.039631 0.128352 0.343399
Si Si2 0.435274 0.471782 0.672236
Si Si3 0.231206 0.919546 0.875679
Si Si4 0.301285 0.026567 0.674835
Si Si5 0.110780 0.383871 0.853227
Si Si6 0.882083 0.415896 0.480728
Si Si7 0.880962 0.963864 0.102604
Si Si8 0.250000 0.250000 0.500000
O O1 0.049504 0.303209 0.359087
O O2 0.056957 0.105153 0.212345
O O3 0.077682 0.022328 0.414894
O O4 0.981988 0.076829 0.364108
O O5 0.382698 0.509693 0.605461
O O6 0.424584 0.499485 0.805454
O O7 0.250000 0.750000 0.876329
O O8 0.255205 0.985752 0.759819
O O9 0.170523 0.945210 0.872734
O O10 0.250000 0.983872 0.000000
O O11 0.345697 0.066479 0.765103
O O12 0.284437 0.152308 0.585723
O O13 0.329387 0.909864 0.590705
O O14 0.125223 0.213203 0.878410
O O15 0.108344 0.477219 0.968555
O O16 0.900560 0.250000 0.500000
#
# Coordination Sequence:
#
# PCOD9396917 Si02
#       8
#     8   8   8   8   8   8   8   2
#     4  10  22  41  66  95 136 168 221 273 335 406
#     4  11  23  40  67  98 130 175 220 277 335 407
#     4  11  24  43  66  95 135 177 224 271 338 402
#     4  11  25  41  63  94 134 168 225 272 331 394
#     4   9  20  41  64  94 127 168 215 275 324 390
#     4  11  25  41  65  93 130 176 222 274 335 396
#     4  10  21  39  68  92 126 170 221 268 331 390
#     4  12  28  40  68 100 132 184 218 286 336 400
#
# _framework density 21.072330000000001
#
# number of rings (size 3 to 8) (size 9 to 14) (size 15 to 20)
#    0.000    1.517    1.379    2.483    9.655    0.552 
#    0.000    0.000    0.000    0.000    0.000    0.000 
#    0.000    0.000    0.000    0.000    0.000    0.000 
#
# Total GULP energy -323432.588684 kJ/mol
# GULP energy per Si atom -5576.423943 kJ/mol
# Density = 2.102437 g / cm^3
# Si number density = 21.072330 Si / 1000 Ang^3
#
#
#
# Elastic Constant Matrix: (Units=GPa)
#
#
# Indices 1 2 3 4 5 6 
#
# 1 41.6724 26.4428 23.4506 0.0000 0.0000 0.0000
# 2 26.4428 69.3743 44.8861 0.0000 0.0000 0.0000
# 3 23.4506 44.8861 139.7954 0.0000 0.0000 0.0000
# 4 0.0000 0.0000 0.0000 -239.8187 0.0000 0.0000
# 5 0.0000 0.0000 0.0000 0.0000 32.7438 0.0000
# 6 0.0000 0.0000 0.0000 0.0000 0.0000 15.0896
#
#
#
# Elastic Compliance Matrix: (Units=1/GPa)
#
#
# Indices 1 2 3 4 5 6 
#
# 1 0.032020 -0.011019 -0.001834 0.000000 0.000000 0.000000
# 2 -0.011019 0.021986 -0.005211 0.000000 0.000000 0.000000
# 3 -0.001834 -0.005211 0.009134 0.000000 0.000000 0.000000
# 4 0.000000 0.000000 0.000000 -0.004170 0.000000 0.000000
# 5 0.000000 0.000000 0.000000 0.000000 0.030540 0.000000
# 6 0.000000 0.000000 0.000000 0.000000 0.000000 0.066271
#
#
# Mechanical properties :
#
#
# Convention : Reuss Voigt Hill
#
# Bulk Modulus (GPa) = 37.01767 48.93346 42.97556
# Shear Modulus (GPa) = 24.88654 -27.99287 -1.55316
#
# Velocity S-wave (km/s) = 3.44030 -3.64870 -0.85946
# Velocity P-wave (km/s) = 5.77806 2.34976 4.41063
#
# Compressibility (1/GPa) = 0.02701412
#
# Stress axis : x y z
#
# Youngs Moduli (GPa) = 31.23037 45.48360 109.48051
#
# Poissons Ratio (x) = 0.50116 0.20073
# Poissons Ratio (y) = 0.34411 0.57050
# Poissons Ratio (z) = 0.05726 0.23701
#
# Static dielectric constant tensor:
#      x y z
#    x 1.765410 0.000000 0.000000 
#    y 0.000000 1.747280 0.000000 
#    z 0.000000 0.000000 1.842410 
# 
# From -- ./inp_files/23158.got.cif
#   From: 2010.05.17/outbox.cif.g08.bks.cpg/sg50_12_cif.got.tgz:23158.got - 2010.06.03 11:33:33.
