data_PCOD9396590
_publ_section_title
;
Structure prediction by ZEFSAII (Michael W. Deem and Ramdas Pophale) SiO2 
 PCOD9396590
Probable space group: P B A N
;
_chemical_formula_sum "Si O2"
_cell_formula_units_Z 30
_cell_length_a 16.270446
_cell_length_b 7.207220
_cell_length_c 12.913838
_cell_angle_alpha 90.000000
_cell_angle_beta 90.000000
_cell_angle_gamma 90.000000
_cell_volume 1514.337130
_symmetry_space_group_name_H-M "P B A N"
_symmetry_group_IT_number 50
_space_group.IT_coordinate_system_code '2'
_symmetry_cell_setting 'orthorhombic'
loop_
_space_group_symop_operation_xyz
x,y,z
1/2-x,1/2-y,z
x,1/2-y,-z
1/2-x,y,-z
-x,-y,-z
1/2+x,1/2+y,-z
-x,1/2+y,z
1/2+x,-y,z
loop_
_atom_site_type_symbol
_atom_site_label
_atom_site_fract_x
_atom_site_fract_y
_atom_site_fract_z
Si Si1 0.606028 0.056421 0.376413
Si Si2 0.750000 0.250000 0.500000
Si Si3 0.459343 0.250000 0.500000
Si Si4 0.402978 0.032069 0.017847
Si Si5 0.154511 0.727558 0.835797
O O1 0.688305 0.132506 0.429570
O O2 0.523781 0.134370 0.430568
O O3 0.608376 0.130249 0.259778
O O4 0.597766 0.844953 0.412987
O O5 0.380081 0.927427 0.125398
O O6 0.385564 0.250000 0.000000
O O7 0.500000 0.000000 0.000000
O O8 0.355184 0.914054 0.931304
O O9 0.250000 0.750000 0.809986
#
# Coordination Sequence:
#
# PCOD9396590 Si02
#       5
#     8   2   4   8   8
#     4  10  21  41  63  92 124 170 207 272 326 390
#     4  10  20  42  60  88 132 152 204 262 328 384
#     4   9  22  38  64  91 126 160 222 263 314 400
#     4  11  23  41  65  97 127 170 221 275 325 401
#     4  11  24  42  66  94 134 171 216 273 338 392
#
# _framework density 19.810648
#
# number of rings (size 3 to 8) (size 9 to 14) (size 15 to 20)
#    0.000    1.600    4.000    1.600    3.733    2.667 
#    9.600    2.667    0.000    0.000    0.000    0.000 
#    0.000    0.000    0.000    0.000    0.000    0.000 
#
# Total GULP energy -167058.256043 kJ/mol
# GULP energy per Si atom -5568.608535 kJ/mol
# Density = 1.976556 g / cm^3
# Si number density = 19.810648 Si / 1000 Ang^3
#
#
#
# Elastic Constant Matrix: (Units=GPa)
#
#
# Indices 1 2 3 4 5 6 
#
# 1 89.9539 28.6593 25.2870 0.0000 0.0000 0.0000
# 2 28.6593 118.2296 45.6743 0.0000 0.0000 0.0000
# 3 25.2870 45.6743 127.6365 0.0000 0.0000 0.0000
# 4 0.0000 0.0000 0.0000 36.7309 0.0000 0.0000
# 5 0.0000 0.0000 0.0000 0.0000 51.7619 0.0000
# 6 0.0000 0.0000 0.0000 0.0000 0.0000 26.3010
#
#
#
# Elastic Compliance Matrix: (Units=1/GPa)
#
#
# Indices 1 2 3 4 5 6 
#
# 1 0.012320 -0.002371 -0.001592 0.000000 0.000000 0.000000
# 2 -0.002371 0.010271 -0.003206 0.000000 0.000000 0.000000
# 3 -0.001592 -0.003206 0.009297 0.000000 0.000000 0.000000
# 4 0.000000 0.000000 0.000000 0.027225 0.000000 0.000000
# 5 0.000000 0.000000 0.000000 0.000000 0.019319 0.000000
# 6 0.000000 0.000000 0.000000 0.000000 0.000000 0.038021
#
#
# Mechanical properties :
#
#
# Convention : Reuss Voigt Hill
#
# Bulk Modulus (GPa) = 56.97989 59.45125 58.21557
# Shear Modulus (GPa) = 36.59174 38.70539 37.64856
#
# Velocity S-wave (km/s) = 4.30242 4.42494 4.36411
# Velocity P-wave (km/s) = 7.31477 7.49544 7.40566
#
# Compressibility (1/GPa) = 0.01755005
#
# Stress axis : x y z
#
# Youngs Moduli (GPa) = 81.16963 97.35791 107.55717
#
# Poissons Ratio (x) = 0.23086 0.17126
# Poissons Ratio (y) = 0.19248 0.34481
# Poissons Ratio (z) = 0.12924 0.31211
#
# Static dielectric constant tensor:
#      x y z
#    x 1.676800 0.000000 0.000000 
#    y 0.000000 1.852240 0.000000 
#    z 0.000000 0.000000 1.729230 
# 
# From -- ./inp_files/20723.got.cif
#   From: 2010.05.17/outbox.cif.g08.bks.cpg/sg50_11_cif.got.tgz:20723.got - 2010.06.03 11:33:33.
